0
                    3D
 Structure written by MMmdl.
158166  0  0  1  0            999 V2000
  -30.6809  -14.5922   20.5974 C   0  0  0  0  0  0
  -30.4307  -12.3892   19.4601 C   0  0  0  0  0  0
  -29.5073  -12.5285   18.2294 C   0  0  0  0  0  0
  -28.0300  -12.3573   18.6317 C   0  0  0  0  0  0
  -27.6554  -13.2137   19.8683 C   0  0  2  0  0  0
  -28.6885  -13.0274   20.9981 C   0  0  0  0  0  0
  -25.2541  -13.8152   20.5633 C   0  0  0  0  0  0
  -24.1818  -13.0427   20.9181 C   0  0  0  0  0  0
  -24.6380  -11.6900   20.8728 C   0  0  0  0  0  0
  -23.9047  -10.4286   21.0404 C   0  0  0  0  0  0
  -24.3604   -9.4204   21.9184 C   0  0  0  0  0  0
  -23.6282   -8.2234   22.0753 C   0  0  0  0  0  0
  -22.4263   -8.0273   21.3540 C   0  0  0  0  0  0
  -21.9900   -9.0244   20.4641 C   0  0  0  0  0  0
  -22.7222  -10.2125   20.3054 C   0  0  0  0  0  0
  -21.6855   -6.0727   22.5273 C   0  0  0  0  0  0
  -21.4009   -6.5629   23.8206 C   0  0  0  0  0  0
  -21.3659   -5.6787   24.9172 C   0  0  0  0  0  0
  -21.6048   -4.3052   24.7225 C   0  0  0  0  0  0
  -21.8821   -3.8142   23.4347 C   0  0  0  0  0  0
  -21.9188   -4.6953   22.3399 C   0  0  0  0  0  0
  -22.7846  -13.5225   21.1847 C   0  0  0  0  0  0
  -22.1664   -4.2137   21.0975 F   0  0  0  0  0  0
  -21.5631   -3.4538   25.7736 F   0  0  0  0  0  0
  -30.0179  -13.3895   20.4714 N   0  0  0  0  0  0
  -26.2983  -12.9339   20.3298 N   0  0  0  0  0  0
  -25.9304  -11.6492   20.5730 N   0  0  0  0  0  0
  -22.0490  -12.8223   22.0414 N   0  0  0  0  0  0
  -25.4197  -15.1861   20.3953 N   0  0  0  0  0  0
  -31.7524  -14.7877   20.0137 O   0  0  0  0  0  0
  -21.6633   -6.8868   21.4231 O   0  0  0  0  0  0
  -22.3527  -14.5524   20.6689 O   0  0  0  0  0  0
  -24.6231  -31.8613   23.2061 C   0  0  0  0  0  0
  -25.9097  -32.4776   23.8380 C   0  0  1  0  0  0
  -27.2277  -27.3475   20.1228 C   0  0  0  0  0  0
  -25.5916  -33.8572   24.2301 N   0  0  0  0  0  0
  -23.4160  -30.4861   21.5471 C   0  0  2  0  0  0
  -24.8631  -28.9411   20.1163 C   0  0  0  0  0  0
  -22.7451  -29.4639   22.4954 C   0  0  0  0  0  0
  -18.0279  -28.1376   22.8494 C   0  0  0  0  0  0
  -24.1486  -36.7285   23.2651 C   0  0  0  0  0  0
  -25.9541  -30.8022   21.3726 C   0  0  0  0  0  0
  -26.0298  -29.4314   20.7164 C   0  0  0  0  0  0
  -27.2175  -28.6476   20.7065 C   0  0  0  0  0  0
  -26.0431  -26.9024   19.4966 C   0  0  0  0  0  0
  -24.8683  -27.6788   19.5001 C   0  0  0  0  0  0
  -23.6293  -29.8180   20.1635 C   0  0  0  0  0  0
  -25.4114  -36.3073   24.0341 C   0  0  1  0  0  0
  -20.5882  -28.3682   23.1279 C   0  0  2  0  0  0
  -20.6769  -26.9415   22.5399 C   0  0  0  0  0  0
  -19.5745  -26.6385   21.5197 C   0  0  0  0  0  0
  -18.1922  -26.7923   22.1617 C   0  0  0  0  0  0
  -19.1538  -28.8844   23.2876 C   0  0  0  0  0  0
  -18.9458  -30.1443   23.8893 C   0  0  0  0  0  0
  -17.6463  -30.6584   24.0557 C   0  0  0  0  0  0
  -25.9042  -34.9441   23.5118 C   0  0  0  0  0  0
  -16.5349  -29.9081   23.6340 C   0  0  0  0  0  0
  -16.7265  -28.6492   23.0373 C   0  0  0  0  0  0
  -26.4510  -31.6583   25.0740 C   0  0  0  0  0  0
  -25.3758  -31.3652   26.1467 C   0  0  0  0  0  0
  -27.0423  -30.3037   24.6183 C   0  0  0  0  0  0
  -27.6074  -32.4332   25.7498 C   0  0  0  0  0  0
  -27.5579  -37.1786   24.8477 C   0  0  0  0  0  0
  -21.4173  -29.3028   22.3675 N   0  0  0  0  0  0
  -26.4293  -37.3771   23.9421 N   0  0  0  0  0  0
  -24.6827  -31.0660   22.0989 N   0  0  0  0  0  0
  -23.4183  -28.8192   23.3043 O   0  0  0  0  0  0
  -28.3567  -26.5260   20.1365 O   0  0  0  0  0  0
  -26.5614  -34.8909   22.4685 O   0  0  0  0  0  0
  -23.5403  -32.1406   23.7399 O   0  0  0  0  0  0
  -30.9094  -19.2474   20.0915 C   0  0  0  0  0  0
  -30.9722  -17.8576   20.3925 C   0  0  0  0  0  0
  -28.7407  -19.3820   21.0865 C   0  0  0  0  0  0
  -29.8014  -20.0600   20.4410 C   0  0  0  0  0  0
  -29.9313  -17.1687   21.0698 C   0  0  0  0  0  0
  -28.7892  -17.9856   21.3970 C   0  0  0  0  0  0
  -29.8195  -21.5430   20.1168 C   0  0  0  0  0  0
  -28.9207  -22.5473   20.3568 C   0  0  0  0  0  0
  -30.1008  -15.7043   21.5420 C   0  0  0  0  0  0
  -27.5146  -17.7795   23.5960 C   0  0  0  0  0  0
  -27.5557  -17.4247   22.1021 C   0  0  0  0  0  0
  -29.0909  -24.0363   19.9073 C   0  0  0  0  0  0
  -28.1855  -25.1339   20.5933 C   0  0  0  0  0  0
  -29.8198  -15.4217   22.7464 N   0  0  0  0  0  0
  -31.4743  -12.5010   19.1613 H   0  0  0  0  0  0
  -30.3567  -11.3846   19.8794 H   0  0  0  0  0  0
  -29.7754  -11.7898   17.4726 H   0  0  0  0  0  0
  -29.6526  -13.5075   17.7699 H   0  0  0  0  0  0
  -27.8681  -11.3019   18.8555 H   0  0  0  0  0  0
  -27.3756  -12.5950   17.7921 H   0  0  0  0  0  0
  -27.6900  -14.2576   19.5550 H   0  0  0  0  0  0
  -28.6969  -11.9893   21.3344 H   0  0  0  0  0  0
  -28.3828  -13.5998   21.8697 H   0  0  0  0  0  0
  -25.2749   -9.5685   22.4757 H   0  0  0  0  0  0
  -23.9986   -7.4634   22.7486 H   0  0  0  0  0  0
  -21.0826   -8.8763   19.8958 H   0  0  0  0  0  0
  -22.3677  -10.9662   19.6162 H   0  0  0  0  0  0
  -21.2003   -7.6138   23.9701 H   0  0  0  0  0  0
  -21.1484   -6.0522   25.9071 H   0  0  0  0  0  0
  -22.0602   -2.7604   23.2849 H   0  0  0  0  0  0
  -22.4111  -11.9889   22.4805 H   0  0  0  0  0  0
  -21.1112  -13.1258   22.2617 H   0  0  0  0  0  0
  -24.6445  -15.8336   20.4864 H   0  0  0  0  0  0
  -26.2586  -15.6204   20.0341 H   0  0  0  0  0  0
  -26.7165  -32.5473   23.1135 H   0  0  0  0  0  0
  -25.0089  -33.9718   25.0461 H   0  0  0  0  0  0
  -22.7078  -31.3060   21.4045 H   0  0  0  0  0  0
  -23.3751  -35.9613   23.3311 H   0  0  0  0  0  0
  -24.3567  -36.8910   22.2066 H   0  0  0  0  0  0
  -23.7234  -37.6479   23.6683 H   0  0  0  0  0  0
  -26.0845  -31.5686   20.6072 H   0  0  0  0  0  0
  -26.8342  -30.8480   22.0025 H   0  0  0  0  0  0
  -28.1171  -29.0215   21.1753 H   0  0  0  0  0  0
  -26.0186  -25.9415   19.0035 H   0  0  0  0  0  0
  -23.9735  -27.2973   19.0264 H   0  0  0  0  0  0
  -23.7458  -30.5927   19.4049 H   0  0  0  0  0  0
  -22.7502  -29.2445   19.8656 H   0  0  0  0  0  0
  -25.1293  -36.1927   25.0832 H   0  0  0  0  0  0
  -20.9973  -28.3267   24.1398 H   0  0  0  0  0  0
  -20.5661  -26.2300   23.3599 H   0  0  0  0  0  0
  -21.6641  -26.7454   22.1190 H   0  0  0  0  0  0
  -19.6911  -25.6295   21.1221 H   0  0  0  0  0  0
  -19.6679  -27.3197   20.6725 H   0  0  0  0  0  0
  -17.4202  -26.6684   21.4007 H   0  0  0  0  0  0
  -18.0312  -26.0048   22.8997 H   0  0  0  0  0  0
  -19.7937  -30.7252   24.2263 H   0  0  0  0  0  0
  -17.5031  -31.6267   24.5154 H   0  0  0  0  0  0
  -15.5352  -30.2988   23.7675 H   0  0  0  0  0  0
  -15.8660  -28.0801   22.7122 H   0  0  0  0  0  0
  -24.5938  -30.7011   25.7769 H   0  0  0  0  0  0
  -24.8934  -32.2784   26.4959 H   0  0  0  0  0  0
  -25.8099  -30.8775   27.0205 H   0  0  0  0  0  0
  -26.3008  -29.6660   24.1355 H   0  0  0  0  0  0
  -27.4339  -29.7401   25.4665 H   0  0  0  0  0  0
  -27.8758  -30.4384   23.9282 H   0  0  0  0  0  0
  -27.2706  -33.3652   26.2050 H   0  0  0  0  0  0
  -28.3879  -32.6851   25.0305 H   0  0  0  0  0  0
  -28.0755  -31.8473   26.5423 H   0  0  0  0  0  0
  -28.2586  -38.0093   24.7555 H   0  0  0  0  0  0
  -28.1078  -36.2624   24.6275 H   0  0  0  0  0  0
  -27.2289  -37.1403   25.8874 H   0  0  0  0  0  0
  -20.9353  -29.8730   21.6865 H   0  0  0  0  0  0
  -26.0168  -38.2835   24.1437 H   0  0  0  0  0  0
  -31.7558  -19.6981   19.5929 H   0  0  0  0  0  0
  -31.8761  -17.3274   20.1275 H   0  0  0  0  0  0
  -27.8627  -19.9466   21.3669 H   0  0  0  0  0  0
  -30.7113  -21.8505   19.5874 H   0  0  0  0  0  0
  -28.0006  -22.3153   20.8754 H   0  0  0  0  0  0
  -26.6266  -17.3556   24.0665 H   0  0  0  0  0  0
  -27.4837  -18.8582   23.7485 H   0  0  0  0  0  0
  -28.3834  -17.3961   24.1305 H   0  0  0  0  0  0
  -27.4709  -16.3478   21.9669 H   0  0  0  0  0  0
  -26.6671  -17.8337   21.6189 H   0  0  0  0  0  0
  -28.8939  -24.0669   18.8348 H   0  0  0  0  0  0
  -30.1398  -24.3112   20.0237 H   0  0  0  0  0  0
  -28.4013  -25.1329   21.6622 H   0  0  0  0  0  0
  -27.1496  -24.8051   20.5188 H   0  0  0  0  0  0
  -29.4797  -16.2449   23.2277 H   0  0  0  0  0  0
  1 25  1  0  0  0
  1 30  2  0  0  0
  1 79  1  0  0  0
  2  3  1  0  0  0
  2 25  1  0  0  0
  2 85  1  0  0  0
  2 86  1  0  0  0
  3  4  1  0  0  0
  3 87  1  0  0  0
  3 88  1  0  0  0
  4  5  1  0  0  0
  4 89  1  0  0  0
  4 90  1  0  0  0
  5  6  1  0  0  0
  5 26  1  0  0  0
  5 91  1  0  0  0
  6 25  1  0  0  0
  6 92  1  0  0  0
  6 93  1  0  0  0
  7  8  2  0  0  0
  7 26  1  0  0  0
  7 29  1  0  0  0
  8  9  1  0  0  0
  8 22  1  0  0  0
  9 10  1  0  0  0
  9 27  2  0  0  0
 10 11  2  0  0  0
 10 15  1  0  0  0
 11 12  1  0  0  0
 11 94  1  0  0  0
 12 13  2  0  0  0
 12 95  1  0  0  0
 13 14  1  0  0  0
 13 31  1  0  0  0
 14 15  2  0  0  0
 14 96  1  0  0  0
 15 97  1  0  0  0
 16 17  2  0  0  0
 16 21  1  0  0  0
 16 31  1  0  0  0
 17 18  1  0  0  0
 17 98  1  0  0  0
 18 19  2  0  0  0
 18 99  1  0  0  0
 19 20  1  0  0  0
 19 24  1  0  0  0
 20 21  2  0  0  0
 20100  1  0  0  0
 21 23  1  0  0  0
 22 28  1  0  0  0
 22 32  2  0  0  0
 26 27  1  0  0  0
 28101  1  0  0  0
 28102  1  0  0  0
 29103  1  0  0  0
 29104  1  0  0  0
 33 34  1  0  0  0
 33 66  1  0  0  0
 33 70  2  0  0  0
 34 36  1  0  0  0
 34 59  1  0  0  0
 34105  1  0  0  0
 35 44  2  0  0  0
 35 45  1  0  0  0
 35 68  1  0  0  0
 36 56  1  0  0  0
 36106  1  0  0  0
 37 39  1  0  0  0
 37 47  1  0  0  0
 37 66  1  0  0  0
 37107  1  0  0  0
 38 43  2  0  0  0
 38 46  1  0  0  0
 38 47  1  0  0  0
 39 64  1  0  0  0
 39 67  2  0  0  0
 40 52  1  0  0  0
 40 53  2  0  0  0
 40 58  1  0  0  0
 41108  1  0  0  0
 41109  1  0  0  0
 41110  1  0  0  0
 41 48  1  0  0  0
 42 43  1  0  0  0
 42 66  1  0  0  0
 42111  1  0  0  0
 42112  1  0  0  0
 43 44  1  0  0  0
 44113  1  0  0  0
 45 46  2  0  0  0
 45114  1  0  0  0
 46115  1  0  0  0
 47116  1  0  0  0
 47117  1  0  0  0
 48 56  1  0  0  0
 48 65  1  0  0  0
 48118  1  0  0  0
 49 50  1  0  0  0
 49 53  1  0  0  0
 49 64  1  0  0  0
 49119  1  0  0  0
 50 51  1  0  0  0
 50120  1  0  0  0
 50121  1  0  0  0
 51 52  1  0  0  0
 51122  1  0  0  0
 51123  1  0  0  0
 52124  1  0  0  0
 52125  1  0  0  0
 53 54  1  0  0  0
 54 55  2  0  0  0
 54126  1  0  0  0
 55 57  1  0  0  0
 55127  1  0  0  0
 56 69  2  0  0  0
 57 58  2  0  0  0
 57128  1  0  0  0
 58129  1  0  0  0
 59 60  1  0  0  0
 59 61  1  0  0  0
 59 62  1  0  0  0
 60130  1  0  0  0
 60131  1  0  0  0
 60132  1  0  0  0
 61133  1  0  0  0
 61134  1  0  0  0
 61135  1  0  0  0
 62136  1  0  0  0
 62137  1  0  0  0
 62138  1  0  0  0
 63 65  1  0  0  0
 63139  1  0  0  0
 63140  1  0  0  0
 63141  1  0  0  0
 64142  1  0  0  0
 65143  1  0  0  0
 68 83  1  0  0  0
 71 72  2  0  0  0
 71 74  1  0  0  0
 71144  1  0  0  0
 72 75  1  0  0  0
 72145  1  0  0  0
 73 74  2  0  0  0
 73 76  1  0  0  0
 73146  1  0  0  0
 74 77  1  0  0  0
 75 76  2  0  0  0
 75 79  1  0  0  0
 76 81  1  0  0  0
 77 78  2  0  0  0
 77147  1  0  0  0
 78 82  1  0  0  0
 78148  1  0  0  0
 79 84  2  0  0  0
 80 81  1  0  0  0
 80149  1  0  0  0
 80150  1  0  0  0
 80151  1  0  0  0
 81152  1  0  0  0
 81153  1  0  0  0
 82 83  1  0  0  0
 82154  1  0  0  0
 82155  1  0  0  0
 83156  1  0  0  0
 83157  1  0  0  0
 84158  1  0  0  0
M  ISO  4   1 100  68 101  79 100  83 101
M  END
> <chiral flag>
0

> <version>
0

> <s_m_source_file>
/data/baiqing/PycharmProjects/Reinvent-master-3.2/result/LINK_invent/BTK/process_docking_weight1_custom_product_contain_oxygen_bond_distance_aromatic_linkinvent_7_9_3/rearranged_h_0124.sdf

> <i_m_source_file_index>
1

> <r_mmod_Potential_Energy-OPLS-2005>
226.382202148438

> <r_mmod_Stretch_Energy-OPLS-2005>
81.3238372802734

> <r_mmod_Bend_Energy-OPLS-2005>
134.300155639648

> <r_mmod_Torsional_Energy-OPLS-2005>
224.158462524414

> <r_mmod_Improper_Torsional_Energy-OPLS-2005>
3.16041398048401

> <r_mmod_Van_der_Waal_Energy-OPLS-2005>
147.332794189453

> <r_mmod_Electrostatic_Energy-OPLS-2005>
-212.871871948242

> <r_mmod_Solvation_Energy-OPLS-2005>
-184.591903686523

> <b_mmod_Minimization_Converged-OPLS-2005>
0

> <r_mmod_RMS_Derivative-OPLS-2005>
1.48252952098846

$$$$
1
                    3D
 Structure written by MMmdl.
158166  0  0  1  0            999 V2000
  -30.7338  -14.4143   20.7735 C   0  0  0  0  0  0
  -30.4185  -12.3686   19.3975 C   0  0  0  0  0  0
  -29.4893  -12.6299   18.2023 C   0  0  0  0  0  0
  -28.0065  -12.4697   18.5928 C   0  0  0  0  0  0
  -27.6647  -13.2162   19.9083 C   0  0  2  0  0  0
  -28.7027  -12.9281   21.0144 C   0  0  0  0  0  0
  -25.2551  -13.8183   20.5753 C   0  0  0  0  0  0
  -24.1812  -13.0440   20.9211 C   0  0  0  0  0  0
  -24.6367  -11.6904   20.8728 C   0  0  0  0  0  0
  -23.9027  -10.4291   21.0388 C   0  0  0  0  0  0
  -24.3592   -9.4237   21.9191 C   0  0  0  0  0  0
  -23.6310   -8.2241   22.0726 C   0  0  0  0  0  0
  -22.4299   -8.0265   21.3514 C   0  0  0  0  0  0
  -21.9925   -9.0246   20.4625 C   0  0  0  0  0  0
  -22.7205  -10.2148   20.3048 C   0  0  0  0  0  0
  -21.6836   -6.0756   22.5304 C   0  0  0  0  0  0
  -21.3972   -6.5647   23.8259 C   0  0  0  0  0  0
  -21.3694   -5.6792   24.9223 C   0  0  0  0  0  0
  -21.6087   -4.3068   24.7223 C   0  0  0  0  0  0
  -21.8802   -3.8147   23.4344 C   0  0  0  0  0  0
  -21.9178   -4.6976   22.3419 C   0  0  0  0  0  0
  -22.7836  -13.5264   21.1873 C   0  0  0  0  0  0
  -22.1646   -4.2175   21.0977 F   0  0  0  0  0  0
  -21.5705   -3.4548   25.7749 F   0  0  0  0  0  0
  -30.0356  -13.2801   20.4859 N   0  0  0  0  0  0
  -26.3022  -12.9353   20.3514 N   0  0  0  0  0  0
  -25.9301  -11.6487   20.5734 N   0  0  0  0  0  0
  -22.0394  -12.8312   22.0413 N   0  0  0  0  0  0
  -25.4238  -15.1912   20.4202 N   0  0  0  0  0  0
  -31.6731  -14.8090   20.0705 O   0  0  0  0  0  0
  -21.6628   -6.8901   21.4256 O   0  0  0  0  0  0
  -22.3590  -14.5597   20.6742 O   0  0  0  0  0  0
  -24.6249  -31.8560   23.1987 C   0  0  0  0  0  0
  -25.9133  -32.4715   23.8325 C   0  0  1  0  0  0
  -27.2787  -27.3584   20.1528 C   0  0  0  0  0  0
  -25.5928  -33.8507   24.2187 N   0  0  0  0  0  0
  -23.4227  -30.4677   21.5378 C   0  0  2  0  0  0
  -24.8913  -28.9308   20.1202 C   0  0  0  0  0  0
  -22.7497  -29.4563   22.4964 C   0  0  0  0  0  0
  -18.0251  -28.1407   22.8498 C   0  0  0  0  0  0
  -24.1500  -36.7278   23.2631 C   0  0  0  0  0  0
  -25.9667  -30.8025   21.3842 C   0  0  0  0  0  0
  -26.0542  -29.4415   20.7094 C   0  0  0  0  0  0
  -27.2536  -28.6774   20.6937 C   0  0  0  0  0  0
  -26.0841  -26.8751   19.5676 C   0  0  0  0  0  0
  -24.9110  -27.6521   19.5363 C   0  0  0  0  0  0
  -23.6443  -29.7862   20.1596 C   0  0  0  0  0  0
  -25.4144  -36.3026   24.0277 C   0  0  1  0  0  0
  -20.5862  -28.3679   23.1365 C   0  0  2  0  0  0
  -20.6776  -26.9400   22.5491 C   0  0  0  0  0  0
  -19.5738  -26.6350   21.5306 C   0  0  0  0  0  0
  -18.1903  -26.7956   22.1652 C   0  0  0  0  0  0
  -19.1518  -28.8854   23.2901 C   0  0  0  0  0  0
  -18.9437  -30.1486   23.8859 C   0  0  0  0  0  0
  -17.6438  -30.6609   24.0541 C   0  0  0  0  0  0
  -25.9090  -34.9410   23.5032 C   0  0  0  0  0  0
  -16.5311  -29.9094   23.6358 C   0  0  0  0  0  0
  -16.7246  -28.6521   23.0361 C   0  0  0  0  0  0
  -26.4466  -31.6568   25.0759 C   0  0  0  0  0  0
  -25.3582  -31.3863   26.1390 C   0  0  0  0  0  0
  -27.0381  -30.2903   24.6492 C   0  0  0  0  0  0
  -27.5938  -32.4373   25.7629 C   0  0  0  0  0  0
  -27.5588  -37.1813   24.8412 C   0  0  0  0  0  0
  -21.4225  -29.2974   22.3742 N   0  0  0  0  0  0
  -26.4287  -37.3748   23.9370 N   0  0  0  0  0  0
  -24.6829  -31.0616   22.0915 N   0  0  0  0  0  0
  -23.4236  -28.8152   23.3086 O   0  0  0  0  0  0
  -28.4373  -26.5742   20.2285 O   0  0  0  0  0  0
  -26.5693  -34.8885   22.4628 O   0  0  0  0  0  0
  -23.5420  -32.1369   23.7307 O   0  0  0  0  0  0
  -30.0635  -17.9247   20.6978 C   0  0  0  0  0  0
  -29.9738  -19.2720   20.2554 C   0  0  0  0  0  0
  -29.4969  -19.9860   22.5032 C   0  0  0  0  0  0
  -29.9203  -17.5718   22.0577 C   0  0  0  0  0  0
  -29.5442  -18.6315   22.9553 C   0  0  0  0  0  0
  -29.7413  -20.3536   21.1485 C   0  0  0  0  0  0
  -30.1562  -16.1713   22.5826 C   0  0  0  0  0  0
  -30.4579  -14.9254   22.1149 C   0  0  0  0  0  0
  -29.2345  -22.7301   21.1574 C   0  0  0  0  0  0
  -28.4120  -19.2719   25.2737 C   0  0  0  0  0  0
  -29.2214  -18.2772   24.4199 C   0  0  0  0  0  0
  -29.5036  -24.2453   20.8305 C   0  0  0  0  0  0
  -28.3263  -25.1020   20.1918 C   0  0  0  0  0  0
  -29.8506  -21.7014   20.6622 N   0  0  0  0  0  0
  -31.4593  -12.5052   19.1066 H   0  0  0  0  0  0
  -30.3320  -11.3365   19.7432 H   0  0  0  0  0  0
  -29.7572  -11.9770   17.3739 H   0  0  0  0  0  0
  -29.6507  -13.6472   17.8422 H   0  0  0  0  0  0
  -27.7756  -11.4069   18.6768 H   0  0  0  0  0  0
  -27.3783  -12.8597   17.7892 H   0  0  0  0  0  0
  -27.7302  -14.2872   19.7040 H   0  0  0  0  0  0
  -28.6870  -11.8668   21.2770 H   0  0  0  0  0  0
  -28.4275  -13.4556   21.9262 H   0  0  0  0  0  0
  -25.2723   -9.5780   22.4800 H   0  0  0  0  0  0
  -24.0086   -7.4619   22.7420 H   0  0  0  0  0  0
  -21.0876   -8.8762   19.8896 H   0  0  0  0  0  0
  -22.3666  -10.9719   19.6174 H   0  0  0  0  0  0
  -21.1871   -7.6136   23.9797 H   0  0  0  0  0  0
  -21.1584   -6.0487   25.9170 H   0  0  0  0  0  0
  -22.0532   -2.7592   23.2804 H   0  0  0  0  0  0
  -22.3888  -11.9985   22.4897 H   0  0  0  0  0  0
  -21.0997  -13.1429   22.2505 H   0  0  0  0  0  0
  -24.6428  -15.8341   20.5153 H   0  0  0  0  0  0
  -26.2955  -15.6534   20.1880 H   0  0  0  0  0  0
  -26.7247  -32.5408   23.1126 H   0  0  0  0  0  0
  -24.9939  -33.9623   25.0224 H   0  0  0  0  0  0
  -22.7156  -31.2830   21.3800 H   0  0  0  0  0  0
  -23.3744  -35.9622   23.3246 H   0  0  0  0  0  0
  -24.3556  -36.8973   22.2049 H   0  0  0  0  0  0
  -23.7285  -37.6460   23.6726 H   0  0  0  0  0  0
  -26.1522  -31.5953   20.6568 H   0  0  0  0  0  0
  -26.8183  -30.8014   22.0537 H   0  0  0  0  0  0
  -28.1536  -29.0848   21.1369 H   0  0  0  0  0  0
  -26.0389  -25.8810   19.1518 H   0  0  0  0  0  0
  -24.0213  -27.2363   19.0849 H   0  0  0  0  0  0
  -23.7506  -30.5469   19.3870 H   0  0  0  0  0  0
  -22.7822  -29.1827   19.8687 H   0  0  0  0  0  0
  -25.1361  -36.1831   25.0773 H   0  0  0  0  0  0
  -20.9920  -28.3248   24.1506 H   0  0  0  0  0  0
  -20.5794  -26.2244   23.3680 H   0  0  0  0  0  0
  -21.6633  -26.7523   22.1198 H   0  0  0  0  0  0
  -19.6893  -25.6255   21.1348 H   0  0  0  0  0  0
  -19.6712  -27.3154   20.6847 H   0  0  0  0  0  0
  -17.4233  -26.6777   21.3987 H   0  0  0  0  0  0
  -18.0179  -26.0081   22.9009 H   0  0  0  0  0  0
  -19.7913  -30.7326   24.2190 H   0  0  0  0  0  0
  -17.4984  -31.6299   24.5141 H   0  0  0  0  0  0
  -15.5309  -30.2978   23.7707 H   0  0  0  0  0  0
  -15.8654  -28.0836   22.7098 H   0  0  0  0  0  0
  -24.5692  -30.7290   25.7699 H   0  0  0  0  0  0
  -24.8830  -32.3110   26.4680 H   0  0  0  0  0  0
  -25.7709  -30.9081   27.0268 H   0  0  0  0  0  0
  -26.3162  -29.6650   24.1198 H   0  0  0  0  0  0
  -27.3546  -29.7174   25.5240 H   0  0  0  0  0  0
  -27.9224  -30.4010   24.0191 H   0  0  0  0  0  0
  -27.2388  -33.3626   26.2187 H   0  0  0  0  0  0
  -28.3802  -32.7011   25.0548 H   0  0  0  0  0  0
  -28.0543  -31.8522   26.5598 H   0  0  0  0  0  0
  -28.2537  -38.0179   24.7505 H   0  0  0  0  0  0
  -28.1147  -36.2696   24.6172 H   0  0  0  0  0  0
  -27.2284  -37.1377   25.8802 H   0  0  0  0  0  0
  -20.9457  -29.8535   21.6793 H   0  0  0  0  0  0
  -26.0132  -38.2799   24.1360 H   0  0  0  0  0  0
  -30.2535  -17.1459   19.9745 H   0  0  0  0  0  0
  -30.1010  -19.4667   19.1991 H   0  0  0  0  0  0
  -29.2909  -20.7725   23.2144 H   0  0  0  0  0  0
  -30.0884  -16.0962   23.6550 H   0  0  0  0  0  0
  -30.5336  -14.1622   22.8811 H   0  0  0  0  0  0
  -28.4787  -22.5991   21.9320 H   0  0  0  0  0  0
  -28.2440  -18.8445   26.2663 H   0  0  0  0  0  0
  -27.4215  -19.4534   24.8531 H   0  0  0  0  0  0
  -28.9173  -20.2251   25.4307 H   0  0  0  0  0  0
  -30.1594  -18.0267   24.9213 H   0  0  0  0  0  0
  -28.6150  -17.3708   24.4205 H   0  0  0  0  0  0
  -30.4120  -24.3259   20.2275 H   0  0  0  0  0  0
  -29.7579  -24.7056   21.7877 H   0  0  0  0  0  0
  -27.3983  -24.8069   20.6785 H   0  0  0  0  0  0
  -28.2301  -24.8176   19.1458 H   0  0  0  0  0  0
  1 25  1  0  0  0
  1 30  2  0  0  0
  1 78  1  0  0  0
  2  3  1  0  0  0
  2 25  1  0  0  0
  2 85  1  0  0  0
  2 86  1  0  0  0
  3  4  1  0  0  0
  3 87  1  0  0  0
  3 88  1  0  0  0
  4  5  1  0  0  0
  4 89  1  0  0  0
  4 90  1  0  0  0
  5  6  1  0  0  0
  5 26  1  0  0  0
  5 91  1  0  0  0
  6 25  1  0  0  0
  6 92  1  0  0  0
  6 93  1  0  0  0
  7  8  2  0  0  0
  7 26  1  0  0  0
  7 29  1  0  0  0
  8  9  1  0  0  0
  8 22  1  0  0  0
  9 10  1  0  0  0
  9 27  2  0  0  0
 10 11  2  0  0  0
 10 15  1  0  0  0
 11 12  1  0  0  0
 11 94  1  0  0  0
 12 13  2  0  0  0
 12 95  1  0  0  0
 13 14  1  0  0  0
 13 31  1  0  0  0
 14 15  2  0  0  0
 14 96  1  0  0  0
 15 97  1  0  0  0
 16 17  2  0  0  0
 16 21  1  0  0  0
 16 31  1  0  0  0
 17 18  1  0  0  0
 17 98  1  0  0  0
 18 19  2  0  0  0
 18 99  1  0  0  0
 19 20  1  0  0  0
 19 24  1  0  0  0
 20 21  2  0  0  0
 20100  1  0  0  0
 21 23  1  0  0  0
 22 28  1  0  0  0
 22 32  2  0  0  0
 26 27  1  0  0  0
 28101  1  0  0  0
 28102  1  0  0  0
 29103  1  0  0  0
 29104  1  0  0  0
 33 34  1  0  0  0
 33 66  1  0  0  0
 33 70  2  0  0  0
 34 36  1  0  0  0
 34 59  1  0  0  0
 34105  1  0  0  0
 35 44  2  0  0  0
 35 45  1  0  0  0
 35 68  1  0  0  0
 36 56  1  0  0  0
 36106  1  0  0  0
 37 39  1  0  0  0
 37 47  1  0  0  0
 37 66  1  0  0  0
 37107  1  0  0  0
 38 43  2  0  0  0
 38 46  1  0  0  0
 38 47  1  0  0  0
 39 64  1  0  0  0
 39 67  2  0  0  0
 40 52  1  0  0  0
 40 53  2  0  0  0
 40 58  1  0  0  0
 41108  1  0  0  0
 41109  1  0  0  0
 41110  1  0  0  0
 41 48  1  0  0  0
 42 43  1  0  0  0
 42 66  1  0  0  0
 42111  1  0  0  0
 42112  1  0  0  0
 43 44  1  0  0  0
 44113  1  0  0  0
 45 46  2  0  0  0
 45114  1  0  0  0
 46115  1  0  0  0
 47116  1  0  0  0
 47117  1  0  0  0
 48 56  1  0  0  0
 48 65  1  0  0  0
 48118  1  0  0  0
 49 50  1  0  0  0
 49 53  1  0  0  0
 49 64  1  0  0  0
 49119  1  0  0  0
 50 51  1  0  0  0
 50120  1  0  0  0
 50121  1  0  0  0
 51 52  1  0  0  0
 51122  1  0  0  0
 51123  1  0  0  0
 52124  1  0  0  0
 52125  1  0  0  0
 53 54  1  0  0  0
 54 55  2  0  0  0
 54126  1  0  0  0
 55 57  1  0  0  0
 55127  1  0  0  0
 56 69  2  0  0  0
 57 58  2  0  0  0
 57128  1  0  0  0
 58129  1  0  0  0
 59 60  1  0  0  0
 59 61  1  0  0  0
 59 62  1  0  0  0
 60130  1  0  0  0
 60131  1  0  0  0
 60132  1  0  0  0
 61133  1  0  0  0
 61134  1  0  0  0
 61135  1  0  0  0
 62136  1  0  0  0
 62137  1  0  0  0
 62138  1  0  0  0
 63 65  1  0  0  0
 63139  1  0  0  0
 63140  1  0  0  0
 63141  1  0  0  0
 64142  1  0  0  0
 65143  1  0  0  0
 68 83  1  0  0  0
 71 72  2  0  0  0
 71 74  1  0  0  0
 71144  1  0  0  0
 72 76  1  0  0  0
 72145  1  0  0  0
 73 75  1  0  0  0
 73 76  2  0  0  0
 73146  1  0  0  0
 74 75  2  0  0  0
 74 77  1  0  0  0
 75 81  1  0  0  0
 76 84  1  0  0  0
 77 78  2  0  0  0
 77147  1  0  0  0
 78148  1  0  0  0
 79 82  1  0  0  0
 79 84  2  0  0  0
 79149  1  0  0  0
 80 81  1  0  0  0
 80150  1  0  0  0
 80151  1  0  0  0
 80152  1  0  0  0
 81153  1  0  0  0
 81154  1  0  0  0
 82 83  1  0  0  0
 82155  1  0  0  0
 82156  1  0  0  0
 83157  1  0  0  0
 83158  1  0  0  0
M  ISO  4   1 100  68 101  78 100  83 101
M  END
> <chiral flag>
0

> <version>
0

> <s_m_source_file>
/data/baiqing/PycharmProjects/Reinvent-master-3.2/result/LINK_invent/BTK/process_docking_weight1_custom_product_contain_oxygen_bond_distance_aromatic_linkinvent_7_9_3/rearranged_h_0124.sdf

> <i_m_source_file_index>
2

> <r_mmod_Potential_Energy-OPLS-2005>
75.3388977050781

> <r_mmod_Stretch_Energy-OPLS-2005>
72.7585678100586

> <r_mmod_Bend_Energy-OPLS-2005>
174.916595458984

> <r_mmod_Torsional_Energy-OPLS-2005>
203.704925537109

> <r_mmod_Improper_Torsional_Energy-OPLS-2005>
6.49484872817993

> <r_mmod_Van_der_Waal_Energy-OPLS-2005>
153.616195678711

> <r_mmod_Electrostatic_Energy-OPLS-2005>
-365.489440917969

> <r_mmod_Solvation_Energy-OPLS-2005>
-200.576690673828

> <b_mmod_Minimization_Converged-OPLS-2005>
0

> <r_mmod_RMS_Derivative-OPLS-2005>
8.1838903427124

$$$$
2
                    3D
 Structure written by MMmdl.
160168  0  0  1  0            999 V2000
  -30.7173  -14.4200   20.6435 C   0  0  0  0  0  0
  -30.4267  -12.3009   19.4082 C   0  0  0  0  0  0
  -29.4942  -12.5276   18.2013 C   0  0  0  0  0  0
  -28.0156  -12.3784   18.6124 C   0  0  0  0  0  0
  -27.6681  -13.2014   19.8810 C   0  0  2  0  0  0
  -28.7047  -12.9404   20.9960 C   0  0  0  0  0  0
  -25.2614  -13.8156   20.5655 C   0  0  0  0  0  0
  -24.1857  -13.0442   20.9161 C   0  0  0  0  0  0
  -24.6399  -11.6910   20.8711 C   0  0  0  0  0  0
  -23.9050  -10.4303   21.0386 C   0  0  0  0  0  0
  -24.3614   -9.4218   21.9160 C   0  0  0  0  0  0
  -23.6297   -8.2254   22.0736 C   0  0  0  0  0  0
  -22.4278   -8.0283   21.3535 C   0  0  0  0  0  0
  -21.9902   -9.0250   20.4633 C   0  0  0  0  0  0
  -22.7221  -10.2134   20.3029 C   0  0  0  0  0  0
  -21.6859   -6.0728   22.5272 C   0  0  0  0  0  0
  -21.4020   -6.5633   23.8205 C   0  0  0  0  0  0
  -21.3660   -5.6785   24.9166 C   0  0  0  0  0  0
  -21.6048   -4.3047   24.7216 C   0  0  0  0  0  0
  -21.8826   -3.8137   23.4338 C   0  0  0  0  0  0
  -21.9206   -4.6956   22.3395 C   0  0  0  0  0  0
  -22.7879  -13.5240   21.1828 C   0  0  0  0  0  0
  -22.1667   -4.2147   21.0969 F   0  0  0  0  0  0
  -21.5632   -3.4527   25.7723 F   0  0  0  0  0  0
  -30.0467  -13.2506   20.4639 N   0  0  0  0  0  0
  -26.3053  -12.9319   20.3374 N   0  0  0  0  0  0
  -25.9322  -11.6486   20.5766 N   0  0  0  0  0  0
  -22.0523  -12.8236   22.0394 N   0  0  0  0  0  0
  -25.4379  -15.1868   20.4039 N   0  0  0  0  0  0
  -31.7701  -14.6962   20.0574 O   0  0  0  0  0  0
  -21.6647   -6.8875   21.4236 O   0  0  0  0  0  0
  -22.3558  -14.5541   20.6671 O   0  0  0  0  0  0
  -24.6147  -31.8693   23.2120 C   0  0  0  0  0  0
  -25.9053  -32.4828   23.8407 C   0  0  1  0  0  0
  -27.2320  -27.4465   20.0823 C   0  0  0  0  0  0
  -25.5928  -33.8628   24.2343 N   0  0  0  0  0  0
  -23.3991  -30.4971   21.5529 C   0  0  2  0  0  0
  -24.8407  -28.9652   20.1145 C   0  0  0  0  0  0
  -22.7388  -29.4681   22.4981 C   0  0  0  0  0  0
  -18.0268  -28.1372   22.8488 C   0  0  0  0  0  0
  -24.1494  -36.7325   23.2639 C   0  0  0  0  0  0
  -25.9272  -30.8369   21.3629 C   0  0  0  0  0  0
  -26.0019  -29.4725   20.7102 C   0  0  0  0  0  0
  -27.1968  -28.7199   20.6935 C   0  0  0  0  0  0
  -26.0449  -26.9450   19.4954 C   0  0  0  0  0  0
  -24.8567  -27.6989   19.5077 C   0  0  0  0  0  0
  -23.6045  -29.8340   20.1652 C   0  0  0  0  0  0
  -25.4111  -36.3114   24.0333 C   0  0  1  0  0  0
  -20.5855  -28.3669   23.1296 C   0  0  2  0  0  0
  -20.6767  -26.9406   22.5397 C   0  0  0  0  0  0
  -19.5753  -26.6379   21.5195 C   0  0  0  0  0  0
  -18.1926  -26.7921   22.1602 C   0  0  0  0  0  0
  -19.1518  -28.8832   23.2901 C   0  0  0  0  0  0
  -18.9455  -30.1436   23.8924 C   0  0  0  0  0  0
  -17.6462  -30.6587   24.0568 C   0  0  0  0  0  0
  -25.9036  -34.9473   23.5115 C   0  0  0  0  0  0
  -16.5349  -29.9088   23.6328 C   0  0  0  0  0  0
  -16.7258  -28.6498   23.0356 C   0  0  0  0  0  0
  -26.4494  -31.6610   25.0731 C   0  0  0  0  0  0
  -25.3774  -31.3695   26.1495 C   0  0  0  0  0  0
  -27.0329  -30.3060   24.6094 C   0  0  0  0  0  0
  -27.6066  -32.4333   25.7489 C   0  0  0  0  0  0
  -27.5584  -37.1812   24.8467 C   0  0  0  0  0  0
  -21.4118  -29.3045   22.3707 N   0  0  0  0  0  0
  -26.4297  -37.3795   23.9403 N   0  0  0  0  0  0
  -24.6657  -31.0812   22.1011 N   0  0  0  0  0  0
  -23.4160  -28.8218   23.3017 O   0  0  0  0  0  0
  -28.4242  -26.7483   20.0821 O   0  0  0  0  0  0
  -26.5582  -34.8916   22.4672 O   0  0  0  0  0  0
  -23.5344  -32.1447   23.7522 O   0  0  0  0  0  0
  -31.0359  -18.5606   22.9881 C   0  0  0  0  0  0
  -30.9506  -17.1715   22.7955 C   0  0  0  0  0  0
  -29.8427  -17.5534   20.6601 C   0  0  0  0  0  0
  -30.5020  -19.4616   22.0412 C   0  0  0  0  0  0
  -29.9030  -18.9572   20.8506 C   0  0  0  0  0  0
  -30.3551  -16.6591   21.6278 C   0  0  0  0  0  0
  -29.2287  -22.2849   19.2904 C   0  0  0  0  0  0
  -30.5469  -20.9438   22.3794 C   0  0  0  0  0  0
  -29.2173  -19.8440   19.8003 C   0  0  0  0  0  0
  -30.0858  -23.5038   18.9232 C   0  0  0  0  0  0
  -29.8185  -24.7862   19.7481 C   0  0  0  0  0  0
  -28.4284  -25.4201   19.5586 C   0  0  0  0  0  0
  -30.1445  -15.2620   21.5177 N   0  0  0  0  0  0
  -29.8658  -21.1218   19.4933 N   0  0  0  0  0  0
  -28.0035  -22.3854   19.3562 O   0  0  0  0  0  0
  -31.4707  -12.4094   19.1074 H   0  0  0  0  0  0
  -30.3308  -11.2797   19.7780 H   0  0  0  0  0  0
  -29.7337  -11.8253   17.4019 H   0  0  0  0  0  0
  -29.6623  -13.5252   17.7935 H   0  0  0  0  0  0
  -27.8266  -11.3199   18.7942 H   0  0  0  0  0  0
  -27.3629  -12.6676   17.7885 H   0  0  0  0  0  0
  -27.7257  -14.2562   19.6091 H   0  0  0  0  0  0
  -28.6748  -11.8923   21.2973 H   0  0  0  0  0  0
  -28.4473  -13.4985   21.8968 H   0  0  0  0  0  0
  -25.2767   -9.5709   22.4719 H   0  0  0  0  0  0
  -24.0020   -7.4653   22.7440 H   0  0  0  0  0  0
  -21.0841   -8.8746   19.8945 H   0  0  0  0  0  0
  -22.3664  -10.9659   19.6128 H   0  0  0  0  0  0
  -21.2002   -7.6141   23.9707 H   0  0  0  0  0  0
  -21.1478   -6.0509   25.9071 H   0  0  0  0  0  0
  -22.0609   -2.7599   23.2830 H   0  0  0  0  0  0
  -22.4158  -11.9909   22.4789 H   0  0  0  0  0  0
  -21.1122  -13.1224   22.2579 H   0  0  0  0  0  0
  -24.6769  -15.8497   20.5052 H   0  0  0  0  0  0
  -26.3000  -15.6194   20.0949 H   0  0  0  0  0  0
  -26.7109  -32.5544   23.1163 H   0  0  0  0  0  0
  -25.0162  -33.9822   25.0544 H   0  0  0  0  0  0
  -22.6892  -31.3156   21.4170 H   0  0  0  0  0  0
  -23.3748  -35.9670   23.3323 H   0  0  0  0  0  0
  -24.3599  -36.8926   22.2052 H   0  0  0  0  0  0
  -23.7235  -37.6527   23.6644 H   0  0  0  0  0  0
  -26.0395  -31.6030   20.5927 H   0  0  0  0  0  0
  -26.8150  -30.8873   21.9807 H   0  0  0  0  0  0
  -28.0938  -29.1129   21.1507 H   0  0  0  0  0  0
  -26.0099  -25.9777   19.0177 H   0  0  0  0  0  0
  -23.9648  -27.3003   19.0449 H   0  0  0  0  0  0
  -23.7123  -30.6132   19.4098 H   0  0  0  0  0  0
  -22.7272  -29.2608   19.8640 H   0  0  0  0  0  0
  -25.1276  -36.1997   25.0823 H   0  0  0  0  0  0
  -20.9961  -28.3240   24.1412 H   0  0  0  0  0  0
  -20.5666  -26.2278   23.3589 H   0  0  0  0  0  0
  -21.6638  -26.7453   22.1194 H   0  0  0  0  0  0
  -19.6925  -25.6287   21.1235 H   0  0  0  0  0  0
  -19.6698  -27.3187   20.6724 H   0  0  0  0  0  0
  -17.4191  -26.6670   21.4006 H   0  0  0  0  0  0
  -18.0348  -26.0046   22.8986 H   0  0  0  0  0  0
  -19.7935  -30.7236   24.2309 H   0  0  0  0  0  0
  -17.5023  -31.6279   24.5154 H   0  0  0  0  0  0
  -15.5353  -30.3011   23.7637 H   0  0  0  0  0  0
  -15.8656  -28.0828   22.7075 H   0  0  0  0  0  0
  -24.5948  -30.7049   25.7840 H   0  0  0  0  0  0
  -24.8989  -32.2843   26.4991 H   0  0  0  0  0  0
  -25.8157  -30.8834   27.0226 H   0  0  0  0  0  0
  -26.2856  -29.6794   24.1218 H   0  0  0  0  0  0
  -27.4186  -29.7321   25.4533 H   0  0  0  0  0  0
  -27.8655  -30.4397   23.9183 H   0  0  0  0  0  0
  -27.2690  -33.3618   26.2108 H   0  0  0  0  0  0
  -28.3857  -32.6923   25.0308 H   0  0  0  0  0  0
  -28.0769  -31.8444   26.5379 H   0  0  0  0  0  0
  -28.2593  -38.0117   24.7513 H   0  0  0  0  0  0
  -28.1067  -36.2637   24.6282 H   0  0  0  0  0  0
  -27.2307  -37.1468   25.8873 H   0  0  0  0  0  0
  -20.9266  -29.8795   21.6970 H   0  0  0  0  0  0
  -26.0192  -38.2870   24.1413 H   0  0  0  0  0  0
  -31.4853  -18.9323   23.8995 H   0  0  0  0  0  0
  -31.3206  -16.5049   23.5622 H   0  0  0  0  0  0
  -29.3509  -17.1554   19.7831 H   0  0  0  0  0  0
  -30.8214  -21.1063   23.4221 H   0  0  0  0  0  0
  -29.5727  -21.4086   22.2253 H   0  0  0  0  0  0
  -31.2842  -21.4618   21.7659 H   0  0  0  0  0  0
  -28.1906  -20.0001   20.1364 H   0  0  0  0  0  0
  -29.1410  -19.2979   18.8601 H   0  0  0  0  0  0
  -29.9321  -23.7166   17.8638 H   0  0  0  0  0  0
  -31.1388  -23.2404   19.0200 H   0  0  0  0  0  0
  -30.5688  -25.5227   19.4601 H   0  0  0  0  0  0
  -29.9894  -24.5893   20.8071 H   0  0  0  0  0  0
  -27.6788  -24.8213   20.0765 H   0  0  0  0  0  0
  -28.1757  -25.4458   18.4972 H   0  0  0  0  0  0
  -29.3597  -14.8870   22.0301 H   0  0  0  0  0  0
  -30.8730  -21.1114   19.4066 H   0  0  0  0  0  0
  1 25  1  0  0  0
  1 30  2  0  0  0
  1 83  1  0  0  0
  2  3  1  0  0  0
  2 25  1  0  0  0
  2 86  1  0  0  0
  2 87  1  0  0  0
  3  4  1  0  0  0
  3 88  1  0  0  0
  3 89  1  0  0  0
  4  5  1  0  0  0
  4 90  1  0  0  0
  4 91  1  0  0  0
  5  6  1  0  0  0
  5 26  1  0  0  0
  5 92  1  0  0  0
  6 25  1  0  0  0
  6 93  1  0  0  0
  6 94  1  0  0  0
  7  8  2  0  0  0
  7 26  1  0  0  0
  7 29  1  0  0  0
  8  9  1  0  0  0
  8 22  1  0  0  0
  9 10  1  0  0  0
  9 27  2  0  0  0
 10 11  2  0  0  0
 10 15  1  0  0  0
 11 12  1  0  0  0
 11 95  1  0  0  0
 12 13  2  0  0  0
 12 96  1  0  0  0
 13 14  1  0  0  0
 13 31  1  0  0  0
 14 15  2  0  0  0
 14 97  1  0  0  0
 15 98  1  0  0  0
 16 17  2  0  0  0
 16 21  1  0  0  0
 16 31  1  0  0  0
 17 18  1  0  0  0
 17 99  1  0  0  0
 18 19  2  0  0  0
 18100  1  0  0  0
 19 20  1  0  0  0
 19 24  1  0  0  0
 20 21  2  0  0  0
 20101  1  0  0  0
 21 23  1  0  0  0
 22 28  1  0  0  0
 22 32  2  0  0  0
 26 27  1  0  0  0
 28102  1  0  0  0
 28103  1  0  0  0
 29104  1  0  0  0
 29105  1  0  0  0
 33 34  1  0  0  0
 33 66  1  0  0  0
 33 70  2  0  0  0
 34 36  1  0  0  0
 34 59  1  0  0  0
 34106  1  0  0  0
 35 44  2  0  0  0
 35 45  1  0  0  0
 35 68  1  0  0  0
 36 56  1  0  0  0
 36107  1  0  0  0
 37 39  1  0  0  0
 37 47  1  0  0  0
 37 66  1  0  0  0
 37108  1  0  0  0
 38 43  2  0  0  0
 38 46  1  0  0  0
 38 47  1  0  0  0
 39 64  1  0  0  0
 39 67  2  0  0  0
 40 52  1  0  0  0
 40 53  2  0  0  0
 40 58  1  0  0  0
 41109  1  0  0  0
 41110  1  0  0  0
 41111  1  0  0  0
 41 48  1  0  0  0
 42 43  1  0  0  0
 42 66  1  0  0  0
 42112  1  0  0  0
 42113  1  0  0  0
 43 44  1  0  0  0
 44114  1  0  0  0
 45 46  2  0  0  0
 45115  1  0  0  0
 46116  1  0  0  0
 47117  1  0  0  0
 47118  1  0  0  0
 48 56  1  0  0  0
 48 65  1  0  0  0
 48119  1  0  0  0
 49 50  1  0  0  0
 49 53  1  0  0  0
 49 64  1  0  0  0
 49120  1  0  0  0
 50 51  1  0  0  0
 50121  1  0  0  0
 50122  1  0  0  0
 51 52  1  0  0  0
 51123  1  0  0  0
 51124  1  0  0  0
 52125  1  0  0  0
 52126  1  0  0  0
 53 54  1  0  0  0
 54 55  2  0  0  0
 54127  1  0  0  0
 55 57  1  0  0  0
 55128  1  0  0  0
 56 69  2  0  0  0
 57 58  2  0  0  0
 57129  1  0  0  0
 58130  1  0  0  0
 59 60  1  0  0  0
 59 61  1  0  0  0
 59 62  1  0  0  0
 60131  1  0  0  0
 60132  1  0  0  0
 60133  1  0  0  0
 61134  1  0  0  0
 61135  1  0  0  0
 61136  1  0  0  0
 62137  1  0  0  0
 62138  1  0  0  0
 62139  1  0  0  0
 63 65  1  0  0  0
 63140  1  0  0  0
 63141  1  0  0  0
 63142  1  0  0  0
 64143  1  0  0  0
 65144  1  0  0  0
 68 82  1  0  0  0
 71 72  2  0  0  0
 71 74  1  0  0  0
 71145  1  0  0  0
 72 76  1  0  0  0
 72146  1  0  0  0
 73 75  1  0  0  0
 73 76  2  0  0  0
 73147  1  0  0  0
 74 75  2  0  0  0
 74 78  1  0  0  0
 75 79  1  0  0  0
 76 83  1  0  0  0
 77 80  1  0  0  0
 77 84  1  0  0  0
 77 85  2  0  0  0
 78148  1  0  0  0
 78149  1  0  0  0
 78150  1  0  0  0
 79 84  1  0  0  0
 79151  1  0  0  0
 79152  1  0  0  0
 80 81  1  0  0  0
 80153  1  0  0  0
 80154  1  0  0  0
 81 82  1  0  0  0
 81155  1  0  0  0
 81156  1  0  0  0
 82157  1  0  0  0
 82158  1  0  0  0
 83159  1  0  0  0
 84160  1  0  0  0
M  ISO  4   1 100  68 101  82 101  83 100
M  END
> <chiral flag>
0

> <version>
0

> <s_m_source_file>
/data/baiqing/PycharmProjects/Reinvent-master-3.2/result/LINK_invent/BTK/process_docking_weight1_custom_product_contain_oxygen_bond_distance_aromatic_linkinvent_7_9_3/rearranged_h_0124.sdf

> <i_m_source_file_index>
3

> <r_mmod_Potential_Energy-OPLS-2005>
-185.827056884766

> <r_mmod_Stretch_Energy-OPLS-2005>
35.4907073974609

> <r_mmod_Bend_Energy-OPLS-2005>
97.7834167480469

> <r_mmod_Torsional_Energy-OPLS-2005>
219.51220703125

> <r_mmod_Improper_Torsional_Energy-OPLS-2005>
3.25260591506958

> <r_mmod_Van_der_Waal_Energy-OPLS-2005>
160.648941040039

> <r_mmod_Electrostatic_Energy-OPLS-2005>
-478.098541259766

> <r_mmod_Solvation_Energy-OPLS-2005>
-233.253982543945

> <b_mmod_Minimization_Converged-OPLS-2005>
0

> <r_mmod_RMS_Derivative-OPLS-2005>
2.19664144515991

$$$$
3
                    3D
 Structure written by MMmdl.
165173  0  0  1  0            999 V2000
  -30.5857  -14.7573   20.4328 C   0  0  0  0  0  0
  -30.4468  -12.4672   19.4559 C   0  0  0  0  0  0
  -29.5142  -12.5053   18.2227 C   0  0  0  0  0  0
  -28.0376  -12.3092   18.6304 C   0  0  0  0  0  0
  -27.6396  -13.1968   19.8359 C   0  0  2  0  0  0
  -28.6901  -13.1001   20.9643 C   0  0  0  0  0  0
  -25.2571  -13.8093   20.5675 C   0  0  0  0  0  0
  -24.1808  -13.0418   20.9144 C   0  0  0  0  0  0
  -24.6329  -11.6868   20.8699 C   0  0  0  0  0  0
  -23.8983  -10.4283   21.0368 C   0  0  0  0  0  0
  -24.3554   -9.4212   21.9145 C   0  0  0  0  0  0
  -23.6254   -8.2241   22.0739 C   0  0  0  0  0  0
  -22.4238   -8.0260   21.3529 C   0  0  0  0  0  0
  -21.9840   -9.0223   20.4625 C   0  0  0  0  0  0
  -22.7153  -10.2110   20.3023 C   0  0  0  0  0  0
  -21.6847   -6.0708   22.5273 C   0  0  0  0  0  0
  -21.4012   -6.5617   23.8203 C   0  0  0  0  0  0
  -21.3659   -5.6775   24.9165 C   0  0  0  0  0  0
  -21.6044   -4.3041   24.7221 C   0  0  0  0  0  0
  -21.8829   -3.8125   23.4348 C   0  0  0  0  0  0
  -21.9198   -4.6937   22.3401 C   0  0  0  0  0  0
  -22.7854  -13.5260   21.1827 C   0  0  0  0  0  0
  -22.1654   -4.2119   21.0978 F   0  0  0  0  0  0
  -21.5630   -3.4537   25.7737 F   0  0  0  0  0  0
  -29.9821  -13.5114   20.3984 N   0  0  0  0  0  0
  -26.2922  -12.9211   20.3205 N   0  0  0  0  0  0
  -25.9238  -11.6392   20.5667 N   0  0  0  0  0  0
  -22.0471  -12.8299   22.0390 N   0  0  0  0  0  0
  -25.4485  -15.1800   20.4253 N   0  0  0  0  0  0
  -31.8035  -14.8242   20.2383 O   0  0  0  0  0  0
  -21.6623   -6.8847   21.4236 O   0  0  0  0  0  0
  -22.3570  -14.5581   20.6662 O   0  0  0  0  0  0
  -24.6253  -31.8555   23.2005 C   0  0  0  0  0  0
  -25.9103  -32.4754   23.8331 C   0  0  1  0  0  0
  -27.2400  -27.3145   20.1251 C   0  0  0  0  0  0
  -25.5927  -33.8557   24.2273 N   0  0  0  0  0  0
  -23.4214  -30.4748   21.5414 C   0  0  2  0  0  0
  -24.8719  -28.9165   20.1219 C   0  0  0  0  0  0
  -22.7475  -29.4580   22.4931 C   0  0  0  0  0  0
  -18.0270  -28.1370   22.8474 C   0  0  0  0  0  0
  -24.1490  -36.7269   23.2635 C   0  0  0  0  0  0
  -25.9584  -30.7872   21.3700 C   0  0  0  0  0  0
  -26.0381  -29.4095   20.7197 C   0  0  0  0  0  0
  -27.2273  -28.6225   20.7049 C   0  0  0  0  0  0
  -26.0484  -26.8580   19.5286 C   0  0  0  0  0  0
  -24.8774  -27.6462   19.5181 C   0  0  0  0  0  0
  -23.6397  -29.7992   20.1600 C   0  0  0  0  0  0
  -25.4111  -36.3064   24.0329 C   0  0  1  0  0  0
  -20.5875  -28.3658   23.1245 C   0  0  2  0  0  0
  -20.6771  -26.9399   22.5341 C   0  0  0  0  0  0
  -19.5701  -26.6362   21.5191 C   0  0  0  0  0  0
  -18.1919  -26.7884   22.1670 C   0  0  0  0  0  0
  -19.1523  -28.8827   23.2874 C   0  0  0  0  0  0
  -18.9452  -30.1396   23.8960 C   0  0  0  0  0  0
  -17.6460  -30.6540   24.0628 C   0  0  0  0  0  0
  -25.9046  -34.9432   23.5097 C   0  0  0  0  0  0
  -16.5355  -29.9083   23.6323 C   0  0  0  0  0  0
  -16.7251  -28.6493   23.0333 C   0  0  0  0  0  0
  -26.4501  -31.6582   25.0708 C   0  0  0  0  0  0
  -25.3752  -31.3717   26.1451 C   0  0  0  0  0  0
  -27.0347  -30.3010   24.6173 C   0  0  0  0  0  0
  -27.6059  -32.4320   25.7482 C   0  0  0  0  0  0
  -27.5580  -37.1787   24.8456 C   0  0  0  0  0  0
  -21.4191  -29.3016   22.3668 N   0  0  0  0  0  0
  -26.4267  -37.3780   23.9427 N   0  0  0  0  0  0
  -24.6868  -31.0558   22.0951 N   0  0  0  0  0  0
  -23.4188  -28.8146   23.3045 O   0  0  0  0  0  0
  -28.3852  -26.5128   20.0513 O   0  0  0  0  0  0
  -26.5598  -34.8894   22.4654 O   0  0  0  0  0  0
  -23.5415  -32.1338   23.7321 O   0  0  0  0  0  0
  -29.3978  -18.7272   20.4973 C   0  0  0  0  0  0
  -31.0108  -20.2937   19.6485 C   0  0  0  0  0  0
  -30.1583  -17.5533   20.0804 C   0  0  0  0  0  0
  -31.7650  -19.2026   19.1647 C   0  0  0  0  0  0
  -31.2486  -17.8692   19.2010 C   0  0  0  0  0  0
  -29.7440  -20.0986   20.2216 C   0  0  0  0  0  0
  -34.7967  -21.2147   19.5093 C   0  0  0  0  0  0
  -34.0811  -20.0861   19.6336 C   0  0  0  0  0  0
  -29.6750  -16.1084   20.4960 C   0  0  0  0  0  0
  -31.5978  -17.3351   16.7104 C   0  0  0  0  0  0
  -33.1338  -19.5404   18.5829 C   0  0  0  0  0  0
  -31.7773  -16.8625   18.1670 C   0  0  0  0  0  0
  -28.5159  -23.7940   19.9650 C   0  0  0  0  0  0
  -28.4337  -25.2010   20.7367 C   0  0  0  0  0  0
  -29.2480  -22.5747   20.7179 C   0  0  0  0  0  0
  -28.4845  -16.0623   20.9302 N   0  0  0  0  0  0
  -28.8457  -21.1701   20.4637 O   0  0  0  0  0  0
  -31.4794  -12.6305   19.1421 H   0  0  0  0  0  0
  -30.4304  -11.4833   19.9268 H   0  0  0  0  0  0
  -29.8068  -11.7343   17.5105 H   0  0  0  0  0  0
  -29.6337  -13.4591   17.7052 H   0  0  0  0  0  0
  -27.9022  -11.2585   18.8881 H   0  0  0  0  0  0
  -27.3804  -12.4996   17.7805 H   0  0  0  0  0  0
  -27.6274  -14.2081   19.4355 H   0  0  0  0  0  0
  -28.7513  -12.0763   21.3375 H   0  0  0  0  0  0
  -28.4184  -13.7043   21.8284 H   0  0  0  0  0  0
  -25.2696   -9.5730   22.4702 H   0  0  0  0  0  0
  -23.9973   -7.4653   22.7471 H   0  0  0  0  0  0
  -21.0754   -8.8716   19.8954 H   0  0  0  0  0  0
  -22.3575  -10.9625   19.6126 H   0  0  0  0  0  0
  -21.1995   -7.6124   23.9705 H   0  0  0  0  0  0
  -21.1464   -6.0490   25.9068 H   0  0  0  0  0  0
  -22.0606   -2.7586   23.2848 H   0  0  0  0  0  0
  -22.4048  -11.9991   22.4873 H   0  0  0  0  0  0
  -21.1076  -13.1347   22.2521 H   0  0  0  0  0  0
  -24.7380  -15.8678   20.6445 H   0  0  0  0  0  0
  -26.3869  -15.5689   20.3710 H   0  0  0  0  0  0
  -26.7165  -32.5437   23.1070 H   0  0  0  0  0  0
  -25.0156  -33.9715   25.0475 H   0  0  0  0  0  0
  -22.7145  -31.2934   21.3928 H   0  0  0  0  0  0
  -23.3748  -35.9600   23.3264 H   0  0  0  0  0  0
  -24.3597  -36.8920   22.2057 H   0  0  0  0  0  0
  -23.7225  -37.6455   23.6679 H   0  0  0  0  0  0
  -26.0874  -31.5500   20.6011 H   0  0  0  0  0  0
  -26.8374  -30.8384   21.9994 H   0  0  0  0  0  0
  -28.1326  -29.0093   21.1513 H   0  0  0  0  0  0
  -26.0271  -25.8849   19.0573 H   0  0  0  0  0  0
  -23.9819  -27.2617   19.0485 H   0  0  0  0  0  0
  -23.7667  -30.5694   19.3980 H   0  0  0  0  0  0
  -22.7614  -29.2284   19.8550 H   0  0  0  0  0  0
  -25.1295  -36.1893   25.0819 H   0  0  0  0  0  0
  -20.9968  -28.3201   24.1360 H   0  0  0  0  0  0
  -20.5766  -26.2260   23.3517 H   0  0  0  0  0  0
  -21.6617  -26.7467   22.1050 H   0  0  0  0  0  0
  -19.6819  -25.6276   21.1201 H   0  0  0  0  0  0
  -19.6583  -27.3178   20.6722 H   0  0  0  0  0  0
  -17.4145  -26.6549   21.4141 H   0  0  0  0  0  0
  -18.0399  -26.0082   22.9122 H   0  0  0  0  0  0
  -19.7919  -30.7151   24.2440 H   0  0  0  0  0  0
  -17.5002  -31.6172   24.5325 H   0  0  0  0  0  0
  -15.5371  -30.3014   23.7632 H   0  0  0  0  0  0
  -15.8635  -28.0839   22.7057 H   0  0  0  0  0  0
  -24.5917  -30.7081   25.7791 H   0  0  0  0  0  0
  -24.8945  -32.2881   26.4894 H   0  0  0  0  0  0
  -25.8086  -30.8890   27.0224 H   0  0  0  0  0  0
  -26.2929  -29.6747   24.1208 H   0  0  0  0  0  0
  -27.4059  -29.7292   25.4687 H   0  0  0  0  0  0
  -27.8800  -30.4283   23.9397 H   0  0  0  0  0  0
  -27.2678  -33.3616   26.2074 H   0  0  0  0  0  0
  -28.3880  -32.6885   25.0328 H   0  0  0  0  0  0
  -28.0733  -31.8440   26.5396 H   0  0  0  0  0  0
  -28.2566  -38.0119   24.7571 H   0  0  0  0  0  0
  -28.1114  -36.2655   24.6203 H   0  0  0  0  0  0
  -27.2319  -37.1345   25.8863 H   0  0  0  0  0  0
  -20.9388  -29.8707   21.6835 H   0  0  0  0  0  0
  -26.0126  -38.2838   24.1482 H   0  0  0  0  0  0
  -28.4734  -18.5902   21.0348 H   0  0  0  0  0  0
  -31.4010  -21.2894   19.4956 H   0  0  0  0  0  0
  -35.4584  -21.5438   20.2991 H   0  0  0  0  0  0
  -34.7372  -21.8293   18.6218 H   0  0  0  0  0  0
  -34.1791  -19.4959   20.5344 H   0  0  0  0  0  0
  -31.9551  -16.5722   16.0174 H   0  0  0  0  0  0
  -32.1333  -18.2548   16.4810 H   0  0  0  0  0  0
  -30.5434  -17.5054   16.4869 H   0  0  0  0  0  0
  -33.0114  -20.2645   17.7769 H   0  0  0  0  0  0
  -33.6289  -18.6731   18.1514 H   0  0  0  0  0  0
  -31.2025  -15.9432   18.1824 H   0  0  0  0  0  0
  -32.8124  -16.5898   18.3777 H   0  0  0  0  0  0
  -29.0137  -23.9344   19.0045 H   0  0  0  0  0  0
  -27.4970  -23.4943   19.7160 H   0  0  0  0  0  0
  -27.6293  -25.1511   21.4713 H   0  0  0  0  0  0
  -29.3409  -25.2648   21.3356 H   0  0  0  0  0  0
  -29.0466  -22.7119   21.7812 H   0  0  0  0  0  0
  -30.3252  -22.7135   20.6389 H   0  0  0  0  0  0
  -28.0762  -16.9876   20.9202 H   0  0  0  0  0  0
  1 25  1  0  0  0
  1 30  2  0  0  0
  1 79  1  0  0  0
  2  3  1  0  0  0
  2 25  1  0  0  0
  2 88  1  0  0  0
  2 89  1  0  0  0
  3  4  1  0  0  0
  3 90  1  0  0  0
  3 91  1  0  0  0
  4  5  1  0  0  0
  4 92  1  0  0  0
  4 93  1  0  0  0
  5  6  1  0  0  0
  5 26  1  0  0  0
  5 94  1  0  0  0
  6 25  1  0  0  0
  6 95  1  0  0  0
  6 96  1  0  0  0
  7  8  2  0  0  0
  7 26  1  0  0  0
  7 29  1  0  0  0
  8  9  1  0  0  0
  8 22  1  0  0  0
  9 10  1  0  0  0
  9 27  2  0  0  0
 10 11  2  0  0  0
 10 15  1  0  0  0
 11 12  1  0  0  0
 11 97  1  0  0  0
 12 13  2  0  0  0
 12 98  1  0  0  0
 13 14  1  0  0  0
 13 31  1  0  0  0
 14 15  2  0  0  0
 14 99  1  0  0  0
 15100  1  0  0  0
 16 17  2  0  0  0
 16 21  1  0  0  0
 16 31  1  0  0  0
 17 18  1  0  0  0
 17101  1  0  0  0
 18 19  2  0  0  0
 18102  1  0  0  0
 19 20  1  0  0  0
 19 24  1  0  0  0
 20 21  2  0  0  0
 20103  1  0  0  0
 21 23  1  0  0  0
 22 28  1  0  0  0
 22 32  2  0  0  0
 26 27  1  0  0  0
 28104  1  0  0  0
 28105  1  0  0  0
 29106  1  0  0  0
 29107  1  0  0  0
 33 34  1  0  0  0
 33 66  1  0  0  0
 33 70  2  0  0  0
 34 36  1  0  0  0
 34 59  1  0  0  0
 34108  1  0  0  0
 35 44  2  0  0  0
 35 45  1  0  0  0
 35 68  1  0  0  0
 36 56  1  0  0  0
 36109  1  0  0  0
 37 39  1  0  0  0
 37 47  1  0  0  0
 37 66  1  0  0  0
 37110  1  0  0  0
 38 43  2  0  0  0
 38 46  1  0  0  0
 38 47  1  0  0  0
 39 64  1  0  0  0
 39 67  2  0  0  0
 40 52  1  0  0  0
 40 53  2  0  0  0
 40 58  1  0  0  0
 41111  1  0  0  0
 41112  1  0  0  0
 41113  1  0  0  0
 41 48  1  0  0  0
 42 43  1  0  0  0
 42 66  1  0  0  0
 42114  1  0  0  0
 42115  1  0  0  0
 43 44  1  0  0  0
 44116  1  0  0  0
 45 46  2  0  0  0
 45117  1  0  0  0
 46118  1  0  0  0
 47119  1  0  0  0
 47120  1  0  0  0
 48 56  1  0  0  0
 48 65  1  0  0  0
 48121  1  0  0  0
 49 50  1  0  0  0
 49 53  1  0  0  0
 49 64  1  0  0  0
 49122  1  0  0  0
 50 51  1  0  0  0
 50123  1  0  0  0
 50124  1  0  0  0
 51 52  1  0  0  0
 51125  1  0  0  0
 51126  1  0  0  0
 52127  1  0  0  0
 52128  1  0  0  0
 53 54  1  0  0  0
 54 55  2  0  0  0
 54129  1  0  0  0
 55 57  1  0  0  0
 55130  1  0  0  0
 56 69  2  0  0  0
 57 58  2  0  0  0
 57131  1  0  0  0
 58132  1  0  0  0
 59 60  1  0  0  0
 59 61  1  0  0  0
 59 62  1  0  0  0
 60133  1  0  0  0
 60134  1  0  0  0
 60135  1  0  0  0
 61136  1  0  0  0
 61137  1  0  0  0
 61138  1  0  0  0
 62139  1  0  0  0
 62140  1  0  0  0
 62141  1  0  0  0
 63 65  1  0  0  0
 63142  1  0  0  0
 63143  1  0  0  0
 63144  1  0  0  0
 64145  1  0  0  0
 65146  1  0  0  0
 68 84  1  0  0  0
 71 73  2  0  0  0
 71 76  1  0  0  0
 71147  1  0  0  0
 72 74  1  0  0  0
 72 76  2  0  0  0
 72148  1  0  0  0
 73 75  1  0  0  0
 73 79  1  0  0  0
 74 75  2  0  0  0
 74 81  1  0  0  0
 75 82  1  0  0  0
 76 87  1  0  0  0
 77 78  2  0  0  0
 77149  1  0  0  0
 77150  1  0  0  0
 78 81  1  0  0  0
 78151  1  0  0  0
 79 86  2  0  0  0
 80 82  1  0  0  0
 80152  1  0  0  0
 80153  1  0  0  0
 80154  1  0  0  0
 81155  1  0  0  0
 81156  1  0  0  0
 82157  1  0  0  0
 82158  1  0  0  0
 83 84  1  0  0  0
 83 85  1  0  0  0
 83159  1  0  0  0
 83160  1  0  0  0
 84161  1  0  0  0
 84162  1  0  0  0
 85 87  1  0  0  0
 85163  1  0  0  0
 85164  1  0  0  0
 86165  1  0  0  0
M  ISO  4   1 100  68 101  79 100  84 101
M  END
> <chiral flag>
0

> <version>
0

> <s_m_source_file>
/data/baiqing/PycharmProjects/Reinvent-master-3.2/result/LINK_invent/BTK/process_docking_weight1_custom_product_contain_oxygen_bond_distance_aromatic_linkinvent_7_9_3/rearranged_h_0124.sdf

> <i_m_source_file_index>
4

> <r_mmod_Potential_Energy-OPLS-2005>
410.884124755859

> <r_mmod_Stretch_Energy-OPLS-2005>
129.819961547852

> <r_mmod_Bend_Energy-OPLS-2005>
195.99333190918

> <r_mmod_Torsional_Energy-OPLS-2005>
281.172454833984

> <r_mmod_Improper_Torsional_Energy-OPLS-2005>
6.25779962539673

> <r_mmod_Van_der_Waal_Energy-OPLS-2005>
164.330596923828

> <r_mmod_Electrostatic_Energy-OPLS-2005>
-250.65380859375

> <r_mmod_Solvation_Energy-OPLS-2005>
-187.140213012695

> <b_mmod_Minimization_Converged-OPLS-2005>
0

> <r_mmod_RMS_Derivative-OPLS-2005>
2.84575796127319

$$$$
4
                    3D
 Structure written by MMmdl.
165173  0  0  1  0            999 V2000
  -30.5418  -14.8952   20.3473 C   0  0  0  0  0  0
  -30.4458  -12.5238   19.5239 C   0  0  0  0  0  0
  -29.5315  -12.4700   18.2804 C   0  0  0  0  0  0
  -28.0549  -12.2997   18.6811 C   0  0  0  0  0  0
  -27.6343  -13.2433   19.8378 C   0  0  2  0  0  0
  -28.6742  -13.2523   20.9801 C   0  0  0  0  0  0
  -25.2478  -13.8229   20.5672 C   0  0  0  0  0  0
  -24.1785  -13.0446   20.9208 C   0  0  0  0  0  0
  -24.6392  -11.6934   20.8754 C   0  0  0  0  0  0
  -23.9080  -10.4290   21.0410 C   0  0  0  0  0  0
  -24.3616   -9.4197   21.9184 C   0  0  0  0  0  0
  -23.6274   -8.2240   22.0757 C   0  0  0  0  0  0
  -22.4264   -8.0275   21.3536 C   0  0  0  0  0  0
  -21.9911   -9.0256   20.4642 C   0  0  0  0  0  0
  -22.7257  -10.2127   20.3056 C   0  0  0  0  0  0
  -21.6855   -6.0717   22.5267 C   0  0  0  0  0  0
  -21.4023   -6.5625   23.8198 C   0  0  0  0  0  0
  -21.3668   -5.6784   24.9163 C   0  0  0  0  0  0
  -21.6051   -4.3046   24.7222 C   0  0  0  0  0  0
  -21.8827   -3.8134   23.4345 C   0  0  0  0  0  0
  -21.9193   -4.6945   22.3397 C   0  0  0  0  0  0
  -22.7798  -13.5207   21.1855 C   0  0  0  0  0  0
  -22.1656   -4.2125   21.0975 F   0  0  0  0  0  0
  -21.5632   -3.4537   25.7740 F   0  0  0  0  0  0
  -29.9661  -13.6318   20.3927 N   0  0  0  0  0  0
  -26.2899  -12.9452   20.3227 N   0  0  0  0  0  0
  -25.9325  -11.6589   20.5760 N   0  0  0  0  0  0
  -22.0456  -12.8191   22.0425 N   0  0  0  0  0  0
  -25.4189  -15.1944   20.4081 N   0  0  0  0  0  0
  -31.7268  -14.9801   20.0091 O   0  0  0  0  0  0
  -21.6635   -6.8864   21.4227 O   0  0  0  0  0  0
  -22.3463  -14.5496   20.6692 O   0  0  0  0  0  0
  -24.6359  -31.8488   23.1894 C   0  0  0  0  0  0
  -25.9149  -32.4723   23.8270 C   0  0  1  0  0  0
  -27.2398  -27.2151   20.1147 C   0  0  0  0  0  0
  -25.5919  -33.8529   24.2197 N   0  0  0  0  0  0
  -23.4366  -30.4609   21.5356 C   0  0  2  0  0  0
  -24.8932  -28.9008   20.0948 C   0  0  0  0  0  0
  -22.7540  -29.4532   22.4927 C   0  0  0  0  0  0
  -18.0287  -28.1389   22.8515 C   0  0  0  0  0  0
  -24.1491  -36.7283   23.2636 C   0  0  0  0  0  0
  -25.9849  -30.7385   21.3795 C   0  0  0  0  0  0
  -26.0604  -29.3583   20.7178 C   0  0  0  0  0  0
  -27.2310  -28.5218   20.7278 C   0  0  0  0  0  0
  -26.0576  -26.8424   19.4433 C   0  0  0  0  0  0
  -24.9018  -27.6552   19.4424 C   0  0  0  0  0  0
  -23.6581  -29.7855   20.1536 C   0  0  0  0  0  0
  -25.4123  -36.3060   24.0318 C   0  0  1  0  0  0
  -20.5899  -28.3695   23.1306 C   0  0  2  0  0  0
  -20.6795  -26.9420   22.5429 C   0  0  0  0  0  0
  -19.5757  -26.6387   21.5249 C   0  0  0  0  0  0
  -18.1931  -26.7938   22.1645 C   0  0  0  0  0  0
  -19.1544  -28.8867   23.2899 C   0  0  0  0  0  0
  -18.9458  -30.1478   23.8897 C   0  0  0  0  0  0
  -17.6450  -30.6595   24.0564 C   0  0  0  0  0  0
  -25.9065  -34.9431   23.5073 C   0  0  0  0  0  0
  -16.5348  -29.9079   23.6341 C   0  0  0  0  0  0
  -16.7272  -28.6495   23.0380 C   0  0  0  0  0  0
  -26.4481  -31.6564   25.0683 C   0  0  0  0  0  0
  -25.3663  -31.3752   26.1371 C   0  0  0  0  0  0
  -27.0316  -30.2964   24.6210 C   0  0  0  0  0  0
  -27.6021  -32.4309   25.7475 C   0  0  0  0  0  0
  -27.5582  -37.1801   24.8463 C   0  0  0  0  0  0
  -21.4238  -29.3019   22.3690 N   0  0  0  0  0  0
  -26.4291  -37.3770   23.9409 N   0  0  0  0  0  0
  -24.7043  -31.0378   22.0902 N   0  0  0  0  0  0
  -23.4219  -28.8116   23.3079 O   0  0  0  0  0  0
  -28.2552  -26.2337   20.3127 O   0  0  0  0  0  0
  -26.5669  -34.8932   22.4660 O   0  0  0  0  0  0
  -23.5498  -32.1347   23.7153 O   0  0  0  0  0  0
  -28.8855  -18.6528   17.8731 C   0  0  0  0  0  0
  -28.8356  -19.8900   18.5383 C   0  0  0  0  0  0
  -29.5999  -18.7352   20.5235 C   0  0  0  0  0  0
  -29.2641  -17.4341   18.4922 C   0  0  0  0  0  0
  -29.6132  -17.3998   19.8778 C   0  0  0  0  0  0
  -29.2400  -20.0188   19.8744 C   0  0  0  0  0  0
  -29.2913  -16.2543   17.6036 C   0  0  0  0  0  0
  -28.6681  -25.2532   19.3602 C   0  0  0  0  0  0
  -28.3434  -15.8733   16.7156 C   0  0  0  0  0  0
  -28.8264  -23.8469   19.2822 C   0  0  0  0  0  0
  -28.5839  -14.7635   15.7122 C   0  0  0  0  0  0
  -26.9615  -16.4946   16.5923 C   0  0  0  0  0  0
  -28.4549  -23.2747   16.8376 C   0  0  0  0  0  0
  -29.4749  -23.3874   17.9815 C   0  0  0  0  0  0
  -28.4417  -22.5626   20.1919 C   0  0  0  0  0  0
  -29.7631  -16.0509   20.5770 N   0  0  0  0  0  0
  -29.3627  -21.3548   20.4259 O   0  0  0  0  0  0
  -31.4830  -12.6639   19.2143 H   0  0  0  0  0  0
  -30.4263  -11.5791   20.0687 H   0  0  0  0  0  0
  -29.8337  -11.6588   17.6182 H   0  0  0  0  0  0
  -29.6598  -13.3895   17.7208 H   0  0  0  0  0  0
  -27.9241  -11.2610   18.9883 H   0  0  0  0  0  0
  -27.4058  -12.4422   17.8163 H   0  0  0  0  0  0
  -27.6058  -14.2453   19.4066 H   0  0  0  0  0  0
  -28.7373  -12.2751   21.4606 H   0  0  0  0  0  0
  -28.3842  -13.9579   21.7598 H   0  0  0  0  0  0
  -25.2770   -9.5647   22.4750 H   0  0  0  0  0  0
  -23.9967   -7.4642   22.7493 H   0  0  0  0  0  0
  -21.0841   -8.8789   19.8944 H   0  0  0  0  0  0
  -22.3739  -10.9654   19.6152 H   0  0  0  0  0  0
  -21.2022   -7.6137   23.9689 H   0  0  0  0  0  0
  -21.1485   -6.0521   25.9061 H   0  0  0  0  0  0
  -22.0601   -2.7592   23.2863 H   0  0  0  0  0  0
  -22.4087  -11.9868   22.4821 H   0  0  0  0  0  0
  -21.1068  -13.1206   22.2630 H   0  0  0  0  0  0
  -24.6539  -15.8521   20.5125 H   0  0  0  0  0  0
  -26.2639  -15.6256   20.0549 H   0  0  0  0  0  0
  -26.7216  -32.5358   23.1006 H   0  0  0  0  0  0
  -24.9987  -33.9662   25.0287 H   0  0  0  0  0  0
  -22.7326  -31.2819   21.3838 H   0  0  0  0  0  0
  -23.3756  -35.9604   23.3278 H   0  0  0  0  0  0
  -24.3556  -36.8942   22.2049 H   0  0  0  0  0  0
  -23.7259  -37.6482   23.6680 H   0  0  0  0  0  0
  -26.1286  -31.4903   20.6027 H   0  0  0  0  0  0
  -26.8607  -30.7928   22.0135 H   0  0  0  0  0  0
  -28.1101  -28.8486   21.2659 H   0  0  0  0  0  0
  -26.0066  -25.8743   18.9656 H   0  0  0  0  0  0
  -24.0103  -27.3016   18.9446 H   0  0  0  0  0  0
  -23.7750  -30.5572   19.3923 H   0  0  0  0  0  0
  -22.7783  -29.2099   19.8570 H   0  0  0  0  0  0
  -25.1307  -36.1891   25.0810 H   0  0  0  0  0  0
  -20.9975  -28.3285   24.1433 H   0  0  0  0  0  0
  -20.5767  -26.2300   23.3633 H   0  0  0  0  0  0
  -21.6658  -26.7479   22.1189 H   0  0  0  0  0  0
  -19.6931  -25.6300   21.1276 H   0  0  0  0  0  0
  -19.6710  -27.3212   20.6799 H   0  0  0  0  0  0
  -17.4224  -26.6726   21.4021 H   0  0  0  0  0  0
  -18.0300  -26.0071   22.9027 H   0  0  0  0  0  0
  -19.7923  -30.7319   24.2273 H   0  0  0  0  0  0
  -17.4982  -31.6277   24.5155 H   0  0  0  0  0  0
  -15.5347  -30.2970   23.7665 H   0  0  0  0  0  0
  -15.8679  -28.0800   22.7108 H   0  0  0  0  0  0
  -24.5843  -30.7104   25.7684 H   0  0  0  0  0  0
  -24.8831  -32.2933   26.4719 H   0  0  0  0  0  0
  -25.7914  -30.8965   27.0201 H   0  0  0  0  0  0
  -26.2893  -29.6737   24.1196 H   0  0  0  0  0  0
  -27.3931  -29.7214   25.4751 H   0  0  0  0  0  0
  -27.8811  -30.4211   23.9491 H   0  0  0  0  0  0
  -27.2597  -33.3619   26.2004 H   0  0  0  0  0  0
  -28.3837  -32.6864   25.0307 H   0  0  0  0  0  0
  -28.0655  -31.8461   26.5431 H   0  0  0  0  0  0
  -28.2595  -38.0107   24.7505 H   0  0  0  0  0  0
  -28.1098  -36.2636   24.6280 H   0  0  0  0  0  0
  -27.2299  -37.1431   25.8870 H   0  0  0  0  0  0
  -20.9465  -29.8685   21.6817 H   0  0  0  0  0  0
  -26.0172  -38.2854   24.1375 H   0  0  0  0  0  0
  -28.6286  -18.6499   16.8233 H   0  0  0  0  0  0
  -28.5402  -20.7561   17.9708 H   0  0  0  0  0  0
  -29.8796  -18.7770   21.5664 H   0  0  0  0  0  0
  -30.2193  -15.7010   17.6223 H   0  0  0  0  0  0
  -28.9830  -25.8114   18.4885 H   0  0  0  0  0  0
  -29.6203  -14.4239   15.7133 H   0  0  0  0  0  0
  -28.3649  -15.1242   14.7067 H   0  0  0  0  0  0
  -27.9335  -13.9121   15.9124 H   0  0  0  0  0  0
  -26.7211  -17.1776   17.4070 H   0  0  0  0  0  0
  -26.2038  -15.7097   16.5972 H   0  0  0  0  0  0
  -26.8754  -17.0349   15.6482 H   0  0  0  0  0  0
  -28.9171  -22.8694   15.9363 H   0  0  0  0  0  0
  -28.0396  -24.2502   16.5799 H   0  0  0  0  0  0
  -27.6188  -22.6283   17.1044 H   0  0  0  0  0  0
  -30.0053  -22.4472   18.1277 H   0  0  0  0  0  0
  -30.2528  -24.0959   17.6909 H   0  0  0  0  0  0
  -27.5192  -22.1687   19.7644 H   0  0  0  0  0  0
  -28.1514  -22.9420   21.1714 H   0  0  0  0  0  0
  -28.9611  -15.8318   21.1481 H   0  0  0  0  0  0
  1 25  1  0  0  0
  1 30  2  0  0  0
  1 86  1  0  0  0
  2  3  1  0  0  0
  2 25  1  0  0  0
  2 88  1  0  0  0
  2 89  1  0  0  0
  3  4  1  0  0  0
  3 90  1  0  0  0
  3 91  1  0  0  0
  4  5  1  0  0  0
  4 92  1  0  0  0
  4 93  1  0  0  0
  5  6  1  0  0  0
  5 26  1  0  0  0
  5 94  1  0  0  0
  6 25  1  0  0  0
  6 95  1  0  0  0
  6 96  1  0  0  0
  7  8  2  0  0  0
  7 26  1  0  0  0
  7 29  1  0  0  0
  8  9  1  0  0  0
  8 22  1  0  0  0
  9 10  1  0  0  0
  9 27  2  0  0  0
 10 11  2  0  0  0
 10 15  1  0  0  0
 11 12  1  0  0  0
 11 97  1  0  0  0
 12 13  2  0  0  0
 12 98  1  0  0  0
 13 14  1  0  0  0
 13 31  1  0  0  0
 14 15  2  0  0  0
 14 99  1  0  0  0
 15100  1  0  0  0
 16 17  2  0  0  0
 16 21  1  0  0  0
 16 31  1  0  0  0
 17 18  1  0  0  0
 17101  1  0  0  0
 18 19  2  0  0  0
 18102  1  0  0  0
 19 20  1  0  0  0
 19 24  1  0  0  0
 20 21  2  0  0  0
 20103  1  0  0  0
 21 23  1  0  0  0
 22 28  1  0  0  0
 22 32  2  0  0  0
 26 27  1  0  0  0
 28104  1  0  0  0
 28105  1  0  0  0
 29106  1  0  0  0
 29107  1  0  0  0
 33 34  1  0  0  0
 33 66  1  0  0  0
 33 70  2  0  0  0
 34 36  1  0  0  0
 34 59  1  0  0  0
 34108  1  0  0  0
 35 44  2  0  0  0
 35 45  1  0  0  0
 35 68  1  0  0  0
 36 56  1  0  0  0
 36109  1  0  0  0
 37 39  1  0  0  0
 37 47  1  0  0  0
 37 66  1  0  0  0
 37110  1  0  0  0
 38 43  2  0  0  0
 38 46  1  0  0  0
 38 47  1  0  0  0
 39 64  1  0  0  0
 39 67  2  0  0  0
 40 52  1  0  0  0
 40 53  2  0  0  0
 40 58  1  0  0  0
 41111  1  0  0  0
 41112  1  0  0  0
 41113  1  0  0  0
 41 48  1  0  0  0
 42 43  1  0  0  0
 42 66  1  0  0  0
 42114  1  0  0  0
 42115  1  0  0  0
 43 44  1  0  0  0
 44116  1  0  0  0
 45 46  2  0  0  0
 45117  1  0  0  0
 46118  1  0  0  0
 47119  1  0  0  0
 47120  1  0  0  0
 48 56  1  0  0  0
 48 65  1  0  0  0
 48121  1  0  0  0
 49 50  1  0  0  0
 49 53  1  0  0  0
 49 64  1  0  0  0
 49122  1  0  0  0
 50 51  1  0  0  0
 50123  1  0  0  0
 50124  1  0  0  0
 51 52  1  0  0  0
 51125  1  0  0  0
 51126  1  0  0  0
 52127  1  0  0  0
 52128  1  0  0  0
 53 54  1  0  0  0
 54 55  2  0  0  0
 54129  1  0  0  0
 55 57  1  0  0  0
 55130  1  0  0  0
 56 69  2  0  0  0
 57 58  2  0  0  0
 57131  1  0  0  0
 58132  1  0  0  0
 59 60  1  0  0  0
 59 61  1  0  0  0
 59 62  1  0  0  0
 60133  1  0  0  0
 60134  1  0  0  0
 60135  1  0  0  0
 61136  1  0  0  0
 61137  1  0  0  0
 61138  1  0  0  0
 62139  1  0  0  0
 62140  1  0  0  0
 62141  1  0  0  0
 63 65  1  0  0  0
 63142  1  0  0  0
 63143  1  0  0  0
 63144  1  0  0  0
 64145  1  0  0  0
 65146  1  0  0  0
 68 78  1  0  0  0
 71 72  2  0  0  0
 71 74  1  0  0  0
 71147  1  0  0  0
 72 76  1  0  0  0
 72148  1  0  0  0
 73 75  1  0  0  0
 73 76  2  0  0  0
 73149  1  0  0  0
 74 75  2  0  0  0
 74 77  1  0  0  0
 75 86  1  0  0  0
 76 87  1  0  0  0
 77 79  2  0  0  0
 77150  1  0  0  0
 78 80  2  0  0  0
 78151  1  0  0  0
 79 81  1  0  0  0
 79 82  1  0  0  0
 80 84  1  0  0  0
 80 85  1  0  0  0
 81152  1  0  0  0
 81153  1  0  0  0
 81154  1  0  0  0
 82155  1  0  0  0
 82156  1  0  0  0
 82157  1  0  0  0
 83 84  1  0  0  0
 83158  1  0  0  0
 83159  1  0  0  0
 83160  1  0  0  0
 84161  1  0  0  0
 84162  1  0  0  0
 85 87  1  0  0  0
 85163  1  0  0  0
 85164  1  0  0  0
 86165  1  0  0  0
M  ISO  4   1 100  68 101  78 101  86 100
M  END
> <chiral flag>
0

> <version>
0

> <s_m_source_file>
/data/baiqing/PycharmProjects/Reinvent-master-3.2/result/LINK_invent/BTK/process_docking_weight1_custom_product_contain_oxygen_bond_distance_aromatic_linkinvent_7_9_3/rearranged_h_0124.sdf

> <i_m_source_file_index>
5

> <r_mmod_Potential_Energy-OPLS-2005>
496.001281738281

> <r_mmod_Stretch_Energy-OPLS-2005>
191.255737304688

> <r_mmod_Bend_Energy-OPLS-2005>
279.274688720703

> <r_mmod_Torsional_Energy-OPLS-2005>
304.099334716797

> <r_mmod_Improper_Torsional_Energy-OPLS-2005>
7.89300298690796

> <r_mmod_Van_der_Waal_Energy-OPLS-2005>
124.158866882324

> <r_mmod_Electrostatic_Energy-OPLS-2005>
-374.711700439453

> <r_mmod_Solvation_Energy-OPLS-2005>
-198.379089355469

> <b_mmod_Minimization_Converged-OPLS-2005>
0

> <r_mmod_RMS_Derivative-OPLS-2005>
2.75629568099976

$$$$
5
                    3D
 Structure written by MMmdl.
156164  0  0  1  0            999 V2000
  -30.6091  -14.6549   20.4855 C   0  0  0  0  0  0
  -30.4395  -12.3977   19.4525 C   0  0  0  0  0  0
  -29.5077  -12.5002   18.2236 C   0  0  0  0  0  0
  -28.0312  -12.3380   18.6371 C   0  0  0  0  0  0
  -27.6524  -13.2139   19.8605 C   0  0  2  0  0  0
  -28.6969  -13.0754   20.9909 C   0  0  0  0  0  0
  -25.2555  -13.8137   20.5648 C   0  0  0  0  0  0
  -24.1832  -13.0417   20.9203 C   0  0  0  0  0  0
  -24.6399  -11.6891   20.8762 C   0  0  0  0  0  0
  -23.9063  -10.4278   21.0426 C   0  0  0  0  0  0
  -24.3618   -9.4191   21.9199 C   0  0  0  0  0  0
  -23.6294   -8.2224   22.0761 C   0  0  0  0  0  0
  -22.4278   -8.0269   21.3544 C   0  0  0  0  0  0
  -21.9912   -9.0246   20.4649 C   0  0  0  0  0  0
  -22.7240  -10.2123   20.3068 C   0  0  0  0  0  0
  -21.6848   -6.0731   22.5285 C   0  0  0  0  0  0
  -21.4000   -6.5637   23.8216 C   0  0  0  0  0  0
  -21.3665   -5.6795   24.9184 C   0  0  0  0  0  0
  -21.6054   -4.3057   24.7237 C   0  0  0  0  0  0
  -21.8817   -3.8144   23.4358 C   0  0  0  0  0  0
  -21.9189   -4.6958   22.3412 C   0  0  0  0  0  0
  -22.7859  -13.5222   21.1881 C   0  0  0  0  0  0
  -22.1659   -4.2142   21.0991 F   0  0  0  0  0  0
  -21.5638   -3.4540   25.7749 F   0  0  0  0  0  0
  -30.0124  -13.4210   20.4278 N   0  0  0  0  0  0
  -26.2985  -12.9322   20.3304 N   0  0  0  0  0  0
  -25.9325  -11.6482   20.5762 N   0  0  0  0  0  0
  -22.0496  -12.8209   22.0431 N   0  0  0  0  0  0
  -25.4251  -15.1833   20.3970 N   0  0  0  0  0  0
  -31.7691  -14.8220   20.0955 O   0  0  0  0  0  0
  -21.6640   -6.8869   21.4243 O   0  0  0  0  0  0
  -22.3549  -14.5542   20.6751 O   0  0  0  0  0  0
  -24.6279  -31.8582   23.2021 C   0  0  0  0  0  0
  -25.9119  -32.4775   23.8357 C   0  0  1  0  0  0
  -27.2222  -27.3111   20.1093 C   0  0  0  0  0  0
  -25.5937  -33.8574   24.2285 N   0  0  0  0  0  0
  -23.4213  -30.4835   21.5454 C   0  0  2  0  0  0
  -24.8665  -28.9391   20.1103 C   0  0  0  0  0  0
  -22.7486  -29.4622   22.4931 C   0  0  0  0  0  0
  -18.0298  -28.1382   22.8498 C   0  0  0  0  0  0
  -24.1489  -36.7280   23.2637 C   0  0  0  0  0  0
  -25.9650  -30.7872   21.3735 C   0  0  0  0  0  0
  -26.0372  -29.4152   20.7133 C   0  0  0  0  0  0
  -27.2196  -28.6141   20.7006 C   0  0  0  0  0  0
  -26.0230  -26.8903   19.4876 C   0  0  0  0  0  0
  -24.8610  -27.6829   19.4888 C   0  0  0  0  0  0
  -23.6353  -29.8204   20.1608 C   0  0  0  0  0  0
  -25.4117  -36.3073   24.0332 C   0  0  1  0  0  0
  -20.5900  -28.3669   23.1285 C   0  0  2  0  0  0
  -20.6792  -26.9393   22.5402 C   0  0  0  0  0  0
  -19.5768  -26.6379   21.5206 C   0  0  0  0  0  0
  -18.1943  -26.7934   22.1617 C   0  0  0  0  0  0
  -19.1553  -28.8845   23.2885 C   0  0  0  0  0  0
  -18.9473  -30.1454   23.8891 C   0  0  0  0  0  0
  -17.6470  -30.6588   24.0566 C   0  0  0  0  0  0
  -25.9052  -34.9444   23.5103 C   0  0  0  0  0  0
  -16.5358  -29.9084   23.6344 C   0  0  0  0  0  0
  -16.7281  -28.6503   23.0361 C   0  0  0  0  0  0
  -26.4505  -31.6583   25.0728 C   0  0  0  0  0  0
  -25.3743  -31.3747   26.1458 C   0  0  0  0  0  0
  -27.0343  -30.3012   24.6166 C   0  0  0  0  0  0
  -27.6068  -32.4313   25.7495 C   0  0  0  0  0  0
  -27.5579  -37.1797   24.8471 C   0  0  0  0  0  0
  -21.4202  -29.3030   22.3682 N   0  0  0  0  0  0
  -26.4293  -37.3767   23.9411 N   0  0  0  0  0  0
  -24.6906  -31.0598   22.0968 N   0  0  0  0  0  0
  -23.4220  -28.8162   23.2998 O   0  0  0  0  0  0
  -28.3394  -26.4570   20.1494 O   0  0  0  0  0  0
  -26.5602  -34.8916   22.4656 O   0  0  0  0  0  0
  -23.5448  -32.1369   23.7360 O   0  0  0  0  0  0
  -28.9090  -19.4259   21.1726 C   0  0  0  0  0  0
  -30.7473  -17.8193   19.8103 C   0  0  0  0  0  0
  -28.8928  -18.0019   21.3435 C   0  0  0  0  0  0
  -29.8271  -20.0915   20.3189 C   0  0  0  0  0  0
  -29.8367  -17.1536   20.6738 C   0  0  0  0  0  0
  -30.7422  -19.2366   19.6403 C   0  0  0  0  0  0
  -29.0415  -22.4349   20.3769 C   0  0  0  0  0  0
  -26.4408  -17.9907   22.1436 C   0  0  0  0  0  0
  -27.8560  -17.4095   22.3026 C   0  0  0  0  0  0
  -29.3164  -23.9930   20.3314 C   0  0  0  0  0  0
  -28.1126  -24.9915   20.0368 C   0  0  0  0  0  0
  -29.9496  -21.5239   20.1763 N   0  0  0  0  0  0
  -29.7941  -15.6931   20.8616 N   0  0  0  0  0  0
  -31.6577  -19.7868   18.8051 F   0  0  0  0  0  0
  -31.4797  -12.5276   19.1488 H   0  0  0  0  0  0
  -30.3805  -11.4030   19.8981 H   0  0  0  0  0  0
  -29.7718  -11.7391   17.4878 H   0  0  0  0  0  0
  -29.6492  -13.4634   17.7314 H   0  0  0  0  0  0
  -27.8738  -11.2854   18.8767 H   0  0  0  0  0  0
  -27.3743  -12.5575   17.7947 H   0  0  0  0  0  0
  -27.6677  -14.2474   19.5137 H   0  0  0  0  0  0
  -28.7114  -12.0549   21.3763 H   0  0  0  0  0  0
  -28.4379  -13.7077   21.8412 H   0  0  0  0  0  0
  -25.2762   -9.5670   22.4767 H   0  0  0  0  0  0
  -24.0009   -7.4615   22.7473 H   0  0  0  0  0  0
  -21.0848   -8.8770   19.8946 H   0  0  0  0  0  0
  -22.3715  -10.9669   19.6179 H   0  0  0  0  0  0
  -21.1973   -7.6142   23.9718 H   0  0  0  0  0  0
  -21.1499   -6.0526   25.9090 H   0  0  0  0  0  0
  -22.0590   -2.7605   23.2867 H   0  0  0  0  0  0
  -22.4113  -11.9856   22.4798 H   0  0  0  0  0  0
  -21.1118  -13.1232   22.2647 H   0  0  0  0  0  0
  -24.6528  -15.8324   20.4931 H   0  0  0  0  0  0
  -26.2644  -15.6162   20.0353 H   0  0  0  0  0  0
  -26.7179  -32.5434   23.1100 H   0  0  0  0  0  0
  -25.0149  -33.9724   25.0478 H   0  0  0  0  0  0
  -22.7170  -31.3062   21.4050 H   0  0  0  0  0  0
  -23.3757  -35.9604   23.3302 H   0  0  0  0  0  0
  -24.3592  -36.8889   22.2050 H   0  0  0  0  0  0
  -23.7243  -37.6486   23.6653 H   0  0  0  0  0  0
  -26.1030  -31.5533   20.6094 H   0  0  0  0  0  0
  -26.8441  -30.8309   22.0043 H   0  0  0  0  0  0
  -28.1194  -28.9788   21.1752 H   0  0  0  0  0  0
  -25.9499  -25.9322   18.9969 H   0  0  0  0  0  0
  -23.9624  -27.3151   19.0131 H   0  0  0  0  0  0
  -23.7532  -30.5974   19.4050 H   0  0  0  0  0  0
  -22.7559  -29.2486   19.8588 H   0  0  0  0  0  0
  -25.1303  -36.1915   25.0826 H   0  0  0  0  0  0
  -20.9996  -28.3226   24.1400 H   0  0  0  0  0  0
  -20.5700  -26.2268   23.3595 H   0  0  0  0  0  0
  -21.6657  -26.7437   22.1176 H   0  0  0  0  0  0
  -19.6922  -25.6286   21.1234 H   0  0  0  0  0  0
  -19.6711  -27.3205   20.6742 H   0  0  0  0  0  0
  -17.4214  -26.6684   21.4011 H   0  0  0  0  0  0
  -18.0341  -26.0084   22.9018 H   0  0  0  0  0  0
  -19.7940  -30.7286   24.2245 H   0  0  0  0  0  0
  -17.5020  -31.6274   24.5157 H   0  0  0  0  0  0
  -15.5360  -30.2981   23.7676 H   0  0  0  0  0  0
  -15.8683  -28.0823   22.7068 H   0  0  0  0  0  0
  -24.5904  -30.7107   25.7804 H   0  0  0  0  0  0
  -24.8960  -32.2925   26.4877 H   0  0  0  0  0  0
  -25.8068  -30.8934   27.0234 H   0  0  0  0  0  0
  -26.2907  -29.6768   24.1201 H   0  0  0  0  0  0
  -27.4073  -29.7264   25.4652 H   0  0  0  0  0  0
  -27.8764  -30.4330   23.9374 H   0  0  0  0  0  0
  -27.2694  -33.3631   26.2042 H   0  0  0  0  0  0
  -28.3891  -32.6826   25.0326 H   0  0  0  0  0  0
  -28.0704  -31.8444   26.5432 H   0  0  0  0  0  0
  -28.2595  -38.0092   24.7506 H   0  0  0  0  0  0
  -28.1072  -36.2622   24.6309 H   0  0  0  0  0  0
  -27.2298  -37.1454   25.8874 H   0  0  0  0  0  0
  -20.9379  -29.8748   21.6891 H   0  0  0  0  0  0
  -26.0171  -38.2839   24.1415 H   0  0  0  0  0  0
  -28.2154  -20.0261   21.7400 H   0  0  0  0  0  0
  -31.4742  -17.2488   19.2516 H   0  0  0  0  0  0
  -28.0087  -22.1715   20.6220 H   0  0  0  0  0  0
  -25.7352  -17.4549   22.7792 H   0  0  0  0  0  0
  -26.0910  -17.9017   21.1158 H   0  0  0  0  0  0
  -26.3852  -19.0407   22.4287 H   0  0  0  0  0  0
  -28.2041  -17.5723   23.3232 H   0  0  0  0  0  0
  -27.7790  -16.3302   22.1829 H   0  0  0  0  0  0
  -30.0980  -24.1746   19.5933 H   0  0  0  0  0  0
  -29.7515  -24.2646   21.2929 H   0  0  0  0  0  0
  -27.2903  -24.7267   20.7044 H   0  0  0  0  0  0
  -27.7718  -24.7750   19.0235 H   0  0  0  0  0  0
  -28.9315  -15.3605   21.2631 H   0  0  0  0  0  0
  1 25  1  0  0  0
  1 30  2  0  0  0
  1 83  1  0  0  0
  2  3  1  0  0  0
  2 25  1  0  0  0
  2 85  1  0  0  0
  2 86  1  0  0  0
  3  4  1  0  0  0
  3 87  1  0  0  0
  3 88  1  0  0  0
  4  5  1  0  0  0
  4 89  1  0  0  0
  4 90  1  0  0  0
  5  6  1  0  0  0
  5 26  1  0  0  0
  5 91  1  0  0  0
  6 25  1  0  0  0
  6 92  1  0  0  0
  6 93  1  0  0  0
  7  8  2  0  0  0
  7 26  1  0  0  0
  7 29  1  0  0  0
  8  9  1  0  0  0
  8 22  1  0  0  0
  9 10  1  0  0  0
  9 27  2  0  0  0
 10 11  2  0  0  0
 10 15  1  0  0  0
 11 12  1  0  0  0
 11 94  1  0  0  0
 12 13  2  0  0  0
 12 95  1  0  0  0
 13 14  1  0  0  0
 13 31  1  0  0  0
 14 15  2  0  0  0
 14 96  1  0  0  0
 15 97  1  0  0  0
 16 17  2  0  0  0
 16 21  1  0  0  0
 16 31  1  0  0  0
 17 18  1  0  0  0
 17 98  1  0  0  0
 18 19  2  0  0  0
 18 99  1  0  0  0
 19 20  1  0  0  0
 19 24  1  0  0  0
 20 21  2  0  0  0
 20100  1  0  0  0
 21 23  1  0  0  0
 22 28  1  0  0  0
 22 32  2  0  0  0
 26 27  1  0  0  0
 28101  1  0  0  0
 28102  1  0  0  0
 29103  1  0  0  0
 29104  1  0  0  0
 33 34  1  0  0  0
 33 66  1  0  0  0
 33 70  2  0  0  0
 34 36  1  0  0  0
 34 59  1  0  0  0
 34105  1  0  0  0
 35 44  2  0  0  0
 35 45  1  0  0  0
 35 68  1  0  0  0
 36 56  1  0  0  0
 36106  1  0  0  0
 37 39  1  0  0  0
 37 47  1  0  0  0
 37 66  1  0  0  0
 37107  1  0  0  0
 38 43  2  0  0  0
 38 46  1  0  0  0
 38 47  1  0  0  0
 39 64  1  0  0  0
 39 67  2  0  0  0
 40 52  1  0  0  0
 40 53  2  0  0  0
 40 58  1  0  0  0
 41108  1  0  0  0
 41109  1  0  0  0
 41110  1  0  0  0
 41 48  1  0  0  0
 42 43  1  0  0  0
 42 66  1  0  0  0
 42111  1  0  0  0
 42112  1  0  0  0
 43 44  1  0  0  0
 44113  1  0  0  0
 45 46  2  0  0  0
 45114  1  0  0  0
 46115  1  0  0  0
 47116  1  0  0  0
 47117  1  0  0  0
 48 56  1  0  0  0
 48 65  1  0  0  0
 48118  1  0  0  0
 49 50  1  0  0  0
 49 53  1  0  0  0
 49 64  1  0  0  0
 49119  1  0  0  0
 50 51  1  0  0  0
 50120  1  0  0  0
 50121  1  0  0  0
 51 52  1  0  0  0
 51122  1  0  0  0
 51123  1  0  0  0
 52124  1  0  0  0
 52125  1  0  0  0
 53 54  1  0  0  0
 54 55  2  0  0  0
 54126  1  0  0  0
 55 57  1  0  0  0
 55127  1  0  0  0
 56 69  2  0  0  0
 57 58  2  0  0  0
 57128  1  0  0  0
 58129  1  0  0  0
 59 60  1  0  0  0
 59 61  1  0  0  0
 59 62  1  0  0  0
 60130  1  0  0  0
 60131  1  0  0  0
 60132  1  0  0  0
 61133  1  0  0  0
 61134  1  0  0  0
 61135  1  0  0  0
 62136  1  0  0  0
 62137  1  0  0  0
 62138  1  0  0  0
 63 65  1  0  0  0
 63139  1  0  0  0
 63140  1  0  0  0
 63141  1  0  0  0
 64142  1  0  0  0
 65143  1  0  0  0
 68 81  1  0  0  0
 71 73  2  0  0  0
 71 74  1  0  0  0
 71144  1  0  0  0
 72 75  2  0  0  0
 72 76  1  0  0  0
 72145  1  0  0  0
 73 75  1  0  0  0
 73 79  1  0  0  0
 74 76  2  0  0  0
 74 82  1  0  0  0
 75 83  1  0  0  0
 76 84  1  0  0  0
 77 80  1  0  0  0
 77 82  2  0  0  0
 77146  1  0  0  0
 78 79  1  0  0  0
 78147  1  0  0  0
 78148  1  0  0  0
 78149  1  0  0  0
 79150  1  0  0  0
 79151  1  0  0  0
 80 81  1  0  0  0
 80152  1  0  0  0
 80153  1  0  0  0
 81154  1  0  0  0
 81155  1  0  0  0
 83156  1  0  0  0
M  ISO  4   1 100  68 101  81 101  83 100
M  END
> <chiral flag>
0

> <version>
0

> <s_m_source_file>
/data/baiqing/PycharmProjects/Reinvent-master-3.2/result/LINK_invent/BTK/process_docking_weight1_custom_product_contain_oxygen_bond_distance_aromatic_linkinvent_7_9_3/rearranged_h_0124.sdf

> <i_m_source_file_index>
6

> <r_mmod_Potential_Energy-OPLS-2005>
71.1858673095703

> <r_mmod_Stretch_Energy-OPLS-2005>
86.3687591552734

> <r_mmod_Bend_Energy-OPLS-2005>
147.445785522461

> <r_mmod_Torsional_Energy-OPLS-2005>
214.912170410156

> <r_mmod_Improper_Torsional_Energy-OPLS-2005>
4.0088996887207

> <r_mmod_Van_der_Waal_Energy-OPLS-2005>
145.931365966797

> <r_mmod_Electrostatic_Energy-OPLS-2005>
-367.320098876953

> <r_mmod_Solvation_Energy-OPLS-2005>
-213.010848999023

> <b_mmod_Minimization_Converged-OPLS-2005>
0

> <r_mmod_RMS_Derivative-OPLS-2005>
1.82558012008667

$$$$
6
                    3D
 Structure written by MMmdl.
155163  0  0  1  0            999 V2000
  -30.6849  -14.4739   20.5859 C   0  0  0  0  0  0
  -30.4300  -12.3118   19.4185 C   0  0  0  0  0  0
  -29.4967  -12.5113   18.2055 C   0  0  0  0  0  0
  -28.0174  -12.3681   18.6172 C   0  0  0  0  0  0
  -27.6641  -13.2019   19.8775 C   0  0  2  0  0  0
  -28.7048  -12.9652   20.9956 C   0  0  0  0  0  0
  -25.2602  -13.8147   20.5670 C   0  0  0  0  0  0
  -24.1847  -13.0435   20.9174 C   0  0  0  0  0  0
  -24.6392  -11.6899   20.8733 C   0  0  0  0  0  0
  -23.9055  -10.4290   21.0405 C   0  0  0  0  0  0
  -24.3608   -9.4206   21.9183 C   0  0  0  0  0  0
  -23.6286   -8.2242   22.0754 C   0  0  0  0  0  0
  -22.4269   -8.0279   21.3543 C   0  0  0  0  0  0
  -21.9902   -9.0253   20.4648 C   0  0  0  0  0  0
  -22.7227  -10.2133   20.3056 C   0  0  0  0  0  0
  -21.6851   -6.0732   22.5278 C   0  0  0  0  0  0
  -21.4013   -6.5637   23.8211 C   0  0  0  0  0  0
  -21.3659   -5.6791   24.9174 C   0  0  0  0  0  0
  -21.6044   -4.3054   24.7226 C   0  0  0  0  0  0
  -21.8819   -3.8144   23.4348 C   0  0  0  0  0  0
  -21.9193   -4.6961   22.3402 C   0  0  0  0  0  0
  -22.7872  -13.5242   21.1837 C   0  0  0  0  0  0
  -22.1662   -4.2146   21.0979 F   0  0  0  0  0  0
  -21.5630   -3.4538   25.7739 F   0  0  0  0  0  0
  -30.0370  -13.2841   20.4501 N   0  0  0  0  0  0
  -26.3034  -12.9306   20.3365 N   0  0  0  0  0  0
  -25.9316  -11.6472   20.5761 N   0  0  0  0  0  0
  -22.0508  -12.8241   22.0397 N   0  0  0  0  0  0
  -25.4333  -15.1862   20.4048 N   0  0  0  0  0  0
  -31.8040  -14.6797   20.1063 O   0  0  0  0  0  0
  -21.6636   -6.8874   21.4240 O   0  0  0  0  0  0
  -22.3562  -14.5550   20.6686 O   0  0  0  0  0  0
  -24.6130  -31.8683   23.2106 C   0  0  0  0  0  0
  -25.9028  -32.4825   23.8402 C   0  0  1  0  0  0
  -27.2374  -27.4396   20.1017 C   0  0  0  0  0  0
  -25.5888  -33.8624   24.2333 N   0  0  0  0  0  0
  -23.4028  -30.4898   21.5501 C   0  0  2  0  0  0
  -24.8529  -28.9527   20.1190 C   0  0  0  0  0  0
  -22.7407  -29.4655   22.4995 C   0  0  0  0  0  0
  -18.0272  -28.1377   22.8497 C   0  0  0  0  0  0
  -24.1484  -36.7319   23.2638 C   0  0  0  0  0  0
  -25.9306  -30.8329   21.3661 C   0  0  0  0  0  0
  -26.0101  -29.4645   20.7213 C   0  0  0  0  0  0
  -27.2072  -28.7120   20.7177 C   0  0  0  0  0  0
  -26.0705  -26.9413   19.4913 C   0  0  0  0  0  0
  -24.8765  -27.6880   19.5038 C   0  0  0  0  0  0
  -23.6137  -29.8190   20.1659 C   0  0  0  0  0  0
  -25.4105  -36.3115   24.0339 C   0  0  1  0  0  0
  -20.5861  -28.3661   23.1323 C   0  0  2  0  0  0
  -20.6756  -26.9398   22.5421 C   0  0  0  0  0  0
  -19.5736  -26.6389   21.5214 C   0  0  0  0  0  0
  -18.1917  -26.7923   22.1629 C   0  0  0  0  0  0
  -19.1520  -28.8837   23.2906 C   0  0  0  0  0  0
  -18.9448  -30.1445   23.8913 C   0  0  0  0  0  0
  -17.6450  -30.6583   24.0570 C   0  0  0  0  0  0
  -25.9031  -34.9477   23.5134 C   0  0  0  0  0  0
  -16.5342  -29.9086   23.6328 C   0  0  0  0  0  0
  -16.7261  -28.6503   23.0349 C   0  0  0  0  0  0
  -26.4462  -31.6600   25.0725 C   0  0  0  0  0  0
  -25.3734  -31.3705   26.1479 C   0  0  0  0  0  0
  -27.0288  -30.3040   24.6095 C   0  0  0  0  0  0
  -27.6044  -32.4317   25.7481 C   0  0  0  0  0  0
  -27.5583  -37.1812   24.8465 C   0  0  0  0  0  0
  -21.4135  -29.3027   22.3730 N   0  0  0  0  0  0
  -26.4295  -37.3797   23.9411 N   0  0  0  0  0  0
  -24.6666  -31.0785   22.1008 N   0  0  0  0  0  0
  -23.4176  -28.8200   23.3043 O   0  0  0  0  0  0
  -28.3832  -26.6813   20.0446 O   0  0  0  0  0  0
  -26.5599  -34.8925   22.4699 O   0  0  0  0  0  0
  -23.5322  -32.1438   23.7496 O   0  0  0  0  0  0
  -29.0395  -19.0778   21.2870 C   0  0  0  0  0  0
  -28.9558  -17.6666   21.2703 C   0  0  0  0  0  0
  -31.3677  -17.5172   21.0742 C   0  0  0  0  0  0
  -30.2916  -19.7320   21.2181 C   0  0  0  0  0  0
  -30.1147  -16.8649   21.1576 C   0  0  0  0  0  0
  -31.4526  -18.9274   21.1030 C   0  0  0  0  0  0
  -30.4358  -21.2116   21.2839 C   0  0  0  0  0  0
  -29.4685  -22.1607   21.2479 C   0  0  0  0  0  0
  -28.7140  -24.4798   21.1075 C   0  0  0  0  0  0
  -29.7025  -23.6026   21.4168 C   0  0  0  0  0  0
  -31.0278  -24.1043   21.9805 C   0  0  0  0  0  0
  -28.7353  -26.0077   21.2569 C   0  0  0  0  0  0
  -29.9519  -15.4413   21.1777 N   0  0  0  0  0  0
  -32.6755  -19.5089   21.0323 F   0  0  0  0  0  0
  -31.4730  -12.4229   19.1164 H   0  0  0  0  0  0
  -30.3409  -11.2967   19.8086 H   0  0  0  0  0  0
  -29.7376  -11.7908   17.4228 H   0  0  0  0  0  0
  -29.6623  -13.4990   17.7720 H   0  0  0  0  0  0
  -27.8279  -11.3112   18.8090 H   0  0  0  0  0  0
  -27.3667  -12.6466   17.7875 H   0  0  0  0  0  0
  -27.7129  -14.2519   19.5884 H   0  0  0  0  0  0
  -28.6841  -11.9221   21.3144 H   0  0  0  0  0  0
  -28.4601  -13.5404   21.8896 H   0  0  0  0  0  0
  -25.2755   -9.5682   22.4754 H   0  0  0  0  0  0
  -23.9997   -7.4633   22.7472 H   0  0  0  0  0  0
  -21.0831   -8.8769   19.8955 H   0  0  0  0  0  0
  -22.3685  -10.9670   19.6163 H   0  0  0  0  0  0
  -21.2003   -7.6145   23.9712 H   0  0  0  0  0  0
  -21.1482   -6.0522   25.9076 H   0  0  0  0  0  0
  -22.0600   -2.7607   23.2848 H   0  0  0  0  0  0
  -22.4117  -11.9899   22.4784 H   0  0  0  0  0  0
  -21.1130  -13.1275   22.2603 H   0  0  0  0  0  0
  -24.6625  -15.8391   20.4963 H   0  0  0  0  0  0
  -26.2761  -15.6173   20.0467 H   0  0  0  0  0  0
  -26.7100  -32.5548   23.1173 H   0  0  0  0  0  0
  -25.0026  -33.9785   25.0468 H   0  0  0  0  0  0
  -22.6916  -31.3061   21.4091 H   0  0  0  0  0  0
  -23.3739  -35.9661   23.3312 H   0  0  0  0  0  0
  -24.3579  -36.8921   22.2051 H   0  0  0  0  0  0
  -23.7242  -37.6531   23.6643 H   0  0  0  0  0  0
  -26.0416  -31.5951   20.5935 H   0  0  0  0  0  0
  -26.8188  -30.8908   21.9832 H   0  0  0  0  0  0
  -28.1034  -29.1061   21.1764 H   0  0  0  0  0  0
  -26.0883  -25.9737   19.0097 H   0  0  0  0  0  0
  -23.9882  -27.2889   19.0341 H   0  0  0  0  0  0
  -23.7215  -30.5922   19.4043 H   0  0  0  0  0  0
  -22.7386  -29.2367   19.8715 H   0  0  0  0  0  0
  -25.1278  -36.1986   25.0831 H   0  0  0  0  0  0
  -20.9958  -28.3222   24.1441 H   0  0  0  0  0  0
  -20.5659  -26.2266   23.3604 H   0  0  0  0  0  0
  -21.6628  -26.7438   22.1216 H   0  0  0  0  0  0
  -19.6895  -25.6305   21.1228 H   0  0  0  0  0  0
  -19.6674  -27.3211   20.6754 H   0  0  0  0  0  0
  -17.4188  -26.6677   21.4030 H   0  0  0  0  0  0
  -18.0319  -26.0059   22.9020 H   0  0  0  0  0  0
  -19.7922  -30.7260   24.2286 H   0  0  0  0  0  0
  -17.5003  -31.6264   24.5170 H   0  0  0  0  0  0
  -15.5343  -30.2994   23.7638 H   0  0  0  0  0  0
  -15.8662  -28.0829   22.7051 H   0  0  0  0  0  0
  -24.5889  -30.7073   25.7817 H   0  0  0  0  0  0
  -24.8946  -32.2862   26.4960 H   0  0  0  0  0  0
  -25.8089  -30.8846   27.0219 H   0  0  0  0  0  0
  -26.2829  -29.6811   24.1143 H   0  0  0  0  0  0
  -27.4049  -29.7266   25.4551 H   0  0  0  0  0  0
  -27.8670  -30.4358   23.9247 H   0  0  0  0  0  0
  -27.2667  -33.3605   26.2093 H   0  0  0  0  0  0
  -28.3832  -32.6899   25.0294 H   0  0  0  0  0  0
  -28.0736  -31.8421   26.5367 H   0  0  0  0  0  0
  -28.2608  -38.0103   24.7513 H   0  0  0  0  0  0
  -28.1070  -36.2637   24.6285 H   0  0  0  0  0  0
  -27.2304  -37.1462   25.8869 H   0  0  0  0  0  0
  -20.9295  -29.8751   21.6952 H   0  0  0  0  0  0
  -26.0184  -38.2877   24.1406 H   0  0  0  0  0  0
  -28.1277  -19.6487   21.3799 H   0  0  0  0  0  0
  -27.9810  -17.2044   21.3456 H   0  0  0  0  0  0
  -32.2857  -16.9536   21.0055 H   0  0  0  0  0  0
  -31.4583  -21.5402   21.3920 H   0  0  0  0  0  0
  -28.4462  -21.8373   21.1124 H   0  0  0  0  0  0
  -27.7806  -24.0924   20.7236 H   0  0  0  0  0  0
  -31.5505  -23.3389   22.5525 H   0  0  0  0  0  0
  -30.8826  -24.9295   22.6771 H   0  0  0  0  0  0
  -31.6833  -24.4390   21.1759 H   0  0  0  0  0  0
  -29.7194  -26.3719   21.5453 H   0  0  0  0  0  0
  -28.0616  -26.2718   22.0749 H   0  0  0  0  0  0
  -29.0544  -15.1132   21.5002 H   0  0  0  0  0  0
  1 25  1  0  0  0
  1 30  2  0  0  0
  1 83  1  0  0  0
  2  3  1  0  0  0
  2 25  1  0  0  0
  2 85  1  0  0  0
  2 86  1  0  0  0
  3  4  1  0  0  0
  3 87  1  0  0  0
  3 88  1  0  0  0
  4  5  1  0  0  0
  4 89  1  0  0  0
  4 90  1  0  0  0
  5  6  1  0  0  0
  5 26  1  0  0  0
  5 91  1  0  0  0
  6 25  1  0  0  0
  6 92  1  0  0  0
  6 93  1  0  0  0
  7  8  2  0  0  0
  7 26  1  0  0  0
  7 29  1  0  0  0
  8  9  1  0  0  0
  8 22  1  0  0  0
  9 10  1  0  0  0
  9 27  2  0  0  0
 10 11  2  0  0  0
 10 15  1  0  0  0
 11 12  1  0  0  0
 11 94  1  0  0  0
 12 13  2  0  0  0
 12 95  1  0  0  0
 13 14  1  0  0  0
 13 31  1  0  0  0
 14 15  2  0  0  0
 14 96  1  0  0  0
 15 97  1  0  0  0
 16 17  2  0  0  0
 16 21  1  0  0  0
 16 31  1  0  0  0
 17 18  1  0  0  0
 17 98  1  0  0  0
 18 19  2  0  0  0
 18 99  1  0  0  0
 19 20  1  0  0  0
 19 24  1  0  0  0
 20 21  2  0  0  0
 20100  1  0  0  0
 21 23  1  0  0  0
 22 28  1  0  0  0
 22 32  2  0  0  0
 26 27  1  0  0  0
 28101  1  0  0  0
 28102  1  0  0  0
 29103  1  0  0  0
 29104  1  0  0  0
 33 34  1  0  0  0
 33 66  1  0  0  0
 33 70  2  0  0  0
 34 36  1  0  0  0
 34 59  1  0  0  0
 34105  1  0  0  0
 35 44  2  0  0  0
 35 45  1  0  0  0
 35 68  1  0  0  0
 36 56  1  0  0  0
 36106  1  0  0  0
 37 39  1  0  0  0
 37 47  1  0  0  0
 37 66  1  0  0  0
 37107  1  0  0  0
 38 43  2  0  0  0
 38 46  1  0  0  0
 38 47  1  0  0  0
 39 64  1  0  0  0
 39 67  2  0  0  0
 40 52  1  0  0  0
 40 53  2  0  0  0
 40 58  1  0  0  0
 41108  1  0  0  0
 41109  1  0  0  0
 41110  1  0  0  0
 41 48  1  0  0  0
 42 43  1  0  0  0
 42 66  1  0  0  0
 42111  1  0  0  0
 42112  1  0  0  0
 43 44  1  0  0  0
 44113  1  0  0  0
 45 46  2  0  0  0
 45114  1  0  0  0
 46115  1  0  0  0
 47116  1  0  0  0
 47117  1  0  0  0
 48 56  1  0  0  0
 48 65  1  0  0  0
 48118  1  0  0  0
 49 50  1  0  0  0
 49 53  1  0  0  0
 49 64  1  0  0  0
 49119  1  0  0  0
 50 51  1  0  0  0
 50120  1  0  0  0
 50121  1  0  0  0
 51 52  1  0  0  0
 51122  1  0  0  0
 51123  1  0  0  0
 52124  1  0  0  0
 52125  1  0  0  0
 53 54  1  0  0  0
 54 55  2  0  0  0
 54126  1  0  0  0
 55 57  1  0  0  0
 55127  1  0  0  0
 56 69  2  0  0  0
 57 58  2  0  0  0
 57128  1  0  0  0
 58129  1  0  0  0
 59 60  1  0  0  0
 59 61  1  0  0  0
 59 62  1  0  0  0
 60130  1  0  0  0
 60131  1  0  0  0
 60132  1  0  0  0
 61133  1  0  0  0
 61134  1  0  0  0
 61135  1  0  0  0
 62136  1  0  0  0
 62137  1  0  0  0
 62138  1  0  0  0
 63 65  1  0  0  0
 63139  1  0  0  0
 63140  1  0  0  0
 63141  1  0  0  0
 64142  1  0  0  0
 65143  1  0  0  0
 68 82  1  0  0  0
 71 72  2  0  0  0
 71 74  1  0  0  0
 71144  1  0  0  0
 72 75  1  0  0  0
 72145  1  0  0  0
 73 75  2  0  0  0
 73 76  1  0  0  0
 73146  1  0  0  0
 74 76  2  0  0  0
 74 77  1  0  0  0
 75 83  1  0  0  0
 76 84  1  0  0  0
 77 78  2  0  0  0
 77147  1  0  0  0
 78 80  1  0  0  0
 78148  1  0  0  0
 79 80  2  0  0  0
 79 82  1  0  0  0
 79149  1  0  0  0
 80 81  1  0  0  0
 81150  1  0  0  0
 81151  1  0  0  0
 81152  1  0  0  0
 82153  1  0  0  0
 82154  1  0  0  0
 83155  1  0  0  0
M  ISO  4   1 100  68 101  82 101  83 100
M  END
> <chiral flag>
0

> <version>
0

> <s_m_source_file>
/data/baiqing/PycharmProjects/Reinvent-master-3.2/result/LINK_invent/BTK/process_docking_weight1_custom_product_contain_oxygen_bond_distance_aromatic_linkinvent_7_9_3/rearranged_h_0124.sdf

> <i_m_source_file_index>
7

> <r_mmod_Potential_Energy-OPLS-2005>
-6.27355194091797

> <r_mmod_Stretch_Energy-OPLS-2005>
38.8617172241211

> <r_mmod_Bend_Energy-OPLS-2005>
101.268165588379

> <r_mmod_Torsional_Energy-OPLS-2005>
230.598251342773

> <r_mmod_Improper_Torsional_Energy-OPLS-2005>
4.07430028915405

> <r_mmod_Van_der_Waal_Energy-OPLS-2005>
158.980972290039

> <r_mmod_Electrostatic_Energy-OPLS-2005>
-352.755157470703

> <r_mmod_Solvation_Energy-OPLS-2005>
-198.525680541992

> <b_mmod_Minimization_Converged-OPLS-2005>
0

> <r_mmod_RMS_Derivative-OPLS-2005>
0.41119647026062

$$$$
7
                    3D
 Structure written by MMmdl.
151159  0  0  1  0            999 V2000
  -30.6132  -14.6829   20.5067 C   0  0  0  0  0  0
  -30.4195  -12.4298   19.4757 C   0  0  0  0  0  0
  -29.5012  -12.5395   18.2375 C   0  0  0  0  0  0
  -28.0233  -12.3650   18.6324 C   0  0  0  0  0  0
  -27.6350  -13.2250   19.8609 C   0  0  2  0  0  0
  -28.6681  -13.0797   20.9942 C   0  0  0  0  0  0
  -25.2451  -13.8104   20.5711 C   0  0  0  0  0  0
  -24.1705  -13.0350   20.9126 C   0  0  0  0  0  0
  -24.6314  -11.6830   20.8660 C   0  0  0  0  0  0
  -23.9010  -10.4211   21.0371 C   0  0  0  0  0  0
  -24.3560   -9.4150   21.9190 C   0  0  0  0  0  0
  -23.6214   -8.2183   22.0757 C   0  0  0  0  0  0
  -22.4208   -8.0193   21.3519 C   0  0  0  0  0  0
  -21.9840   -9.0199   20.4643 C   0  0  0  0  0  0
  -22.7180  -10.2071   20.3040 C   0  0  0  0  0  0
  -21.6815   -6.0650   22.5261 C   0  0  0  0  0  0
  -21.4052   -6.5579   23.8191 C   0  0  0  0  0  0
  -21.3662   -5.6747   24.9168 C   0  0  0  0  0  0
  -21.6028   -4.3006   24.7240 C   0  0  0  0  0  0
  -21.8812   -3.8076   23.4367 C   0  0  0  0  0  0
  -21.9217   -4.6886   22.3423 C   0  0  0  0  0  0
  -22.7765  -13.5173   21.1836 C   0  0  0  0  0  0
  -22.1638   -4.2051   21.1005 F   0  0  0  0  0  0
  -21.5629   -3.4522   25.7768 F   0  0  0  0  0  0
  -29.9852  -13.4544   20.4540 N   0  0  0  0  0  0
  -26.2850  -12.9295   20.3291 N   0  0  0  0  0  0
  -25.9240  -11.6420   20.5691 N   0  0  0  0  0  0
  -22.0412  -12.8141   22.0379 N   0  0  0  0  0  0
  -25.4188  -15.1829   20.4371 N   0  0  0  0  0  0
  -31.7629  -14.8112   20.0655 O   0  0  0  0  0  0
  -21.6582   -6.8773   21.4198 O   0  0  0  0  0  0
  -22.3490  -14.5559   20.6793 O   0  0  0  0  0  0
  -24.6364  -31.8602   23.2046 C   0  0  0  0  0  0
  -25.9200  -32.4753   23.8375 C   0  0  1  0  0  0
  -27.1616  -27.2463   20.0919 C   0  0  0  0  0  0
  -25.6001  -33.8562   24.2327 N   0  0  0  0  0  0
  -23.4259  -30.4963   21.5498 C   0  0  2  0  0  0
  -24.8546  -28.9589   20.0927 C   0  0  0  0  0  0
  -22.7542  -29.4663   22.4900 C   0  0  0  0  0  0
  -18.0312  -28.1396   22.8525 C   0  0  0  0  0  0
  -24.1482  -36.7278   23.2652 C   0  0  0  0  0  0
  -25.9767  -30.7633   21.3836 C   0  0  0  0  0  0
  -26.0305  -29.3896   20.7160 C   0  0  0  0  0  0
  -27.1884  -28.5441   20.7056 C   0  0  0  0  0  0
  -25.9599  -26.8975   19.4283 C   0  0  0  0  0  0
  -24.8249  -27.7254   19.4341 C   0  0  0  0  0  0
  -23.6338  -29.8557   20.1559 C   0  0  0  0  0  0
  -25.4091  -36.3077   24.0367 C   0  0  1  0  0  0
  -20.5914  -28.3707   23.1281 C   0  0  2  0  0  0
  -20.6776  -26.9418   22.5408 C   0  0  0  0  0  0
  -19.5719  -26.6389   21.5259 C   0  0  0  0  0  0
  -18.1915  -26.7944   22.1668 C   0  0  0  0  0  0
  -19.1563  -28.8872   23.2900 C   0  0  0  0  0  0
  -18.9482  -30.1484   23.8897 C   0  0  0  0  0  0
  -17.6466  -30.6581   24.0588 C   0  0  0  0  0  0
  -25.9061  -34.9443   23.5137 C   0  0  0  0  0  0
  -16.5357  -29.9083   23.6336 C   0  0  0  0  0  0
  -16.7301  -28.6501   23.0367 C   0  0  0  0  0  0
  -26.4517  -31.6576   25.0757 C   0  0  0  0  0  0
  -25.3735  -31.3738   26.1481 C   0  0  0  0  0  0
  -27.0404  -30.3007   24.6263 C   0  0  0  0  0  0
  -27.6079  -32.4314   25.7509 C   0  0  0  0  0  0
  -27.5573  -37.1789   24.8471 C   0  0  0  0  0  0
  -21.4242  -29.3089   22.3691 N   0  0  0  0  0  0
  -26.4250  -37.3782   23.9455 N   0  0  0  0  0  0
  -24.7015  -31.0569   22.1021 N   0  0  0  0  0  0
  -23.4263  -28.8172   23.2950 O   0  0  0  0  0  0
  -28.2194  -26.3092   20.1560 O   0  0  0  0  0  0
  -26.5613  -34.8900   22.4697 O   0  0  0  0  0  0
  -23.5513  -32.1423   23.7338 O   0  0  0  0  0  0
  -29.4821  -18.5992   20.7135 C   0  0  0  0  0  0
  -30.0220  -17.2301   18.7878 C   0  0  0  0  0  0
  -29.6208  -19.6487   18.5340 C   0  0  0  0  0  0
  -29.8061  -17.2835   20.1859 C   0  0  0  0  0  0
  -29.3834  -19.8089   19.9224 C   0  0  0  0  0  0
  -29.9389  -18.3879   17.9877 C   0  0  0  0  0  0
  -29.8351  -15.9769   21.0306 C   0  0  0  0  0  0
  -28.7813  -23.6894   20.3473 C   0  0  0  0  0  0
  -27.8643  -24.8826   19.8329 C   0  0  0  0  0  0
  -28.6202  -22.2346   19.7055 C   0  0  0  0  0  0
  -29.2567  -15.9724   22.1625 N   0  0  0  0  0  0
  -29.6009  -23.8825   21.2509 O   0  0  0  0  0  0
  -29.1032  -21.0760   20.5086 O   0  0  0  0  0  0
  -30.1648  -18.2891   16.6567 F   0  0  0  0  0  0
  -31.4587  -12.5532   19.1666 H   0  0  0  0  0  0
  -30.3613  -11.4302   19.9127 H   0  0  0  0  0  0
  -29.7755  -11.7910   17.4974 H   0  0  0  0  0  0
  -29.6460  -13.5107   17.7612 H   0  0  0  0  0  0
  -27.8510  -11.3096   18.8483 H   0  0  0  0  0  0
  -27.3799  -12.6108   17.7883 H   0  0  0  0  0  0
  -27.6469  -14.2641   19.5287 H   0  0  0  0  0  0
  -28.6894  -12.0528   21.3592 H   0  0  0  0  0  0
  -28.3666  -13.6828   21.8446 H   0  0  0  0  0  0
  -25.2696   -9.5599   22.4820 H   0  0  0  0  0  0
  -23.9887   -7.4558   22.7503 H   0  0  0  0  0  0
  -21.0756   -8.8725   19.8967 H   0  0  0  0  0  0
  -22.3630  -10.9601   19.6151 H   0  0  0  0  0  0
  -21.2037   -7.6077   23.9649 H   0  0  0  0  0  0
  -21.1491   -6.0503   25.9065 H   0  0  0  0  0  0
  -22.0611   -2.7521   23.2929 H   0  0  0  0  0  0
  -22.4017  -11.9736   22.4608 H   0  0  0  0  0  0
  -21.1107  -13.1221   22.2815 H   0  0  0  0  0  0
  -24.6750  -15.8332   20.6604 H   0  0  0  0  0  0
  -26.3112  -15.6342   20.2742 H   0  0  0  0  0  0
  -26.7255  -32.5370   23.1091 H   0  0  0  0  0  0
  -25.0183  -33.9733   25.0507 H   0  0  0  0  0  0
  -22.7228  -31.3218   21.4222 H   0  0  0  0  0  0
  -23.3744  -35.9611   23.3275 H   0  0  0  0  0  0
  -24.3589  -36.8915   22.2072 H   0  0  0  0  0  0
  -23.7195  -37.6465   23.6655 H   0  0  0  0  0  0
  -26.1169  -31.5216   20.6122 H   0  0  0  0  0  0
  -26.8588  -30.8052   22.0120 H   0  0  0  0  0  0
  -28.0845  -28.8622   21.2155 H   0  0  0  0  0  0
  -25.8461  -25.9634   18.9008 H   0  0  0  0  0  0
  -23.9224  -27.4178   18.9199 H   0  0  0  0  0  0
  -23.7550  -30.6436   19.4114 H   0  0  0  0  0  0
  -22.7418  -29.3044   19.8490 H   0  0  0  0  0  0
  -25.1235  -36.1913   25.0846 H   0  0  0  0  0  0
  -21.0040  -28.3247   24.1391 H   0  0  0  0  0  0
  -20.5709  -26.2344   23.3623 H   0  0  0  0  0  0
  -21.6636  -26.7459   22.1168 H   0  0  0  0  0  0
  -19.6867  -25.6320   21.1253 H   0  0  0  0  0  0
  -19.6582  -27.3239   20.6810 H   0  0  0  0  0  0
  -17.4188  -26.6791   21.4034 H   0  0  0  0  0  0
  -18.0220  -26.0063   22.9013 H   0  0  0  0  0  0
  -19.7954  -30.7346   24.2204 H   0  0  0  0  0  0
  -17.5006  -31.6252   24.5229 H   0  0  0  0  0  0
  -15.5357  -30.2983   23.7648 H   0  0  0  0  0  0
  -15.8707  -28.0834   22.7051 H   0  0  0  0  0  0
  -24.5908  -30.7075   25.7807 H   0  0  0  0  0  0
  -24.8917  -32.2925   26.4848 H   0  0  0  0  0  0
  -25.8023  -30.8934   27.0305 H   0  0  0  0  0  0
  -26.3035  -29.6696   24.1279 H   0  0  0  0  0  0
  -27.4119  -29.7262   25.4775 H   0  0  0  0  0  0
  -27.8865  -30.4292   23.9510 H   0  0  0  0  0  0
  -27.2728  -33.3678   26.1975 H   0  0  0  0  0  0
  -28.3912  -32.6787   25.0330 H   0  0  0  0  0  0
  -28.0721  -31.8517   26.5503 H   0  0  0  0  0  0
  -28.2551  -38.0139   24.7583 H   0  0  0  0  0  0
  -28.1103  -36.2666   24.6157 H   0  0  0  0  0  0
  -27.2339  -37.1281   25.8893 H   0  0  0  0  0  0
  -20.9425  -29.8878   21.6957 H   0  0  0  0  0  0
  -26.0123  -38.2851   24.1459 H   0  0  0  0  0  0
  -29.2839  -18.6853   21.7706 H   0  0  0  0  0  0
  -30.2477  -16.2936   18.2951 H   0  0  0  0  0  0
  -29.5841  -20.4716   17.8371 H   0  0  0  0  0  0
  -26.8927  -24.6702   20.2855 H   0  0  0  0  0  0
  -27.7425  -24.7739   18.7510 H   0  0  0  0  0  0
  -29.1322  -22.2743   18.7462 H   0  0  0  0  0  0
  -27.5637  -22.0736   19.4888 H   0  0  0  0  0  0
  -29.3571  -15.0749   22.6304 H   0  0  0  0  0  0
  1 25  1  0  0  0
  1 30  2  0  0  0
  1 77  1  0  0  0
  2  3  1  0  0  0
  2 25  1  0  0  0
  2 85  1  0  0  0
  2 86  1  0  0  0
  3  4  1  0  0  0
  3 87  1  0  0  0
  3 88  1  0  0  0
  4  5  1  0  0  0
  4 89  1  0  0  0
  4 90  1  0  0  0
  5  6  1  0  0  0
  5 26  1  0  0  0
  5 91  1  0  0  0
  6 25  1  0  0  0
  6 92  1  0  0  0
  6 93  1  0  0  0
  7  8  2  0  0  0
  7 26  1  0  0  0
  7 29  1  0  0  0
  8  9  1  0  0  0
  8 22  1  0  0  0
  9 10  1  0  0  0
  9 27  2  0  0  0
 10 11  2  0  0  0
 10 15  1  0  0  0
 11 12  1  0  0  0
 11 94  1  0  0  0
 12 13  2  0  0  0
 12 95  1  0  0  0
 13 14  1  0  0  0
 13 31  1  0  0  0
 14 15  2  0  0  0
 14 96  1  0  0  0
 15 97  1  0  0  0
 16 17  2  0  0  0
 16 21  1  0  0  0
 16 31  1  0  0  0
 17 18  1  0  0  0
 17 98  1  0  0  0
 18 19  2  0  0  0
 18 99  1  0  0  0
 19 20  1  0  0  0
 19 24  1  0  0  0
 20 21  2  0  0  0
 20100  1  0  0  0
 21 23  1  0  0  0
 22 28  1  0  0  0
 22 32  2  0  0  0
 26 27  1  0  0  0
 28101  1  0  0  0
 28102  1  0  0  0
 29103  1  0  0  0
 29104  1  0  0  0
 33 34  1  0  0  0
 33 66  1  0  0  0
 33 70  2  0  0  0
 34 36  1  0  0  0
 34 59  1  0  0  0
 34105  1  0  0  0
 35 44  2  0  0  0
 35 45  1  0  0  0
 35 68  1  0  0  0
 36 56  1  0  0  0
 36106  1  0  0  0
 37 39  1  0  0  0
 37 47  1  0  0  0
 37 66  1  0  0  0
 37107  1  0  0  0
 38 43  2  0  0  0
 38 46  1  0  0  0
 38 47  1  0  0  0
 39 64  1  0  0  0
 39 67  2  0  0  0
 40 52  1  0  0  0
 40 53  2  0  0  0
 40 58  1  0  0  0
 41108  1  0  0  0
 41109  1  0  0  0
 41110  1  0  0  0
 41 48  1  0  0  0
 42 43  1  0  0  0
 42 66  1  0  0  0
 42111  1  0  0  0
 42112  1  0  0  0
 43 44  1  0  0  0
 44113  1  0  0  0
 45 46  2  0  0  0
 45114  1  0  0  0
 46115  1  0  0  0
 47116  1  0  0  0
 47117  1  0  0  0
 48 56  1  0  0  0
 48 65  1  0  0  0
 48118  1  0  0  0
 49 50  1  0  0  0
 49 53  1  0  0  0
 49 64  1  0  0  0
 49119  1  0  0  0
 50 51  1  0  0  0
 50120  1  0  0  0
 50121  1  0  0  0
 51 52  1  0  0  0
 51122  1  0  0  0
 51123  1  0  0  0
 52124  1  0  0  0
 52125  1  0  0  0
 53 54  1  0  0  0
 54 55  2  0  0  0
 54126  1  0  0  0
 55 57  1  0  0  0
 55127  1  0  0  0
 56 69  2  0  0  0
 57 58  2  0  0  0
 57128  1  0  0  0
 58129  1  0  0  0
 59 60  1  0  0  0
 59 61  1  0  0  0
 59 62  1  0  0  0
 60130  1  0  0  0
 60131  1  0  0  0
 60132  1  0  0  0
 61133  1  0  0  0
 61134  1  0  0  0
 61135  1  0  0  0
 62136  1  0  0  0
 62137  1  0  0  0
 62138  1  0  0  0
 63 65  1  0  0  0
 63139  1  0  0  0
 63140  1  0  0  0
 63141  1  0  0  0
 64142  1  0  0  0
 65143  1  0  0  0
 68 79  1  0  0  0
 71 74  2  0  0  0
 71 75  1  0  0  0
 71144  1  0  0  0
 72 74  1  0  0  0
 72 76  2  0  0  0
 72145  1  0  0  0
 73 75  2  0  0  0
 73 76  1  0  0  0
 73146  1  0  0  0
 74 77  1  0  0  0
 75 83  1  0  0  0
 76 84  1  0  0  0
 77 81  2  0  0  0
 78 79  1  0  0  0
 78 80  1  0  0  0
 78 82  2  0  0  0
 79147  1  0  0  0
 79148  1  0  0  0
 80 83  1  0  0  0
 80149  1  0  0  0
 80150  1  0  0  0
 81151  1  0  0  0
M  ISO  4   1 100  68 101  77 100  79 101
M  END
> <chiral flag>
0

> <version>
0

> <s_m_source_file>
/data/baiqing/PycharmProjects/Reinvent-master-3.2/result/LINK_invent/BTK/process_docking_weight1_custom_product_contain_oxygen_bond_distance_aromatic_linkinvent_7_9_3/rearranged_h_0124.sdf

> <i_m_source_file_index>
8

> <r_mmod_Potential_Energy-OPLS-2005>
269.011383056641

> <r_mmod_Stretch_Energy-OPLS-2005>
121.803764343262

> <r_mmod_Bend_Energy-OPLS-2005>
156.287216186523

> <r_mmod_Torsional_Energy-OPLS-2005>
201.740936279297

> <r_mmod_Improper_Torsional_Energy-OPLS-2005>
3.074782371521

> <r_mmod_Van_der_Waal_Energy-OPLS-2005>
152.582473754883

> <r_mmod_Electrostatic_Energy-OPLS-2005>
-212.044296264648

> <r_mmod_Solvation_Energy-OPLS-2005>
-235.821853637695

> <b_mmod_Minimization_Converged-OPLS-2005>
0

> <r_mmod_RMS_Derivative-OPLS-2005>
6.2234091758728

$$$$
8
                    3D
 Structure written by MMmdl.
159167  0  0  1  0            999 V2000
  -30.6451  -14.6520   20.4931 C   0  0  0  0  0  0
  -30.4414  -12.4015   19.4508 C   0  0  0  0  0  0
  -29.5090  -12.5102   18.2241 C   0  0  0  0  0  0
  -28.0318  -12.3443   18.6360 C   0  0  0  0  0  0
  -27.6497  -13.2174   19.8603 C   0  0  2  0  0  0
  -28.7029  -13.0938   20.9878 C   0  0  0  0  0  0
  -25.2421  -13.8040   20.5661 C   0  0  0  0  0  0
  -24.1757  -13.0306   20.9235 C   0  0  0  0  0  0
  -24.6393  -11.6819   20.8773 C   0  0  0  0  0  0
  -23.9077  -10.4219   21.0412 C   0  0  0  0  0  0
  -24.3622   -9.4146   21.9195 C   0  0  0  0  0  0
  -23.6278   -8.2200   22.0763 C   0  0  0  0  0  0
  -22.4261   -8.0254   21.3550 C   0  0  0  0  0  0
  -21.9903   -9.0228   20.4652 C   0  0  0  0  0  0
  -22.7249  -10.2091   20.3057 C   0  0  0  0  0  0
  -21.6841   -6.0718   22.5279 C   0  0  0  0  0  0
  -21.4006   -6.5627   23.8211 C   0  0  0  0  0  0
  -21.3654   -5.6782   24.9176 C   0  0  0  0  0  0
  -21.6043   -4.3046   24.7231 C   0  0  0  0  0  0
  -21.8821   -3.8136   23.4351 C   0  0  0  0  0  0
  -21.9189   -4.6948   22.3403 C   0  0  0  0  0  0
  -22.7782  -13.5120   21.1871 C   0  0  0  0  0  0
  -22.1658   -4.2139   21.0979 F   0  0  0  0  0  0
  -21.5630   -3.4531   25.7745 F   0  0  0  0  0  0
  -30.0196  -13.4324   20.4187 N   0  0  0  0  0  0
  -26.2950  -12.9313   20.3316 N   0  0  0  0  0  0
  -25.9331  -11.6466   20.5785 N   0  0  0  0  0  0
  -22.0426  -12.8155   22.0451 N   0  0  0  0  0  0
  -25.3767  -15.1727   20.3949 N   0  0  0  0  0  0
  -31.8186  -14.7975   20.1403 O   0  0  0  0  0  0
  -21.6618   -6.8860   21.4244 O   0  0  0  0  0  0
  -22.3485  -14.5433   20.6709 O   0  0  0  0  0  0
  -24.6258  -31.8611   23.2043 C   0  0  0  0  0  0
  -25.9112  -32.4783   23.8367 C   0  0  1  0  0  0
  -27.2311  -27.3331   20.1133 C   0  0  0  0  0  0
  -25.5941  -33.8581   24.2295 N   0  0  0  0  0  0
  -23.4192  -30.4843   21.5472 C   0  0  2  0  0  0
  -24.8667  -28.9429   20.1112 C   0  0  0  0  0  0
  -22.7481  -29.4624   22.4955 C   0  0  0  0  0  0
  -18.0293  -28.1395   22.8481 C   0  0  0  0  0  0
  -24.1485  -36.7275   23.2629 C   0  0  0  0  0  0
  -25.9594  -30.7955   21.3753 C   0  0  0  0  0  0
  -26.0346  -29.4246   20.7157 C   0  0  0  0  0  0
  -27.2187  -28.6306   20.7080 C   0  0  0  0  0  0
  -26.0377  -26.9019   19.4850 C   0  0  0  0  0  0
  -24.8698  -27.6865   19.4875 C   0  0  0  0  0  0
  -23.6333  -29.8208   20.1618 C   0  0  0  0  0  0
  -25.4106  -36.3073   24.0329 C   0  0  1  0  0  0
  -20.5889  -28.3689   23.1287 C   0  0  2  0  0  0
  -20.6784  -26.9412   22.5415 C   0  0  0  0  0  0
  -19.5759  -26.6388   21.5215 C   0  0  0  0  0  0
  -18.1936  -26.7941   22.1617 C   0  0  0  0  0  0
  -19.1542  -28.8864   23.2878 C   0  0  0  0  0  0
  -18.9460  -30.1465   23.8892 C   0  0  0  0  0  0
  -17.6459  -30.6587   24.0571 C   0  0  0  0  0  0
  -25.9055  -34.9450   23.5110 C   0  0  0  0  0  0
  -16.5353  -29.9086   23.6331 C   0  0  0  0  0  0
  -16.7277  -28.6509   23.0341 C   0  0  0  0  0  0
  -26.4495  -31.6584   25.0730 C   0  0  0  0  0  0
  -25.3731  -31.3737   26.1462 C   0  0  0  0  0  0
  -27.0321  -30.3003   24.6182 C   0  0  0  0  0  0
  -27.6074  -32.4304   25.7482 C   0  0  0  0  0  0
  -27.5590  -37.1767   24.8442 C   0  0  0  0  0  0
  -21.4196  -29.3034   22.3682 N   0  0  0  0  0  0
  -26.4271  -37.3781   23.9436 N   0  0  0  0  0  0
  -24.6865  -31.0630   22.0991 N   0  0  0  0  0  0
  -23.4204  -28.8161   23.3032 O   0  0  0  0  0  0
  -28.3567  -26.4961   20.1650 O   0  0  0  0  0  0
  -26.5618  -34.8916   22.4672 O   0  0  0  0  0  0
  -23.5424  -32.1409   23.7378 O   0  0  0  0  0  0
  -28.9798  -19.3817   20.0724 C   0  0  0  0  0  0
  -31.0968  -17.8953   21.1395 C   0  0  0  0  0  0
  -30.0555  -20.1192   20.6215 C   0  0  0  0  0  0
  -28.9391  -17.9575   20.0825 C   0  0  0  0  0  0
  -31.1307  -19.3275   21.1406 C   0  0  0  0  0  0
  -29.9910  -17.1669   20.6347 C   0  0  0  0  0  0
  -30.0572  -21.6468   20.6762 C   0  0  0  0  0  0
  -29.1302  -22.5694   20.2560 C   0  0  0  0  0  0
  -29.2875  -24.0776   20.4090 C   0  0  0  0  0  0
  -32.3499  -20.0018   21.7471 C   0  0  0  0  0  0
  -27.9389  -16.8055   18.0567 C   0  0  0  0  0  0
  -27.7155  -17.2916   19.4933 C   0  0  0  0  0  0
  -28.1352  -25.0481   19.9525 C   0  0  0  0  0  0
  -29.8337  -15.7149   20.7820 N   0  0  0  0  0  0
  -30.3087  -24.5735   20.8980 O   0  0  0  0  0  0
  -31.4816  -12.5249   19.1454 H   0  0  0  0  0  0
  -30.3765  -11.4102   19.9026 H   0  0  0  0  0  0
  -29.7760  -11.7588   17.4802 H   0  0  0  0  0  0
  -29.6483  -13.4794   17.7420 H   0  0  0  0  0  0
  -27.8704  -11.2912   18.8692 H   0  0  0  0  0  0
  -27.3795  -12.5727   17.7920 H   0  0  0  0  0  0
  -27.6558  -14.2461   19.5075 H   0  0  0  0  0  0
  -28.7191  -12.0780   21.3865 H   0  0  0  0  0  0
  -28.4515  -13.7398   21.8303 H   0  0  0  0  0  0
  -25.2765   -9.5613   22.4774 H   0  0  0  0  0  0
  -23.9977   -7.4586   22.7477 H   0  0  0  0  0  0
  -21.0836   -8.8757   19.8954 H   0  0  0  0  0  0
  -22.3722  -10.9639   19.6168 H   0  0  0  0  0  0
  -21.1995   -7.6133   23.9714 H   0  0  0  0  0  0
  -21.1471   -6.0510   25.9077 H   0  0  0  0  0  0
  -22.0606   -2.7598   23.2858 H   0  0  0  0  0  0
  -22.4022  -11.9820   22.4858 H   0  0  0  0  0  0
  -21.1047  -13.1207   22.2641 H   0  0  0  0  0  0
  -24.5738  -15.7882   20.4647 H   0  0  0  0  0  0
  -26.1638  -15.6010   19.9304 H   0  0  0  0  0  0
  -26.7183  -32.5458   23.1116 H   0  0  0  0  0  0
  -25.0106  -33.9735   25.0453 H   0  0  0  0  0  0
  -22.7117  -31.3039   21.4061 H   0  0  0  0  0  0
  -23.3774  -35.9575   23.3239 H   0  0  0  0  0  0
  -24.3595  -36.8952   22.2055 H   0  0  0  0  0  0
  -23.7198  -37.6442   23.6687 H   0  0  0  0  0  0
  -26.0931  -31.5619   20.6105 H   0  0  0  0  0  0
  -26.8384  -30.8409   22.0065 H   0  0  0  0  0  0
  -28.1140  -28.9962   21.1916 H   0  0  0  0  0  0
  -25.9763  -25.9443   18.9900 H   0  0  0  0  0  0
  -23.9747  -27.3139   19.0082 H   0  0  0  0  0  0
  -23.7505  -30.5982   19.4055 H   0  0  0  0  0  0
  -22.7534  -29.2491   19.8602 H   0  0  0  0  0  0
  -25.1270  -36.1914   25.0818 H   0  0  0  0  0  0
  -20.9974  -28.3271   24.1409 H   0  0  0  0  0  0
  -20.5688  -26.2294   23.3612 H   0  0  0  0  0  0
  -21.6657  -26.7456   22.1204 H   0  0  0  0  0  0
  -19.6920  -25.6301   21.1238 H   0  0  0  0  0  0
  -19.6696  -27.3203   20.6750 H   0  0  0  0  0  0
  -17.4209  -26.6691   21.4017 H   0  0  0  0  0  0
  -18.0324  -26.0086   22.9010 H   0  0  0  0  0  0
  -19.7939  -30.7289   24.2250 H   0  0  0  0  0  0
  -17.5011  -31.6261   24.5189 H   0  0  0  0  0  0
  -15.5350  -30.2977   23.7667 H   0  0  0  0  0  0
  -15.8680  -28.0829   22.7046 H   0  0  0  0  0  0
  -24.5891  -30.7101   25.7795 H   0  0  0  0  0  0
  -24.8939  -32.2912   26.4889 H   0  0  0  0  0  0
  -25.8050  -30.8905   27.0234 H   0  0  0  0  0  0
  -26.2885  -29.6761   24.1210 H   0  0  0  0  0  0
  -27.4017  -29.7254   25.4684 H   0  0  0  0  0  0
  -27.8758  -30.4279   23.9397 H   0  0  0  0  0  0
  -27.2715  -33.3613   26.2061 H   0  0  0  0  0  0
  -28.3870  -32.6849   25.0288 H   0  0  0  0  0  0
  -28.0751  -31.8423   26.5387 H   0  0  0  0  0  0
  -28.2536  -38.0138   24.7617 H   0  0  0  0  0  0
  -28.1160  -36.2684   24.6094 H   0  0  0  0  0  0
  -27.2341  -37.1212   25.8848 H   0  0  0  0  0  0
  -20.9387  -29.8724   21.6856 H   0  0  0  0  0  0
  -26.0144  -38.2831   24.1531 H   0  0  0  0  0  0
  -28.1432  -19.9179   19.6478 H   0  0  0  0  0  0
  -31.9196  -17.3478   21.5768 H   0  0  0  0  0  0
  -30.9377  -22.0727   21.1332 H   0  0  0  0  0  0
  -28.2185  -22.2328   19.7865 H   0  0  0  0  0  0
  -33.1076  -19.2761   22.0449 H   0  0  0  0  0  0
  -32.0671  -20.5683   22.6350 H   0  0  0  0  0  0
  -32.8124  -20.6821   21.0314 H   0  0  0  0  0  0
  -27.0468  -16.3127   17.6690 H   0  0  0  0  0  0
  -28.7629  -16.0935   17.9959 H   0  0  0  0  0  0
  -28.1701  -17.6409   17.3954 H   0  0  0  0  0  0
  -26.8628  -17.9708   19.5290 H   0  0  0  0  0  0
  -27.4635  -16.4677   20.1475 H   0  0  0  0  0  0
  -27.2388  -24.7396   20.4917 H   0  0  0  0  0  0
  -27.9484  -24.8706   18.8931 H   0  0  0  0  0  0
  -28.8877  -15.4183   20.9612 H   0  0  0  0  0  0
  1 25  1  0  0  0
  1 30  2  0  0  0
  1 84  1  0  0  0
  2  3  1  0  0  0
  2 25  1  0  0  0
  2 86  1  0  0  0
  2 87  1  0  0  0
  3  4  1  0  0  0
  3 88  1  0  0  0
  3 89  1  0  0  0
  4  5  1  0  0  0
  4 90  1  0  0  0
  4 91  1  0  0  0
  5  6  1  0  0  0
  5 26  1  0  0  0
  5 92  1  0  0  0
  6 25  1  0  0  0
  6 93  1  0  0  0
  6 94  1  0  0  0
  7  8  2  0  0  0
  7 26  1  0  0  0
  7 29  1  0  0  0
  8  9  1  0  0  0
  8 22  1  0  0  0
  9 10  1  0  0  0
  9 27  2  0  0  0
 10 11  2  0  0  0
 10 15  1  0  0  0
 11 12  1  0  0  0
 11 95  1  0  0  0
 12 13  2  0  0  0
 12 96  1  0  0  0
 13 14  1  0  0  0
 13 31  1  0  0  0
 14 15  2  0  0  0
 14 97  1  0  0  0
 15 98  1  0  0  0
 16 17  2  0  0  0
 16 21  1  0  0  0
 16 31  1  0  0  0
 17 18  1  0  0  0
 17 99  1  0  0  0
 18 19  2  0  0  0
 18100  1  0  0  0
 19 20  1  0  0  0
 19 24  1  0  0  0
 20 21  2  0  0  0
 20101  1  0  0  0
 21 23  1  0  0  0
 22 28  1  0  0  0
 22 32  2  0  0  0
 26 27  1  0  0  0
 28102  1  0  0  0
 28103  1  0  0  0
 29104  1  0  0  0
 29105  1  0  0  0
 33 34  1  0  0  0
 33 66  1  0  0  0
 33 70  2  0  0  0
 34 36  1  0  0  0
 34 59  1  0  0  0
 34106  1  0  0  0
 35 44  2  0  0  0
 35 45  1  0  0  0
 35 68  1  0  0  0
 36 56  1  0  0  0
 36107  1  0  0  0
 37 39  1  0  0  0
 37 47  1  0  0  0
 37 66  1  0  0  0
 37108  1  0  0  0
 38 43  2  0  0  0
 38 46  1  0  0  0
 38 47  1  0  0  0
 39 64  1  0  0  0
 39 67  2  0  0  0
 40 52  1  0  0  0
 40 53  2  0  0  0
 40 58  1  0  0  0
 41109  1  0  0  0
 41110  1  0  0  0
 41111  1  0  0  0
 41 48  1  0  0  0
 42 43  1  0  0  0
 42 66  1  0  0  0
 42112  1  0  0  0
 42113  1  0  0  0
 43 44  1  0  0  0
 44114  1  0  0  0
 45 46  2  0  0  0
 45115  1  0  0  0
 46116  1  0  0  0
 47117  1  0  0  0
 47118  1  0  0  0
 48 56  1  0  0  0
 48 65  1  0  0  0
 48119  1  0  0  0
 49 50  1  0  0  0
 49 53  1  0  0  0
 49 64  1  0  0  0
 49120  1  0  0  0
 50 51  1  0  0  0
 50121  1  0  0  0
 50122  1  0  0  0
 51 52  1  0  0  0
 51123  1  0  0  0
 51124  1  0  0  0
 52125  1  0  0  0
 52126  1  0  0  0
 53 54  1  0  0  0
 54 55  2  0  0  0
 54127  1  0  0  0
 55 57  1  0  0  0
 55128  1  0  0  0
 56 69  2  0  0  0
 57 58  2  0  0  0
 57129  1  0  0  0
 58130  1  0  0  0
 59 60  1  0  0  0
 59 61  1  0  0  0
 59 62  1  0  0  0
 60131  1  0  0  0
 60132  1  0  0  0
 60133  1  0  0  0
 61134  1  0  0  0
 61135  1  0  0  0
 61136  1  0  0  0
 62137  1  0  0  0
 62138  1  0  0  0
 62139  1  0  0  0
 63 65  1  0  0  0
 63140  1  0  0  0
 63141  1  0  0  0
 63142  1  0  0  0
 64143  1  0  0  0
 65144  1  0  0  0
 68 83  1  0  0  0
 71 73  2  0  0  0
 71 74  1  0  0  0
 71145  1  0  0  0
 72 75  2  0  0  0
 72 76  1  0  0  0
 72146  1  0  0  0
 73 75  1  0  0  0
 73 77  1  0  0  0
 74 76  2  0  0  0
 74 82  1  0  0  0
 75 80  1  0  0  0
 76 84  1  0  0  0
 77 78  2  0  0  0
 77147  1  0  0  0
 78 79  1  0  0  0
 78148  1  0  0  0
 79 83  1  0  0  0
 79 85  2  0  0  0
 80149  1  0  0  0
 80150  1  0  0  0
 80151  1  0  0  0
 81 82  1  0  0  0
 81152  1  0  0  0
 81153  1  0  0  0
 81154  1  0  0  0
 82155  1  0  0  0
 82156  1  0  0  0
 83157  1  0  0  0
 83158  1  0  0  0
 84159  1  0  0  0
M  ISO  4   1 100  68 101  83 101  84 100
M  END
> <chiral flag>
0

> <version>
0

> <s_m_source_file>
/data/baiqing/PycharmProjects/Reinvent-master-3.2/result/LINK_invent/BTK/process_docking_weight1_custom_product_contain_oxygen_bond_distance_aromatic_linkinvent_7_9_3/rearranged_h_0124.sdf

> <i_m_source_file_index>
9

> <r_mmod_Potential_Energy-OPLS-2005>
32.3659706115723

> <r_mmod_Stretch_Energy-OPLS-2005>
77.9406356811523

> <r_mmod_Bend_Energy-OPLS-2005>
125.27099609375

> <r_mmod_Torsional_Energy-OPLS-2005>
223.738372802734

> <r_mmod_Improper_Torsional_Energy-OPLS-2005>
6.33568000793457

> <r_mmod_Van_der_Waal_Energy-OPLS-2005>
145.609268188477

> <r_mmod_Electrostatic_Energy-OPLS-2005>
-367.025939941406

> <r_mmod_Solvation_Energy-OPLS-2005>
-228.279907226562

> <b_mmod_Minimization_Converged-OPLS-2005>
0

> <r_mmod_RMS_Derivative-OPLS-2005>
1.21997654438019

$$$$
9
                    3D
 Structure written by MMmdl.
162170  0  0  1  0            999 V2000
  -30.6274  -14.6487   20.4809 C   0  0  0  0  0  0
  -30.4317  -12.4003   19.4384 C   0  0  0  0  0  0
  -29.4972  -12.5114   18.2132 C   0  0  0  0  0  0
  -28.0220  -12.3467   18.6301 C   0  0  0  0  0  0
  -27.6476  -13.2201   19.8568 C   0  0  2  0  0  0
  -28.6965  -13.0905   20.9848 C   0  0  0  0  0  0
  -25.2540  -13.8185   20.5706 C   0  0  0  0  0  0
  -24.1810  -13.0437   20.9204 C   0  0  0  0  0  0
  -24.6385  -11.6914   20.8756 C   0  0  0  0  0  0
  -23.9048  -10.4298   21.0421 C   0  0  0  0  0  0
  -24.3610   -9.4208   21.9194 C   0  0  0  0  0  0
  -23.6290   -8.2242   22.0758 C   0  0  0  0  0  0
  -22.4272   -8.0284   21.3549 C   0  0  0  0  0  0
  -21.9898   -9.0254   20.4650 C   0  0  0  0  0  0
  -22.7223  -10.2132   20.3065 C   0  0  0  0  0  0
  -21.6843   -6.0737   22.5280 C   0  0  0  0  0  0
  -21.4015   -6.5642   23.8213 C   0  0  0  0  0  0
  -21.3660   -5.6796   24.9176 C   0  0  0  0  0  0
  -21.6045   -4.3059   24.7232 C   0  0  0  0  0  0
  -21.8816   -3.8149   23.4352 C   0  0  0  0  0  0
  -21.9187   -4.6967   22.3407 C   0  0  0  0  0  0
  -22.7835  -13.5222   21.1861 C   0  0  0  0  0  0
  -22.1656   -4.2159   21.0983 F   0  0  0  0  0  0
  -21.5637   -3.4545   25.7748 F   0  0  0  0  0  0
  -30.0088  -13.4270   20.4116 N   0  0  0  0  0  0
  -26.2960  -12.9368   20.3306 N   0  0  0  0  0  0
  -25.9312  -11.6515   20.5750 N   0  0  0  0  0  0
  -22.0475  -12.8225   22.0424 N   0  0  0  0  0  0
  -25.4246  -15.1912   20.4151 N   0  0  0  0  0  0
  -31.8174  -14.7669   20.1862 O   0  0  0  0  0  0
  -21.6639   -6.8879   21.4239 O   0  0  0  0  0  0
  -22.3510  -14.5517   20.6690 O   0  0  0  0  0  0
  -24.6265  -31.8599   23.2050 C   0  0  0  0  0  0
  -25.9114  -32.4781   23.8369 C   0  0  1  0  0  0
  -27.2075  -27.3203   20.1037 C   0  0  0  0  0  0
  -25.5930  -33.8584   24.2293 N   0  0  0  0  0  0
  -23.4183  -30.4894   21.5470 C   0  0  2  0  0  0
  -24.8589  -28.9476   20.1083 C   0  0  0  0  0  0
  -22.7478  -29.4639   22.4926 C   0  0  0  0  0  0
  -18.0295  -28.1369   22.8495 C   0  0  0  0  0  0
  -24.1483  -36.7295   23.2639 C   0  0  0  0  0  0
  -25.9607  -30.7902   21.3759 C   0  0  0  0  0  0
  -26.0300  -29.4203   20.7137 C   0  0  0  0  0  0
  -27.2087  -28.6177   20.7019 C   0  0  0  0  0  0
  -26.0135  -26.9045   19.4693 C   0  0  0  0  0  0
  -24.8521  -27.6958   19.4775 C   0  0  0  0  0  0
  -23.6300  -29.8303   20.1597 C   0  0  0  0  0  0
  -25.4108  -36.3088   24.0334 C   0  0  1  0  0  0
  -20.5893  -28.3681   23.1272 C   0  0  2  0  0  0
  -20.6772  -26.9404   22.5403 C   0  0  0  0  0  0
  -19.5741  -26.6373   21.5208 C   0  0  0  0  0  0
  -18.1928  -26.7915   22.1629 C   0  0  0  0  0  0
  -19.1548  -28.8845   23.2881 C   0  0  0  0  0  0
  -18.9468  -30.1443   23.8902 C   0  0  0  0  0  0
  -17.6466  -30.6576   24.0564 C   0  0  0  0  0  0
  -25.9050  -34.9458   23.5120 C   0  0  0  0  0  0
  -16.5357  -29.9077   23.6322 C   0  0  0  0  0  0
  -16.7283  -28.6488   23.0359 C   0  0  0  0  0  0
  -26.4508  -31.6591   25.0743 C   0  0  0  0  0  0
  -25.3756  -31.3721   26.1483 C   0  0  0  0  0  0
  -27.0332  -30.3009   24.6184 C   0  0  0  0  0  0
  -27.6053  -32.4339   25.7516 C   0  0  0  0  0  0
  -27.5590  -37.1791   24.8462 C   0  0  0  0  0  0
  -21.4192  -29.3048   22.3670 N   0  0  0  0  0  0
  -26.4283  -37.3788   23.9432 N   0  0  0  0  0  0
  -24.6878  -31.0629   22.0987 N   0  0  0  0  0  0
  -23.4210  -28.8158   23.2987 O   0  0  0  0  0  0
  -28.3169  -26.4632   20.1563 O   0  0  0  0  0  0
  -26.5620  -34.8924   22.4684 O   0  0  0  0  0  0
  -23.5437  -32.1383   23.7392 O   0  0  0  0  0  0
  -30.5341  -19.3939   19.6598 C   0  0  0  0  0  0
  -29.0819  -17.9390   21.5086 C   0  0  0  0  0  0
  -30.6292  -17.9670   19.6633 C   0  0  0  0  0  0
  -29.0136  -19.3671   21.5159 C   0  0  0  0  0  0
  -29.7389  -20.1402   20.5661 C   0  0  0  0  0  0
  -29.8957  -17.1844   20.6155 C   0  0  0  0  0  0
  -28.9603  -22.4553   20.3452 C   0  0  0  0  0  0
  -28.1876  -20.0395   22.6021 C   0  0  0  0  0  0
  -34.0285  -16.8105   18.1439 C   0  0  0  0  0  0
  -31.5616  -17.3719   18.6185 C   0  0  0  0  0  0
  -29.2129  -24.0061   20.4633 C   0  0  0  0  0  0
  -33.0317  -17.5485   19.0420 C   0  0  0  0  0  0
  -28.0771  -25.0083   20.0002 C   0  0  0  0  0  0
  -29.8748  -21.5682   20.5986 N   0  0  0  0  0  0
  -29.7980  -15.7178   20.7183 N   0  0  0  0  0  0
  -31.4709  -12.5273   19.1301 H   0  0  0  0  0  0
  -30.3671  -11.4061   19.8836 H   0  0  0  0  0  0
  -29.7565  -11.7585   17.4669 H   0  0  0  0  0  0
  -29.6360  -13.4811   17.7292 H   0  0  0  0  0  0
  -27.8589  -11.2913   18.8561 H   0  0  0  0  0  0
  -27.3660  -12.5787   17.7905 H   0  0  0  0  0  0
  -27.6567  -14.2528   19.5069 H   0  0  0  0  0  0
  -28.7125  -12.0741   21.3814 H   0  0  0  0  0  0
  -28.4470  -13.7379   21.8275 H   0  0  0  0  0  0
  -25.2755   -9.5699   22.4766 H   0  0  0  0  0  0
  -24.0013   -7.4623   22.7468 H   0  0  0  0  0  0
  -21.0829   -8.8742   19.8953 H   0  0  0  0  0  0
  -22.3662  -10.9664   19.6179 H   0  0  0  0  0  0
  -21.2004   -7.6151   23.9719 H   0  0  0  0  0  0
  -21.1489   -6.0535   25.9072 H   0  0  0  0  0  0
  -22.0598   -2.7612   23.2851 H   0  0  0  0  0  0
  -22.4072  -11.9888   22.4829 H   0  0  0  0  0  0
  -21.1098  -13.1277   22.2624 H   0  0  0  0  0  0
  -24.6600  -15.8462   20.5360 H   0  0  0  0  0  0
  -26.2738  -15.6358   20.0884 H   0  0  0  0  0  0
  -26.7181  -32.5442   23.1113 H   0  0  0  0  0  0
  -25.0080  -33.9718   25.0444 H   0  0  0  0  0  0
  -22.7126  -31.3115   21.4085 H   0  0  0  0  0  0
  -23.3758  -35.9611   23.3264 H   0  0  0  0  0  0
  -24.3592  -36.8955   22.2063 H   0  0  0  0  0  0
  -23.7202  -37.6475   23.6680 H   0  0  0  0  0  0
  -26.0961  -31.5533   20.6090 H   0  0  0  0  0  0
  -26.8416  -30.8337   22.0051 H   0  0  0  0  0  0
  -28.1080  -28.9733   21.1849 H   0  0  0  0  0  0
  -25.9437  -25.9524   18.9654 H   0  0  0  0  0  0
  -23.9552  -27.3320   18.9953 H   0  0  0  0  0  0
  -23.7531  -30.6090   19.4062 H   0  0  0  0  0  0
  -22.7477  -29.2649   19.8559 H   0  0  0  0  0  0
  -25.1276  -36.1941   25.0824 H   0  0  0  0  0  0
  -21.0002  -28.3251   24.1383 H   0  0  0  0  0  0
  -20.5645  -26.2305   23.3609 H   0  0  0  0  0  0
  -21.6637  -26.7402   22.1209 H   0  0  0  0  0  0
  -19.6894  -25.6284   21.1236 H   0  0  0  0  0  0
  -19.6666  -27.3189   20.6738 H   0  0  0  0  0  0
  -17.4194  -26.6681   21.4030 H   0  0  0  0  0  0
  -18.0323  -26.0043   22.9011 H   0  0  0  0  0  0
  -19.7942  -30.7259   24.2271 H   0  0  0  0  0  0
  -17.5018  -31.6254   24.5163 H   0  0  0  0  0  0
  -15.5356  -30.2983   23.7619 H   0  0  0  0  0  0
  -15.8687  -28.0797   22.7077 H   0  0  0  0  0  0
  -24.5920  -30.7076   25.7831 H   0  0  0  0  0  0
  -24.8968  -32.2885   26.4942 H   0  0  0  0  0  0
  -25.8108  -30.8885   27.0237 H   0  0  0  0  0  0
  -26.2886  -29.6773   24.1222 H   0  0  0  0  0  0
  -27.4040  -29.7257   25.4679 H   0  0  0  0  0  0
  -27.8765  -30.4294   23.9393 H   0  0  0  0  0  0
  -27.2643  -33.3636   26.2087 H   0  0  0  0  0  0
  -28.3873  -32.6911   25.0357 H   0  0  0  0  0  0
  -28.0712  -31.8475   26.5446 H   0  0  0  0  0  0
  -28.2566  -38.0129   24.7571 H   0  0  0  0  0  0
  -28.1126  -36.2665   24.6198 H   0  0  0  0  0  0
  -27.2328  -37.1341   25.8867 H   0  0  0  0  0  0
  -20.9362  -29.8816   21.6924 H   0  0  0  0  0  0
  -26.0163  -38.2855   24.1469 H   0  0  0  0  0  0
  -31.1327  -19.9420   18.9462 H   0  0  0  0  0  0
  -28.5019  -17.4034   22.2473 H   0  0  0  0  0  0
  -27.9485  -22.1747   20.0361 H   0  0  0  0  0  0
  -28.1347  -19.4107   23.4915 H   0  0  0  0  0  0
  -27.1693  -20.2163   22.2549 H   0  0  0  0  0  0
  -28.6197  -20.9907   22.9116 H   0  0  0  0  0  0
  -35.0516  -17.0393   18.4452 H   0  0  0  0  0  0
  -33.9158  -17.0983   17.0981 H   0  0  0  0  0  0
  -33.8966  -15.7308   18.2177 H   0  0  0  0  0  0
  -31.3995  -17.8919   17.6734 H   0  0  0  0  0  0
  -31.3161  -16.3362   18.4010 H   0  0  0  0  0  0
  -30.1256  -24.2380   19.9139 H   0  0  0  0  0  0
  -29.4338  -24.2141   21.5095 H   0  0  0  0  0  0
  -33.2791  -18.6105   19.0575 H   0  0  0  0  0  0
  -33.1589  -17.1977   20.0665 H   0  0  0  0  0  0
  -27.1750  -24.7440   20.5567 H   0  0  0  0  0  0
  -27.8622  -24.8051   18.9498 H   0  0  0  0  0  0
  -28.8938  -15.4041   21.0335 H   0  0  0  0  0  0
  1 25  1  0  0  0
  1 30  2  0  0  0
  1 85  1  0  0  0
  2  3  1  0  0  0
  2 25  1  0  0  0
  2 86  1  0  0  0
  2 87  1  0  0  0
  3  4  1  0  0  0
  3 88  1  0  0  0
  3 89  1  0  0  0
  4  5  1  0  0  0
  4 90  1  0  0  0
  4 91  1  0  0  0
  5  6  1  0  0  0
  5 26  1  0  0  0
  5 92  1  0  0  0
  6 25  1  0  0  0
  6 93  1  0  0  0
  6 94  1  0  0  0
  7  8  2  0  0  0
  7 26  1  0  0  0
  7 29  1  0  0  0
  8  9  1  0  0  0
  8 22  1  0  0  0
  9 10  1  0  0  0
  9 27  2  0  0  0
 10 11  2  0  0  0
 10 15  1  0  0  0
 11 12  1  0  0  0
 11 95  1  0  0  0
 12 13  2  0  0  0
 12 96  1  0  0  0
 13 14  1  0  0  0
 13 31  1  0  0  0
 14 15  2  0  0  0
 14 97  1  0  0  0
 15 98  1  0  0  0
 16 17  2  0  0  0
 16 21  1  0  0  0
 16 31  1  0  0  0
 17 18  1  0  0  0
 17 99  1  0  0  0
 18 19  2  0  0  0
 18100  1  0  0  0
 19 20  1  0  0  0
 19 24  1  0  0  0
 20 21  2  0  0  0
 20101  1  0  0  0
 21 23  1  0  0  0
 22 28  1  0  0  0
 22 32  2  0  0  0
 26 27  1  0  0  0
 28102  1  0  0  0
 28103  1  0  0  0
 29104  1  0  0  0
 29105  1  0  0  0
 33 34  1  0  0  0
 33 66  1  0  0  0
 33 70  2  0  0  0
 34 36  1  0  0  0
 34 59  1  0  0  0
 34106  1  0  0  0
 35 44  2  0  0  0
 35 45  1  0  0  0
 35 68  1  0  0  0
 36 56  1  0  0  0
 36107  1  0  0  0
 37 39  1  0  0  0
 37 47  1  0  0  0
 37 66  1  0  0  0
 37108  1  0  0  0
 38 43  2  0  0  0
 38 46  1  0  0  0
 38 47  1  0  0  0
 39 64  1  0  0  0
 39 67  2  0  0  0
 40 52  1  0  0  0
 40 53  2  0  0  0
 40 58  1  0  0  0
 41109  1  0  0  0
 41110  1  0  0  0
 41111  1  0  0  0
 41 48  1  0  0  0
 42 43  1  0  0  0
 42 66  1  0  0  0
 42112  1  0  0  0
 42113  1  0  0  0
 43 44  1  0  0  0
 44114  1  0  0  0
 45 46  2  0  0  0
 45115  1  0  0  0
 46116  1  0  0  0
 47117  1  0  0  0
 47118  1  0  0  0
 48 56  1  0  0  0
 48 65  1  0  0  0
 48119  1  0  0  0
 49 50  1  0  0  0
 49 53  1  0  0  0
 49 64  1  0  0  0
 49120  1  0  0  0
 50 51  1  0  0  0
 50121  1  0  0  0
 50122  1  0  0  0
 51 52  1  0  0  0
 51123  1  0  0  0
 51124  1  0  0  0
 52125  1  0  0  0
 52126  1  0  0  0
 53 54  1  0  0  0
 54 55  2  0  0  0
 54127  1  0  0  0
 55 57  1  0  0  0
 55128  1  0  0  0
 56 69  2  0  0  0
 57 58  2  0  0  0
 57129  1  0  0  0
 58130  1  0  0  0
 59 60  1  0  0  0
 59 61  1  0  0  0
 59 62  1  0  0  0
 60131  1  0  0  0
 60132  1  0  0  0
 60133  1  0  0  0
 61134  1  0  0  0
 61135  1  0  0  0
 61136  1  0  0  0
 62137  1  0  0  0
 62138  1  0  0  0
 62139  1  0  0  0
 63 65  1  0  0  0
 63140  1  0  0  0
 63141  1  0  0  0
 63142  1  0  0  0
 64143  1  0  0  0
 65144  1  0  0  0
 68 83  1  0  0  0
 71 73  2  0  0  0
 71 75  1  0  0  0
 71145  1  0  0  0
 72 74  1  0  0  0
 72 76  2  0  0  0
 72146  1  0  0  0
 73 76  1  0  0  0
 73 80  1  0  0  0
 74 75  2  0  0  0
 74 78  1  0  0  0
 75 84  1  0  0  0
 76 85  1  0  0  0
 77 81  1  0  0  0
 77 84  2  0  0  0
 77147  1  0  0  0
 78148  1  0  0  0
 78149  1  0  0  0
 78150  1  0  0  0
 79 82  1  0  0  0
 79151  1  0  0  0
 79152  1  0  0  0
 79153  1  0  0  0
 80 82  1  0  0  0
 80154  1  0  0  0
 80155  1  0  0  0
 81 83  1  0  0  0
 81156  1  0  0  0
 81157  1  0  0  0
 82158  1  0  0  0
 82159  1  0  0  0
 83160  1  0  0  0
 83161  1  0  0  0
 85162  1  0  0  0
M  ISO  4   1 100  68 101  83 101  85 100
M  END
> <chiral flag>
0

> <version>
0

> <s_m_source_file>
/data/baiqing/PycharmProjects/Reinvent-master-3.2/result/LINK_invent/BTK/process_docking_weight1_custom_product_contain_oxygen_bond_distance_aromatic_linkinvent_7_9_3/rearranged_h_0124.sdf

> <i_m_source_file_index>
10

> <r_mmod_Potential_Energy-OPLS-2005>
55.3515014648438

> <r_mmod_Stretch_Energy-OPLS-2005>
79.2873764038086

> <r_mmod_Bend_Energy-OPLS-2005>
159.048400878906

> <r_mmod_Torsional_Energy-OPLS-2005>
239.675704956055

> <r_mmod_Improper_Torsional_Energy-OPLS-2005>
5.27082109451294

> <r_mmod_Van_der_Waal_Energy-OPLS-2005>
143.61962890625

> <r_mmod_Electrostatic_Energy-OPLS-2005>
-415.277099609375

> <r_mmod_Solvation_Energy-OPLS-2005>
-208.655670166016

> <b_mmod_Minimization_Converged-OPLS-2005>
0

> <r_mmod_RMS_Derivative-OPLS-2005>
2.22448301315308

$$$$
10
                    3D
 Structure written by MMmdl.
149157  0  0  1  0            999 V2000
  -30.6682  -14.5278   20.5603 C   0  0  0  0  0  0
  -30.4267  -12.3309   19.4515 C   0  0  0  0  0  0
  -29.5067  -12.5198   18.2251 C   0  0  0  0  0  0
  -28.0254  -12.3755   18.6231 C   0  0  0  0  0  0
  -27.6619  -13.2139   19.8785 C   0  0  2  0  0  0
  -28.6987  -13.0100   21.0091 C   0  0  0  0  0  0
  -25.2567  -13.8181   20.5670 C   0  0  0  0  0  0
  -24.1815  -13.0445   20.9124 C   0  0  0  0  0  0
  -24.6379  -11.6917   20.8710 C   0  0  0  0  0  0
  -23.9052  -10.4295   21.0399 C   0  0  0  0  0  0
  -24.3612   -9.4212   21.9181 C   0  0  0  0  0  0
  -23.6278   -8.2254   22.0771 C   0  0  0  0  0  0
  -22.4265   -8.0296   21.3552 C   0  0  0  0  0  0
  -21.9876   -9.0258   20.4654 C   0  0  0  0  0  0
  -22.7216  -10.2125   20.3053 C   0  0  0  0  0  0
  -21.6846   -6.0717   22.5270 C   0  0  0  0  0  0
  -21.4015   -6.5626   23.8202 C   0  0  0  0  0  0
  -21.3657   -5.6782   24.9160 C   0  0  0  0  0  0
  -21.6051   -4.3038   24.7215 C   0  0  0  0  0  0
  -21.8826   -3.8131   23.4327 C   0  0  0  0  0  0
  -21.9193   -4.6944   22.3386 C   0  0  0  0  0  0
  -22.7841  -13.5266   21.1795 C   0  0  0  0  0  0
  -22.1675   -4.2140   21.0958 F   0  0  0  0  0  0
  -21.5611   -3.4527   25.7730 F   0  0  0  0  0  0
  -30.0334  -13.3227   20.4717 N   0  0  0  0  0  0
  -26.3016  -12.9371   20.3350 N   0  0  0  0  0  0
  -25.9312  -11.6513   20.5736 N   0  0  0  0  0  0
  -22.0482  -12.8274   22.0357 N   0  0  0  0  0  0
  -25.4306  -15.1905   20.4159 N   0  0  0  0  0  0
  -31.7713  -14.7294   20.0447 O   0  0  0  0  0  0
  -21.6639   -6.8872   21.4248 O   0  0  0  0  0  0
  -22.3542  -14.5574   20.6644 O   0  0  0  0  0  0
  -24.6195  -31.8624   23.2062 C   0  0  0  0  0  0
  -25.9076  -32.4788   23.8368 C   0  0  1  0  0  0
  -27.2298  -27.3698   20.1168 C   0  0  0  0  0  0
  -25.5910  -33.8587   24.2302 N   0  0  0  0  0  0
  -23.4092  -30.4878   21.5435 C   0  0  2  0  0  0
  -24.8586  -28.9436   20.1102 C   0  0  0  0  0  0
  -22.7443  -29.4624   22.4917 C   0  0  0  0  0  0
  -18.0295  -28.1385   22.8471 C   0  0  0  0  0  0
  -24.1474  -36.7293   23.2632 C   0  0  0  0  0  0
  -25.9438  -30.8098   21.3685 C   0  0  0  0  0  0
  -26.0195  -29.4404   20.7139 C   0  0  0  0  0  0
  -27.2044  -28.6604   20.7117 C   0  0  0  0  0  0
  -26.0468  -26.9003   19.5047 C   0  0  0  0  0  0
  -24.8710  -27.6764   19.5007 C   0  0  0  0  0  0
  -23.6230  -29.8187   20.1572 C   0  0  0  0  0  0
  -25.4086  -36.3084   24.0336 C   0  0  1  0  0  0
  -20.5885  -28.3671   23.1292 C   0  0  2  0  0  0
  -20.6766  -26.9393   22.5409 C   0  0  0  0  0  0
  -19.5736  -26.6368   21.5205 C   0  0  0  0  0  0
  -18.1924  -26.7930   22.1622 C   0  0  0  0  0  0
  -19.1548  -28.8844   23.2887 C   0  0  0  0  0  0
  -18.9464  -30.1440   23.8918 C   0  0  0  0  0  0
  -17.6459  -30.6573   24.0560 C   0  0  0  0  0  0
  -25.9032  -34.9452   23.5126 C   0  0  0  0  0  0
  -16.5359  -29.9067   23.6326 C   0  0  0  0  0  0
  -16.7283  -28.6491   23.0347 C   0  0  0  0  0  0
  -26.4489  -31.6614   25.0735 C   0  0  0  0  0  0
  -25.3740  -31.3788   26.1484 C   0  0  0  0  0  0
  -27.0306  -30.3029   24.6178 C   0  0  0  0  0  0
  -27.6035  -32.4355   25.7515 C   0  0  0  0  0  0
  -27.5572  -37.1799   24.8450 C   0  0  0  0  0  0
  -21.4166  -29.3033   22.3685 N   0  0  0  0  0  0
  -26.4280  -37.3768   23.9425 N   0  0  0  0  0  0
  -24.6761  -31.0699   22.0967 N   0  0  0  0  0  0
  -23.4206  -28.8166   23.2966 O   0  0  0  0  0  0
  -28.3922  -26.6104   20.1835 O   0  0  0  0  0  0
  -26.5572  -34.8921   22.4675 O   0  0  0  0  0  0
  -23.5385  -32.1376   23.7443 O   0  0  0  0  0  0
  -29.5818  -17.9858   21.4165 C   0  0  0  0  0  0
  -29.3992  -19.1406   20.5573 C   0  0  0  0  0  0
  -29.8278  -16.8087   20.7279 C   0  0  0  0  0  0
  -29.1793  -20.5161   21.1038 C   0  0  0  0  0  0
  -28.7787  -21.6201   20.4073 C   0  0  0  0  0  0
  -28.6810  -22.9880   21.0126 C   0  0  0  0  0  0
  -27.7717  -24.0809   20.3753 C   0  0  0  0  0  0
  -28.4727  -25.2697   19.6203 C   0  0  0  0  0  0
  -29.4326  -18.8681   19.2669 N   0  0  0  0  0  0
  -29.9948  -15.5239   21.1911 N   0  0  0  0  0  0
  -29.2968  -23.2835   22.0415 O   0  0  0  0  0  0
  -29.7789  -17.2319   19.0370 S   0  0  0  0  0  0
  -31.4743  -12.4259   19.1586 H   0  0  0  0  0  0
  -30.3204  -11.3225   19.8557 H   0  0  0  0  0  0
  -29.7561  -11.7986   17.4463 H   0  0  0  0  0  0
  -29.6718  -13.5089   17.7926 H   0  0  0  0  0  0
  -27.8282  -11.3191   18.8073 H   0  0  0  0  0  0
  -27.3856  -12.6613   17.7868 H   0  0  0  0  0  0
  -27.6988  -14.2610   19.5791 H   0  0  0  0  0  0
  -28.6752  -11.9757   21.3569 H   0  0  0  0  0  0
  -28.4455  -13.6179   21.8798 H   0  0  0  0  0  0
  -25.2779   -9.5661   22.4733 H   0  0  0  0  0  0
  -23.9980   -7.4633   22.7493 H   0  0  0  0  0  0
  -21.0796   -8.8778   19.8966 H   0  0  0  0  0  0
  -22.3702  -10.9658   19.6142 H   0  0  0  0  0  0
  -21.2034   -7.6137   23.9698 H   0  0  0  0  0  0
  -21.1475   -6.0515   25.9066 H   0  0  0  0  0  0
  -22.0612   -2.7594   23.2844 H   0  0  0  0  0  0
  -22.4111  -11.9946   22.4766 H   0  0  0  0  0  0
  -21.1124  -13.1346   22.2591 H   0  0  0  0  0  0
  -24.6682  -15.8535   20.5175 H   0  0  0  0  0  0
  -26.2959  -15.6308   20.1311 H   0  0  0  0  0  0
  -26.7135  -32.5508   23.1114 H   0  0  0  0  0  0
  -25.0127  -33.9711   25.0495 H   0  0  0  0  0  0
  -22.6996  -31.3064   21.4033 H   0  0  0  0  0  0
  -23.3741  -35.9622   23.3297 H   0  0  0  0  0  0
  -24.3551  -36.8910   22.2043 H   0  0  0  0  0  0
  -23.7221  -37.6496   23.6647 H   0  0  0  0  0  0
  -26.0679  -31.5761   20.6008 H   0  0  0  0  0  0
  -26.8263  -30.8616   21.9952 H   0  0  0  0  0  0
  -28.0995  -29.0315   21.1913 H   0  0  0  0  0  0
  -26.0065  -25.9236   19.0456 H   0  0  0  0  0  0
  -23.9771  -27.2899   19.0319 H   0  0  0  0  0  0
  -23.7375  -30.5927   19.3962 H   0  0  0  0  0  0
  -22.7458  -29.2433   19.8581 H   0  0  0  0  0  0
  -25.1265  -36.1939   25.0823 H   0  0  0  0  0  0
  -20.9985  -28.3241   24.1406 H   0  0  0  0  0  0
  -20.5642  -26.2269   23.3598 H   0  0  0  0  0  0
  -21.6641  -26.7397   22.1222 H   0  0  0  0  0  0
  -19.6880  -25.6270   21.1235 H   0  0  0  0  0  0
  -19.6682  -27.3169   20.6725 H   0  0  0  0  0  0
  -17.4179  -26.6674   21.4032 H   0  0  0  0  0  0
  -18.0337  -26.0076   22.9024 H   0  0  0  0  0  0
  -19.7938  -30.7254   24.2295 H   0  0  0  0  0  0
  -17.5017  -31.6263   24.5150 H   0  0  0  0  0  0
  -15.5358  -30.2977   23.7638 H   0  0  0  0  0  0
  -15.8685  -28.0810   22.7057 H   0  0  0  0  0  0
  -24.5877  -30.7158   25.7869 H   0  0  0  0  0  0
  -24.8979  -32.2983   26.4907 H   0  0  0  0  0  0
  -25.8072  -30.8993   27.0263 H   0  0  0  0  0  0
  -26.2870  -29.6821   24.1158 H   0  0  0  0  0  0
  -27.3957  -29.7257   25.4686 H   0  0  0  0  0  0
  -27.8765  -30.4325   23.9415 H   0  0  0  0  0  0
  -27.2610  -33.3632   26.2113 H   0  0  0  0  0  0
  -28.3837  -32.6959   25.0353 H   0  0  0  0  0  0
  -28.0702  -31.8477   26.5431 H   0  0  0  0  0  0
  -28.2586  -38.0106   24.7505 H   0  0  0  0  0  0
  -28.1089  -36.2639   24.6262 H   0  0  0  0  0  0
  -27.2305  -37.1425   25.8860 H   0  0  0  0  0  0
  -20.9321  -29.8782   21.6932 H   0  0  0  0  0  0
  -26.0176  -38.2850   24.1434 H   0  0  0  0  0  0
  -29.5344  -18.0682   22.4947 H   0  0  0  0  0  0
  -29.4001  -20.6260   22.1565 H   0  0  0  0  0  0
  -28.5303  -21.5307   19.3602 H   0  0  0  0  0  0
  -27.1272  -24.4783   21.1595 H   0  0  0  0  0  0
  -27.1032  -23.5701   19.6814 H   0  0  0  0  0  0
  -28.1329  -25.2938   18.5848 H   0  0  0  0  0  0
  -29.5370  -25.0450   19.5422 H   0  0  0  0  0  0
  -29.3131  -15.2086   21.8638 H   0  0  0  0  0  0
  1 25  1  0  0  0
  1 30  2  0  0  0
  1 80  1  0  0  0
  2  3  1  0  0  0
  2 25  1  0  0  0
  2 83  1  0  0  0
  2 84  1  0  0  0
  3  4  1  0  0  0
  3 85  1  0  0  0
  3 86  1  0  0  0
  4  5  1  0  0  0
  4 87  1  0  0  0
  4 88  1  0  0  0
  5  6  1  0  0  0
  5 26  1  0  0  0
  5 89  1  0  0  0
  6 25  1  0  0  0
  6 90  1  0  0  0
  6 91  1  0  0  0
  7  8  2  0  0  0
  7 26  1  0  0  0
  7 29  1  0  0  0
  8  9  1  0  0  0
  8 22  1  0  0  0
  9 10  1  0  0  0
  9 27  2  0  0  0
 10 11  2  0  0  0
 10 15  1  0  0  0
 11 12  1  0  0  0
 11 92  1  0  0  0
 12 13  2  0  0  0
 12 93  1  0  0  0
 13 14  1  0  0  0
 13 31  1  0  0  0
 14 15  2  0  0  0
 14 94  1  0  0  0
 15 95  1  0  0  0
 16 17  2  0  0  0
 16 21  1  0  0  0
 16 31  1  0  0  0
 17 18  1  0  0  0
 17 96  1  0  0  0
 18 19  2  0  0  0
 18 97  1  0  0  0
 19 20  1  0  0  0
 19 24  1  0  0  0
 20 21  2  0  0  0
 20 98  1  0  0  0
 21 23  1  0  0  0
 22 28  1  0  0  0
 22 32  2  0  0  0
 26 27  1  0  0  0
 28 99  1  0  0  0
 28100  1  0  0  0
 29101  1  0  0  0
 29102  1  0  0  0
 33 34  1  0  0  0
 33 66  1  0  0  0
 33 70  2  0  0  0
 34 36  1  0  0  0
 34 59  1  0  0  0
 34103  1  0  0  0
 35 44  2  0  0  0
 35 45  1  0  0  0
 35 68  1  0  0  0
 36 56  1  0  0  0
 36104  1  0  0  0
 37 39  1  0  0  0
 37 47  1  0  0  0
 37 66  1  0  0  0
 37105  1  0  0  0
 38 43  2  0  0  0
 38 46  1  0  0  0
 38 47  1  0  0  0
 39 64  1  0  0  0
 39 67  2  0  0  0
 40 52  1  0  0  0
 40 53  2  0  0  0
 40 58  1  0  0  0
 41106  1  0  0  0
 41107  1  0  0  0
 41108  1  0  0  0
 41 48  1  0  0  0
 42 43  1  0  0  0
 42 66  1  0  0  0
 42109  1  0  0  0
 42110  1  0  0  0
 43 44  1  0  0  0
 44111  1  0  0  0
 45 46  2  0  0  0
 45112  1  0  0  0
 46113  1  0  0  0
 47114  1  0  0  0
 47115  1  0  0  0
 48 56  1  0  0  0
 48 65  1  0  0  0
 48116  1  0  0  0
 49 50  1  0  0  0
 49 53  1  0  0  0
 49 64  1  0  0  0
 49117  1  0  0  0
 50 51  1  0  0  0
 50118  1  0  0  0
 50119  1  0  0  0
 51 52  1  0  0  0
 51120  1  0  0  0
 51121  1  0  0  0
 52122  1  0  0  0
 52123  1  0  0  0
 53 54  1  0  0  0
 54 55  2  0  0  0
 54124  1  0  0  0
 55 57  1  0  0  0
 55125  1  0  0  0
 56 69  2  0  0  0
 57 58  2  0  0  0
 57126  1  0  0  0
 58127  1  0  0  0
 59 60  1  0  0  0
 59 61  1  0  0  0
 59 62  1  0  0  0
 60128  1  0  0  0
 60129  1  0  0  0
 60130  1  0  0  0
 61131  1  0  0  0
 61132  1  0  0  0
 61133  1  0  0  0
 62134  1  0  0  0
 62135  1  0  0  0
 62136  1  0  0  0
 63 65  1  0  0  0
 63137  1  0  0  0
 63138  1  0  0  0
 63139  1  0  0  0
 64140  1  0  0  0
 65141  1  0  0  0
 68 78  1  0  0  0
 71 72  1  0  0  0
 71 73  2  0  0  0
 71142  1  0  0  0
 72 74  1  0  0  0
 72 79  2  0  0  0
 73 80  1  0  0  0
 73 82  1  0  0  0
 74 75  2  0  0  0
 74143  1  0  0  0
 75 76  1  0  0  0
 75144  1  0  0  0
 76 77  1  0  0  0
 76 81  2  0  0  0
 77 78  1  0  0  0
 77145  1  0  0  0
 77146  1  0  0  0
 78147  1  0  0  0
 78148  1  0  0  0
 79 82  1  0  0  0
 80149  1  0  0  0
M  ISO  4   1 100  68 101  78 101  80 100
M  END
> <chiral flag>
0

> <version>
0

> <s_m_source_file>
/data/baiqing/PycharmProjects/Reinvent-master-3.2/result/LINK_invent/BTK/process_docking_weight1_custom_product_contain_oxygen_bond_distance_aromatic_linkinvent_7_9_3/rearranged_h_0124.sdf

> <i_m_source_file_index>
11

> <r_mmod_Potential_Energy-OPLS-2005>
-138.833709716797

> <r_mmod_Stretch_Energy-OPLS-2005>
50.0286521911621

> <r_mmod_Bend_Energy-OPLS-2005>
116.674446105957

> <r_mmod_Torsional_Energy-OPLS-2005>
225.775390625

> <r_mmod_Improper_Torsional_Energy-OPLS-2005>
3.93214869499207

> <r_mmod_Van_der_Waal_Energy-OPLS-2005>
123.585891723633

> <r_mmod_Electrostatic_Energy-OPLS-2005>
-444.821533203125

> <r_mmod_Solvation_Energy-OPLS-2005>
-237.611419677734

> <b_mmod_Minimization_Converged-OPLS-2005>
0

> <r_mmod_RMS_Derivative-OPLS-2005>
3.74320077896118

$$$$
11
                    3D
 Structure written by MMmdl.
158166  0  0  1  0            999 V2000
  -30.7943  -14.5389   20.6209 C   0  0  0  0  0  0
  -30.4235  -12.3545   19.4964 C   0  0  0  0  0  0
  -29.5366  -12.5427   18.2512 C   0  0  0  0  0  0
  -28.0567  -12.3789   18.6406 C   0  0  0  0  0  0
  -27.6712  -13.2336   19.8800 C   0  0  2  0  0  0
  -28.7077  -13.0898   21.0258 C   0  0  0  0  0  0
  -25.2610  -13.8192   20.5680 C   0  0  0  0  0  0
  -24.1860  -13.0432   20.9118 C   0  0  0  0  0  0
  -24.6455  -11.6894   20.8664 C   0  0  0  0  0  0
  -23.9101  -10.4319   21.0406 C   0  0  0  0  0  0
  -24.3635   -9.4230   21.9179 C   0  0  0  0  0  0
  -23.6319   -8.2254   22.0755 C   0  0  0  0  0  0
  -22.4301   -8.0297   21.3562 C   0  0  0  0  0  0
  -21.9946   -9.0266   20.4659 C   0  0  0  0  0  0
  -22.7285  -10.2131   20.3066 C   0  0  0  0  0  0
  -21.6849   -6.0756   22.5284 C   0  0  0  0  0  0
  -21.4027   -6.5638   23.8217 C   0  0  0  0  0  0
  -21.3666   -5.6784   24.9168 C   0  0  0  0  0  0
  -21.6034   -4.3046   24.7226 C   0  0  0  0  0  0
  -21.8796   -3.8152   23.4331 C   0  0  0  0  0  0
  -21.9184   -4.6980   22.3396 C   0  0  0  0  0  0
  -22.7865  -13.5222   21.1753 C   0  0  0  0  0  0
  -22.1638   -4.2166   21.0963 F   0  0  0  0  0  0
  -21.5639   -3.4517   25.7745 F   0  0  0  0  0  0
  -30.0472  -13.3893   20.4912 N   0  0  0  0  0  0
  -26.3098  -12.9429   20.3348 N   0  0  0  0  0  0
  -25.9410  -11.6564   20.5707 N   0  0  0  0  0  0
  -22.0454  -12.8312   22.0348 N   0  0  0  0  0  0
  -25.4240  -15.1930   20.4186 N   0  0  0  0  0  0
  -31.8713  -14.6208   20.0283 O   0  0  0  0  0  0
  -21.6644   -6.8904   21.4257 O   0  0  0  0  0  0
  -22.3568  -14.5498   20.6568 O   0  0  0  0  0  0
  -24.6183  -31.8618   23.2060 C   0  0  0  0  0  0
  -25.9050  -32.4784   23.8381 C   0  0  1  0  0  0
  -27.2280  -27.3790   20.1274 C   0  0  0  0  0  0
  -25.5892  -33.8589   24.2299 N   0  0  0  0  0  0
  -23.4094  -30.4869   21.5436 C   0  0  2  0  0  0
  -24.8639  -28.9585   20.1049 C   0  0  0  0  0  0
  -22.7421  -29.4589   22.4901 C   0  0  0  0  0  0
  -18.0263  -28.1362   22.8445 C   0  0  0  0  0  0
  -24.1514  -36.7335   23.2639 C   0  0  0  0  0  0
  -25.9435  -30.8175   21.3680 C   0  0  0  0  0  0
  -26.0240  -29.4488   20.7156 C   0  0  0  0  0  0
  -27.2128  -28.6706   20.7146 C   0  0  0  0  0  0
  -26.0512  -26.9254   19.4849 C   0  0  0  0  0  0
  -24.8803  -27.7045   19.4729 C   0  0  0  0  0  0
  -23.6259  -29.8276   20.1568 C   0  0  0  0  0  0
  -25.4118  -36.3083   24.0330 C   0  0  1  0  0  0
  -20.5846  -28.3635   23.1304 C   0  0  2  0  0  0
  -20.6746  -26.9361   22.5404 C   0  0  0  0  0  0
  -19.5735  -26.6360   21.5190 C   0  0  0  0  0  0
  -18.1913  -26.7909   22.1585 C   0  0  0  0  0  0
  -19.1504  -28.8810   23.2885 C   0  0  0  0  0  0
  -18.9434  -30.1415   23.8907 C   0  0  0  0  0  0
  -17.6437  -30.6574   24.0524 C   0  0  0  0  0  0
  -25.9022  -34.9450   23.5102 C   0  0  0  0  0  0
  -16.5326  -29.9062   23.6314 C   0  0  0  0  0  0
  -16.7251  -28.6478   23.0329 C   0  0  0  0  0  0
  -26.4477  -31.6555   25.0701 C   0  0  0  0  0  0
  -25.3749  -31.3650   26.1443 C   0  0  0  0  0  0
  -27.0278  -30.2985   24.6059 C   0  0  0  0  0  0
  -27.6045  -32.4260   25.7479 C   0  0  0  0  0  0
  -27.5601  -37.1798   24.8432 C   0  0  0  0  0  0
  -21.4128  -29.3022   22.3713 N   0  0  0  0  0  0
  -26.4292  -37.3776   23.9406 N   0  0  0  0  0  0
  -24.6750  -31.0715   22.0975 N   0  0  0  0  0  0
  -23.4186  -28.8099   23.2912 O   0  0  0  0  0  0
  -28.3529  -26.5644   20.1981 O   0  0  0  0  0  0
  -26.5584  -34.8906   22.4652 O   0  0  0  0  0  0
  -23.5355  -32.1364   23.7441 O   0  0  0  0  0  0
  -30.7750  -19.7224   23.8774 C   0  0  0  0  0  0
  -30.4046  -20.8380   23.1044 C   0  0  0  0  0  0
  -30.3092  -19.4113   21.1494 C   0  0  0  0  0  0
  -30.6641  -18.2534   21.9129 C   0  0  0  0  0  0
  -30.9561  -18.4442   23.2994 C   0  0  0  0  0  0
  -30.1770  -20.7125   21.7173 C   0  0  0  0  0  0
  -30.8456  -16.9383   21.2029 C   0  0  0  0  0  0
  -30.3162  -15.6882   21.4317 C   0  0  0  0  0  0
  -29.3078  -24.2691   20.7542 C   0  0  0  0  0  0
  -32.7524  -17.8050   25.0396 C   0  0  0  0  0  0
  -31.5456  -17.3431   24.1881 C   0  0  0  0  0  0
  -29.0426  -22.8727   21.4033 C   0  0  0  0  0  0
  -28.0717  -25.1425   20.3868 C   0  0  0  0  0  0
  -30.4591  -24.6781   20.5631 O   0  0  0  0  0  0
  -29.9124  -21.8168   20.9069 O   0  0  0  0  0  0
  -31.4820  -12.3745   19.2365 H   0  0  0  0  0  0
  -30.2646  -11.3594   19.9156 H   0  0  0  0  0  0
  -29.8211  -11.8323   17.4747 H   0  0  0  0  0  0
  -29.7021  -13.5334   17.8304 H   0  0  0  0  0  0
  -27.8944  -11.3238   18.8553 H   0  0  0  0  0  0
  -27.4128  -12.6259   17.7941 H   0  0  0  0  0  0
  -27.6978  -14.2738   19.5557 H   0  0  0  0  0  0
  -28.6896  -12.0791   21.4347 H   0  0  0  0  0  0
  -28.4466  -13.7403   21.8586 H   0  0  0  0  0  0
  -25.2798   -9.5704   22.4712 H   0  0  0  0  0  0
  -24.0012   -7.4681   22.7503 H   0  0  0  0  0  0
  -21.0857   -8.8818   19.8986 H   0  0  0  0  0  0
  -22.3778  -10.9657   19.6129 H   0  0  0  0  0  0
  -21.2051   -7.6164   23.9727 H   0  0  0  0  0  0
  -21.1489   -6.0521   25.9070 H   0  0  0  0  0  0
  -22.0587   -2.7630   23.2814 H   0  0  0  0  0  0
  -22.4042  -12.0036   22.4894 H   0  0  0  0  0  0
  -21.1052  -13.1388   22.2380 H   0  0  0  0  0  0
  -24.6558  -15.8422   20.5591 H   0  0  0  0  0  0
  -26.2859  -15.6495   20.1451 H   0  0  0  0  0  0
  -26.7078  -32.5495   23.1118 H   0  0  0  0  0  0
  -25.0060  -33.9729   25.0450 H   0  0  0  0  0  0
  -22.6964  -31.3033   21.4056 H   0  0  0  0  0  0
  -23.3768  -35.9670   23.3238 H   0  0  0  0  0  0
  -24.3639  -36.9019   22.2070 H   0  0  0  0  0  0
  -23.7284  -37.6523   23.6696 H   0  0  0  0  0  0
  -26.0604  -31.5841   20.6018 H   0  0  0  0  0  0
  -26.8290  -30.8712   21.9881 H   0  0  0  0  0  0
  -28.1039  -29.0400   21.2066 H   0  0  0  0  0  0
  -26.0182  -25.9705   18.9817 H   0  0  0  0  0  0
  -23.9969  -27.3294   18.9789 H   0  0  0  0  0  0
  -23.7361  -30.6078   19.4031 H   0  0  0  0  0  0
  -22.7516  -29.2523   19.8515 H   0  0  0  0  0  0
  -25.1300  -36.1933   25.0823 H   0  0  0  0  0  0
  -20.9946  -28.3209   24.1421 H   0  0  0  0  0  0
  -20.5626  -26.2220   23.3582 H   0  0  0  0  0  0
  -21.6616  -26.7381   22.1217 H   0  0  0  0  0  0
  -19.6899  -25.6273   21.1220 H   0  0  0  0  0  0
  -19.6738  -27.3156   20.6715 H   0  0  0  0  0  0
  -17.4183  -26.6636   21.3996 H   0  0  0  0  0  0
  -18.0323  -26.0072   22.8996 H   0  0  0  0  0  0
  -19.7907  -30.7212   24.2317 H   0  0  0  0  0  0
  -17.4988  -31.6266   24.5098 H   0  0  0  0  0  0
  -15.5310  -30.2953   23.7676 H   0  0  0  0  0  0
  -15.8640  -28.0820   22.7033 H   0  0  0  0  0  0
  -24.5913  -30.7007   25.7773 H   0  0  0  0  0  0
  -24.8964  -32.2799   26.4942 H   0  0  0  0  0  0
  -25.8129  -30.8772   27.0159 H   0  0  0  0  0  0
  -26.2770  -29.6766   24.1153 H   0  0  0  0  0  0
  -27.4066  -29.7211   25.4506 H   0  0  0  0  0  0
  -27.8629  -30.4287   23.9171 H   0  0  0  0  0  0
  -27.2647  -33.3532   26.2111 H   0  0  0  0  0  0
  -28.3859  -32.6850   25.0320 H   0  0  0  0  0  0
  -28.0703  -31.8334   26.5363 H   0  0  0  0  0  0
  -28.2519  -38.0184   24.7540 H   0  0  0  0  0  0
  -28.1178  -36.2706   24.6149 H   0  0  0  0  0  0
  -27.2313  -37.1324   25.8823 H   0  0  0  0  0  0
  -20.9249  -29.8844   21.7055 H   0  0  0  0  0  0
  -26.0180  -38.2833   24.1422 H   0  0  0  0  0  0
  -30.9782  -19.8820   24.9285 H   0  0  0  0  0  0
  -30.3539  -21.7988   23.5923 H   0  0  0  0  0  0
  -30.1578  -19.3084   20.0847 H   0  0  0  0  0  0
  -31.5615  -17.0211   20.3972 H   0  0  0  0  0  0
  -29.5917  -15.5602   22.2183 H   0  0  0  0  0  0
  -33.2317  -16.9616   25.5414 H   0  0  0  0  0  0
  -32.4718  -18.5063   25.8273 H   0  0  0  0  0  0
  -33.5196  -18.2898   24.4322 H   0  0  0  0  0  0
  -31.8772  -16.4942   23.5907 H   0  0  0  0  0  0
  -30.7546  -16.9624   24.8389 H   0  0  0  0  0  0
  -28.0139  -22.5812   21.1981 H   0  0  0  0  0  0
  -29.1233  -22.9983   22.4817 H   0  0  0  0  0  0
  -27.3185  -25.0231   21.1643 H   0  0  0  0  0  0
  -27.6523  -24.7201   19.4749 H   0  0  0  0  0  0
  1 25  1  0  0  0
  1 30  2  0  0  0
  1 78  1  0  0  0
  2  3  1  0  0  0
  2 25  1  0  0  0
  2 86  1  0  0  0
  2 87  1  0  0  0
  3  4  1  0  0  0
  3 88  1  0  0  0
  3 89  1  0  0  0
  4  5  1  0  0  0
  4 90  1  0  0  0
  4 91  1  0  0  0
  5  6  1  0  0  0
  5 26  1  0  0  0
  5 92  1  0  0  0
  6 25  1  0  0  0
  6 93  1  0  0  0
  6 94  1  0  0  0
  7  8  2  0  0  0
  7 26  1  0  0  0
  7 29  1  0  0  0
  8  9  1  0  0  0
  8 22  1  0  0  0
  9 10  1  0  0  0
  9 27  2  0  0  0
 10 11  2  0  0  0
 10 15  1  0  0  0
 11 12  1  0  0  0
 11 95  1  0  0  0
 12 13  2  0  0  0
 12 96  1  0  0  0
 13 14  1  0  0  0
 13 31  1  0  0  0
 14 15  2  0  0  0
 14 97  1  0  0  0
 15 98  1  0  0  0
 16 17  2  0  0  0
 16 21  1  0  0  0
 16 31  1  0  0  0
 17 18  1  0  0  0
 17 99  1  0  0  0
 18 19  2  0  0  0
 18100  1  0  0  0
 19 20  1  0  0  0
 19 24  1  0  0  0
 20 21  2  0  0  0
 20101  1  0  0  0
 21 23  1  0  0  0
 22 28  1  0  0  0
 22 32  2  0  0  0
 26 27  1  0  0  0
 28102  1  0  0  0
 28103  1  0  0  0
 29104  1  0  0  0
 29105  1  0  0  0
 33 34  1  0  0  0
 33 66  1  0  0  0
 33 70  2  0  0  0
 34 36  1  0  0  0
 34 59  1  0  0  0
 34106  1  0  0  0
 35 44  2  0  0  0
 35 45  1  0  0  0
 35 68  1  0  0  0
 36 56  1  0  0  0
 36107  1  0  0  0
 37 39  1  0  0  0
 37 47  1  0  0  0
 37 66  1  0  0  0
 37108  1  0  0  0
 38 43  2  0  0  0
 38 46  1  0  0  0
 38 47  1  0  0  0
 39 64  1  0  0  0
 39 67  2  0  0  0
 40 52  1  0  0  0
 40 53  2  0  0  0
 40 58  1  0  0  0
 41109  1  0  0  0
 41110  1  0  0  0
 41111  1  0  0  0
 41 48  1  0  0  0
 42 43  1  0  0  0
 42 66  1  0  0  0
 42112  1  0  0  0
 42113  1  0  0  0
 43 44  1  0  0  0
 44114  1  0  0  0
 45 46  2  0  0  0
 45115  1  0  0  0
 46116  1  0  0  0
 47117  1  0  0  0
 47118  1  0  0  0
 48 56  1  0  0  0
 48 65  1  0  0  0
 48119  1  0  0  0
 49 50  1  0  0  0
 49 53  1  0  0  0
 49 64  1  0  0  0
 49120  1  0  0  0
 50 51  1  0  0  0
 50121  1  0  0  0
 50122  1  0  0  0
 51 52  1  0  0  0
 51123  1  0  0  0
 51124  1  0  0  0
 52125  1  0  0  0
 52126  1  0  0  0
 53 54  1  0  0  0
 54 55  2  0  0  0
 54127  1  0  0  0
 55 57  1  0  0  0
 55128  1  0  0  0
 56 69  2  0  0  0
 57 58  2  0  0  0
 57129  1  0  0  0
 58130  1  0  0  0
 59 60  1  0  0  0
 59 61  1  0  0  0
 59 62  1  0  0  0
 60131  1  0  0  0
 60132  1  0  0  0
 60133  1  0  0  0
 61134  1  0  0  0
 61135  1  0  0  0
 61136  1  0  0  0
 62137  1  0  0  0
 62138  1  0  0  0
 62139  1  0  0  0
 63 65  1  0  0  0
 63140  1  0  0  0
 63141  1  0  0  0
 63142  1  0  0  0
 64143  1  0  0  0
 65144  1  0  0  0
 68 83  1  0  0  0
 71 72  2  0  0  0
 71 75  1  0  0  0
 71145  1  0  0  0
 72 76  1  0  0  0
 72146  1  0  0  0
 73 74  1  0  0  0
 73 76  2  0  0  0
 73147  1  0  0  0
 74 75  2  0  0  0
 74 77  1  0  0  0
 75 81  1  0  0  0
 76 85  1  0  0  0
 77 78  2  0  0  0
 77148  1  0  0  0
 78149  1  0  0  0
 79 82  1  0  0  0
 79 83  1  0  0  0
 79 84  2  0  0  0
 80 81  1  0  0  0
 80150  1  0  0  0
 80151  1  0  0  0
 80152  1  0  0  0
 81153  1  0  0  0
 81154  1  0  0  0
 82 85  1  0  0  0
 82155  1  0  0  0
 82156  1  0  0  0
 83157  1  0  0  0
 83158  1  0  0  0
M  ISO  4   1 100  68 101  78 100  83 101
M  END
> <chiral flag>
0

> <version>
0

> <s_m_source_file>
/data/baiqing/PycharmProjects/Reinvent-master-3.2/result/LINK_invent/BTK/process_docking_weight1_custom_product_contain_oxygen_bond_distance_aromatic_linkinvent_7_9_3/rearranged_h_0124.sdf

> <i_m_source_file_index>
12

> <r_mmod_Potential_Energy-OPLS-2005>
71.7080993652344

> <r_mmod_Stretch_Energy-OPLS-2005>
63.5278701782227

> <r_mmod_Bend_Energy-OPLS-2005>
128.310913085938

> <r_mmod_Torsional_Energy-OPLS-2005>
219.661178588867

> <r_mmod_Improper_Torsional_Energy-OPLS-2005>
2.86497807502747

> <r_mmod_Van_der_Waal_Energy-OPLS-2005>
156.420059204102

> <r_mmod_Electrostatic_Energy-OPLS-2005>
-303.98486328125

> <r_mmod_Solvation_Energy-OPLS-2005>
-225.067092895508

> <b_mmod_Minimization_Converged-OPLS-2005>
0

> <r_mmod_RMS_Derivative-OPLS-2005>
6.10746669769287

$$$$
12
                    3D
 Structure written by MMmdl.
153161  0  0  1  0            999 V2000
  -30.5886  -14.6560   20.4786 C   0  0  0  0  0  0
  -30.4349  -12.4042   19.4339 C   0  0  0  0  0  0
  -29.5033  -12.5353   18.2081 C   0  0  0  0  0  0
  -28.0240  -12.3663   18.6125 C   0  0  0  0  0  0
  -27.6500  -13.2136   19.8601 C   0  0  2  0  0  0
  -28.6948  -13.0539   20.9866 C   0  0  0  0  0  0
  -25.2578  -13.8152   20.5718 C   0  0  0  0  0  0
  -24.1841  -13.0422   20.9210 C   0  0  0  0  0  0
  -24.6398  -11.6882   20.8715 C   0  0  0  0  0  0
  -23.9036  -10.4289   21.0373 C   0  0  0  0  0  0
  -24.3600   -9.4223   21.9157 C   0  0  0  0  0  0
  -23.6300   -8.2245   22.0727 C   0  0  0  0  0  0
  -22.4276   -8.0276   21.3527 C   0  0  0  0  0  0
  -21.9902   -9.0236   20.4609 C   0  0  0  0  0  0
  -22.7199  -10.2135   20.3023 C   0  0  0  0  0  0
  -21.6885   -6.0735   22.5284 C   0  0  0  0  0  0
  -21.4018   -6.5626   23.8213 C   0  0  0  0  0  0
  -21.3677   -5.6784   24.9184 C   0  0  0  0  0  0
  -21.6049   -4.3046   24.7238 C   0  0  0  0  0  0
  -21.8830   -3.8145   23.4370 C   0  0  0  0  0  0
  -21.9210   -4.6966   22.3423 C   0  0  0  0  0  0
  -22.7867  -13.5227   21.1912 C   0  0  0  0  0  0
  -22.1675   -4.2138   21.1001 F   0  0  0  0  0  0
  -21.5647   -3.4534   25.7765 F   0  0  0  0  0  0
  -30.0056  -13.4154   20.4227 N   0  0  0  0  0  0
  -26.2975  -12.9304   20.3307 N   0  0  0  0  0  0
  -25.9307  -11.6466   20.5689 N   0  0  0  0  0  0
  -22.0508  -12.8186   22.0439 N   0  0  0  0  0  0
  -25.4348  -15.1880   20.4134 N   0  0  0  0  0  0
  -31.7544  -14.8312   20.1087 O   0  0  0  0  0  0
  -21.6668   -6.8870   21.4232 O   0  0  0  0  0  0
  -22.3551  -14.5553   20.6783 O   0  0  0  0  0  0
  -24.6214  -31.8636   23.2010 C   0  0  0  0  0  0
  -25.9058  -32.4807   23.8398 C   0  0  1  0  0  0
  -27.2268  -27.3200   20.1320 C   0  0  0  0  0  0
  -25.5881  -33.8614   24.2284 N   0  0  0  0  0  0
  -23.4208  -30.4805   21.5479 C   0  0  2  0  0  0
  -24.8708  -28.9409   20.1094 C   0  0  0  0  0  0
  -22.7485  -29.4631   22.4995 C   0  0  0  0  0  0
  -18.0292  -28.1374   22.8520 C   0  0  0  0  0  0
  -24.1470  -36.7308   23.2650 C   0  0  0  0  0  0
  -25.9587  -30.7907   21.3786 C   0  0  0  0  0  0
  -26.0349  -29.4166   20.7262 C   0  0  0  0  0  0
  -27.2127  -28.6153   20.7331 C   0  0  0  0  0  0
  -26.0467  -26.9063   19.4713 C   0  0  0  0  0  0
  -24.8788  -27.6924   19.4730 C   0  0  0  0  0  0
  -23.6313  -29.8082   20.1666 C   0  0  0  0  0  0
  -25.4106  -36.3103   24.0327 C   0  0  1  0  0  0
  -20.5890  -28.3686   23.1317 C   0  0  2  0  0  0
  -20.6775  -26.9419   22.5435 C   0  0  0  0  0  0
  -19.5735  -26.6399   21.5254 C   0  0  0  0  0  0
  -18.1923  -26.7923   22.1661 C   0  0  0  0  0  0
  -19.1544  -28.8858   23.2917 C   0  0  0  0  0  0
  -18.9465  -30.1480   23.8903 C   0  0  0  0  0  0
  -17.6442  -30.6574   24.0584 C   0  0  0  0  0  0
  -25.9075  -34.9475   23.5134 C   0  0  0  0  0  0
  -16.5351  -29.9070   23.6328 C   0  0  0  0  0  0
  -16.7286  -28.6486   23.0346 C   0  0  0  0  0  0
  -26.4428  -31.6591   25.0758 C   0  0  0  0  0  0
  -25.3625  -31.3738   26.1452 C   0  0  0  0  0  0
  -27.0290  -30.3013   24.6232 C   0  0  0  0  0  0
  -27.6027  -32.4305   25.7496 C   0  0  0  0  0  0
  -27.5593  -37.1787   24.8459 C   0  0  0  0  0  0
  -21.4199  -29.3033   22.3711 N   0  0  0  0  0  0
  -26.4278  -37.3808   23.9433 N   0  0  0  0  0  0
  -24.6870  -31.0619   22.0998 N   0  0  0  0  0  0
  -23.4187  -28.8208   23.3125 O   0  0  0  0  0  0
  -28.3366  -26.4642   20.2092 O   0  0  0  0  0  0
  -26.5673  -34.8932   22.4725 O   0  0  0  0  0  0
  -23.5361  -32.1473   23.7286 O   0  0  0  0  0  0
  -30.7289  -17.8559   19.8253 C   0  0  0  0  0  0
  -28.7760  -17.9501   21.2140 C   0  0  0  0  0  0
  -30.6936  -19.2839   19.6839 C   0  0  0  0  0  0
  -29.7211  -20.0965   20.3576 C   0  0  0  0  0  0
  -29.7846  -17.1475   20.6156 C   0  0  0  0  0  0
  -28.7424  -19.3738   21.1056 C   0  0  0  0  0  0
  -28.9249  -22.4373   20.5441 C   0  0  0  0  0  0
  -31.7459  -19.9185   18.7749 C   0  0  0  0  0  0
  -29.1933  -23.9943   20.6461 C   0  0  0  0  0  0
  -28.1028  -25.0019   20.0903 C   0  0  0  0  0  0
  -29.8388  -21.5406   20.3164 N   0  0  0  0  0  0
  -29.7456  -15.6894   20.8079 N   0  0  0  0  0  0
  -27.7569  -20.0387   21.7605 F   0  0  0  0  0  0
  -31.4745  -12.5388   19.1303 H   0  0  0  0  0  0
  -30.3659  -11.3993   19.8550 H   0  0  0  0  0  0
  -29.7699  -11.8036   17.4447 H   0  0  0  0  0  0
  -29.6513  -13.5146   17.7526 H   0  0  0  0  0  0
  -27.8444  -11.3092   18.8032 H   0  0  0  0  0  0
  -27.3799  -12.6341   17.7737 H   0  0  0  0  0  0
  -27.6628  -14.2543   19.5339 H   0  0  0  0  0  0
  -28.7154  -12.0235   21.3466 H   0  0  0  0  0  0
  -28.4347  -13.6684   21.8491 H   0  0  0  0  0  0
  -25.2748   -9.5746   22.4708 H   0  0  0  0  0  0
  -24.0055   -7.4648   22.7435 H   0  0  0  0  0  0
  -21.0848   -8.8705   19.8893 H   0  0  0  0  0  0
  -22.3626  -10.9662   19.6128 H   0  0  0  0  0  0
  -21.1967   -7.6122   23.9701 H   0  0  0  0  0  0
  -21.1504   -6.0524   25.9085 H   0  0  0  0  0  0
  -22.0588   -2.7595   23.2886 H   0  0  0  0  0  0
  -22.4160  -11.9854   22.4809 H   0  0  0  0  0  0
  -21.1080  -13.1122   22.2568 H   0  0  0  0  0  0
  -24.6635  -15.8393   20.4982 H   0  0  0  0  0  0
  -26.2821  -15.6186   20.0653 H   0  0  0  0  0  0
  -26.7151  -32.5443   23.1179 H   0  0  0  0  0  0
  -24.9885  -33.9809   25.0320 H   0  0  0  0  0  0
  -22.7148  -31.3001   21.4010 H   0  0  0  0  0  0
  -23.3759  -35.9617   23.3274 H   0  0  0  0  0  0
  -24.3594  -36.8986   22.2087 H   0  0  0  0  0  0
  -23.7161  -37.6482   23.6686 H   0  0  0  0  0  0
  -26.0882  -31.5497   20.6061 H   0  0  0  0  0  0
  -26.8383  -30.8462   22.0075 H   0  0  0  0  0  0
  -28.0996  -28.9646   21.2433 H   0  0  0  0  0  0
  -25.9997  -25.9599   18.9579 H   0  0  0  0  0  0
  -23.9912  -27.3270   18.9752 H   0  0  0  0  0  0
  -23.7284  -30.5796   19.4025 H   0  0  0  0  0  0
  -22.7533  -29.2238   19.8807 H   0  0  0  0  0  0
  -25.1271  -36.1999   25.0817 H   0  0  0  0  0  0
  -21.0000  -28.3247   24.1431 H   0  0  0  0  0  0
  -20.5729  -26.2312   23.3649 H   0  0  0  0  0  0
  -21.6637  -26.7464   22.1205 H   0  0  0  0  0  0
  -19.6929  -25.6324   21.1267 H   0  0  0  0  0  0
  -19.6640  -27.3235   20.6808 H   0  0  0  0  0  0
  -17.4210  -26.6723   21.4045 H   0  0  0  0  0  0
  -18.0299  -26.0035   22.9022 H   0  0  0  0  0  0
  -19.7933  -30.7342   24.2219 H   0  0  0  0  0  0
  -17.4973  -31.6232   24.5223 H   0  0  0  0  0  0
  -15.5344  -30.2947   23.7640 H   0  0  0  0  0  0
  -15.8703  -28.0820   22.7002 H   0  0  0  0  0  0
  -24.5770  -30.7158   25.7703 H   0  0  0  0  0  0
  -24.8834  -32.2912   26.4891 H   0  0  0  0  0  0
  -25.7868  -30.8844   27.0229 H   0  0  0  0  0  0
  -26.2912  -29.6754   24.1192 H   0  0  0  0  0  0
  -27.3934  -29.7255   25.4756 H   0  0  0  0  0  0
  -27.8777  -30.4320   23.9510 H   0  0  0  0  0  0
  -27.2707  -33.3600   26.2121 H   0  0  0  0  0  0
  -28.3774  -32.6875   25.0261 H   0  0  0  0  0  0
  -28.0751  -31.8396   26.5352 H   0  0  0  0  0  0
  -28.2560  -38.0128   24.7580 H   0  0  0  0  0  0
  -28.1119  -36.2674   24.6148 H   0  0  0  0  0  0
  -27.2344  -37.1289   25.8863 H   0  0  0  0  0  0
  -20.9401  -29.8722   21.6886 H   0  0  0  0  0  0
  -26.0170  -38.2895   24.1431 H   0  0  0  0  0  0
  -31.4980  -17.3053   19.2999 H   0  0  0  0  0  0
  -27.9965  -17.4788   21.7946 H   0  0  0  0  0  0
  -27.8801  -22.1618   20.7249 H   0  0  0  0  0  0
  -31.8586  -19.3399   17.8564 H   0  0  0  0  0  0
  -32.7183  -19.9529   19.2662 H   0  0  0  0  0  0
  -31.4908  -20.9322   18.4636 H   0  0  0  0  0  0
  -30.1536  -24.2107   20.1793 H   0  0  0  0  0  0
  -29.3241  -24.2210   21.7040 H   0  0  0  0  0  0
  -27.1724  -24.7626   20.6090 H   0  0  0  0  0  0
  -27.9412  -24.7756   19.0366 H   0  0  0  0  0  0
  -28.8704  -15.3454   21.1775 H   0  0  0  0  0  0
  1 25  1  0  0  0
  1 30  2  0  0  0
  1 82  1  0  0  0
  2  3  1  0  0  0
  2 25  1  0  0  0
  2 84  1  0  0  0
  2 85  1  0  0  0
  3  4  1  0  0  0
  3 86  1  0  0  0
  3 87  1  0  0  0
  4  5  1  0  0  0
  4 88  1  0  0  0
  4 89  1  0  0  0
  5  6  1  0  0  0
  5 26  1  0  0  0
  5 90  1  0  0  0
  6 25  1  0  0  0
  6 91  1  0  0  0
  6 92  1  0  0  0
  7  8  2  0  0  0
  7 26  1  0  0  0
  7 29  1  0  0  0
  8  9  1  0  0  0
  8 22  1  0  0  0
  9 10  1  0  0  0
  9 27  2  0  0  0
 10 11  2  0  0  0
 10 15  1  0  0  0
 11 12  1  0  0  0
 11 93  1  0  0  0
 12 13  2  0  0  0
 12 94  1  0  0  0
 13 14  1  0  0  0
 13 31  1  0  0  0
 14 15  2  0  0  0
 14 95  1  0  0  0
 15 96  1  0  0  0
 16 17  2  0  0  0
 16 21  1  0  0  0
 16 31  1  0  0  0
 17 18  1  0  0  0
 17 97  1  0  0  0
 18 19  2  0  0  0
 18 98  1  0  0  0
 19 20  1  0  0  0
 19 24  1  0  0  0
 20 21  2  0  0  0
 20 99  1  0  0  0
 21 23  1  0  0  0
 22 28  1  0  0  0
 22 32  2  0  0  0
 26 27  1  0  0  0
 28100  1  0  0  0
 28101  1  0  0  0
 29102  1  0  0  0
 29103  1  0  0  0
 33 34  1  0  0  0
 33 66  1  0  0  0
 33 70  2  0  0  0
 34 36  1  0  0  0
 34 59  1  0  0  0
 34104  1  0  0  0
 35 44  2  0  0  0
 35 45  1  0  0  0
 35 68  1  0  0  0
 36 56  1  0  0  0
 36105  1  0  0  0
 37 39  1  0  0  0
 37 47  1  0  0  0
 37 66  1  0  0  0
 37106  1  0  0  0
 38 43  2  0  0  0
 38 46  1  0  0  0
 38 47  1  0  0  0
 39 64  1  0  0  0
 39 67  2  0  0  0
 40 52  1  0  0  0
 40 53  2  0  0  0
 40 58  1  0  0  0
 41107  1  0  0  0
 41108  1  0  0  0
 41109  1  0  0  0
 41 48  1  0  0  0
 42 43  1  0  0  0
 42 66  1  0  0  0
 42110  1  0  0  0
 42111  1  0  0  0
 43 44  1  0  0  0
 44112  1  0  0  0
 45 46  2  0  0  0
 45113  1  0  0  0
 46114  1  0  0  0
 47115  1  0  0  0
 47116  1  0  0  0
 48 56  1  0  0  0
 48 65  1  0  0  0
 48117  1  0  0  0
 49 50  1  0  0  0
 49 53  1  0  0  0
 49 64  1  0  0  0
 49118  1  0  0  0
 50 51  1  0  0  0
 50119  1  0  0  0
 50120  1  0  0  0
 51 52  1  0  0  0
 51121  1  0  0  0
 51122  1  0  0  0
 52123  1  0  0  0
 52124  1  0  0  0
 53 54  1  0  0  0
 54 55  2  0  0  0
 54125  1  0  0  0
 55 57  1  0  0  0
 55126  1  0  0  0
 56 69  2  0  0  0
 57 58  2  0  0  0
 57127  1  0  0  0
 58128  1  0  0  0
 59 60  1  0  0  0
 59 61  1  0  0  0
 59 62  1  0  0  0
 60129  1  0  0  0
 60130  1  0  0  0
 60131  1  0  0  0
 61132  1  0  0  0
 61133  1  0  0  0
 61134  1  0  0  0
 62135  1  0  0  0
 62136  1  0  0  0
 62137  1  0  0  0
 63 65  1  0  0  0
 63138  1  0  0  0
 63139  1  0  0  0
 63140  1  0  0  0
 64141  1  0  0  0
 65142  1  0  0  0
 68 80  1  0  0  0
 71 73  2  0  0  0
 71 75  1  0  0  0
 71143  1  0  0  0
 72 75  2  0  0  0
 72 76  1  0  0  0
 72144  1  0  0  0
 73 74  1  0  0  0
 73 78  1  0  0  0
 74 76  2  0  0  0
 74 81  1  0  0  0
 75 82  1  0  0  0
 76 83  1  0  0  0
 77 79  1  0  0  0
 77 81  2  0  0  0
 77145  1  0  0  0
 78146  1  0  0  0
 78147  1  0  0  0
 78148  1  0  0  0
 79 80  1  0  0  0
 79149  1  0  0  0
 79150  1  0  0  0
 80151  1  0  0  0
 80152  1  0  0  0
 82153  1  0  0  0
M  ISO  4   1 100  68 101  80 101  82 100
M  END
> <chiral flag>
0

> <version>
0

> <s_m_source_file>
/data/baiqing/PycharmProjects/Reinvent-master-3.2/result/LINK_invent/BTK/process_docking_weight1_custom_product_contain_oxygen_bond_distance_aromatic_linkinvent_7_9_3/rearranged_h_0124.sdf

> <i_m_source_file_index>
13

> <r_mmod_Potential_Energy-OPLS-2005>
77.0790786743164

> <r_mmod_Stretch_Energy-OPLS-2005>
85.029541015625

> <r_mmod_Bend_Energy-OPLS-2005>
148.811096191406

> <r_mmod_Torsional_Energy-OPLS-2005>
217.88232421875

> <r_mmod_Improper_Torsional_Energy-OPLS-2005>
4.55752801895142

> <r_mmod_Van_der_Waal_Energy-OPLS-2005>
150.482772827148

> <r_mmod_Electrostatic_Energy-OPLS-2005>
-376.236145019531

> <r_mmod_Solvation_Energy-OPLS-2005>
-207.185394287109

> <b_mmod_Minimization_Converged-OPLS-2005>
0

> <r_mmod_RMS_Derivative-OPLS-2005>
4.59802103042603

$$$$
13
                    3D
 Structure written by MMmdl.
167175  0  0  1  0            999 V2000
  -30.5893  -14.7182   20.4394 C   0  0  0  0  0  0
  -30.4434  -12.4343   19.4579 C   0  0  0  0  0  0
  -29.5101  -12.4965   18.2256 C   0  0  0  0  0  0
  -28.0338  -12.3110   18.6361 C   0  0  0  0  0  0
  -27.6442  -13.1962   19.8472 C   0  0  2  0  0  0
  -28.6913  -13.0666   20.9728 C   0  0  0  0  0  0
  -25.2586  -13.8103   20.5717 C   0  0  0  0  0  0
  -24.1799  -13.0404   20.9127 C   0  0  0  0  0  0
  -24.6342  -11.6868   20.8693 C   0  0  0  0  0  0
  -23.9011  -10.4272   21.0380 C   0  0  0  0  0  0
  -24.3580   -9.4206   21.9164 C   0  0  0  0  0  0
  -23.6266   -8.2246   22.0746 C   0  0  0  0  0  0
  -22.4252   -8.0271   21.3536 C   0  0  0  0  0  0
  -21.9868   -9.0236   20.4639 C   0  0  0  0  0  0
  -22.7187  -10.2114   20.3034 C   0  0  0  0  0  0
  -21.6843   -6.0729   22.5276 C   0  0  0  0  0  0
  -21.4018   -6.5643   23.8210 C   0  0  0  0  0  0
  -21.3654   -5.6792   24.9172 C   0  0  0  0  0  0
  -21.6027   -4.3051   24.7220 C   0  0  0  0  0  0
  -21.8826   -3.8151   23.4346 C   0  0  0  0  0  0
  -21.9195   -4.6962   22.3402 C   0  0  0  0  0  0
  -22.7848  -13.5239   21.1826 C   0  0  0  0  0  0
  -22.1660   -4.2153   21.0977 F   0  0  0  0  0  0
  -21.5614   -3.4536   25.7736 F   0  0  0  0  0  0
  -29.9887  -13.4721   20.4120 N   0  0  0  0  0  0
  -26.2944  -12.9223   20.3265 N   0  0  0  0  0  0
  -25.9252  -11.6403   20.5707 N   0  0  0  0  0  0
  -22.0495  -12.8237   22.0389 N   0  0  0  0  0  0
  -25.4491  -15.1811   20.4336 N   0  0  0  0  0  0
  -31.8004  -14.8016   20.2113 O   0  0  0  0  0  0
  -21.6623   -6.8867   21.4241 O   0  0  0  0  0  0
  -22.3547  -14.5559   20.6700 O   0  0  0  0  0  0
  -24.6258  -31.8576   23.1991 C   0  0  0  0  0  0
  -25.9095  -32.4761   23.8347 C   0  0  1  0  0  0
  -27.2368  -27.3070   20.1365 C   0  0  0  0  0  0
  -25.5905  -33.8559   24.2264 N   0  0  0  0  0  0
  -23.4217  -30.4745   21.5423 C   0  0  2  0  0  0
  -24.8708  -28.9140   20.1229 C   0  0  0  0  0  0
  -22.7475  -29.4595   22.4950 C   0  0  0  0  0  0
  -18.0283  -28.1381   22.8481 C   0  0  0  0  0  0
  -24.1493  -36.7286   23.2640 C   0  0  0  0  0  0
  -25.9603  -30.7841   21.3707 C   0  0  0  0  0  0
  -26.0377  -29.4067   20.7201 C   0  0  0  0  0  0
  -27.2244  -28.6162   20.7116 C   0  0  0  0  0  0
  -26.0474  -26.8520   19.5324 C   0  0  0  0  0  0
  -24.8765  -27.6421   19.5218 C   0  0  0  0  0  0
  -23.6395  -29.7976   20.1627 C   0  0  0  0  0  0
  -25.4113  -36.3072   24.0329 C   0  0  1  0  0  0
  -20.5881  -28.3661   23.1292 C   0  0  2  0  0  0
  -20.6766  -26.9390   22.5413 C   0  0  0  0  0  0
  -19.5753  -26.6376   21.5208 C   0  0  0  0  0  0
  -18.1929  -26.7918   22.1617 C   0  0  0  0  0  0
  -19.1539  -28.8840   23.2873 C   0  0  0  0  0  0
  -18.9470  -30.1444   23.8883 C   0  0  0  0  0  0
  -17.6475  -30.6578   24.0555 C   0  0  0  0  0  0
  -25.9059  -34.9437   23.5102 C   0  0  0  0  0  0
  -16.5359  -29.9076   23.6341 C   0  0  0  0  0  0
  -16.7273  -28.6500   23.0350 C   0  0  0  0  0  0
  -26.4492  -31.6572   25.0722 C   0  0  0  0  0  0
  -25.3731  -31.3698   26.1450 C   0  0  0  0  0  0
  -27.0321  -30.2991   24.6163 C   0  0  0  0  0  0
  -27.6048  -32.4307   25.7487 C   0  0  0  0  0  0
  -27.5579  -37.1792   24.8462 C   0  0  0  0  0  0
  -21.4190  -29.3020   22.3689 N   0  0  0  0  0  0
  -26.4290  -37.3774   23.9415 N   0  0  0  0  0  0
  -24.6882  -31.0567   22.0957 N   0  0  0  0  0  0
  -23.4189  -28.8156   23.3046 O   0  0  0  0  0  0
  -28.3918  -26.5196   20.0688 O   0  0  0  0  0  0
  -26.5652  -34.8905   22.4686 O   0  0  0  0  0  0
  -23.5410  -32.1397   23.7304 O   0  0  0  0  0  0
  -30.5812  -20.1310   18.9767 C   0  0  0  0  0  0
  -31.2182  -19.0047   18.4277 C   0  0  0  0  0  0
  -29.4383  -18.6612   20.4918 C   0  0  0  0  0  0
  -29.6001  -20.0092   19.9788 C   0  0  0  0  0  0
  -30.0749  -17.4553   19.9661 C   0  0  0  0  0  0
  -30.9180  -17.6784   18.8245 C   0  0  0  0  0  0
  -28.9700  -22.5468   19.9114 C   0  0  0  0  0  0
  -28.7384  -21.2490   20.3442 C   0  0  0  0  0  0
  -29.6774  -16.0511   20.5507 C   0  0  0  0  0  0
  -31.6060  -16.8796   16.4363 C   0  0  0  0  0  0
  -25.1047  -20.0575   21.2060 C   0  0  0  0  0  0
  -31.4781  -16.5550   17.9368 C   0  0  0  0  0  0
  -28.0492  -23.8387   19.9290 C   0  0  0  0  0  0
  -27.4958  -20.9504   21.1802 C   0  0  0  0  0  0
  -26.3733  -20.2784   20.3728 C   0  0  0  0  0  0
  -28.4787  -25.1739   20.6891 C   0  0  0  0  0  0
  -28.5523  -16.0205   21.1367 N   0  0  0  0  0  0
  -31.4804  -12.5777   19.1468 H   0  0  0  0  0  0
  -30.4082  -11.4461   19.9201 H   0  0  0  0  0  0
  -29.7949  -11.7330   17.5007 H   0  0  0  0  0  0
  -29.6323  -13.4551   17.7199 H   0  0  0  0  0  0
  -27.8918  -11.2600   18.8921 H   0  0  0  0  0  0
  -27.3747  -12.5118   17.7910 H   0  0  0  0  0  0
  -27.6472  -14.2185   19.4713 H   0  0  0  0  0  0
  -28.7345  -12.0355   21.3292 H   0  0  0  0  0  0
  -28.4234  -13.6489   21.8526 H   0  0  0  0  0  0
  -25.2735   -9.5685   22.4711 H   0  0  0  0  0  0
  -23.9973   -7.4636   22.7465 H   0  0  0  0  0  0
  -21.0796   -8.8743   19.8943 H   0  0  0  0  0  0
  -22.3649  -10.9637   19.6126 H   0  0  0  0  0  0
  -21.2030   -7.6158   23.9719 H   0  0  0  0  0  0
  -21.1449   -6.0522   25.9069 H   0  0  0  0  0  0
  -22.0609   -2.7619   23.2846 H   0  0  0  0  0  0
  -22.4129  -11.9902   22.4774 H   0  0  0  0  0  0
  -21.1114  -13.1265   22.2597 H   0  0  0  0  0  0
  -24.7359  -15.8555   20.6846 H   0  0  0  0  0  0
  -26.3883  -15.5681   20.4308 H   0  0  0  0  0  0
  -26.7144  -32.5434   23.1076 H   0  0  0  0  0  0
  -25.0000  -33.9708   25.0360 H   0  0  0  0  0  0
  -22.7163  -31.2941   21.3904 H   0  0  0  0  0  0
  -23.3766  -35.9617   23.3302 H   0  0  0  0  0  0
  -24.3573  -36.8921   22.2062 H   0  0  0  0  0  0
  -23.7249  -37.6476   23.6674 H   0  0  0  0  0  0
  -26.0919  -31.5460   20.6014 H   0  0  0  0  0  0
  -26.8396  -30.8378   21.9996 H   0  0  0  0  0  0
  -28.1291  -29.0008   21.1609 H   0  0  0  0  0  0
  -26.0273  -25.8804   19.0572 H   0  0  0  0  0  0
  -23.9790  -27.2572   19.0576 H   0  0  0  0  0  0
  -23.7612  -30.5695   19.4007 H   0  0  0  0  0  0
  -22.7605  -29.2253   19.8631 H   0  0  0  0  0  0
  -25.1298  -36.1926   25.0828 H   0  0  0  0  0  0
  -20.9962  -28.3232   24.1415 H   0  0  0  0  0  0
  -20.5666  -26.2282   23.3613 H   0  0  0  0  0  0
  -21.6643  -26.7426   22.1222 H   0  0  0  0  0  0
  -19.6944  -25.6296   21.1232 H   0  0  0  0  0  0
  -19.6701  -27.3189   20.6744 H   0  0  0  0  0  0
  -17.4210  -26.6651   21.4010 H   0  0  0  0  0  0
  -18.0328  -26.0065   22.9025 H   0  0  0  0  0  0
  -19.7953  -30.7249   24.2249 H   0  0  0  0  0  0
  -17.5038  -31.6264   24.5148 H   0  0  0  0  0  0
  -15.5363  -30.2973   23.7677 H   0  0  0  0  0  0
  -15.8674  -28.0811   22.7074 H   0  0  0  0  0  0
  -24.5929  -30.7010   25.7789 H   0  0  0  0  0  0
  -24.8887  -32.2853   26.4869 H   0  0  0  0  0  0
  -25.8087  -30.8905   27.0224 H   0  0  0  0  0  0
  -26.2880  -29.6735   24.1218 H   0  0  0  0  0  0
  -27.4045  -29.7259   25.4661 H   0  0  0  0  0  0
  -27.8744  -30.4270   23.9361 H   0  0  0  0  0  0
  -27.2671  -33.3623   26.2034 H   0  0  0  0  0  0
  -28.3878  -32.6833   25.0329 H   0  0  0  0  0  0
  -28.0684  -31.8447   26.5429 H   0  0  0  0  0  0
  -28.2590  -38.0093   24.7521 H   0  0  0  0  0  0
  -28.1089  -36.2629   24.6285 H   0  0  0  0  0  0
  -27.2297  -37.1428   25.8862 H   0  0  0  0  0  0
  -20.9385  -29.8736   21.6878 H   0  0  0  0  0  0
  -26.0177  -38.2847   24.1422 H   0  0  0  0  0  0
  -30.8178  -21.0867   18.5354 H   0  0  0  0  0  0
  -31.9071  -19.1897   17.6182 H   0  0  0  0  0  0
  -28.7334  -18.5395   21.2982 H   0  0  0  0  0  0
  -29.8952  -22.7434   19.3948 H   0  0  0  0  0  0
  -31.8587  -15.9817   15.8717 H   0  0  0  0  0  0
  -32.3929  -17.6044   16.2307 H   0  0  0  0  0  0
  -30.6694  -17.2637   16.0321 H   0  0  0  0  0  0
  -24.3341  -19.5586   20.6153 H   0  0  0  0  0  0
  -24.6907  -21.0036   21.5576 H   0  0  0  0  0  0
  -25.3028  -19.4352   22.0793 H   0  0  0  0  0  0
  -30.8230  -15.6895   17.9817 H   0  0  0  0  0  0
  -32.4578  -16.2555   18.3090 H   0  0  0  0  0  0
  -27.0388  -23.5711   20.2369 H   0  0  0  0  0  0
  -27.9406  -24.1012   18.8769 H   0  0  0  0  0  0
  -27.1120  -21.8738   21.6117 H   0  0  0  0  0  0
  -27.7715  -20.3480   22.0462 H   0  0  0  0  0  0
  -26.1312  -20.8961   19.5071 H   0  0  0  0  0  0
  -26.7124  -19.3191   19.9816 H   0  0  0  0  0  0
  -29.5324  -25.0607   20.9438 H   0  0  0  0  0  0
  -27.9661  -25.2058   21.6520 H   0  0  0  0  0  0
  -28.1160  -16.9330   21.1138 H   0  0  0  0  0  0
  1 25  1  0  0  0
  1 30  2  0  0  0
  1 79  1  0  0  0
  2  3  1  0  0  0
  2 25  1  0  0  0
  2 88  1  0  0  0
  2 89  1  0  0  0
  3  4  1  0  0  0
  3 90  1  0  0  0
  3 91  1  0  0  0
  4  5  1  0  0  0
  4 92  1  0  0  0
  4 93  1  0  0  0
  5  6  1  0  0  0
  5 26  1  0  0  0
  5 94  1  0  0  0
  6 25  1  0  0  0
  6 95  1  0  0  0
  6 96  1  0  0  0
  7  8  2  0  0  0
  7 26  1  0  0  0
  7 29  1  0  0  0
  8  9  1  0  0  0
  8 22  1  0  0  0
  9 10  1  0  0  0
  9 27  2  0  0  0
 10 11  2  0  0  0
 10 15  1  0  0  0
 11 12  1  0  0  0
 11 97  1  0  0  0
 12 13  2  0  0  0
 12 98  1  0  0  0
 13 14  1  0  0  0
 13 31  1  0  0  0
 14 15  2  0  0  0
 14 99  1  0  0  0
 15100  1  0  0  0
 16 17  2  0  0  0
 16 21  1  0  0  0
 16 31  1  0  0  0
 17 18  1  0  0  0
 17101  1  0  0  0
 18 19  2  0  0  0
 18102  1  0  0  0
 19 20  1  0  0  0
 19 24  1  0  0  0
 20 21  2  0  0  0
 20103  1  0  0  0
 21 23  1  0  0  0
 22 28  1  0  0  0
 22 32  2  0  0  0
 26 27  1  0  0  0
 28104  1  0  0  0
 28105  1  0  0  0
 29106  1  0  0  0
 29107  1  0  0  0
 33 34  1  0  0  0
 33 66  1  0  0  0
 33 70  2  0  0  0
 34 36  1  0  0  0
 34 59  1  0  0  0
 34108  1  0  0  0
 35 44  2  0  0  0
 35 45  1  0  0  0
 35 68  1  0  0  0
 36 56  1  0  0  0
 36109  1  0  0  0
 37 39  1  0  0  0
 37 47  1  0  0  0
 37 66  1  0  0  0
 37110  1  0  0  0
 38 43  2  0  0  0
 38 46  1  0  0  0
 38 47  1  0  0  0
 39 64  1  0  0  0
 39 67  2  0  0  0
 40 52  1  0  0  0
 40 53  2  0  0  0
 40 58  1  0  0  0
 41111  1  0  0  0
 41112  1  0  0  0
 41113  1  0  0  0
 41 48  1  0  0  0
 42 43  1  0  0  0
 42 66  1  0  0  0
 42114  1  0  0  0
 42115  1  0  0  0
 43 44  1  0  0  0
 44116  1  0  0  0
 45 46  2  0  0  0
 45117  1  0  0  0
 46118  1  0  0  0
 47119  1  0  0  0
 47120  1  0  0  0
 48 56  1  0  0  0
 48 65  1  0  0  0
 48121  1  0  0  0
 49 50  1  0  0  0
 49 53  1  0  0  0
 49 64  1  0  0  0
 49122  1  0  0  0
 50 51  1  0  0  0
 50123  1  0  0  0
 50124  1  0  0  0
 51 52  1  0  0  0
 51125  1  0  0  0
 51126  1  0  0  0
 52127  1  0  0  0
 52128  1  0  0  0
 53 54  1  0  0  0
 54 55  2  0  0  0
 54129  1  0  0  0
 55 57  1  0  0  0
 55130  1  0  0  0
 56 69  2  0  0  0
 57 58  2  0  0  0
 57131  1  0  0  0
 58132  1  0  0  0
 59 60  1  0  0  0
 59 61  1  0  0  0
 59 62  1  0  0  0
 60133  1  0  0  0
 60134  1  0  0  0
 60135  1  0  0  0
 61136  1  0  0  0
 61137  1  0  0  0
 61138  1  0  0  0
 62139  1  0  0  0
 62140  1  0  0  0
 62141  1  0  0  0
 63 65  1  0  0  0
 63142  1  0  0  0
 63143  1  0  0  0
 63144  1  0  0  0
 64145  1  0  0  0
 65146  1  0  0  0
 68 86  1  0  0  0
 71 72  2  0  0  0
 71 74  1  0  0  0
 71147  1  0  0  0
 72 76  1  0  0  0
 72148  1  0  0  0
 73 74  2  0  0  0
 73 75  1  0  0  0
 73149  1  0  0  0
 74 78  1  0  0  0
 75 76  2  0  0  0
 75 79  1  0  0  0
 76 82  1  0  0  0
 77 78  2  0  0  0
 77 83  1  0  0  0
 77150  1  0  0  0
 78 84  1  0  0  0
 79 87  2  0  0  0
 80 82  1  0  0  0
 80151  1  0  0  0
 80152  1  0  0  0
 80153  1  0  0  0
 81 85  1  0  0  0
 81154  1  0  0  0
 81155  1  0  0  0
 81156  1  0  0  0
 82157  1  0  0  0
 82158  1  0  0  0
 83 86  1  0  0  0
 83159  1  0  0  0
 83160  1  0  0  0
 84 85  1  0  0  0
 84161  1  0  0  0
 84162  1  0  0  0
 85163  1  0  0  0
 85164  1  0  0  0
 86165  1  0  0  0
 86166  1  0  0  0
 87167  1  0  0  0
M  ISO  4   1 100  68 101  79 100  86 101
M  END
> <chiral flag>
0

> <version>
0

> <s_m_source_file>
/data/baiqing/PycharmProjects/Reinvent-master-3.2/result/LINK_invent/BTK/process_docking_weight1_custom_product_contain_oxygen_bond_distance_aromatic_linkinvent_7_9_3/rearranged_h_0124.sdf

> <i_m_source_file_index>
14

> <r_mmod_Potential_Energy-OPLS-2005>
367.238800048828

> <r_mmod_Stretch_Energy-OPLS-2005>
128.304260253906

> <r_mmod_Bend_Energy-OPLS-2005>
183.053924560547

> <r_mmod_Torsional_Energy-OPLS-2005>
235.190444946289

> <r_mmod_Improper_Torsional_Energy-OPLS-2005>
8.01970481872559

> <r_mmod_Van_der_Waal_Energy-OPLS-2005>
162.002151489258

> <r_mmod_Electrostatic_Energy-OPLS-2005>
-234.877304077148

> <r_mmod_Solvation_Energy-OPLS-2005>
-176.299362182617

> <b_mmod_Minimization_Converged-OPLS-2005>
0

> <r_mmod_RMS_Derivative-OPLS-2005>
2.38261771202087

$$$$
14
                    3D
 Structure written by MMmdl.
159167  0  0  1  0            999 V2000
  -30.6172  -14.6974   20.4806 C   0  0  0  0  0  0
  -30.4404  -12.4252   19.4621 C   0  0  0  0  0  0
  -29.5106  -12.5053   18.2303 C   0  0  0  0  0  0
  -28.0353  -12.3332   18.6434 C   0  0  0  0  0  0
  -27.6467  -13.2173   19.8575 C   0  0  2  0  0  0
  -28.6954  -13.1157   20.9890 C   0  0  0  0  0  0
  -25.2440  -13.7918   20.5589 C   0  0  0  0  0  0
  -24.1766  -13.0248   20.9230 C   0  0  0  0  0  0
  -24.6405  -11.6767   20.8796 C   0  0  0  0  0  0
  -23.9076  -10.4188   21.0436 C   0  0  0  0  0  0
  -24.3618   -9.4114   21.9216 C   0  0  0  0  0  0
  -23.6275   -8.2170   22.0774 C   0  0  0  0  0  0
  -22.4260   -8.0242   21.3551 C   0  0  0  0  0  0
  -21.9903   -9.0217   20.4651 C   0  0  0  0  0  0
  -22.7255  -10.2075   20.3067 C   0  0  0  0  0  0
  -21.6830   -6.0722   22.5285 C   0  0  0  0  0  0
  -21.3997   -6.5631   23.8218 C   0  0  0  0  0  0
  -21.3655   -5.6786   24.9184 C   0  0  0  0  0  0
  -21.6042   -4.3050   24.7232 C   0  0  0  0  0  0
  -21.8820   -3.8139   23.4353 C   0  0  0  0  0  0
  -21.9184   -4.6953   22.3409 C   0  0  0  0  0  0
  -22.7804  -13.5105   21.1876 C   0  0  0  0  0  0
  -22.1657   -4.2143   21.0986 F   0  0  0  0  0  0
  -21.5630   -3.4534   25.7745 F   0  0  0  0  0  0
  -30.0060  -13.4666   20.4178 N   0  0  0  0  0  0
  -26.2959  -12.9226   20.3302 N   0  0  0  0  0  0
  -25.9350  -11.6385   20.5811 N   0  0  0  0  0  0
  -22.0428  -12.8149   22.0451 N   0  0  0  0  0  0
  -25.3870  -15.1518   20.3731 N   0  0  0  0  0  0
  -31.7924  -14.8306   20.1263 O   0  0  0  0  0  0
  -21.6607   -6.8857   21.4247 O   0  0  0  0  0  0
  -22.3529  -14.5435   20.6725 O   0  0  0  0  0  0
  -24.6259  -31.8583   23.2014 C   0  0  0  0  0  0
  -25.9099  -32.4772   23.8346 C   0  0  1  0  0  0
  -27.2405  -27.3250   20.1169 C   0  0  0  0  0  0
  -25.5922  -33.8571   24.2281 N   0  0  0  0  0  0
  -23.4200  -30.4812   21.5431 C   0  0  2  0  0  0
  -24.8694  -28.9332   20.1124 C   0  0  0  0  0  0
  -22.7474  -29.4615   22.4928 C   0  0  0  0  0  0
  -18.0293  -28.1376   22.8484 C   0  0  0  0  0  0
  -24.1487  -36.7289   23.2640 C   0  0  0  0  0  0
  -25.9601  -30.7917   21.3701 C   0  0  0  0  0  0
  -26.0369  -29.4183   20.7146 C   0  0  0  0  0  0
  -27.2234  -28.6271   20.7047 C   0  0  0  0  0  0
  -26.0451  -26.8866   19.4997 C   0  0  0  0  0  0
  -24.8751  -27.6719   19.4961 C   0  0  0  0  0  0
  -23.6359  -29.8129   20.1593 C   0  0  0  0  0  0
  -25.4111  -36.3076   24.0336 C   0  0  1  0  0  0
  -20.5889  -28.3669   23.1285 C   0  0  2  0  0  0
  -20.6779  -26.9390   22.5407 C   0  0  0  0  0  0
  -19.5759  -26.6373   21.5204 C   0  0  0  0  0  0
  -18.1939  -26.7923   22.1615 C   0  0  0  0  0  0
  -19.1545  -28.8840   23.2882 C   0  0  0  0  0  0
  -18.9469  -30.1447   23.8887 C   0  0  0  0  0  0
  -17.6470  -30.6579   24.0560 C   0  0  0  0  0  0
  -25.9046  -34.9446   23.5107 C   0  0  0  0  0  0
  -16.5358  -29.9077   23.6332 C   0  0  0  0  0  0
  -16.7280  -28.6498   23.0343 C   0  0  0  0  0  0
  -26.4494  -31.6579   25.0712 C   0  0  0  0  0  0
  -25.3740  -31.3714   26.1446 C   0  0  0  0  0  0
  -27.0337  -30.3012   24.6141 C   0  0  0  0  0  0
  -27.6053  -32.4306   25.7489 C   0  0  0  0  0  0
  -27.5577  -37.1800   24.8469 C   0  0  0  0  0  0
  -21.4189  -29.3032   22.3682 N   0  0  0  0  0  0
  -26.4288  -37.3768   23.9414 N   0  0  0  0  0  0
  -24.6874  -31.0606   22.0954 N   0  0  0  0  0  0
  -23.4205  -28.8152   23.2997 O   0  0  0  0  0  0
  -28.3796  -26.5010   20.1575 O   0  0  0  0  0  0
  -26.5610  -34.8919   22.4670 O   0  0  0  0  0  0
  -23.5426  -32.1369   23.7360 O   0  0  0  0  0  0
  -28.9126  -19.5296   20.8180 C   0  0  0  0  0  0
  -31.1477  -17.9287   20.3580 C   0  0  0  0  0  0
  -28.8136  -18.1075   20.8838 C   0  0  0  0  0  0
  -31.2315  -19.3595   20.2707 C   0  0  0  0  0  0
  -30.1052  -20.2111   20.4912 C   0  0  0  0  0  0
  -29.9389  -17.2429   20.6657 C   0  0  0  0  0  0
  -29.2640  -22.5269   20.3521 C   0  0  0  0  0  0
  -32.5777  -19.9821   19.9398 C   0  0  0  0  0  0
  -26.4248  -17.9969   20.0769 C   0  0  0  0  0  0
  -27.4197  -17.5860   21.1818 C   0  0  0  0  0  0
  -29.4620  -24.0954   20.3621 C   0  0  0  0  0  0
  -28.2113  -25.0318   20.0526 C   0  0  0  0  0  0
  -30.2274  -21.6499   20.4293 N   0  0  0  0  0  0
  -29.8026  -15.7716   20.7725 N   0  0  0  0  0  0
  -31.4802  -12.5539   19.1569 H   0  0  0  0  0  0
  -30.3852  -11.4382   19.9249 H   0  0  0  0  0  0
  -29.7845  -11.7415   17.5011 H   0  0  0  0  0  0
  -29.6422  -13.4663   17.7307 H   0  0  0  0  0  0
  -27.8854  -11.2820   18.8920 H   0  0  0  0  0  0
  -27.3782  -12.5405   17.7980 H   0  0  0  0  0  0
  -27.6466  -14.2459   19.4970 H   0  0  0  0  0  0
  -28.7218  -12.1047   21.3988 H   0  0  0  0  0  0
  -28.4337  -13.7694   21.8224 H   0  0  0  0  0  0
  -25.2761   -9.5580   22.4794 H   0  0  0  0  0  0
  -23.9965   -7.4554   22.7493 H   0  0  0  0  0  0
  -21.0834   -8.8751   19.8956 H   0  0  0  0  0  0
  -22.3742  -10.9625   19.6174 H   0  0  0  0  0  0
  -21.1988   -7.6138   23.9722 H   0  0  0  0  0  0
  -21.1478   -6.0518   25.9087 H   0  0  0  0  0  0
  -22.0606   -2.7602   23.2854 H   0  0  0  0  0  0
  -22.4012  -11.9795   22.4837 H   0  0  0  0  0  0
  -21.1059  -13.1219   22.2659 H   0  0  0  0  0  0
  -24.5886  -15.7712   20.4469 H   0  0  0  0  0  0
  -26.1936  -15.5927   19.9545 H   0  0  0  0  0  0
  -26.7161  -32.5440   23.1089 H   0  0  0  0  0  0
  -25.0087  -33.9709   25.0439 H   0  0  0  0  0  0
  -22.7144  -31.3020   21.3988 H   0  0  0  0  0  0
  -23.3751  -35.9619   23.3301 H   0  0  0  0  0  0
  -24.3587  -36.8906   22.2056 H   0  0  0  0  0  0
  -23.7246  -37.6496   23.6656 H   0  0  0  0  0  0
  -26.0909  -31.5547   20.6016 H   0  0  0  0  0  0
  -26.8415  -30.8417   21.9972 H   0  0  0  0  0  0
  -28.1198  -29.0001   21.1796 H   0  0  0  0  0  0
  -25.9888  -25.9230   19.0166 H   0  0  0  0  0  0
  -23.9805  -27.2938   19.0208 H   0  0  0  0  0  0
  -23.7546  -30.5884   19.4015 H   0  0  0  0  0  0
  -22.7565  -29.2413   19.8569 H   0  0  0  0  0  0
  -25.1293  -36.1923   25.0832 H   0  0  0  0  0  0
  -20.9987  -28.3227   24.1401 H   0  0  0  0  0  0
  -20.5664  -26.2272   23.3602 H   0  0  0  0  0  0
  -21.6650  -26.7408   22.1203 H   0  0  0  0  0  0
  -19.6917  -25.6283   21.1229 H   0  0  0  0  0  0
  -19.6704  -27.3192   20.6738 H   0  0  0  0  0  0
  -17.4206  -26.6663   21.4017 H   0  0  0  0  0  0
  -18.0343  -26.0072   22.9017 H   0  0  0  0  0  0
  -19.7942  -30.7274   24.2239 H   0  0  0  0  0  0
  -17.5022  -31.6258   24.5162 H   0  0  0  0  0  0
  -15.5359  -30.2975   23.7667 H   0  0  0  0  0  0
  -15.8680  -28.0826   22.7041 H   0  0  0  0  0  0
  -24.5922  -30.7049   25.7792 H   0  0  0  0  0  0
  -24.8922  -32.2877   26.4863 H   0  0  0  0  0  0
  -25.8080  -30.8911   27.0222 H   0  0  0  0  0  0
  -26.2901  -29.6762   24.1180 H   0  0  0  0  0  0
  -27.4083  -29.7259   25.4619 H   0  0  0  0  0  0
  -27.8747  -30.4330   23.9330 H   0  0  0  0  0  0
  -27.2666  -33.3611   26.2056 H   0  0  0  0  0  0
  -28.3872  -32.6849   25.0321 H   0  0  0  0  0  0
  -28.0699  -31.8428   26.5414 H   0  0  0  0  0  0
  -28.2591  -38.0097   24.7504 H   0  0  0  0  0  0
  -28.1074  -36.2628   24.6300 H   0  0  0  0  0  0
  -27.2298  -37.1455   25.8873 H   0  0  0  0  0  0
  -20.9362  -29.8774   21.6914 H   0  0  0  0  0  0
  -26.0170  -38.2845   24.1409 H   0  0  0  0  0  0
  -28.0267  -20.1087   21.0330 H   0  0  0  0  0  0
  -32.0452  -17.3532   20.1842 H   0  0  0  0  0  0
  -28.2160  -22.2240   20.2807 H   0  0  0  0  0  0
  -33.3528  -19.2286   19.8001 H   0  0  0  0  0  0
  -32.8961  -20.6440   20.7457 H   0  0  0  0  0  0
  -32.5096  -20.5684   19.0229 H   0  0  0  0  0  0
  -25.4033  -17.7329   20.3457 H   0  0  0  0  0  0
  -26.6674  -17.5146   19.1293 H   0  0  0  0  0  0
  -26.4134  -19.0712   19.8993 H   0  0  0  0  0  0
  -27.0953  -18.0082   22.1337 H   0  0  0  0  0  0
  -27.4209  -16.5091   21.3293 H   0  0  0  0  0  0
  -30.2547  -24.3356   19.6537 H   0  0  0  0  0  0
  -29.8535  -24.3635   21.3430 H   0  0  0  0  0  0
  -27.4021  -24.7391   20.7243 H   0  0  0  0  0  0
  -27.8756  -24.7977   19.0419 H   0  0  0  0  0  0
  -28.8775  -15.4689   21.0327 H   0  0  0  0  0  0
  1 25  1  0  0  0
  1 30  2  0  0  0
  1 84  1  0  0  0
  2  3  1  0  0  0
  2 25  1  0  0  0
  2 85  1  0  0  0
  2 86  1  0  0  0
  3  4  1  0  0  0
  3 87  1  0  0  0
  3 88  1  0  0  0
  4  5  1  0  0  0
  4 89  1  0  0  0
  4 90  1  0  0  0
  5  6  1  0  0  0
  5 26  1  0  0  0
  5 91  1  0  0  0
  6 25  1  0  0  0
  6 92  1  0  0  0
  6 93  1  0  0  0
  7  8  2  0  0  0
  7 26  1  0  0  0
  7 29  1  0  0  0
  8  9  1  0  0  0
  8 22  1  0  0  0
  9 10  1  0  0  0
  9 27  2  0  0  0
 10 11  2  0  0  0
 10 15  1  0  0  0
 11 12  1  0  0  0
 11 94  1  0  0  0
 12 13  2  0  0  0
 12 95  1  0  0  0
 13 14  1  0  0  0
 13 31  1  0  0  0
 14 15  2  0  0  0
 14 96  1  0  0  0
 15 97  1  0  0  0
 16 17  2  0  0  0
 16 21  1  0  0  0
 16 31  1  0  0  0
 17 18  1  0  0  0
 17 98  1  0  0  0
 18 19  2  0  0  0
 18 99  1  0  0  0
 19 20  1  0  0  0
 19 24  1  0  0  0
 20 21  2  0  0  0
 20100  1  0  0  0
 21 23  1  0  0  0
 22 28  1  0  0  0
 22 32  2  0  0  0
 26 27  1  0  0  0
 28101  1  0  0  0
 28102  1  0  0  0
 29103  1  0  0  0
 29104  1  0  0  0
 33 34  1  0  0  0
 33 66  1  0  0  0
 33 70  2  0  0  0
 34 36  1  0  0  0
 34 59  1  0  0  0
 34105  1  0  0  0
 35 44  2  0  0  0
 35 45  1  0  0  0
 35 68  1  0  0  0
 36 56  1  0  0  0
 36106  1  0  0  0
 37 39  1  0  0  0
 37 47  1  0  0  0
 37 66  1  0  0  0
 37107  1  0  0  0
 38 43  2  0  0  0
 38 46  1  0  0  0
 38 47  1  0  0  0
 39 64  1  0  0  0
 39 67  2  0  0  0
 40 52  1  0  0  0
 40 53  2  0  0  0
 40 58  1  0  0  0
 41108  1  0  0  0
 41109  1  0  0  0
 41110  1  0  0  0
 41 48  1  0  0  0
 42 43  1  0  0  0
 42 66  1  0  0  0
 42111  1  0  0  0
 42112  1  0  0  0
 43 44  1  0  0  0
 44113  1  0  0  0
 45 46  2  0  0  0
 45114  1  0  0  0
 46115  1  0  0  0
 47116  1  0  0  0
 47117  1  0  0  0
 48 56  1  0  0  0
 48 65  1  0  0  0
 48118  1  0  0  0
 49 50  1  0  0  0
 49 53  1  0  0  0
 49 64  1  0  0  0
 49119  1  0  0  0
 50 51  1  0  0  0
 50120  1  0  0  0
 50121  1  0  0  0
 51 52  1  0  0  0
 51122  1  0  0  0
 51123  1  0  0  0
 52124  1  0  0  0
 52125  1  0  0  0
 53 54  1  0  0  0
 54 55  2  0  0  0
 54126  1  0  0  0
 55 57  1  0  0  0
 55127  1  0  0  0
 56 69  2  0  0  0
 57 58  2  0  0  0
 57128  1  0  0  0
 58129  1  0  0  0
 59 60  1  0  0  0
 59 61  1  0  0  0
 59 62  1  0  0  0
 60130  1  0  0  0
 60131  1  0  0  0
 60132  1  0  0  0
 61133  1  0  0  0
 61134  1  0  0  0
 61135  1  0  0  0
 62136  1  0  0  0
 62137  1  0  0  0
 62138  1  0  0  0
 63 65  1  0  0  0
 63139  1  0  0  0
 63140  1  0  0  0
 63141  1  0  0  0
 64142  1  0  0  0
 65143  1  0  0  0
 68 82  1  0  0  0
 71 73  2  0  0  0
 71 75  1  0  0  0
 71144  1  0  0  0
 72 74  1  0  0  0
 72 76  2  0  0  0
 72145  1  0  0  0
 73 76  1  0  0  0
 73 80  1  0  0  0
 74 75  2  0  0  0
 74 78  1  0  0  0
 75 83  1  0  0  0
 76 84  1  0  0  0
 77 81  1  0  0  0
 77 83  2  0  0  0
 77146  1  0  0  0
 78147  1  0  0  0
 78148  1  0  0  0
 78149  1  0  0  0
 79 80  1  0  0  0
 79150  1  0  0  0
 79151  1  0  0  0
 79152  1  0  0  0
 80153  1  0  0  0
 80154  1  0  0  0
 81 82  1  0  0  0
 81155  1  0  0  0
 81156  1  0  0  0
 82157  1  0  0  0
 82158  1  0  0  0
 84159  1  0  0  0
M  ISO  4   1 100  68 101  82 101  84 100
M  END
> <chiral flag>
0

> <version>
0

> <s_m_source_file>
/data/baiqing/PycharmProjects/Reinvent-master-3.2/result/LINK_invent/BTK/process_docking_weight1_custom_product_contain_oxygen_bond_distance_aromatic_linkinvent_7_9_3/rearranged_h_0124.sdf

> <i_m_source_file_index>
15

> <r_mmod_Potential_Energy-OPLS-2005>
34.8491325378418

> <r_mmod_Stretch_Energy-OPLS-2005>
89.2878341674805

> <r_mmod_Bend_Energy-OPLS-2005>
152.061553955078

> <r_mmod_Torsional_Energy-OPLS-2005>
209.246612548828

> <r_mmod_Improper_Torsional_Energy-OPLS-2005>
4.78695869445801

> <r_mmod_Van_der_Waal_Energy-OPLS-2005>
153.726470947266

> <r_mmod_Electrostatic_Energy-OPLS-2005>
-423.184631347656

> <r_mmod_Solvation_Energy-OPLS-2005>
-208.38752746582

> <b_mmod_Minimization_Converged-OPLS-2005>
0

> <r_mmod_RMS_Derivative-OPLS-2005>
1.04836106300354

$$$$
15
                    3D
 Structure written by MMmdl.
153161  0  0  1  0            999 V2000
  -30.6292  -14.6630   20.4932 C   0  0  0  0  0  0
  -30.4434  -12.4069   19.4579 C   0  0  0  0  0  0
  -29.5130  -12.5084   18.2286 C   0  0  0  0  0  0
  -28.0364  -12.3389   18.6420 C   0  0  0  0  0  0
  -27.6520  -13.2171   19.8624 C   0  0  2  0  0  0
  -28.7008  -13.0920   20.9916 C   0  0  0  0  0  0
  -25.2455  -13.8039   20.5551 C   0  0  0  0  0  0
  -24.1788  -13.0342   20.9215 C   0  0  0  0  0  0
  -24.6406  -11.6841   20.8790 C   0  0  0  0  0  0
  -23.9070  -10.4244   21.0439 C   0  0  0  0  0  0
  -24.3613   -9.4158   21.9210 C   0  0  0  0  0  0
  -23.6278   -8.2204   22.0761 C   0  0  0  0  0  0
  -22.4260   -8.0261   21.3543 C   0  0  0  0  0  0
  -21.9900   -9.0239   20.4649 C   0  0  0  0  0  0
  -22.7243  -10.2114   20.3073 C   0  0  0  0  0  0
  -21.6842   -6.0727   22.5281 C   0  0  0  0  0  0
  -21.4015   -6.5638   23.8213 C   0  0  0  0  0  0
  -21.3652   -5.6786   24.9173 C   0  0  0  0  0  0
  -21.6041   -4.3046   24.7223 C   0  0  0  0  0  0
  -21.8821   -3.8137   23.4343 C   0  0  0  0  0  0
  -21.9188   -4.6957   22.3400 C   0  0  0  0  0  0
  -22.7816  -13.5164   21.1846 C   0  0  0  0  0  0
  -22.1656   -4.2145   21.0978 F   0  0  0  0  0  0
  -21.5615   -3.4531   25.7730 F   0  0  0  0  0  0
  -30.0144  -13.4373   20.4249 N   0  0  0  0  0  0
  -26.2974  -12.9302   20.3306 N   0  0  0  0  0  0
  -25.9347  -11.6462   20.5827 N   0  0  0  0  0  0
  -22.0439  -12.8198   22.0423 N   0  0  0  0  0  0
  -25.3915  -15.1686   20.3640 N   0  0  0  0  0  0
  -31.7987  -14.8071   20.1285 O   0  0  0  0  0  0
  -21.6619   -6.8863   21.4238 O   0  0  0  0  0  0
  -22.3526  -14.5472   20.6671 O   0  0  0  0  0  0
  -24.6250  -31.8615   23.2044 C   0  0  0  0  0  0
  -25.9103  -32.4788   23.8380 C   0  0  1  0  0  0
  -27.2303  -27.3370   20.1048 C   0  0  0  0  0  0
  -25.5923  -33.8585   24.2307 N   0  0  0  0  0  0
  -23.4187  -30.4854   21.5477 C   0  0  2  0  0  0
  -24.8655  -28.9462   20.1126 C   0  0  0  0  0  0
  -22.7475  -29.4616   22.4941 C   0  0  0  0  0  0
  -18.0293  -28.1381   22.8485 C   0  0  0  0  0  0
  -24.1490  -36.7297   23.2630 C   0  0  0  0  0  0
  -25.9597  -30.7972   21.3747 C   0  0  0  0  0  0
  -26.0349  -29.4269   20.7144 C   0  0  0  0  0  0
  -27.2201  -28.6340   20.7018 C   0  0  0  0  0  0
  -26.0311  -26.9046   19.4871 C   0  0  0  0  0  0
  -24.8641  -27.6886   19.4922 C   0  0  0  0  0  0
  -23.6336  -29.8246   20.1615 C   0  0  0  0  0  0
  -25.4101  -36.3079   24.0336 C   0  0  1  0  0  0
  -20.5889  -28.3682   23.1277 C   0  0  2  0  0  0
  -20.6781  -26.9406   22.5401 C   0  0  0  0  0  0
  -19.5755  -26.6378   21.5204 C   0  0  0  0  0  0
  -18.1939  -26.7923   22.1622 C   0  0  0  0  0  0
  -19.1545  -28.8849   23.2877 C   0  0  0  0  0  0
  -18.9467  -30.1447   23.8901 C   0  0  0  0  0  0
  -17.6465  -30.6578   24.0559 C   0  0  0  0  0  0
  -25.9045  -34.9453   23.5121 C   0  0  0  0  0  0
  -16.5358  -29.9076   23.6323 C   0  0  0  0  0  0
  -16.7280  -28.6495   23.0350 C   0  0  0  0  0  0
  -26.4497  -31.6587   25.0738 C   0  0  0  0  0  0
  -25.3741  -31.3733   26.1481 C   0  0  0  0  0  0
  -27.0324  -30.3011   24.6174 C   0  0  0  0  0  0
  -27.6087  -32.4300   25.7477 C   0  0  0  0  0  0
  -27.5597  -37.1765   24.8439 C   0  0  0  0  0  0
  -21.4191  -29.3038   22.3679 N   0  0  0  0  0  0
  -26.4271  -37.3782   23.9444 N   0  0  0  0  0  0
  -24.6869  -31.0630   22.0997 N   0  0  0  0  0  0
  -23.4204  -28.8155   23.3013 O   0  0  0  0  0  0
  -28.3566  -26.5005   20.1376 O   0  0  0  0  0  0
  -26.5608  -34.8911   22.4683 O   0  0  0  0  0  0
  -23.5415  -32.1414   23.7375 O   0  0  0  0  0  0
  -31.1796  -19.3136   20.3211 C   0  0  0  0  0  0
  -31.1422  -17.8879   20.4226 C   0  0  0  0  0  0
  -28.8276  -19.4312   20.7316 C   0  0  0  0  0  0
  -30.0265  -20.1322   20.4767 C   0  0  0  0  0  0
  -28.7795  -18.0106   20.8490 C   0  0  0  0  0  0
  -29.9368  -17.1840   20.6885 C   0  0  0  0  0  0
  -30.1043  -21.6476   20.3638 C   0  0  0  0  0  0
  -29.1043  -22.5862   20.2914 C   0  0  0  0  0  0
  -29.3302  -24.0878   20.2145 C   0  0  0  0  0  0
  -27.4191  -17.4115   21.1222 C   0  0  0  0  0  0
  -28.1147  -25.0521   19.9606 C   0  0  0  0  0  0
  -29.8159  -15.7231   20.8124 N   0  0  0  0  0  0
  -30.4574  -24.5813   20.3318 O   0  0  0  0  0  0
  -31.4839  -12.5347   19.1541 H   0  0  0  0  0  0
  -30.3838  -11.4160   19.9109 H   0  0  0  0  0  0
  -29.7817  -11.7509   17.4900 H   0  0  0  0  0  0
  -29.6496  -13.4746   17.7415 H   0  0  0  0  0  0
  -27.8831  -11.2867   18.8848 H   0  0  0  0  0  0
  -27.3816  -12.5537   17.7968 H   0  0  0  0  0  0
  -27.6613  -14.2492   19.5126 H   0  0  0  0  0  0
  -28.7194  -12.0752   21.3872 H   0  0  0  0  0  0
  -28.4460  -13.7354   21.8348 H   0  0  0  0  0  0
  -25.2764   -9.5622   22.4786 H   0  0  0  0  0  0
  -23.9966   -7.4590   22.7488 H   0  0  0  0  0  0
  -21.0823   -8.8787   19.8961 H   0  0  0  0  0  0
  -22.3725  -10.9661   19.6183 H   0  0  0  0  0  0
  -21.2026   -7.6149   23.9718 H   0  0  0  0  0  0
  -21.1463   -6.0515   25.9074 H   0  0  0  0  0  0
  -22.0610   -2.7594   23.2852 H   0  0  0  0  0  0
  -22.4033  -11.9881   22.4850 H   0  0  0  0  0  0
  -21.1062  -13.1274   22.2606 H   0  0  0  0  0  0
  -24.5903  -15.7890   20.4051 H   0  0  0  0  0  0
  -26.1819  -15.5720   19.8805 H   0  0  0  0  0  0
  -26.7177  -32.5467   23.1139 H   0  0  0  0  0  0
  -25.0075  -33.9743   25.0454 H   0  0  0  0  0  0
  -22.7116  -31.3050   21.4068 H   0  0  0  0  0  0
  -23.3764  -35.9611   23.3214 H   0  0  0  0  0  0
  -24.3621  -36.8993   22.2064 H   0  0  0  0  0  0
  -23.7209  -37.6462   23.6697 H   0  0  0  0  0  0
  -26.0905  -31.5632   20.6090 H   0  0  0  0  0  0
  -26.8398  -30.8450   22.0044 H   0  0  0  0  0  0
  -28.1182  -28.9993   21.1811 H   0  0  0  0  0  0
  -25.9605  -25.9477   18.9925 H   0  0  0  0  0  0
  -23.9677  -27.3143   19.0166 H   0  0  0  0  0  0
  -23.7544  -30.6049   19.4091 H   0  0  0  0  0  0
  -22.7546  -29.2556   19.8547 H   0  0  0  0  0  0
  -25.1261  -36.1926   25.0822 H   0  0  0  0  0  0
  -20.9984  -28.3259   24.1392 H   0  0  0  0  0  0
  -20.5671  -26.2298   23.3601 H   0  0  0  0  0  0
  -21.6648  -26.7430   22.1199 H   0  0  0  0  0  0
  -19.6911  -25.6284   21.1234 H   0  0  0  0  0  0
  -19.6684  -27.3185   20.6728 H   0  0  0  0  0  0
  -17.4202  -26.6662   21.4033 H   0  0  0  0  0  0
  -18.0344  -26.0064   22.9019 H   0  0  0  0  0  0
  -19.7941  -30.7260   24.2276 H   0  0  0  0  0  0
  -17.5017  -31.6258   24.5161 H   0  0  0  0  0  0
  -15.5356  -30.2981   23.7627 H   0  0  0  0  0  0
  -15.8684  -28.0798   22.7069 H   0  0  0  0  0  0
  -24.5884  -30.7117   25.7813 H   0  0  0  0  0  0
  -24.8973  -32.2908   26.4945 H   0  0  0  0  0  0
  -25.8063  -30.8872   27.0236 H   0  0  0  0  0  0
  -26.2886  -29.6756   24.1226 H   0  0  0  0  0  0
  -27.4064  -29.7272   25.4662 H   0  0  0  0  0  0
  -27.8742  -30.4305   23.9369 H   0  0  0  0  0  0
  -27.2745  -33.3613   26.2058 H   0  0  0  0  0  0
  -28.3878  -32.6827   25.0273 H   0  0  0  0  0  0
  -28.0772  -31.8418   26.5376 H   0  0  0  0  0  0
  -28.2510  -38.0164   24.7631 H   0  0  0  0  0  0
  -28.1194  -36.2710   24.6053 H   0  0  0  0  0  0
  -27.2354  -37.1153   25.8841 H   0  0  0  0  0  0
  -20.9369  -29.8793   21.6917 H   0  0  0  0  0  0
  -26.0143  -38.2831   24.1539 H   0  0  0  0  0  0
  -32.1294  -19.7879   20.1184 H   0  0  0  0  0  0
  -32.0672  -17.3447   20.2946 H   0  0  0  0  0  0
  -27.9144  -19.9953   20.8568 H   0  0  0  0  0  0
  -31.1151  -22.0329   20.3562 H   0  0  0  0  0  0
  -28.0747  -22.2629   20.2877 H   0  0  0  0  0  0
  -26.7962  -18.0924   21.7046 H   0  0  0  0  0  0
  -27.4737  -16.4721   21.6712 H   0  0  0  0  0  0
  -26.9231  -17.2517   20.1663 H   0  0  0  0  0  0
  -27.3010  -24.7410   20.6170 H   0  0  0  0  0  0
  -27.7861  -24.8747   18.9363 H   0  0  0  0  0  0
  -28.8941  -15.4155   21.0782 H   0  0  0  0  0  0
  1 25  1  0  0  0
  1 30  2  0  0  0
  1 82  1  0  0  0
  2  3  1  0  0  0
  2 25  1  0  0  0
  2 84  1  0  0  0
  2 85  1  0  0  0
  3  4  1  0  0  0
  3 86  1  0  0  0
  3 87  1  0  0  0
  4  5  1  0  0  0
  4 88  1  0  0  0
  4 89  1  0  0  0
  5  6  1  0  0  0
  5 26  1  0  0  0
  5 90  1  0  0  0
  6 25  1  0  0  0
  6 91  1  0  0  0
  6 92  1  0  0  0
  7  8  2  0  0  0
  7 26  1  0  0  0
  7 29  1  0  0  0
  8  9  1  0  0  0
  8 22  1  0  0  0
  9 10  1  0  0  0
  9 27  2  0  0  0
 10 11  2  0  0  0
 10 15  1  0  0  0
 11 12  1  0  0  0
 11 93  1  0  0  0
 12 13  2  0  0  0
 12 94  1  0  0  0
 13 14  1  0  0  0
 13 31  1  0  0  0
 14 15  2  0  0  0
 14 95  1  0  0  0
 15 96  1  0  0  0
 16 17  2  0  0  0
 16 21  1  0  0  0
 16 31  1  0  0  0
 17 18  1  0  0  0
 17 97  1  0  0  0
 18 19  2  0  0  0
 18 98  1  0  0  0
 19 20  1  0  0  0
 19 24  1  0  0  0
 20 21  2  0  0  0
 20 99  1  0  0  0
 21 23  1  0  0  0
 22 28  1  0  0  0
 22 32  2  0  0  0
 26 27  1  0  0  0
 28100  1  0  0  0
 28101  1  0  0  0
 29102  1  0  0  0
 29103  1  0  0  0
 33 34  1  0  0  0
 33 66  1  0  0  0
 33 70  2  0  0  0
 34 36  1  0  0  0
 34 59  1  0  0  0
 34104  1  0  0  0
 35 44  2  0  0  0
 35 45  1  0  0  0
 35 68  1  0  0  0
 36 56  1  0  0  0
 36105  1  0  0  0
 37 39  1  0  0  0
 37 47  1  0  0  0
 37 66  1  0  0  0
 37106  1  0  0  0
 38 43  2  0  0  0
 38 46  1  0  0  0
 38 47  1  0  0  0
 39 64  1  0  0  0
 39 67  2  0  0  0
 40 52  1  0  0  0
 40 53  2  0  0  0
 40 58  1  0  0  0
 41107  1  0  0  0
 41108  1  0  0  0
 41109  1  0  0  0
 41 48  1  0  0  0
 42 43  1  0  0  0
 42 66  1  0  0  0
 42110  1  0  0  0
 42111  1  0  0  0
 43 44  1  0  0  0
 44112  1  0  0  0
 45 46  2  0  0  0
 45113  1  0  0  0
 46114  1  0  0  0
 47115  1  0  0  0
 47116  1  0  0  0
 48 56  1  0  0  0
 48 65  1  0  0  0
 48117  1  0  0  0
 49 50  1  0  0  0
 49 53  1  0  0  0
 49 64  1  0  0  0
 49118  1  0  0  0
 50 51  1  0  0  0
 50119  1  0  0  0
 50120  1  0  0  0
 51 52  1  0  0  0
 51121  1  0  0  0
 51122  1  0  0  0
 52123  1  0  0  0
 52124  1  0  0  0
 53 54  1  0  0  0
 54 55  2  0  0  0
 54125  1  0  0  0
 55 57  1  0  0  0
 55126  1  0  0  0
 56 69  2  0  0  0
 57 58  2  0  0  0
 57127  1  0  0  0
 58128  1  0  0  0
 59 60  1  0  0  0
 59 61  1  0  0  0
 59 62  1  0  0  0
 60129  1  0  0  0
 60130  1  0  0  0
 60131  1  0  0  0
 61132  1  0  0  0
 61133  1  0  0  0
 61134  1  0  0  0
 62135  1  0  0  0
 62136  1  0  0  0
 62137  1  0  0  0
 63 65  1  0  0  0
 63138  1  0  0  0
 63139  1  0  0  0
 63140  1  0  0  0
 64141  1  0  0  0
 65142  1  0  0  0
 68 81  1  0  0  0
 71 72  2  0  0  0
 71 74  1  0  0  0
 71143  1  0  0  0
 72 76  1  0  0  0
 72144  1  0  0  0
 73 74  2  0  0  0
 73 75  1  0  0  0
 73145  1  0  0  0
 74 77  1  0  0  0
 75 76  2  0  0  0
 75 80  1  0  0  0
 76 82  1  0  0  0
 77 78  2  0  0  0
 77146  1  0  0  0
 78 79  1  0  0  0
 78147  1  0  0  0
 79 81  1  0  0  0
 79 83  2  0  0  0
 80148  1  0  0  0
 80149  1  0  0  0
 80150  1  0  0  0
 81151  1  0  0  0
 81152  1  0  0  0
 82153  1  0  0  0
M  ISO  4   1 100  68 101  81 101  82 100
M  END
> <chiral flag>
0

> <version>
0

> <s_m_source_file>
/data/baiqing/PycharmProjects/Reinvent-master-3.2/result/LINK_invent/BTK/process_docking_weight1_custom_product_contain_oxygen_bond_distance_aromatic_linkinvent_7_9_3/rearranged_h_0124.sdf

> <i_m_source_file_index>
16

> <r_mmod_Potential_Energy-OPLS-2005>
17.3762893676758

> <r_mmod_Stretch_Energy-OPLS-2005>
76.2647705078125

> <r_mmod_Bend_Energy-OPLS-2005>
128.889190673828

> <r_mmod_Torsional_Energy-OPLS-2005>
209.611755371094

> <r_mmod_Improper_Torsional_Energy-OPLS-2005>
5.33827304840088

> <r_mmod_Van_der_Waal_Energy-OPLS-2005>
150.311431884766

> <r_mmod_Electrostatic_Energy-OPLS-2005>
-373.359924316406

> <r_mmod_Solvation_Energy-OPLS-2005>
-228.910049438477

> <b_mmod_Minimization_Converged-OPLS-2005>
0

> <r_mmod_RMS_Derivative-OPLS-2005>
1.88998234272003

$$$$
16
                    3D
 Structure written by MMmdl.
156164  0  0  1  0            999 V2000
  -30.5387  -14.8499   20.4526 C   0  0  0  0  0  0
  -30.4515  -12.5212   19.4882 C   0  0  0  0  0  0
  -29.5240  -12.5288   18.2494 C   0  0  0  0  0  0
  -28.0512  -12.3317   18.6601 C   0  0  0  0  0  0
  -27.6439  -13.2346   19.8541 C   0  0  2  0  0  0
  -28.6877  -13.1785   20.9919 C   0  0  0  0  0  0
  -25.2508  -13.8185   20.5669 C   0  0  0  0  0  0
  -24.1808  -13.0434   20.9207 C   0  0  0  0  0  0
  -24.6404  -11.6914   20.8748 C   0  0  0  0  0  0
  -23.9076  -10.4292   21.0406 C   0  0  0  0  0  0
  -24.3623   -9.4207   21.9185 C   0  0  0  0  0  0
  -23.6296   -8.2244   22.0754 C   0  0  0  0  0  0
  -22.4279   -8.0283   21.3545 C   0  0  0  0  0  0
  -21.9913   -9.0258   20.4649 C   0  0  0  0  0  0
  -22.7245  -10.2137   20.3059 C   0  0  0  0  0  0
  -21.6855   -6.0738   22.5278 C   0  0  0  0  0  0
  -21.4014   -6.5640   23.8213 C   0  0  0  0  0  0
  -21.3657   -5.6792   24.9172 C   0  0  0  0  0  0
  -21.6045   -4.3055   24.7223 C   0  0  0  0  0  0
  -21.8818   -3.8149   23.4341 C   0  0  0  0  0  0
  -21.9192   -4.6965   22.3401 C   0  0  0  0  0  0
  -22.7827  -13.5220   21.1863 C   0  0  0  0  0  0
  -22.1662   -4.2152   21.0977 F   0  0  0  0  0  0
  -21.5627   -3.4537   25.7734 F   0  0  0  0  0  0
  -29.9817  -13.5801   20.4188 N   0  0  0  0  0  0
  -26.2949  -12.9403   20.3278 N   0  0  0  0  0  0
  -25.9341  -11.6544   20.5753 N   0  0  0  0  0  0
  -22.0466  -12.8219   22.0424 N   0  0  0  0  0  0
  -25.4163  -15.1901   20.4021 N   0  0  0  0  0  0
  -31.7099  -14.9979   20.0853 O   0  0  0  0  0  0
  -21.6641   -6.8882   21.4243 O   0  0  0  0  0  0
  -22.3510  -14.5524   20.6707 O   0  0  0  0  0  0
  -24.6389  -31.8483   23.1919 C   0  0  0  0  0  0
  -25.9182  -32.4714   23.8291 C   0  0  1  0  0  0
  -27.2209  -27.1850   20.1408 C   0  0  0  0  0  0
  -25.5949  -33.8519   24.2207 N   0  0  0  0  0  0
  -23.4403  -30.4693   21.5362 C   0  0  2  0  0  0
  -24.8901  -28.9060   20.1080 C   0  0  0  0  0  0
  -22.7543  -29.4570   22.4867 C   0  0  0  0  0  0
  -18.0300  -28.1400   22.8478 C   0  0  0  0  0  0
  -24.1492  -36.7265   23.2639 C   0  0  0  0  0  0
  -25.9927  -30.7367   21.3849 C   0  0  0  0  0  0
  -26.0646  -29.3528   20.7264 C   0  0  0  0  0  0
  -27.2304  -28.5063   20.7302 C   0  0  0  0  0  0
  -26.0228  -26.8334   19.4773 C   0  0  0  0  0  0
  -24.8793  -27.6576   19.4700 C   0  0  0  0  0  0
  -23.6642  -29.8020   20.1536 C   0  0  0  0  0  0
  -25.4122  -36.3040   24.0312 C   0  0  1  0  0  0
  -20.5911  -28.3722   23.1244 C   0  0  2  0  0  0
  -20.6787  -26.9430   22.5404 C   0  0  0  0  0  0
  -19.5759  -26.6386   21.5213 C   0  0  0  0  0  0
  -18.1940  -26.7938   22.1625 C   0  0  0  0  0  0
  -19.1556  -28.8877   23.2856 C   0  0  0  0  0  0
  -18.9474  -30.1473   23.8881 C   0  0  0  0  0  0
  -17.6472  -30.6595   24.0564 C   0  0  0  0  0  0
  -25.9070  -34.9415   23.5065 C   0  0  0  0  0  0
  -16.5363  -29.9090   23.6335 C   0  0  0  0  0  0
  -16.7286  -28.6511   23.0352 C   0  0  0  0  0  0
  -26.4519  -31.6569   25.0716 C   0  0  0  0  0  0
  -25.3712  -31.3755   26.1414 C   0  0  0  0  0  0
  -27.0382  -30.2969   24.6272 C   0  0  0  0  0  0
  -27.6050  -32.4332   25.7504 C   0  0  0  0  0  0
  -27.5576  -37.1785   24.8461 C   0  0  0  0  0  0
  -21.4240  -29.3053   22.3616 N   0  0  0  0  0  0
  -26.4287  -37.3750   23.9405 N   0  0  0  0  0  0
  -24.7100  -31.0382   22.0931 N   0  0  0  0  0  0
  -23.4204  -28.8113   23.2999 O   0  0  0  0  0  0
  -28.2847  -26.2265   20.2254 O   0  0  0  0  0  0
  -26.5652  -34.8907   22.4640 O   0  0  0  0  0  0
  -23.5518  -32.1341   23.7163 O   0  0  0  0  0  0
  -28.4298  -19.5943   21.2187 C   0  0  0  0  0  0
  -30.3804  -18.2675   19.7500 C   0  0  0  0  0  0
  -29.1117  -20.4250   20.2800 C   0  0  0  0  0  0
  -28.6711  -18.1798   21.3965 C   0  0  0  0  0  0
  -30.1274  -19.6914   19.5665 C   0  0  0  0  0  0
  -29.6400  -17.4300   20.6468 C   0  0  0  0  0  0
  -27.8172  -17.4477   22.4185 C   0  0  0  0  0  0
  -30.9381  -20.4219   18.5126 C   0  0  0  0  0  0
  -28.5368  -21.9048   19.8729 C   0  0  0  0  0  0
  -28.9390  -23.4172   20.4158 C   0  0  0  0  0  0
  -28.0269  -24.7334   19.9594 C   0  0  0  0  0  0
  -29.6988  -15.9207   20.7932 N   0  0  0  0  0  0
  -31.4867  -12.6804   19.1824 H   0  0  0  0  0  0
  -30.4336  -11.5468   19.9786 H   0  0  0  0  0  0
  -29.8248  -11.7497   17.5478 H   0  0  0  0  0  0
  -29.6311  -13.4761   17.7183 H   0  0  0  0  0  0
  -27.9236  -11.2834   18.9324 H   0  0  0  0  0  0
  -27.3924  -12.5069   17.8086 H   0  0  0  0  0  0
  -27.6334  -14.2541   19.4681 H   0  0  0  0  0  0
  -28.7475  -12.1742   21.4138 H   0  0  0  0  0  0
  -28.3993  -13.8327   21.8160 H   0  0  0  0  0  0
  -25.2767   -9.5686   22.4760 H   0  0  0  0  0  0
  -24.0006   -7.4635   22.7473 H   0  0  0  0  0  0
  -21.0844   -8.8780   19.8956 H   0  0  0  0  0  0
  -22.3703  -10.9677   19.6169 H   0  0  0  0  0  0
  -21.2010   -7.6150   23.9718 H   0  0  0  0  0  0
  -21.1479   -6.0520   25.9077 H   0  0  0  0  0  0
  -22.0599   -2.7612   23.2839 H   0  0  0  0  0  0
  -22.4081  -11.9889   22.4829 H   0  0  0  0  0  0
  -21.1084  -13.1253   22.2619 H   0  0  0  0  0  0
  -24.6406  -15.8360   20.4992 H   0  0  0  0  0  0
  -26.2471  -15.6254   20.0230 H   0  0  0  0  0  0
  -26.7247  -32.5337   23.1025 H   0  0  0  0  0  0
  -25.0075  -33.9643   25.0339 H   0  0  0  0  0  0
  -22.7411  -31.2943   21.3854 H   0  0  0  0  0  0
  -23.3754  -35.9598   23.3289 H   0  0  0  0  0  0
  -24.3584  -36.8907   22.2057 H   0  0  0  0  0  0
  -23.7248  -37.6458   23.6685 H   0  0  0  0  0  0
  -26.1433  -31.4933   20.6137 H   0  0  0  0  0  0
  -26.8654  -30.7864   22.0242 H   0  0  0  0  0  0
  -28.1238  -28.8408   21.2385 H   0  0  0  0  0  0
  -25.9328  -25.8838   18.9720 H   0  0  0  0  0  0
  -23.9837  -27.3120   18.9723 H   0  0  0  0  0  0
  -23.7964  -30.5784   19.3991 H   0  0  0  0  0  0
  -22.7808  -29.2410   19.8437 H   0  0  0  0  0  0
  -25.1308  -36.1873   25.0803 H   0  0  0  0  0  0
  -21.0010  -28.3314   24.1364 H   0  0  0  0  0  0
  -20.5690  -26.2335   23.3619 H   0  0  0  0  0  0
  -21.6652  -26.7441   22.1198 H   0  0  0  0  0  0
  -19.6921  -25.6292   21.1255 H   0  0  0  0  0  0
  -19.6696  -27.3184   20.6734 H   0  0  0  0  0  0
  -17.4207  -26.6678   21.4030 H   0  0  0  0  0  0
  -18.0344  -26.0090   22.9032 H   0  0  0  0  0  0
  -19.7950  -30.7293   24.2243 H   0  0  0  0  0  0
  -17.5026  -31.6274   24.5168 H   0  0  0  0  0  0
  -15.5364  -30.2988   23.7668 H   0  0  0  0  0  0
  -15.8686  -28.0827   22.7072 H   0  0  0  0  0  0
  -24.5891  -30.7106   25.7734 H   0  0  0  0  0  0
  -24.8902  -32.2940   26.4788 H   0  0  0  0  0  0
  -25.7995  -30.8959   27.0223 H   0  0  0  0  0  0
  -26.2994  -29.6697   24.1269 H   0  0  0  0  0  0
  -27.3997  -29.7261   25.4835 H   0  0  0  0  0  0
  -27.8900  -30.4211   23.9582 H   0  0  0  0  0  0
  -27.2636  -33.3641   26.2044 H   0  0  0  0  0  0
  -28.3884  -32.6876   25.0353 H   0  0  0  0  0  0
  -28.0694  -31.8484   26.5454 H   0  0  0  0  0  0
  -28.2575  -38.0097   24.7512 H   0  0  0  0  0  0
  -28.1085  -36.2622   24.6279 H   0  0  0  0  0  0
  -27.2294  -37.1423   25.8864 H   0  0  0  0  0  0
  -20.9441  -29.8773   21.6808 H   0  0  0  0  0  0
  -26.0152  -38.2814   24.1419 H   0  0  0  0  0  0
  -27.6289  -20.0481   21.7862 H   0  0  0  0  0  0
  -31.1343  -17.7960   19.1348 H   0  0  0  0  0  0
  -27.1518  -18.1272   22.9513 H   0  0  0  0  0  0
  -28.4482  -16.9561   23.1597 H   0  0  0  0  0  0
  -27.1986  -16.6918   21.9367 H   0  0  0  0  0  0
  -31.8415  -19.8702   18.2507 H   0  0  0  0  0  0
  -31.2441  -21.4044   18.8731 H   0  0  0  0  0  0
  -30.3486  -20.5579   17.6054 H   0  0  0  0  0  0
  -27.4628  -21.8230   20.0425 H   0  0  0  0  0  0
  -28.6131  -21.9509   18.7866 H   0  0  0  0  0  0
  -29.9739  -23.6067   20.1319 H   0  0  0  0  0  0
  -28.9405  -23.3868   21.5054 H   0  0  0  0  0  0
  -27.0378  -24.5203   20.3656 H   0  0  0  0  0  0
  -27.9143  -24.6557   18.8772 H   0  0  0  0  0  0
  -28.8507  -15.5545   21.1961 H   0  0  0  0  0  0
  1 25  1  0  0  0
  1 30  2  0  0  0
  1 82  1  0  0  0
  2  3  1  0  0  0
  2 25  1  0  0  0
  2 83  1  0  0  0
  2 84  1  0  0  0
  3  4  1  0  0  0
  3 85  1  0  0  0
  3 86  1  0  0  0
  4  5  1  0  0  0
  4 87  1  0  0  0
  4 88  1  0  0  0
  5  6  1  0  0  0
  5 26  1  0  0  0
  5 89  1  0  0  0
  6 25  1  0  0  0
  6 90  1  0  0  0
  6 91  1  0  0  0
  7  8  2  0  0  0
  7 26  1  0  0  0
  7 29  1  0  0  0
  8  9  1  0  0  0
  8 22  1  0  0  0
  9 10  1  0  0  0
  9 27  2  0  0  0
 10 11  2  0  0  0
 10 15  1  0  0  0
 11 12  1  0  0  0
 11 92  1  0  0  0
 12 13  2  0  0  0
 12 93  1  0  0  0
 13 14  1  0  0  0
 13 31  1  0  0  0
 14 15  2  0  0  0
 14 94  1  0  0  0
 15 95  1  0  0  0
 16 17  2  0  0  0
 16 21  1  0  0  0
 16 31  1  0  0  0
 17 18  1  0  0  0
 17 96  1  0  0  0
 18 19  2  0  0  0
 18 97  1  0  0  0
 19 20  1  0  0  0
 19 24  1  0  0  0
 20 21  2  0  0  0
 20 98  1  0  0  0
 21 23  1  0  0  0
 22 28  1  0  0  0
 22 32  2  0  0  0
 26 27  1  0  0  0
 28 99  1  0  0  0
 28100  1  0  0  0
 29101  1  0  0  0
 29102  1  0  0  0
 33 34  1  0  0  0
 33 66  1  0  0  0
 33 70  2  0  0  0
 34 36  1  0  0  0
 34 59  1  0  0  0
 34103  1  0  0  0
 35 44  2  0  0  0
 35 45  1  0  0  0
 35 68  1  0  0  0
 36 56  1  0  0  0
 36104  1  0  0  0
 37 39  1  0  0  0
 37 47  1  0  0  0
 37 66  1  0  0  0
 37105  1  0  0  0
 38 43  2  0  0  0
 38 46  1  0  0  0
 38 47  1  0  0  0
 39 64  1  0  0  0
 39 67  2  0  0  0
 40 52  1  0  0  0
 40 53  2  0  0  0
 40 58  1  0  0  0
 41106  1  0  0  0
 41107  1  0  0  0
 41108  1  0  0  0
 41 48  1  0  0  0
 42 43  1  0  0  0
 42 66  1  0  0  0
 42109  1  0  0  0
 42110  1  0  0  0
 43 44  1  0  0  0
 44111  1  0  0  0
 45 46  2  0  0  0
 45112  1  0  0  0
 46113  1  0  0  0
 47114  1  0  0  0
 47115  1  0  0  0
 48 56  1  0  0  0
 48 65  1  0  0  0
 48116  1  0  0  0
 49 50  1  0  0  0
 49 53  1  0  0  0
 49 64  1  0  0  0
 49117  1  0  0  0
 50 51  1  0  0  0
 50118  1  0  0  0
 50119  1  0  0  0
 51 52  1  0  0  0
 51120  1  0  0  0
 51121  1  0  0  0
 52122  1  0  0  0
 52123  1  0  0  0
 53 54  1  0  0  0
 54 55  2  0  0  0
 54124  1  0  0  0
 55 57  1  0  0  0
 55125  1  0  0  0
 56 69  2  0  0  0
 57 58  2  0  0  0
 57126  1  0  0  0
 58127  1  0  0  0
 59 60  1  0  0  0
 59 61  1  0  0  0
 59 62  1  0  0  0
 60128  1  0  0  0
 60129  1  0  0  0
 60130  1  0  0  0
 61131  1  0  0  0
 61132  1  0  0  0
 61133  1  0  0  0
 62134  1  0  0  0
 62135  1  0  0  0
 62136  1  0  0  0
 63 65  1  0  0  0
 63137  1  0  0  0
 63138  1  0  0  0
 63139  1  0  0  0
 64140  1  0  0  0
 65141  1  0  0  0
 68 81  1  0  0  0
 71 73  2  0  0  0
 71 74  1  0  0  0
 71142  1  0  0  0
 72 75  2  0  0  0
 72 76  1  0  0  0
 72143  1  0  0  0
 73 75  1  0  0  0
 73 79  1  0  0  0
 74 76  2  0  0  0
 74 77  1  0  0  0
 75 78  1  0  0  0
 76 82  1  0  0  0
 77144  1  0  0  0
 77145  1  0  0  0
 77146  1  0  0  0
 78147  1  0  0  0
 78148  1  0  0  0
 78149  1  0  0  0
 79 80  1  0  0  0
 79150  1  0  0  0
 79151  1  0  0  0
 80 81  1  0  0  0
 80152  1  0  0  0
 80153  1  0  0  0
 81154  1  0  0  0
 81155  1  0  0  0
 82156  1  0  0  0
M  ISO  4   1 100  68 101  81 101  82 100
M  END
> <chiral flag>
0

> <version>
0

> <s_m_source_file>
/data/baiqing/PycharmProjects/Reinvent-master-3.2/result/LINK_invent/BTK/process_docking_weight1_custom_product_contain_oxygen_bond_distance_aromatic_linkinvent_7_9_3/rearranged_h_0124.sdf

> <i_m_source_file_index>
17

> <r_mmod_Potential_Energy-OPLS-2005>
323.449066162109

> <r_mmod_Stretch_Energy-OPLS-2005>
186.491333007812

> <r_mmod_Bend_Energy-OPLS-2005>
236.246704101562

> <r_mmod_Torsional_Energy-OPLS-2005>
220.607131958008

> <r_mmod_Improper_Torsional_Energy-OPLS-2005>
5.82401037216187

> <r_mmod_Van_der_Waal_Energy-OPLS-2005>
133.084808349609

> <r_mmod_Electrostatic_Energy-OPLS-2005>
-395.073272705078

> <r_mmod_Solvation_Energy-OPLS-2005>
-204.280395507812

> <b_mmod_Minimization_Converged-OPLS-2005>
0

> <r_mmod_RMS_Derivative-OPLS-2005>
0.552541315555573

$$$$
17
                    3D
 Structure written by MMmdl.
154162  0  0  1  0            999 V2000
  -30.6717  -14.5198   20.5092 C   0  0  0  0  0  0
  -30.4248  -12.3206   19.4375 C   0  0  0  0  0  0
  -29.5003  -12.5091   18.2143 C   0  0  0  0  0  0
  -28.0191  -12.3763   18.6179 C   0  0  0  0  0  0
  -27.6605  -13.2157   19.8734 C   0  0  2  0  0  0
  -28.7032  -13.0170   20.9983 C   0  0  0  0  0  0
  -25.2590  -13.8188   20.5680 C   0  0  0  0  0  0
  -24.1848  -13.0457   20.9174 C   0  0  0  0  0  0
  -24.6410  -11.6927   20.8731 C   0  0  0  0  0  0
  -23.9079  -10.4311   21.0397 C   0  0  0  0  0  0
  -24.3628   -9.4228   21.9172 C   0  0  0  0  0  0
  -23.6308   -8.2260   22.0740 C   0  0  0  0  0  0
  -22.4285   -8.0289   21.3537 C   0  0  0  0  0  0
  -21.9927   -9.0264   20.4639 C   0  0  0  0  0  0
  -22.7254  -10.2145   20.3051 C   0  0  0  0  0  0
  -21.6864   -6.0743   22.5277 C   0  0  0  0  0  0
  -21.4022   -6.5644   23.8213 C   0  0  0  0  0  0
  -21.3667   -5.6790   24.9174 C   0  0  0  0  0  0
  -21.6052   -4.3053   24.7221 C   0  0  0  0  0  0
  -21.8821   -3.8145   23.4341 C   0  0  0  0  0  0
  -21.9197   -4.6969   22.3400 C   0  0  0  0  0  0
  -22.7868  -13.5247   21.1827 C   0  0  0  0  0  0
  -22.1657   -4.2151   21.0981 F   0  0  0  0  0  0
  -21.5634   -3.4537   25.7736 F   0  0  0  0  0  0
  -30.0332  -13.3180   20.4470 N   0  0  0  0  0  0
  -26.3026  -12.9368   20.3358 N   0  0  0  0  0  0
  -25.9344  -11.6525   20.5769 N   0  0  0  0  0  0
  -22.0498  -12.8259   22.0395 N   0  0  0  0  0  0
  -25.4333  -15.1905   20.4091 N   0  0  0  0  0  0
  -31.8181  -14.6858   20.0835 O   0  0  0  0  0  0
  -21.6651   -6.8880   21.4235 O   0  0  0  0  0  0
  -22.3561  -14.5541   20.6650 O   0  0  0  0  0  0
  -24.6157  -31.8648   23.2073 C   0  0  0  0  0  0
  -25.9037  -32.4798   23.8375 C   0  0  1  0  0  0
  -27.2313  -27.4034   20.0962 C   0  0  0  0  0  0
  -25.5877  -33.8599   24.2303 N   0  0  0  0  0  0
  -23.4048  -30.4887   21.5476 C   0  0  2  0  0  0
  -24.8500  -28.9500   20.1104 C   0  0  0  0  0  0
  -22.7416  -29.4643   22.4969 C   0  0  0  0  0  0
  -18.0267  -28.1371   22.8496 C   0  0  0  0  0  0
  -24.1480  -36.7322   23.2643 C   0  0  0  0  0  0
  -25.9359  -30.8187   21.3667 C   0  0  0  0  0  0
  -26.0096  -29.4518   20.7124 C   0  0  0  0  0  0
  -27.1988  -28.6837   20.7043 C   0  0  0  0  0  0
  -26.0519  -26.9259   19.4797 C   0  0  0  0  0  0
  -24.8672  -27.6876   19.4921 C   0  0  0  0  0  0
  -23.6134  -29.8205   20.1615 C   0  0  0  0  0  0
  -25.4100  -36.3105   24.0339 C   0  0  1  0  0  0
  -20.5859  -28.3653   23.1312 C   0  0  2  0  0  0
  -20.6743  -26.9385   22.5413 C   0  0  0  0  0  0
  -19.5726  -26.6371   21.5208 C   0  0  0  0  0  0
  -18.1912  -26.7915   22.1630 C   0  0  0  0  0  0
  -19.1517  -28.8829   23.2904 C   0  0  0  0  0  0
  -18.9452  -30.1439   23.8914 C   0  0  0  0  0  0
  -17.6455  -30.6584   24.0559 C   0  0  0  0  0  0
  -25.9029  -34.9468   23.5126 C   0  0  0  0  0  0
  -16.5346  -29.9091   23.6318 C   0  0  0  0  0  0
  -16.7255  -28.6501   23.0349 C   0  0  0  0  0  0
  -26.4456  -31.6594   25.0724 C   0  0  0  0  0  0
  -25.3728  -31.3701   26.1481 C   0  0  0  0  0  0
  -27.0278  -30.3026   24.6125 C   0  0  0  0  0  0
  -27.6022  -32.4325   25.7492 C   0  0  0  0  0  0
  -27.5578  -37.1812   24.8462 C   0  0  0  0  0  0
  -21.4136  -29.3023   22.3718 N   0  0  0  0  0  0
  -26.4286  -37.3793   23.9414 N   0  0  0  0  0  0
  -24.6703  -31.0730   22.0984 N   0  0  0  0  0  0
  -23.4185  -28.8196   23.3024 O   0  0  0  0  0  0
  -28.4065  -26.6698   20.1474 O   0  0  0  0  0  0
  -26.5609  -34.8927   22.4701 O   0  0  0  0  0  0
  -23.5346  -32.1413   23.7462 O   0  0  0  0  0  0
  -29.4952  -18.0304   20.9840 C   0  0  0  0  0  0
  -29.5074  -19.3619   18.9457 C   0  0  0  0  0  0
  -30.0478  -16.9815   18.8589 C   0  0  0  0  0  0
  -29.3357  -19.3001   20.3456 C   0  0  0  0  0  0
  -29.8508  -16.8608   20.2560 C   0  0  0  0  0  0
  -29.8712  -18.2195   18.2125 C   0  0  0  0  0  0
  -28.2957  -21.7206   20.4780 C   0  0  0  0  0  0
  -28.4866  -23.0214   20.8185 C   0  0  0  0  0  0
  -28.9816  -20.5472   21.1064 C   0  0  0  0  0  0
  -27.6881  -24.2189   20.2775 C   0  0  0  0  0  0
  -28.5005  -25.3465   19.5728 C   0  0  0  0  0  0
  -29.2511  -20.6283   22.3406 N   0  0  0  0  0  0
  -29.9193  -15.5740   20.9056 N   0  0  0  0  0  0
  -30.0484  -18.3129   16.8727 F   0  0  0  0  0  0
  -31.4697  -12.4209   19.1380 H   0  0  0  0  0  0
  -30.3251  -11.3133   19.8443 H   0  0  0  0  0  0
  -29.7436  -11.7794   17.4415 H   0  0  0  0  0  0
  -29.6733  -13.4919   17.7706 H   0  0  0  0  0  0
  -27.8200  -11.3213   18.8071 H   0  0  0  0  0  0
  -27.3773  -12.6614   17.7825 H   0  0  0  0  0  0
  -27.6953  -14.2618   19.5681 H   0  0  0  0  0  0
  -28.6809  -11.9876   21.3599 H   0  0  0  0  0  0
  -28.4704  -13.6416   21.8623 H   0  0  0  0  0  0
  -25.2766   -9.5713   22.4756 H   0  0  0  0  0  0
  -24.0020   -7.4658   22.7474 H   0  0  0  0  0  0
  -21.0852   -8.8795   19.8950 H   0  0  0  0  0  0
  -22.3705  -10.9688   19.6170 H   0  0  0  0  0  0
  -21.2008   -7.6152   23.9719 H   0  0  0  0  0  0
  -21.1487   -6.0519   25.9080 H   0  0  0  0  0  0
  -22.0587   -2.7606   23.2845 H   0  0  0  0  0  0
  -22.4097  -11.9939   22.4835 H   0  0  0  0  0  0
  -21.1098  -13.1284   22.2537 H   0  0  0  0  0  0
  -24.6731  -15.8519   20.5230 H   0  0  0  0  0  0
  -26.2933  -15.6237   20.0968 H   0  0  0  0  0  0
  -26.7105  -32.5491   23.1132 H   0  0  0  0  0  0
  -24.9967  -33.9742   25.0406 H   0  0  0  0  0  0
  -22.6941  -31.3064   21.4074 H   0  0  0  0  0  0
  -23.3735  -35.9662   23.3302 H   0  0  0  0  0  0
  -24.3575  -36.8945   22.2059 H   0  0  0  0  0  0
  -23.7237  -37.6528   23.6658 H   0  0  0  0  0  0
  -26.0562  -31.5843   20.5988 H   0  0  0  0  0  0
  -26.8217  -30.8673   21.9893 H   0  0  0  0  0  0
  -28.0920  -29.0655   21.1781 H   0  0  0  0  0  0
  -26.0237  -25.9631   18.9932 H   0  0  0  0  0  0
  -23.9749  -27.2971   19.0217 H   0  0  0  0  0  0
  -23.7237  -30.5956   19.4019 H   0  0  0  0  0  0
  -22.7360  -29.2439   19.8656 H   0  0  0  0  0  0
  -25.1276  -36.1968   25.0831 H   0  0  0  0  0  0
  -20.9949  -28.3205   24.1435 H   0  0  0  0  0  0
  -20.5623  -26.2263   23.3602 H   0  0  0  0  0  0
  -21.6616  -26.7410   22.1219 H   0  0  0  0  0  0
  -19.6877  -25.6288   21.1230 H   0  0  0  0  0  0
  -19.6659  -27.3187   20.6746 H   0  0  0  0  0  0
  -17.4169  -26.6663   21.4039 H   0  0  0  0  0  0
  -18.0319  -26.0055   22.9030 H   0  0  0  0  0  0
  -19.7932  -30.7241   24.2293 H   0  0  0  0  0  0
  -17.5017  -31.6266   24.5156 H   0  0  0  0  0  0
  -15.5347  -30.3007   23.7622 H   0  0  0  0  0  0
  -15.8656  -28.0826   22.7061 H   0  0  0  0  0  0
  -24.5897  -30.7042   25.7840 H   0  0  0  0  0  0
  -24.8920  -32.2849   26.4955 H   0  0  0  0  0  0
  -25.8097  -30.8866   27.0228 H   0  0  0  0  0  0
  -26.2820  -29.6805   24.1158 H   0  0  0  0  0  0
  -27.3999  -29.7250   25.4598 H   0  0  0  0  0  0
  -27.8682  -30.4327   23.9303 H   0  0  0  0  0  0
  -27.2618  -33.3607   26.2095 H   0  0  0  0  0  0
  -28.3815  -32.6919   25.0314 H   0  0  0  0  0  0
  -28.0705  -31.8438   26.5391 H   0  0  0  0  0  0
  -28.2595  -38.0112   24.7512 H   0  0  0  0  0  0
  -28.1073  -36.2643   24.6272 H   0  0  0  0  0  0
  -27.2299  -37.1448   25.8866 H   0  0  0  0  0  0
  -20.9294  -29.8765   21.6960 H   0  0  0  0  0  0
  -26.0174  -38.2871   24.1419 H   0  0  0  0  0  0
  -29.3311  -17.9499   22.0487 H   0  0  0  0  0  0
  -29.3876  -20.2976   18.4184 H   0  0  0  0  0  0
  -30.3118  -16.1261   18.2548 H   0  0  0  0  0  0
  -27.5789  -21.4602   19.7126 H   0  0  0  0  0  0
  -29.2289  -23.2620   21.5669 H   0  0  0  0  0  0
  -27.1351  -24.6414   21.1171 H   0  0  0  0  0  0
  -26.9314  -23.8441   19.5870 H   0  0  0  0  0  0
  -28.2432  -25.3946   18.5142 H   0  0  0  0  0  0
  -29.5577  -25.0786   19.5901 H   0  0  0  0  0  0
  -29.7188  -19.7912   22.6690 H   0  0  0  0  0  0
  -29.1293  -15.3423   21.4896 H   0  0  0  0  0  0
  1 25  1  0  0  0
  1 30  2  0  0  0
  1 83  1  0  0  0
  2  3  1  0  0  0
  2 25  1  0  0  0
  2 85  1  0  0  0
  2 86  1  0  0  0
  3  4  1  0  0  0
  3 87  1  0  0  0
  3 88  1  0  0  0
  4  5  1  0  0  0
  4 89  1  0  0  0
  4 90  1  0  0  0
  5  6  1  0  0  0
  5 26  1  0  0  0
  5 91  1  0  0  0
  6 25  1  0  0  0
  6 92  1  0  0  0
  6 93  1  0  0  0
  7  8  2  0  0  0
  7 26  1  0  0  0
  7 29  1  0  0  0
  8  9  1  0  0  0
  8 22  1  0  0  0
  9 10  1  0  0  0
  9 27  2  0  0  0
 10 11  2  0  0  0
 10 15  1  0  0  0
 11 12  1  0  0  0
 11 94  1  0  0  0
 12 13  2  0  0  0
 12 95  1  0  0  0
 13 14  1  0  0  0
 13 31  1  0  0  0
 14 15  2  0  0  0
 14 96  1  0  0  0
 15 97  1  0  0  0
 16 17  2  0  0  0
 16 21  1  0  0  0
 16 31  1  0  0  0
 17 18  1  0  0  0
 17 98  1  0  0  0
 18 19  2  0  0  0
 18 99  1  0  0  0
 19 20  1  0  0  0
 19 24  1  0  0  0
 20 21  2  0  0  0
 20100  1  0  0  0
 21 23  1  0  0  0
 22 28  1  0  0  0
 22 32  2  0  0  0
 26 27  1  0  0  0
 28101  1  0  0  0
 28102  1  0  0  0
 29103  1  0  0  0
 29104  1  0  0  0
 33 34  1  0  0  0
 33 66  1  0  0  0
 33 70  2  0  0  0
 34 36  1  0  0  0
 34 59  1  0  0  0
 34105  1  0  0  0
 35 44  2  0  0  0
 35 45  1  0  0  0
 35 68  1  0  0  0
 36 56  1  0  0  0
 36106  1  0  0  0
 37 39  1  0  0  0
 37 47  1  0  0  0
 37 66  1  0  0  0
 37107  1  0  0  0
 38 43  2  0  0  0
 38 46  1  0  0  0
 38 47  1  0  0  0
 39 64  1  0  0  0
 39 67  2  0  0  0
 40 52  1  0  0  0
 40 53  2  0  0  0
 40 58  1  0  0  0
 41108  1  0  0  0
 41109  1  0  0  0
 41110  1  0  0  0
 41 48  1  0  0  0
 42 43  1  0  0  0
 42 66  1  0  0  0
 42111  1  0  0  0
 42112  1  0  0  0
 43 44  1  0  0  0
 44113  1  0  0  0
 45 46  2  0  0  0
 45114  1  0  0  0
 46115  1  0  0  0
 47116  1  0  0  0
 47117  1  0  0  0
 48 56  1  0  0  0
 48 65  1  0  0  0
 48118  1  0  0  0
 49 50  1  0  0  0
 49 53  1  0  0  0
 49 64  1  0  0  0
 49119  1  0  0  0
 50 51  1  0  0  0
 50120  1  0  0  0
 50121  1  0  0  0
 51 52  1  0  0  0
 51122  1  0  0  0
 51123  1  0  0  0
 52124  1  0  0  0
 52125  1  0  0  0
 53 54  1  0  0  0
 54 55  2  0  0  0
 54126  1  0  0  0
 55 57  1  0  0  0
 55127  1  0  0  0
 56 69  2  0  0  0
 57 58  2  0  0  0
 57128  1  0  0  0
 58129  1  0  0  0
 59 60  1  0  0  0
 59 61  1  0  0  0
 59 62  1  0  0  0
 60130  1  0  0  0
 60131  1  0  0  0
 60132  1  0  0  0
 61133  1  0  0  0
 61134  1  0  0  0
 61135  1  0  0  0
 62136  1  0  0  0
 62137  1  0  0  0
 62138  1  0  0  0
 63 65  1  0  0  0
 63139  1  0  0  0
 63140  1  0  0  0
 63141  1  0  0  0
 64142  1  0  0  0
 65143  1  0  0  0
 68 81  1  0  0  0
 71 74  2  0  0  0
 71 75  1  0  0  0
 71144  1  0  0  0
 72 74  1  0  0  0
 72 76  2  0  0  0
 72145  1  0  0  0
 73 75  2  0  0  0
 73 76  1  0  0  0
 73146  1  0  0  0
 74 79  1  0  0  0
 75 83  1  0  0  0
 76 84  1  0  0  0
 77 78  2  0  0  0
 77 79  1  0  0  0
 77147  1  0  0  0
 78 80  1  0  0  0
 78148  1  0  0  0
 79 82  2  0  0  0
 80 81  1  0  0  0
 80149  1  0  0  0
 80150  1  0  0  0
 81151  1  0  0  0
 81152  1  0  0  0
 82153  1  0  0  0
 83154  1  0  0  0
M  ISO  4   1 100  68 101  81 101  83 100
M  END
> <chiral flag>
0

> <version>
0

> <s_m_source_file>
/data/baiqing/PycharmProjects/Reinvent-master-3.2/result/LINK_invent/BTK/process_docking_weight1_custom_product_contain_oxygen_bond_distance_aromatic_linkinvent_7_9_3/rearranged_h_0124.sdf

> <i_m_source_file_index>
18

> <r_mmod_Potential_Energy-OPLS-2005>
-19.9778919219971

> <r_mmod_Stretch_Energy-OPLS-2005>
45.6179161071777

> <r_mmod_Bend_Energy-OPLS-2005>
107.919372558594

> <r_mmod_Torsional_Energy-OPLS-2005>
252.736633300781

> <r_mmod_Improper_Torsional_Energy-OPLS-2005>
5.72484540939331

> <r_mmod_Van_der_Waal_Energy-OPLS-2005>
153.443786621094

> <r_mmod_Electrostatic_Energy-OPLS-2005>
-384.664245605469

> <r_mmod_Solvation_Energy-OPLS-2005>
-220.362762451172

> <b_mmod_Minimization_Converged-OPLS-2005>
0

> <r_mmod_RMS_Derivative-OPLS-2005>
1.79185390472412

$$$$
18
                    3D
 Structure written by MMmdl.
159167  0  0  1  0            999 V2000
  -30.6632  -14.4850   20.5450 C   0  0  0  0  0  0
  -30.4392  -12.2992   19.4218 C   0  0  0  0  0  0
  -29.5019  -12.4586   18.2044 C   0  0  0  0  0  0
  -28.0158  -12.3567   18.6145 C   0  0  0  0  0  0
  -27.6648  -13.1930   19.8760 C   0  0  2  0  0  0
  -28.7087  -12.9579   20.9913 C   0  0  0  0  0  0
  -25.2621  -13.8143   20.5672 C   0  0  0  0  0  0
  -24.1849  -13.0439   20.9167 C   0  0  0  0  0  0
  -24.6389  -11.6900   20.8733 C   0  0  0  0  0  0
  -23.9059  -10.4285   21.0397 C   0  0  0  0  0  0
  -24.3612   -9.4195   21.9175 C   0  0  0  0  0  0
  -23.6290   -8.2233   22.0748 C   0  0  0  0  0  0
  -22.4274   -8.0274   21.3541 C   0  0  0  0  0  0
  -21.9908   -9.0243   20.4645 C   0  0  0  0  0  0
  -22.7231  -10.2124   20.3051 C   0  0  0  0  0  0
  -21.6839   -6.0737   22.5278 C   0  0  0  0  0  0
  -21.4000   -6.5638   23.8215 C   0  0  0  0  0  0
  -21.3659   -5.6792   24.9175 C   0  0  0  0  0  0
  -21.6049   -4.3060   24.7228 C   0  0  0  0  0  0
  -21.8817   -3.8150   23.4350 C   0  0  0  0  0  0
  -21.9186   -4.6961   22.3406 C   0  0  0  0  0  0
  -22.7871  -13.5251   21.1832 C   0  0  0  0  0  0
  -22.1653   -4.2162   21.0981 F   0  0  0  0  0  0
  -21.5630   -3.4537   25.7738 F   0  0  0  0  0  0
  -30.0395  -13.2789   20.4433 N   0  0  0  0  0  0
  -26.3039  -12.9275   20.3381 N   0  0  0  0  0  0
  -25.9311  -11.6456   20.5784 N   0  0  0  0  0  0
  -22.0509  -12.8255   22.0398 N   0  0  0  0  0  0
  -25.4377  -15.1864   20.4087 N   0  0  0  0  0  0
  -31.7913  -14.7061   20.0950 O   0  0  0  0  0  0
  -21.6627   -6.8878   21.4246 O   0  0  0  0  0  0
  -22.3561  -14.5557   20.6671 O   0  0  0  0  0  0
  -24.6120  -31.8694   23.2113 C   0  0  0  0  0  0
  -25.9029  -32.4826   23.8399 C   0  0  1  0  0  0
  -27.2380  -27.4585   20.1030 C   0  0  0  0  0  0
  -25.5900  -33.8621   24.2336 N   0  0  0  0  0  0
  -23.3995  -30.4918   21.5494 C   0  0  2  0  0  0
  -24.8514  -28.9602   20.1136 C   0  0  0  0  0  0
  -22.7394  -29.4654   22.4977 C   0  0  0  0  0  0
  -18.0272  -28.1364   22.8480 C   0  0  0  0  0  0
  -24.1486  -36.7304   23.2634 C   0  0  0  0  0  0
  -25.9254  -30.8434   21.3632 C   0  0  0  0  0  0
  -26.0074  -29.4789   20.7126 C   0  0  0  0  0  0
  -27.2058  -28.7319   20.7109 C   0  0  0  0  0  0
  -26.0738  -26.9494   19.4949 C   0  0  0  0  0  0
  -24.8781  -27.6935   19.5013 C   0  0  0  0  0  0
  -23.6090  -29.8218   20.1640 C   0  0  0  0  0  0
  -25.4109  -36.3113   24.0337 C   0  0  1  0  0  0
  -20.5858  -28.3644   23.1311 C   0  0  2  0  0  0
  -20.6766  -26.9380   22.5412 C   0  0  0  0  0  0
  -19.5755  -26.6371   21.5203 C   0  0  0  0  0  0
  -18.1933  -26.7921   22.1604 C   0  0  0  0  0  0
  -19.1518  -28.8820   23.2899 C   0  0  0  0  0  0
  -18.9451  -30.1427   23.8914 C   0  0  0  0  0  0
  -17.6451  -30.6574   24.0561 C   0  0  0  0  0  0
  -25.9028  -34.9472   23.5131 C   0  0  0  0  0  0
  -16.5339  -29.9076   23.6326 C   0  0  0  0  0  0
  -16.7258  -28.6490   23.0345 C   0  0  0  0  0  0
  -26.4471  -31.6590   25.0703 C   0  0  0  0  0  0
  -25.3746  -31.3690   26.1447 C   0  0  0  0  0  0
  -27.0306  -30.3040   24.6065 C   0  0  0  0  0  0
  -27.6049  -32.4298   25.7483 C   0  0  0  0  0  0
  -27.5584  -37.1807   24.8465 C   0  0  0  0  0  0
  -21.4119  -29.3018   22.3717 N   0  0  0  0  0  0
  -26.4302  -37.3787   23.9398 N   0  0  0  0  0  0
  -24.6632  -31.0813   22.1010 N   0  0  0  0  0  0
  -23.4174  -28.8198   23.3019 O   0  0  0  0  0  0
  -28.3753  -26.6900   20.1082 O   0  0  0  0  0  0
  -26.5577  -34.8924   22.4683 O   0  0  0  0  0  0
  -23.5319  -32.1426   23.7532 O   0  0  0  0  0  0
  -29.7990  -19.1640   21.5288 C   0  0  0  0  0  0
  -30.0396  -17.7862   21.7304 C   0  0  0  0  0  0
  -29.1212  -18.6980   19.2545 C   0  0  0  0  0  0
  -29.3023  -19.6318   20.2935 C   0  0  0  0  0  0
  -29.3806  -17.3183   19.4258 C   0  0  0  0  0  0
  -29.8278  -16.8445   20.6965 C   0  0  0  0  0  0
  -28.9565  -21.0466   20.0294 C   0  0  0  0  0  0
  -29.2525  -22.1260   20.7850 C   0  0  0  0  0  0
  -28.8031  -23.4867   20.4038 C   0  0  0  0  0  0
  -29.6239  -16.8948   16.8903 C   0  0  0  0  0  0
  -29.0814  -16.3990   18.2423 C   0  0  0  0  0  0
  -29.4217  -24.6817   21.1466 C   0  0  0  0  0  0
  -28.5096  -25.9195   21.3074 C   0  0  0  0  0  0
  -29.8808  -15.4599   21.0484 N   0  0  0  0  0  0
  -27.9724  -23.6894   19.5122 O   0  0  0  0  0  0
  -31.4786  -12.4261   19.1157 H   0  0  0  0  0  0
  -30.3687  -11.2888   19.8243 H   0  0  0  0  0  0
  -29.7290  -11.6897   17.4645 H   0  0  0  0  0  0
  -29.6939  -13.4034   17.7000 H   0  0  0  0  0  0
  -27.8060  -11.3041   18.8045 H   0  0  0  0  0  0
  -27.3754  -12.6460   17.7804 H   0  0  0  0  0  0
  -27.7105  -14.2417   19.5880 H   0  0  0  0  0  0
  -28.6880  -11.9155   21.3117 H   0  0  0  0  0  0
  -28.4696  -13.5356   21.8857 H   0  0  0  0  0  0
  -25.2753   -9.5666   22.4762 H   0  0  0  0  0  0
  -23.9987   -7.4618   22.7460 H   0  0  0  0  0  0
  -21.0837   -8.8750   19.8959 H   0  0  0  0  0  0
  -22.3678  -10.9657   19.6162 H   0  0  0  0  0  0
  -21.1989   -7.6145   23.9730 H   0  0  0  0  0  0
  -21.1482   -6.0515   25.9078 H   0  0  0  0  0  0
  -22.0608   -2.7619   23.2840 H   0  0  0  0  0  0
  -22.4088  -11.9900   22.4785 H   0  0  0  0  0  0
  -21.1121  -13.1272   22.2577 H   0  0  0  0  0  0
  -24.6760  -15.8451   20.5248 H   0  0  0  0  0  0
  -26.2984  -15.6309   20.1164 H   0  0  0  0  0  0
  -26.7098  -32.5553   23.1161 H   0  0  0  0  0  0
  -25.0121  -33.9797   25.0531 H   0  0  0  0  0  0
  -22.6877  -31.3071   21.4083 H   0  0  0  0  0  0
  -23.3754  -35.9636   23.3321 H   0  0  0  0  0  0
  -24.3587  -36.8886   22.2049 H   0  0  0  0  0  0
  -23.7235  -37.6514   23.6626 H   0  0  0  0  0  0
  -26.0352  -31.6126   20.5973 H   0  0  0  0  0  0
  -26.8134  -30.8979   21.9802 H   0  0  0  0  0  0
  -28.0977  -29.1248   21.1789 H   0  0  0  0  0  0
  -26.0954  -25.9732   19.0304 H   0  0  0  0  0  0
  -23.9906  -27.2869   19.0367 H   0  0  0  0  0  0
  -23.7083  -30.5952   19.4014 H   0  0  0  0  0  0
  -22.7370  -29.2337   19.8722 H   0  0  0  0  0  0
  -25.1300  -36.1986   25.0840 H   0  0  0  0  0  0
  -20.9956  -28.3207   24.1424 H   0  0  0  0  0  0
  -20.5661  -26.2253   23.3592 H   0  0  0  0  0  0
  -21.6643  -26.7426   22.1199 H   0  0  0  0  0  0
  -19.6926  -25.6281   21.1236 H   0  0  0  0  0  0
  -19.6726  -27.3179   20.6737 H   0  0  0  0  0  0
  -17.4207  -26.6655   21.3998 H   0  0  0  0  0  0
  -18.0329  -26.0049   22.8991 H   0  0  0  0  0  0
  -19.7926  -30.7242   24.2289 H   0  0  0  0  0  0
  -17.5007  -31.6269   24.5133 H   0  0  0  0  0  0
  -15.5345  -30.2989   23.7642 H   0  0  0  0  0  0
  -15.8647  -28.0821   22.7053 H   0  0  0  0  0  0
  -24.5914  -30.7053   25.7762 H   0  0  0  0  0  0
  -24.8956  -32.2857   26.4903 H   0  0  0  0  0  0
  -25.8089  -30.8835   27.0194 H   0  0  0  0  0  0
  -26.2854  -29.6797   24.1121 H   0  0  0  0  0  0
  -27.4092  -29.7265   25.4511 H   0  0  0  0  0  0
  -27.8675  -30.4364   23.9204 H   0  0  0  0  0  0
  -27.2660  -33.3573   26.2108 H   0  0  0  0  0  0
  -28.3851  -32.6887   25.0313 H   0  0  0  0  0  0
  -28.0724  -31.8390   26.5370 H   0  0  0  0  0  0
  -28.2600  -38.0106   24.7511 H   0  0  0  0  0  0
  -28.1081  -36.2634   24.6301 H   0  0  0  0  0  0
  -27.2295  -37.1469   25.8865 H   0  0  0  0  0  0
  -20.9260  -29.8740   21.6952 H   0  0  0  0  0  0
  -26.0197  -38.2863   24.1418 H   0  0  0  0  0  0
  -29.9491  -19.8490   22.3504 H   0  0  0  0  0  0
  -30.3540  -17.4538   22.7105 H   0  0  0  0  0  0
  -28.7367  -19.0532   18.3095 H   0  0  0  0  0  0
  -28.3811  -21.2107   19.1267 H   0  0  0  0  0  0
  -29.8283  -22.0283   21.6929 H   0  0  0  0  0  0
  -29.4768  -16.1358   16.1216 H   0  0  0  0  0  0
  -30.6924  -17.1069   16.9439 H   0  0  0  0  0  0
  -29.1169  -17.7950   16.5453 H   0  0  0  0  0  0
  -28.0016  -16.2612   18.1802 H   0  0  0  0  0  0
  -29.5012  -15.4185   18.4072 H   0  0  0  0  0  0
  -30.3522  -24.9608   20.6531 H   0  0  0  0  0  0
  -29.6950  -24.3332   22.1427 H   0  0  0  0  0  0
  -28.9354  -26.5672   22.0744 H   0  0  0  0  0  0
  -27.5358  -25.6042   21.6882 H   0  0  0  0  0  0
  -29.0582  -15.1148   21.5164 H   0  0  0  0  0  0
  1 25  1  0  0  0
  1 30  2  0  0  0
  1 84  1  0  0  0
  2  3  1  0  0  0
  2 25  1  0  0  0
  2 86  1  0  0  0
  2 87  1  0  0  0
  3  4  1  0  0  0
  3 88  1  0  0  0
  3 89  1  0  0  0
  4  5  1  0  0  0
  4 90  1  0  0  0
  4 91  1  0  0  0
  5  6  1  0  0  0
  5 26  1  0  0  0
  5 92  1  0  0  0
  6 25  1  0  0  0
  6 93  1  0  0  0
  6 94  1  0  0  0
  7  8  2  0  0  0
  7 26  1  0  0  0
  7 29  1  0  0  0
  8  9  1  0  0  0
  8 22  1  0  0  0
  9 10  1  0  0  0
  9 27  2  0  0  0
 10 11  2  0  0  0
 10 15  1  0  0  0
 11 12  1  0  0  0
 11 95  1  0  0  0
 12 13  2  0  0  0
 12 96  1  0  0  0
 13 14  1  0  0  0
 13 31  1  0  0  0
 14 15  2  0  0  0
 14 97  1  0  0  0
 15 98  1  0  0  0
 16 17  2  0  0  0
 16 21  1  0  0  0
 16 31  1  0  0  0
 17 18  1  0  0  0
 17 99  1  0  0  0
 18 19  2  0  0  0
 18100  1  0  0  0
 19 20  1  0  0  0
 19 24  1  0  0  0
 20 21  2  0  0  0
 20101  1  0  0  0
 21 23  1  0  0  0
 22 28  1  0  0  0
 22 32  2  0  0  0
 26 27  1  0  0  0
 28102  1  0  0  0
 28103  1  0  0  0
 29104  1  0  0  0
 29105  1  0  0  0
 33 34  1  0  0  0
 33 66  1  0  0  0
 33 70  2  0  0  0
 34 36  1  0  0  0
 34 59  1  0  0  0
 34106  1  0  0  0
 35 44  2  0  0  0
 35 45  1  0  0  0
 35 68  1  0  0  0
 36 56  1  0  0  0
 36107  1  0  0  0
 37 39  1  0  0  0
 37 47  1  0  0  0
 37 66  1  0  0  0
 37108  1  0  0  0
 38 43  2  0  0  0
 38 46  1  0  0  0
 38 47  1  0  0  0
 39 64  1  0  0  0
 39 67  2  0  0  0
 40 52  1  0  0  0
 40 53  2  0  0  0
 40 58  1  0  0  0
 41109  1  0  0  0
 41110  1  0  0  0
 41111  1  0  0  0
 41 48  1  0  0  0
 42 43  1  0  0  0
 42 66  1  0  0  0
 42112  1  0  0  0
 42113  1  0  0  0
 43 44  1  0  0  0
 44114  1  0  0  0
 45 46  2  0  0  0
 45115  1  0  0  0
 46116  1  0  0  0
 47117  1  0  0  0
 47118  1  0  0  0
 48 56  1  0  0  0
 48 65  1  0  0  0
 48119  1  0  0  0
 49 50  1  0  0  0
 49 53  1  0  0  0
 49 64  1  0  0  0
 49120  1  0  0  0
 50 51  1  0  0  0
 50121  1  0  0  0
 50122  1  0  0  0
 51 52  1  0  0  0
 51123  1  0  0  0
 51124  1  0  0  0
 52125  1  0  0  0
 52126  1  0  0  0
 53 54  1  0  0  0
 54 55  2  0  0  0
 54127  1  0  0  0
 55 57  1  0  0  0
 55128  1  0  0  0
 56 69  2  0  0  0
 57 58  2  0  0  0
 57129  1  0  0  0
 58130  1  0  0  0
 59 60  1  0  0  0
 59 61  1  0  0  0
 59 62  1  0  0  0
 60131  1  0  0  0
 60132  1  0  0  0
 60133  1  0  0  0
 61134  1  0  0  0
 61135  1  0  0  0
 61136  1  0  0  0
 62137  1  0  0  0
 62138  1  0  0  0
 62139  1  0  0  0
 63 65  1  0  0  0
 63140  1  0  0  0
 63141  1  0  0  0
 63142  1  0  0  0
 64143  1  0  0  0
 65144  1  0  0  0
 68 83  1  0  0  0
 71 72  2  0  0  0
 71 74  1  0  0  0
 71145  1  0  0  0
 72 76  1  0  0  0
 72146  1  0  0  0
 73 74  2  0  0  0
 73 75  1  0  0  0
 73147  1  0  0  0
 74 77  1  0  0  0
 75 76  2  0  0  0
 75 81  1  0  0  0
 76 84  1  0  0  0
 77 78  2  0  0  0
 77148  1  0  0  0
 78 79  1  0  0  0
 78149  1  0  0  0
 79 82  1  0  0  0
 79 85  2  0  0  0
 80 81  1  0  0  0
 80150  1  0  0  0
 80151  1  0  0  0
 80152  1  0  0  0
 81153  1  0  0  0
 81154  1  0  0  0
 82 83  1  0  0  0
 82155  1  0  0  0
 82156  1  0  0  0
 83157  1  0  0  0
 83158  1  0  0  0
 84159  1  0  0  0
M  ISO  4   1 100  68 101  83 101  84 100
M  END
> <chiral flag>
0

> <version>
0

> <s_m_source_file>
/data/baiqing/PycharmProjects/Reinvent-master-3.2/result/LINK_invent/BTK/process_docking_weight1_custom_product_contain_oxygen_bond_distance_aromatic_linkinvent_7_9_3/rearranged_h_0124.sdf

> <i_m_source_file_index>
19

> <r_mmod_Potential_Energy-OPLS-2005>
-58.3991928100586

> <r_mmod_Stretch_Energy-OPLS-2005>
37.0621070861816

> <r_mmod_Bend_Energy-OPLS-2005>
97.2273483276367

> <r_mmod_Torsional_Energy-OPLS-2005>
267.322937011719

> <r_mmod_Improper_Torsional_Energy-OPLS-2005>
5.53952884674072

> <r_mmod_Van_der_Waal_Energy-OPLS-2005>
147.678726196289

> <r_mmod_Electrostatic_Energy-OPLS-2005>
-403.465728759766

> <r_mmod_Solvation_Energy-OPLS-2005>
-222.949920654297

> <b_mmod_Minimization_Converged-OPLS-2005>
0

> <r_mmod_RMS_Derivative-OPLS-2005>
2.24272155761719

$$$$
19
                    3D
 Structure written by MMmdl.
160168  0  0  1  0            999 V2000
  -30.6739  -14.5117   20.6448 C   0  0  0  0  0  0
  -30.4463  -12.3550   19.4254 C   0  0  0  0  0  0
  -29.5078  -12.5374   18.2134 C   0  0  0  0  0  0
  -28.0310  -12.3701   18.6206 C   0  0  0  0  0  0
  -27.6691  -13.2008   19.8794 C   0  0  2  0  0  0
  -28.7084  -12.9635   20.9993 C   0  0  0  0  0  0
  -25.2583  -13.8068   20.5513 C   0  0  0  0  0  0
  -24.1844  -13.0408   20.9162 C   0  0  0  0  0  0
  -24.6401  -11.6880   20.8743 C   0  0  0  0  0  0
  -23.9048  -10.4290   21.0419 C   0  0  0  0  0  0
  -24.3591   -9.4210   21.9192 C   0  0  0  0  0  0
  -23.6278   -8.2241   22.0760 C   0  0  0  0  0  0
  -22.4261   -8.0286   21.3548 C   0  0  0  0  0  0
  -21.9889   -9.0259   20.4657 C   0  0  0  0  0  0
  -22.7224  -10.2131   20.3078 C   0  0  0  0  0  0
  -21.6857   -6.0739   22.5269 C   0  0  0  0  0  0
  -21.4028   -6.5629   23.8207 C   0  0  0  0  0  0
  -21.3654   -5.6780   24.9165 C   0  0  0  0  0  0
  -21.6035   -4.3044   24.7216 C   0  0  0  0  0  0
  -21.8821   -3.8154   23.4332 C   0  0  0  0  0  0
  -21.9194   -4.6973   22.3394 C   0  0  0  0  0  0
  -22.7878  -13.5255   21.1825 C   0  0  0  0  0  0
  -22.1657   -4.2161   21.0965 F   0  0  0  0  0  0
  -21.5618   -3.4523   25.7727 F   0  0  0  0  0  0
  -30.0467  -13.3081   20.4786 N   0  0  0  0  0  0
  -26.3057  -12.9255   20.3330 N   0  0  0  0  0  0
  -25.9331  -11.6434   20.5760 N   0  0  0  0  0  0
  -22.0493  -12.8308   22.0405 N   0  0  0  0  0  0
  -25.4260  -15.1713   20.3613 N   0  0  0  0  0  0
  -31.7011  -14.8165   20.0309 O   0  0  0  0  0  0
  -21.6640   -6.8875   21.4232 O   0  0  0  0  0  0
  -22.3570  -14.5550   20.6654 O   0  0  0  0  0  0
  -24.6185  -31.8636   23.2042 C   0  0  0  0  0  0
  -25.9048  -32.4802   23.8367 C   0  0  1  0  0  0
  -27.2435  -27.3821   20.1058 C   0  0  0  0  0  0
  -25.5880  -33.8602   24.2304 N   0  0  0  0  0  0
  -23.4097  -30.4858   21.5440 C   0  0  2  0  0  0
  -24.8580  -28.9397   20.1146 C   0  0  0  0  0  0
  -22.7419  -29.4654   22.4951 C   0  0  0  0  0  0
  -18.0271  -28.1383   22.8480 C   0  0  0  0  0  0
  -24.1480  -36.7297   23.2645 C   0  0  0  0  0  0
  -25.9434  -30.8130   21.3655 C   0  0  0  0  0  0
  -26.0187  -29.4425   20.7128 C   0  0  0  0  0  0
  -27.2085  -28.6720   20.7016 C   0  0  0  0  0  0
  -26.0556  -26.9005   19.5085 C   0  0  0  0  0  0
  -24.8740  -27.6701   19.5107 C   0  0  0  0  0  0
  -23.6215  -29.8117   20.1614 C   0  0  0  0  0  0
  -25.4100  -36.3102   24.0345 C   0  0  1  0  0  0
  -20.5864  -28.3674   23.1288 C   0  0  2  0  0  0
  -20.6756  -26.9393   22.5416 C   0  0  0  0  0  0
  -19.5739  -26.6378   21.5202 C   0  0  0  0  0  0
  -18.1914  -26.7928   22.1613 C   0  0  0  0  0  0
  -19.1524  -28.8843   23.2886 C   0  0  0  0  0  0
  -18.9461  -30.1440   23.8920 C   0  0  0  0  0  0
  -17.6465  -30.6589   24.0559 C   0  0  0  0  0  0
  -25.9032  -34.9466   23.5131 C   0  0  0  0  0  0
  -16.5351  -29.9095   23.6321 C   0  0  0  0  0  0
  -16.7263  -28.6505   23.0356 C   0  0  0  0  0  0
  -26.4458  -31.6606   25.0721 C   0  0  0  0  0  0
  -25.3715  -31.3743   26.1473 C   0  0  0  0  0  0
  -27.0274  -30.3033   24.6140 C   0  0  0  0  0  0
  -27.6035  -32.4338   25.7463 C   0  0  0  0  0  0
  -27.5581  -37.1787   24.8455 C   0  0  0  0  0  0
  -21.4141  -29.3044   22.3687 N   0  0  0  0  0  0
  -26.4283  -37.3789   23.9420 N   0  0  0  0  0  0
  -24.6755  -31.0701   22.0958 N   0  0  0  0  0  0
  -23.4167  -28.8199   23.3016 O   0  0  0  0  0  0
  -28.4346  -26.6623   20.1406 O   0  0  0  0  0  0
  -26.5605  -34.8928   22.4701 O   0  0  0  0  0  0
  -23.5364  -32.1406   23.7401 O   0  0  0  0  0  0
  -27.7982  -18.8786   21.4098 C   0  0  0  0  0  0
  -28.1269  -16.5425   21.9889 C   0  0  0  0  0  0
  -29.9360  -17.7861   20.9372 C   0  0  0  0  0  0
  -27.2993  -17.6769   21.9547 C   0  0  0  0  0  0
  -29.1277  -18.9774   20.9332 C   0  0  0  0  0  0
  -29.4320  -16.5523   21.4578 C   0  0  0  0  0  0
  -25.9111  -17.5293   22.4178 C   0  0  0  0  0  0
  -28.9566  -21.6035   20.8408 C   0  0  0  0  0  0
  -24.8532  -18.2347   21.9827 C   0  0  0  0  0  0
  -29.2573  -22.8364   20.3389 C   0  0  0  0  0  0
  -29.6582  -20.3215   20.4497 C   0  0  0  0  0  0
  -23.4391  -18.0192   22.4767 C   0  0  0  0  0  0
  -28.6078  -24.1862   20.7456 C   0  0  0  0  0  0
  -28.5754  -25.3006   19.6440 C   0  0  0  0  0  0
  -30.1456  -15.3078   21.6015 N   0  0  0  0  0  0
  -30.6829  -20.3600   19.7608 O   0  0  0  0  0  0
  -31.4870  -12.4884   19.1209 H   0  0  0  0  0  0
  -30.3807  -11.3345   19.8061 H   0  0  0  0  0  0
  -29.7630  -11.8251   17.4285 H   0  0  0  0  0  0
  -29.6584  -13.5299   17.7839 H   0  0  0  0  0  0
  -27.8530  -11.3098   18.8095 H   0  0  0  0  0  0
  -27.3806  -12.6437   17.7893 H   0  0  0  0  0  0
  -27.7169  -14.2532   19.5946 H   0  0  0  0  0  0
  -28.6993  -11.9153   21.3019 H   0  0  0  0  0  0
  -28.4337  -13.5155   21.8974 H   0  0  0  0  0  0
  -25.2729   -9.5697   22.4765 H   0  0  0  0  0  0
  -23.9994   -7.4637   22.7479 H   0  0  0  0  0  0
  -21.0813   -8.8782   19.8968 H   0  0  0  0  0  0
  -22.3680  -10.9664   19.6195 H   0  0  0  0  0  0
  -21.2032   -7.6138   23.9717 H   0  0  0  0  0  0
  -21.1466   -6.0504   25.9060 H   0  0  0  0  0  0
  -22.0614   -2.7625   23.2822 H   0  0  0  0  0  0
  -22.4081  -11.9979   22.4832 H   0  0  0  0  0  0
  -21.1117  -13.1384   22.2567 H   0  0  0  0  0  0
  -24.6842  -15.8407   20.5284 H   0  0  0  0  0  0
  -26.2843  -15.6054   20.0504 H   0  0  0  0  0  0
  -26.7115  -32.5495   23.1122 H   0  0  0  0  0  0
  -24.9995  -33.9743   25.0428 H   0  0  0  0  0  0
  -22.7020  -31.3050   21.3981 H   0  0  0  0  0  0
  -23.3752  -35.9617   23.3304 H   0  0  0  0  0  0
  -24.3586  -36.8913   22.2061 H   0  0  0  0  0  0
  -23.7215  -37.6494   23.6662 H   0  0  0  0  0  0
  -26.0677  -31.5771   20.5970 H   0  0  0  0  0  0
  -26.8279  -30.8655   21.9891 H   0  0  0  0  0  0
  -28.1054  -29.0607   21.1643 H   0  0  0  0  0  0
  -26.0096  -25.9292   19.0440 H   0  0  0  0  0  0
  -23.9786  -27.2742   19.0521 H   0  0  0  0  0  0
  -23.7299  -30.5836   19.3978 H   0  0  0  0  0  0
  -22.7459  -29.2291   19.8684 H   0  0  0  0  0  0
  -25.1272  -36.1966   25.0835 H   0  0  0  0  0  0
  -20.9969  -28.3261   24.1402 H   0  0  0  0  0  0
  -20.5618  -26.2283   23.3617 H   0  0  0  0  0  0
  -21.6632  -26.7403   22.1234 H   0  0  0  0  0  0
  -19.6891  -25.6284   21.1238 H   0  0  0  0  0  0
  -19.6691  -27.3181   20.6726 H   0  0  0  0  0  0
  -17.4177  -26.6676   21.4020 H   0  0  0  0  0  0
  -18.0311  -26.0075   22.9015 H   0  0  0  0  0  0
  -19.7942  -30.7229   24.2325 H   0  0  0  0  0  0
  -17.5032  -31.6281   24.5136 H   0  0  0  0  0  0
  -15.5357  -30.3016   23.7630 H   0  0  0  0  0  0
  -15.8657  -28.0824   22.7090 H   0  0  0  0  0  0
  -24.5899  -30.7059   25.7840 H   0  0  0  0  0  0
  -24.8879  -32.2901   26.4885 H   0  0  0  0  0  0
  -25.8071  -30.8963   27.0256 H   0  0  0  0  0  0
  -26.2821  -29.6811   24.1169 H   0  0  0  0  0  0
  -27.3983  -29.7270   25.4625 H   0  0  0  0  0  0
  -27.8691  -30.4331   23.9334 H   0  0  0  0  0  0
  -27.2656  -33.3639   26.2050 H   0  0  0  0  0  0
  -28.3816  -32.6902   25.0258 H   0  0  0  0  0  0
  -28.0732  -31.8458   26.5359 H   0  0  0  0  0  0
  -28.2590  -38.0091   24.7526 H   0  0  0  0  0  0
  -28.1084  -36.2627   24.6244 H   0  0  0  0  0  0
  -27.2311  -37.1402   25.8860 H   0  0  0  0  0  0
  -20.9299  -29.8773   21.6914 H   0  0  0  0  0  0
  -26.0176  -38.2861   24.1451 H   0  0  0  0  0  0
  -27.1360  -19.7309   21.3733 H   0  0  0  0  0  0
  -27.7242  -15.6342   22.4146 H   0  0  0  0  0  0
  -30.9523  -17.8301   20.5691 H   0  0  0  0  0  0
  -25.7451  -16.7753   23.1754 H   0  0  0  0  0  0
  -28.1817  -21.5401   21.5864 H   0  0  0  0  0  0
  -24.9748  -18.9879   21.2172 H   0  0  0  0  0  0
  -30.0470  -22.9131   19.6046 H   0  0  0  0  0  0
  -23.4172  -17.3536   23.3403 H   0  0  0  0  0  0
  -22.8303  -17.5739   21.6884 H   0  0  0  0  0  0
  -22.9874  -18.9692   22.7612 H   0  0  0  0  0  0
  -29.1928  -24.5685   21.5827 H   0  0  0  0  0  0
  -27.6042  -24.0140   21.1367 H   0  0  0  0  0  0
  -27.8800  -25.0477   18.8473 H   0  0  0  0  0  0
  -29.5512  -25.2959   19.1556 H   0  0  0  0  0  0
  -29.6761  -14.7061   22.2605 H   0  0  0  0  0  0
  1 25  1  0  0  0
  1 30  2  0  0  0
  1 85  1  0  0  0
  2  3  1  0  0  0
  2 25  1  0  0  0
  2 87  1  0  0  0
  2 88  1  0  0  0
  3  4  1  0  0  0
  3 89  1  0  0  0
  3 90  1  0  0  0
  4  5  1  0  0  0
  4 91  1  0  0  0
  4 92  1  0  0  0
  5  6  1  0  0  0
  5 26  1  0  0  0
  5 93  1  0  0  0
  6 25  1  0  0  0
  6 94  1  0  0  0
  6 95  1  0  0  0
  7  8  2  0  0  0
  7 26  1  0  0  0
  7 29  1  0  0  0
  8  9  1  0  0  0
  8 22  1  0  0  0
  9 10  1  0  0  0
  9 27  2  0  0  0
 10 11  2  0  0  0
 10 15  1  0  0  0
 11 12  1  0  0  0
 11 96  1  0  0  0
 12 13  2  0  0  0
 12 97  1  0  0  0
 13 14  1  0  0  0
 13 31  1  0  0  0
 14 15  2  0  0  0
 14 98  1  0  0  0
 15 99  1  0  0  0
 16 17  2  0  0  0
 16 21  1  0  0  0
 16 31  1  0  0  0
 17 18  1  0  0  0
 17100  1  0  0  0
 18 19  2  0  0  0
 18101  1  0  0  0
 19 20  1  0  0  0
 19 24  1  0  0  0
 20 21  2  0  0  0
 20102  1  0  0  0
 21 23  1  0  0  0
 22 28  1  0  0  0
 22 32  2  0  0  0
 26 27  1  0  0  0
 28103  1  0  0  0
 28104  1  0  0  0
 29105  1  0  0  0
 29106  1  0  0  0
 33 34  1  0  0  0
 33 66  1  0  0  0
 33 70  2  0  0  0
 34 36  1  0  0  0
 34 59  1  0  0  0
 34107  1  0  0  0
 35 44  2  0  0  0
 35 45  1  0  0  0
 35 68  1  0  0  0
 36 56  1  0  0  0
 36108  1  0  0  0
 37 39  1  0  0  0
 37 47  1  0  0  0
 37 66  1  0  0  0
 37109  1  0  0  0
 38 43  2  0  0  0
 38 46  1  0  0  0
 38 47  1  0  0  0
 39 64  1  0  0  0
 39 67  2  0  0  0
 40 52  1  0  0  0
 40 53  2  0  0  0
 40 58  1  0  0  0
 41110  1  0  0  0
 41111  1  0  0  0
 41112  1  0  0  0
 41 48  1  0  0  0
 42 43  1  0  0  0
 42 66  1  0  0  0
 42113  1  0  0  0
 42114  1  0  0  0
 43 44  1  0  0  0
 44115  1  0  0  0
 45 46  2  0  0  0
 45116  1  0  0  0
 46117  1  0  0  0
 47118  1  0  0  0
 47119  1  0  0  0
 48 56  1  0  0  0
 48 65  1  0  0  0
 48120  1  0  0  0
 49 50  1  0  0  0
 49 53  1  0  0  0
 49 64  1  0  0  0
 49121  1  0  0  0
 50 51  1  0  0  0
 50122  1  0  0  0
 50123  1  0  0  0
 51 52  1  0  0  0
 51124  1  0  0  0
 51125  1  0  0  0
 52126  1  0  0  0
 52127  1  0  0  0
 53 54  1  0  0  0
 54 55  2  0  0  0
 54128  1  0  0  0
 55 57  1  0  0  0
 55129  1  0  0  0
 56 69  2  0  0  0
 57 58  2  0  0  0
 57130  1  0  0  0
 58131  1  0  0  0
 59 60  1  0  0  0
 59 61  1  0  0  0
 59 62  1  0  0  0
 60132  1  0  0  0
 60133  1  0  0  0
 60134  1  0  0  0
 61135  1  0  0  0
 61136  1  0  0  0
 61137  1  0  0  0
 62138  1  0  0  0
 62139  1  0  0  0
 62140  1  0  0  0
 63 65  1  0  0  0
 63141  1  0  0  0
 63142  1  0  0  0
 63143  1  0  0  0
 64144  1  0  0  0
 65145  1  0  0  0
 68 84  1  0  0  0
 71 74  2  0  0  0
 71 75  1  0  0  0
 71146  1  0  0  0
 72 74  1  0  0  0
 72 76  2  0  0  0
 72147  1  0  0  0
 73 75  2  0  0  0
 73 76  1  0  0  0
 73148  1  0  0  0
 74 77  1  0  0  0
 75 81  1  0  0  0
 76 85  1  0  0  0
 77 79  2  0  0  0
 77149  1  0  0  0
 78 80  2  0  0  0
 78 81  1  0  0  0
 78150  1  0  0  0
 79 82  1  0  0  0
 79151  1  0  0  0
 80 83  1  0  0  0
 80152  1  0  0  0
 81 86  2  0  0  0
 82153  1  0  0  0
 82154  1  0  0  0
 82155  1  0  0  0
 83 84  1  0  0  0
 83156  1  0  0  0
 83157  1  0  0  0
 84158  1  0  0  0
 84159  1  0  0  0
 85160  1  0  0  0
M  ISO  4   1 100  68 101  84 101  85 100
M  END
> <chiral flag>
0

> <version>
0

> <s_m_source_file>
/data/baiqing/PycharmProjects/Reinvent-master-3.2/result/LINK_invent/BTK/process_docking_weight1_custom_product_contain_oxygen_bond_distance_aromatic_linkinvent_7_9_3/rearranged_h_0124.sdf

> <i_m_source_file_index>
20

> <r_mmod_Potential_Energy-OPLS-2005>
28.9571437835693

> <r_mmod_Stretch_Energy-OPLS-2005>
57.8527870178223

> <r_mmod_Bend_Energy-OPLS-2005>
137.281402587891

> <r_mmod_Torsional_Energy-OPLS-2005>
236.456451416016

> <r_mmod_Improper_Torsional_Energy-OPLS-2005>
7.48723363876343

> <r_mmod_Van_der_Waal_Energy-OPLS-2005>
139.552947998047

> <r_mmod_Electrostatic_Energy-OPLS-2005>
-358.742767333984

> <r_mmod_Solvation_Energy-OPLS-2005>
-212.347442626953

> <b_mmod_Minimization_Converged-OPLS-2005>
0

> <r_mmod_RMS_Derivative-OPLS-2005>
2.54696083068848

$$$$
20
                    3D
 Structure written by MMmdl.
150158  0  0  1  0            999 V2000
  -30.6175  -14.7401   20.4208 C   0  0  0  0  0  0
  -30.4222  -12.4439   19.4774 C   0  0  0  0  0  0
  -29.5042  -12.4978   18.2373 C   0  0  0  0  0  0
  -28.0311  -12.3274   18.6510 C   0  0  0  0  0  0
  -27.6381  -13.2333   19.8486 C   0  0  2  0  0  0
  -28.6819  -13.1801   20.9851 C   0  0  0  0  0  0
  -25.2482  -13.8207   20.5682 C   0  0  0  0  0  0
  -24.1789  -13.0454   20.9198 C   0  0  0  0  0  0
  -24.6391  -11.6928   20.8761 C   0  0  0  0  0  0
  -23.9076  -10.4306   21.0416 C   0  0  0  0  0  0
  -24.3618   -9.4220   21.9200 C   0  0  0  0  0  0
  -23.6287   -8.2255   22.0767 C   0  0  0  0  0  0
  -22.4278   -8.0284   21.3536 C   0  0  0  0  0  0
  -21.9927   -9.0262   20.4632 C   0  0  0  0  0  0
  -22.7255  -10.2144   20.3051 C   0  0  0  0  0  0
  -21.6855   -6.0740   22.5277 C   0  0  0  0  0  0
  -21.4015   -6.5641   23.8210 C   0  0  0  0  0  0
  -21.3656   -5.6791   24.9168 C   0  0  0  0  0  0
  -21.6047   -4.3056   24.7220 C   0  0  0  0  0  0
  -21.8821   -3.8151   23.4338 C   0  0  0  0  0  0
  -21.9192   -4.6968   22.3396 C   0  0  0  0  0  0
  -22.7809  -13.5218   21.1861 C   0  0  0  0  0  0
  -22.1656   -4.2151   21.0974 F   0  0  0  0  0  0
  -21.5632   -3.4532   25.7731 F   0  0  0  0  0  0
  -29.9851  -13.5170   20.4012 N   0  0  0  0  0  0
  -26.2913  -12.9421   20.3270 N   0  0  0  0  0  0
  -25.9316  -11.6560   20.5758 N   0  0  0  0  0  0
  -22.0466  -12.8182   22.0403 N   0  0  0  0  0  0
  -25.4182  -15.1934   20.4086 N   0  0  0  0  0  0
  -31.8163  -14.7991   20.1342 O   0  0  0  0  0  0
  -21.6628   -6.8886   21.4239 O   0  0  0  0  0  0
  -22.3494  -14.5541   20.6741 O   0  0  0  0  0  0
  -24.6314  -31.8545   23.1988 C   0  0  0  0  0  0
  -25.9165  -32.4740   23.8318 C   0  0  1  0  0  0
  -27.2282  -27.2724   20.1061 C   0  0  0  0  0  0
  -25.5976  -33.8543   24.2243 N   0  0  0  0  0  0
  -23.4252  -30.4736   21.5438 C   0  0  2  0  0  0
  -24.8716  -28.9156   20.1135 C   0  0  0  0  0  0
  -22.7484  -29.4597   22.4960 C   0  0  0  0  0  0
  -18.0273  -28.1381   22.8505 C   0  0  0  0  0  0
  -24.1465  -36.7238   23.2656 C   0  0  0  0  0  0
  -25.9694  -30.7643   21.3794 C   0  0  0  0  0  0
  -26.0417  -29.3890   20.7176 C   0  0  0  0  0  0
  -27.2188  -28.5772   20.7049 C   0  0  0  0  0  0
  -26.0293  -26.8573   19.4845 C   0  0  0  0  0  0
  -24.8687  -27.6569   19.4918 C   0  0  0  0  0  0
  -23.6406  -29.7996   20.1636 C   0  0  0  0  0  0
  -25.4104  -36.3044   24.0324 C   0  0  1  0  0  0
  -20.5862  -28.3698   23.1283 C   0  0  2  0  0  0
  -20.6760  -26.9416   22.5413 C   0  0  0  0  0  0
  -19.5729  -26.6383   21.5225 C   0  0  0  0  0  0
  -18.1905  -26.7950   22.1610 C   0  0  0  0  0  0
  -19.1525  -28.8868   23.2877 C   0  0  0  0  0  0
  -18.9463  -30.1478   23.8884 C   0  0  0  0  0  0
  -17.6468  -30.6607   24.0565 C   0  0  0  0  0  0
  -25.9059  -34.9425   23.5072 C   0  0  0  0  0  0
  -16.5347  -29.9088   23.6371 C   0  0  0  0  0  0
  -16.7259  -28.6488   23.0406 C   0  0  0  0  0  0
  -26.4572  -31.6591   25.0713 C   0  0  0  0  0  0
  -25.3810  -31.3690   26.1429 C   0  0  0  0  0  0
  -27.0566  -30.3070   24.6224 C   0  0  0  0  0  0
  -27.6040  -32.4435   25.7531 C   0  0  0  0  0  0
  -27.5551  -37.1764   24.8483 C   0  0  0  0  0  0
  -21.4192  -29.3041   22.3685 N   0  0  0  0  0  0
  -26.4270  -37.3742   23.9426 N   0  0  0  0  0  0
  -24.6939  -31.0499   22.0969 N   0  0  0  0  0  0
  -23.4181  -28.8148   23.3071 O   0  0  0  0  0  0
  -28.3540  -26.4228   20.1791 O   0  0  0  0  0  0
  -26.5587  -34.8898   22.4615 O   0  0  0  0  0  0
  -23.5458  -32.1376   23.7279 O   0  0  0  0  0  0
  -31.1948  -18.7156   18.3802 C   0  0  0  0  0  0
  -30.5412  -19.8694   18.8539 C   0  0  0  0  0  0
  -30.9731  -17.4517   18.9598 C   0  0  0  0  0  0
  -29.4210  -18.4928   20.5133 C   0  0  0  0  0  0
  -29.6357  -19.8211   19.9388 C   0  0  0  0  0  0
  -30.0890  -17.2763   20.0511 C   0  0  0  0  0  0
  -28.9937  -21.1580   20.3995 C   0  0  0  0  0  0
  -29.0574  -22.4271   19.8259 C   0  0  0  0  0  0
  -28.4560  -23.7485   20.3580 C   0  0  0  0  0  0
  -28.4630  -25.0943   19.4851 C   0  0  0  0  0  0
  -29.8608  -15.8988   20.5813 N   0  0  0  0  0  0
  -27.9472  -23.7987   21.4824 O   0  0  0  0  0  0
  -31.4631  -12.5589   19.1697 H   0  0  0  0  0  0
  -30.3597  -11.4710   19.9687 H   0  0  0  0  0  0
  -29.7848  -11.7231   17.5234 H   0  0  0  0  0  0
  -29.6296  -13.4517   17.7240 H   0  0  0  0  0  0
  -27.8848  -11.2805   18.9170 H   0  0  0  0  0  0
  -27.3758  -12.5204   17.8007 H   0  0  0  0  0  0
  -27.6303  -14.2513   19.4589 H   0  0  0  0  0  0
  -28.7125  -12.1890   21.4422 H   0  0  0  0  0  0
  -28.4233  -13.8792   21.7817 H   0  0  0  0  0  0
  -25.2763   -9.5691   22.4775 H   0  0  0  0  0  0
  -23.9984   -7.4652   22.7504 H   0  0  0  0  0  0
  -21.0868   -8.8781   19.8923 H   0  0  0  0  0  0
  -22.3723  -10.9683   19.6147 H   0  0  0  0  0  0
  -21.2013   -7.6153   23.9707 H   0  0  0  0  0  0
  -21.1474   -6.0524   25.9065 H   0  0  0  0  0  0
  -22.0608   -2.7615   23.2839 H   0  0  0  0  0  0
  -22.4069  -11.9788   22.4703 H   0  0  0  0  0  0
  -21.1103  -13.1213   22.2667 H   0  0  0  0  0  0
  -24.6522  -15.8493   20.5168 H   0  0  0  0  0  0
  -26.2639  -15.6291   20.0648 H   0  0  0  0  0  0
  -26.7206  -32.5394   23.1030 H   0  0  0  0  0  0
  -25.0288  -33.9684   25.0504 H   0  0  0  0  0  0
  -22.7214  -31.2952   21.3937 H   0  0  0  0  0  0
  -23.3760  -35.9541   23.3327 H   0  0  0  0  0  0
  -24.3518  -36.8883   22.2072 H   0  0  0  0  0  0
  -23.7181  -37.6407   23.6702 H   0  0  0  0  0  0
  -26.1082  -31.5235   20.6087 H   0  0  0  0  0  0
  -26.8460  -30.8094   22.0134 H   0  0  0  0  0  0
  -28.1180  -28.9355   21.1864 H   0  0  0  0  0  0
  -25.9462  -25.8899   19.0173 H   0  0  0  0  0  0
  -23.9638  -27.2853   19.0305 H   0  0  0  0  0  0
  -23.7579  -30.5713   19.4018 H   0  0  0  0  0  0
  -22.7599  -29.2272   19.8662 H   0  0  0  0  0  0
  -25.1270  -36.1885   25.0803 H   0  0  0  0  0  0
  -20.9906  -28.3294   24.1426 H   0  0  0  0  0  0
  -20.5708  -26.2295   23.3612 H   0  0  0  0  0  0
  -21.6614  -26.7469   22.1185 H   0  0  0  0  0  0
  -19.6888  -25.6292   21.1269 H   0  0  0  0  0  0
  -19.6698  -27.3171   20.6746 H   0  0  0  0  0  0
  -17.4185  -26.6767   21.3985 H   0  0  0  0  0  0
  -18.0247  -26.0073   22.8970 H   0  0  0  0  0  0
  -19.7934  -30.7294   24.2231 H   0  0  0  0  0  0
  -17.5026  -31.6290   24.5160 H   0  0  0  0  0  0
  -15.5341  -30.2981   23.7738 H   0  0  0  0  0  0
  -15.8646  -28.0794   22.7164 H   0  0  0  0  0  0
  -24.5996  -30.7036   25.7743 H   0  0  0  0  0  0
  -24.8993  -32.2850   26.4860 H   0  0  0  0  0  0
  -25.8163  -30.8875   27.0199 H   0  0  0  0  0  0
  -26.3223  -29.6684   24.1309 H   0  0  0  0  0  0
  -27.4416  -29.7439   25.4735 H   0  0  0  0  0  0
  -27.8965  -30.4457   23.9415 H   0  0  0  0  0  0
  -27.2578  -33.3797   26.1930 H   0  0  0  0  0  0
  -28.3940  -32.6933   25.0436 H   0  0  0  0  0  0
  -28.0608  -31.8712   26.5618 H   0  0  0  0  0  0
  -28.2541  -38.0086   24.7551 H   0  0  0  0  0  0
  -28.1077  -36.2604   24.6315 H   0  0  0  0  0  0
  -27.2255  -37.1397   25.8883 H   0  0  0  0  0  0
  -20.9397  -29.8763   21.6875 H   0  0  0  0  0  0
  -26.0157  -38.2808   24.1474 H   0  0  0  0  0  0
  -31.8848  -18.8010   17.5511 H   0  0  0  0  0  0
  -30.7660  -20.8069   18.3656 H   0  0  0  0  0  0
  -31.4975  -16.6150   18.5232 H   0  0  0  0  0  0
  -28.7277  -18.4097   21.3380 H   0  0  0  0  0  0
  -28.4320  -21.0817   21.3194 H   0  0  0  0  0  0
  -29.5953  -22.5414   18.8971 H   0  0  0  0  0  0
  -27.7364  -25.0024   18.6801 H   0  0  0  0  0  0
  -29.4275  -25.1083   18.9762 H   0  0  0  0  0  0
  -28.9540  -15.7433   20.9953 H   0  0  0  0  0  0
  1 25  1  0  0  0
  1 30  2  0  0  0
  1 81  1  0  0  0
  2  3  1  0  0  0
  2 25  1  0  0  0
  2 83  1  0  0  0
  2 84  1  0  0  0
  3  4  1  0  0  0
  3 85  1  0  0  0
  3 86  1  0  0  0
  4  5  1  0  0  0
  4 87  1  0  0  0
  4 88  1  0  0  0
  5  6  1  0  0  0
  5 26  1  0  0  0
  5 89  1  0  0  0
  6 25  1  0  0  0
  6 90  1  0  0  0
  6 91  1  0  0  0
  7  8  2  0  0  0
  7 26  1  0  0  0
  7 29  1  0  0  0
  8  9  1  0  0  0
  8 22  1  0  0  0
  9 10  1  0  0  0
  9 27  2  0  0  0
 10 11  2  0  0  0
 10 15  1  0  0  0
 11 12  1  0  0  0
 11 92  1  0  0  0
 12 13  2  0  0  0
 12 93  1  0  0  0
 13 14  1  0  0  0
 13 31  1  0  0  0
 14 15  2  0  0  0
 14 94  1  0  0  0
 15 95  1  0  0  0
 16 17  2  0  0  0
 16 21  1  0  0  0
 16 31  1  0  0  0
 17 18  1  0  0  0
 17 96  1  0  0  0
 18 19  2  0  0  0
 18 97  1  0  0  0
 19 20  1  0  0  0
 19 24  1  0  0  0
 20 21  2  0  0  0
 20 98  1  0  0  0
 21 23  1  0  0  0
 22 28  1  0  0  0
 22 32  2  0  0  0
 26 27  1  0  0  0
 28 99  1  0  0  0
 28100  1  0  0  0
 29101  1  0  0  0
 29102  1  0  0  0
 33 34  1  0  0  0
 33 66  1  0  0  0
 33 70  2  0  0  0
 34 36  1  0  0  0
 34 59  1  0  0  0
 34103  1  0  0  0
 35 44  2  0  0  0
 35 45  1  0  0  0
 35 68  1  0  0  0
 36 56  1  0  0  0
 36104  1  0  0  0
 37 39  1  0  0  0
 37 47  1  0  0  0
 37 66  1  0  0  0
 37105  1  0  0  0
 38 43  2  0  0  0
 38 46  1  0  0  0
 38 47  1  0  0  0
 39 64  1  0  0  0
 39 67  2  0  0  0
 40 52  1  0  0  0
 40 53  2  0  0  0
 40 58  1  0  0  0
 41106  1  0  0  0
 41107  1  0  0  0
 41108  1  0  0  0
 41 48  1  0  0  0
 42 43  1  0  0  0
 42 66  1  0  0  0
 42109  1  0  0  0
 42110  1  0  0  0
 43 44  1  0  0  0
 44111  1  0  0  0
 45 46  2  0  0  0
 45112  1  0  0  0
 46113  1  0  0  0
 47114  1  0  0  0
 47115  1  0  0  0
 48 56  1  0  0  0
 48 65  1  0  0  0
 48116  1  0  0  0
 49 50  1  0  0  0
 49 53  1  0  0  0
 49 64  1  0  0  0
 49117  1  0  0  0
 50 51  1  0  0  0
 50118  1  0  0  0
 50119  1  0  0  0
 51 52  1  0  0  0
 51120  1  0  0  0
 51121  1  0  0  0
 52122  1  0  0  0
 52123  1  0  0  0
 53 54  1  0  0  0
 54 55  2  0  0  0
 54124  1  0  0  0
 55 57  1  0  0  0
 55125  1  0  0  0
 56 69  2  0  0  0
 57 58  2  0  0  0
 57126  1  0  0  0
 58127  1  0  0  0
 59 60  1  0  0  0
 59 61  1  0  0  0
 59 62  1  0  0  0
 60128  1  0  0  0
 60129  1  0  0  0
 60130  1  0  0  0
 61131  1  0  0  0
 61132  1  0  0  0
 61133  1  0  0  0
 62134  1  0  0  0
 62135  1  0  0  0
 62136  1  0  0  0
 63 65  1  0  0  0
 63137  1  0  0  0
 63138  1  0  0  0
 63139  1  0  0  0
 64140  1  0  0  0
 65141  1  0  0  0
 68 80  1  0  0  0
 71 72  2  0  0  0
 71 73  1  0  0  0
 71142  1  0  0  0
 72 75  1  0  0  0
 72143  1  0  0  0
 73 76  2  0  0  0
 73144  1  0  0  0
 74 75  2  0  0  0
 74 76  1  0  0  0
 74145  1  0  0  0
 75 77  1  0  0  0
 76 81  1  0  0  0
 77 78  2  0  0  0
 77146  1  0  0  0
 78 79  1  0  0  0
 78147  1  0  0  0
 79 80  1  0  0  0
 79 82  2  0  0  0
 80148  1  0  0  0
 80149  1  0  0  0
 81150  1  0  0  0
M  ISO  4   1 100  68 101  80 101  81 100
M  END
> <chiral flag>
0

> <version>
0

> <s_m_source_file>
/data/baiqing/PycharmProjects/Reinvent-master-3.2/result/LINK_invent/BTK/process_docking_weight1_custom_product_contain_oxygen_bond_distance_aromatic_linkinvent_7_9_3/rearranged_h_0124.sdf

> <i_m_source_file_index>
21

> <r_mmod_Potential_Energy-OPLS-2005>
158.894226074219

> <r_mmod_Stretch_Energy-OPLS-2005>
125.783477783203

> <r_mmod_Bend_Energy-OPLS-2005>
158.296600341797

> <r_mmod_Torsional_Energy-OPLS-2005>
219.759475708008

> <r_mmod_Improper_Torsional_Energy-OPLS-2005>
4.52798843383789

> <r_mmod_Van_der_Waal_Energy-OPLS-2005>
142.111434936523

> <r_mmod_Electrostatic_Energy-OPLS-2005>
-338.413818359375

> <r_mmod_Solvation_Energy-OPLS-2005>
-233.75764465332

> <b_mmod_Minimization_Converged-OPLS-2005>
0

> <r_mmod_RMS_Derivative-OPLS-2005>
2.81232237815857

$$$$
21
                    3D
 Structure written by MMmdl.
154162  0  0  1  0            999 V2000
  -30.6936  -14.4591   20.6050 C   0  0  0  0  0  0
  -30.4212  -12.3030   19.4260 C   0  0  0  0  0  0
  -29.5048  -12.5314   18.2061 C   0  0  0  0  0  0
  -28.0220  -12.3923   18.6053 C   0  0  0  0  0  0
  -27.6642  -13.2135   19.8727 C   0  0  2  0  0  0
  -28.6986  -12.9702   20.9948 C   0  0  0  0  0  0
  -25.2554  -13.8184   20.5614 C   0  0  0  0  0  0
  -24.1842  -13.0423   20.9144 C   0  0  0  0  0  0
  -24.6408  -11.6906   20.8703 C   0  0  0  0  0  0
  -23.9083  -10.4292   21.0392 C   0  0  0  0  0  0
  -24.3626   -9.4234   21.9198 C   0  0  0  0  0  0
  -23.6289   -8.2275   22.0789 C   0  0  0  0  0  0
  -22.4271   -8.0301   21.3571 C   0  0  0  0  0  0
  -21.9900   -9.0275   20.4673 C   0  0  0  0  0  0
  -22.7240  -10.2138   20.3057 C   0  0  0  0  0  0
  -21.6860   -6.0756   22.5283 C   0  0  0  0  0  0
  -21.4034   -6.5656   23.8227 C   0  0  0  0  0  0
  -21.3649   -5.6798   24.9174 C   0  0  0  0  0  0
  -21.6022   -4.3060   24.7215 C   0  0  0  0  0  0
  -21.8821   -3.8162   23.4335 C   0  0  0  0  0  0
  -21.9189   -4.6985   22.3396 C   0  0  0  0  0  0
  -22.7850  -13.5221   21.1785 C   0  0  0  0  0  0
  -22.1665   -4.2179   21.0973 F   0  0  0  0  0  0
  -21.5603   -3.4523   25.7721 F   0  0  0  0  0  0
  -30.0405  -13.2749   20.4618 N   0  0  0  0  0  0
  -26.3024  -12.9381   20.3279 N   0  0  0  0  0  0
  -25.9334  -11.6520   20.5683 N   0  0  0  0  0  0
  -22.0444  -12.8241   22.0333 N   0  0  0  0  0  0
  -25.4069  -15.1936   20.4052 N   0  0  0  0  0  0
  -31.7937  -14.6955   20.0904 O   0  0  0  0  0  0
  -21.6648   -6.8891   21.4244 O   0  0  0  0  0  0
  -22.3584  -14.5555   20.6646 O   0  0  0  0  0  0
  -24.6170  -31.8714   23.2115 C   0  0  0  0  0  0
  -25.9078  -32.4842   23.8401 C   0  0  1  0  0  0
  -27.2228  -27.4440   20.0786 C   0  0  0  0  0  0
  -25.5953  -33.8633   24.2356 N   0  0  0  0  0  0
  -23.3998  -30.4986   21.5547 C   0  0  2  0  0  0
  -24.8391  -28.9686   20.1123 C   0  0  0  0  0  0
  -22.7415  -29.4711   22.5027 C   0  0  0  0  0  0
  -18.0268  -28.1355   22.8534 C   0  0  0  0  0  0
  -24.1470  -36.7305   23.2631 C   0  0  0  0  0  0
  -25.9278  -30.8455   21.3557 C   0  0  0  0  0  0
  -26.0048  -29.4807   20.6981 C   0  0  0  0  0  0
  -27.2011  -28.7280   20.6712 C   0  0  0  0  0  0
  -26.0345  -26.9464   19.4925 C   0  0  0  0  0  0
  -24.8489  -27.7000   19.5078 C   0  0  0  0  0  0
  -23.6016  -29.8334   20.1676 C   0  0  0  0  0  0
  -25.4091  -36.3123   24.0345 C   0  0  1  0  0  0
  -20.5871  -28.3660   23.1314 C   0  0  2  0  0  0
  -20.6749  -26.9394   22.5415 C   0  0  0  0  0  0
  -19.5718  -26.6379   21.5208 C   0  0  0  0  0  0
  -18.1906  -26.7913   22.1637 C   0  0  0  0  0  0
  -19.1523  -28.8814   23.2928 C   0  0  0  0  0  0
  -18.9463  -30.1419   23.8930 C   0  0  0  0  0  0
  -17.6470  -30.6576   24.0563 C   0  0  0  0  0  0
  -25.9030  -34.9492   23.5143 C   0  0  0  0  0  0
  -16.5354  -29.9089   23.6314 C   0  0  0  0  0  0
  -16.7264  -28.6486   23.0377 C   0  0  0  0  0  0
  -26.4493  -31.6620   25.0728 C   0  0  0  0  0  0
  -25.3762  -31.3741   26.1484 C   0  0  0  0  0  0
  -27.0298  -30.3064   24.6075 C   0  0  0  0  0  0
  -27.6067  -32.4333   25.7519 C   0  0  0  0  0  0
  -27.5576  -37.1798   24.8474 C   0  0  0  0  0  0
  -21.4146  -29.3043   22.3726 N   0  0  0  0  0  0
  -26.4278  -37.3813   23.9434 N   0  0  0  0  0  0
  -24.6674  -31.0838   22.1010 N   0  0  0  0  0  0
  -23.4207  -28.8250   23.3044 O   0  0  0  0  0  0
  -28.3916  -26.7099   20.0916 O   0  0  0  0  0  0
  -26.5558  -34.8950   22.4678 O   0  0  0  0  0  0
  -23.5373  -32.1455   23.7541 O   0  0  0  0  0  0
  -29.4492  -17.2918   19.8548 C   0  0  0  0  0  0
  -29.2699  -18.6810   19.6768 C   0  0  0  0  0  0
  -30.3900  -17.6967   22.0651 C   0  0  0  0  0  0
  -30.0016  -16.7873   21.0552 C   0  0  0  0  0  0
  -29.6321  -19.5825   20.7020 C   0  0  0  0  0  0
  -30.2083  -19.0819   21.8931 C   0  0  0  0  0  0
  -29.9720  -22.0295   20.8324 C   0  0  0  0  0  0
  -29.2095  -23.2575   21.3539 C   0  0  0  0  0  0
  -29.5081  -24.6029   20.6485 C   0  0  0  0  0  0
  -28.2447  -25.2845   20.0956 C   0  0  0  0  0  0
  -29.2211  -20.9385   20.6239 N   0  0  0  0  0  0
  -30.0283  -15.3875   21.3104 N   0  0  0  0  0  0
  -31.1851  -22.0746   20.6124 O   0  0  0  0  0  0
  -30.5030  -19.9194   22.9178 F   0  0  0  0  0  0
  -31.4715  -12.3900   19.1423 H   0  0  0  0  0  0
  -30.2999  -11.2874   19.8066 H   0  0  0  0  0  0
  -29.7498  -11.8234   17.4136 H   0  0  0  0  0  0
  -29.6847  -13.5251   17.7932 H   0  0  0  0  0  0
  -27.8273  -11.3351   18.7837 H   0  0  0  0  0  0
  -27.3833  -12.6886   17.7707 H   0  0  0  0  0  0
  -27.7109  -14.2650   19.5911 H   0  0  0  0  0  0
  -28.6686  -11.9310   21.3229 H   0  0  0  0  0  0
  -28.4459  -13.5517   21.8814 H   0  0  0  0  0  0
  -25.2766   -9.5740   22.4767 H   0  0  0  0  0  0
  -23.9991   -7.4689   22.7539 H   0  0  0  0  0  0
  -21.0814   -8.8792   19.9003 H   0  0  0  0  0  0
  -22.3688  -10.9671   19.6162 H   0  0  0  0  0  0
  -21.2068   -7.6173   23.9742 H   0  0  0  0  0  0
  -21.1442   -6.0520   25.9078 H   0  0  0  0  0  0
  -22.0599   -2.7625   23.2807 H   0  0  0  0  0  0
  -22.4024  -11.9913   22.4790 H   0  0  0  0  0  0
  -21.1077  -13.1339   22.2542 H   0  0  0  0  0  0
  -24.6155  -15.8187   20.5278 H   0  0  0  0  0  0
  -26.2374  -15.6692   20.0744 H   0  0  0  0  0  0
  -26.7177  -32.5565   23.1188 H   0  0  0  0  0  0
  -25.0200  -33.9802   25.0573 H   0  0  0  0  0  0
  -22.6870  -31.3147   21.4172 H   0  0  0  0  0  0
  -23.3746  -35.9627   23.3323 H   0  0  0  0  0  0
  -24.3557  -36.8885   22.2041 H   0  0  0  0  0  0
  -23.7213  -37.6517   23.6612 H   0  0  0  0  0  0
  -26.0267  -31.6141   20.5862 H   0  0  0  0  0  0
  -26.8216  -30.9045   21.9672 H   0  0  0  0  0  0
  -28.1060  -29.1209   21.1135 H   0  0  0  0  0  0
  -26.0026  -25.9744   19.0211 H   0  0  0  0  0  0
  -23.9500  -27.2999   19.0571 H   0  0  0  0  0  0
  -23.6989  -30.6053   19.4028 H   0  0  0  0  0  0
  -22.7241  -29.2508   19.8811 H   0  0  0  0  0  0
  -25.1262  -36.1983   25.0838 H   0  0  0  0  0  0
  -20.9973  -28.3210   24.1430 H   0  0  0  0  0  0
  -20.5608  -26.2281   23.3610 H   0  0  0  0  0  0
  -21.6622  -26.7401   22.1223 H   0  0  0  0  0  0
  -19.6866  -25.6289   21.1223 H   0  0  0  0  0  0
  -19.6633  -27.3195   20.6735 H   0  0  0  0  0  0
  -17.4181  -26.6710   21.4036 H   0  0  0  0  0  0
  -18.0292  -26.0010   22.8978 H   0  0  0  0  0  0
  -19.7933  -30.7215   24.2346 H   0  0  0  0  0  0
  -17.5021  -31.6256   24.5141 H   0  0  0  0  0  0
  -15.5360  -30.3003   23.7574 H   0  0  0  0  0  0
  -15.8675  -28.0772   22.7120 H   0  0  0  0  0  0
  -24.5930  -30.7080   25.7856 H   0  0  0  0  0  0
  -24.8945  -32.2895   26.4926 H   0  0  0  0  0  0
  -25.8118  -30.8941   27.0254 H   0  0  0  0  0  0
  -26.2817  -29.6852   24.1126 H   0  0  0  0  0  0
  -27.4083  -29.7281   25.4517 H   0  0  0  0  0  0
  -27.8655  -30.4398   23.9196 H   0  0  0  0  0  0
  -27.2676  -33.3618   26.2133 H   0  0  0  0  0  0
  -28.3875  -32.6925   25.0355 H   0  0  0  0  0  0
  -28.0731  -31.8427   26.5418 H   0  0  0  0  0  0
  -28.2611  -38.0083   24.7526 H   0  0  0  0  0  0
  -28.1053  -36.2616   24.6285 H   0  0  0  0  0  0
  -27.2291  -37.1444   25.8877 H   0  0  0  0  0  0
  -20.9298  -29.8812   21.6986 H   0  0  0  0  0  0
  -26.0174  -38.2889   24.1463 H   0  0  0  0  0  0
  -29.1064  -16.6161   19.0830 H   0  0  0  0  0  0
  -28.8104  -19.0439   18.7682 H   0  0  0  0  0  0
  -30.7809  -17.3448   23.0070 H   0  0  0  0  0  0
  -29.4533  -23.3612   22.4106 H   0  0  0  0  0  0
  -28.1398  -23.0446   21.3481 H   0  0  0  0  0  0
  -30.2299  -24.4879   19.8384 H   0  0  0  0  0  0
  -29.9787  -25.2669   21.3752 H   0  0  0  0  0  0
  -27.3828  -25.0106   20.7088 H   0  0  0  0  0  0
  -28.0465  -24.9177   19.0869 H   0  0  0  0  0  0
  -28.2255  -21.0853   20.6985 H   0  0  0  0  0  0
  -29.2295  -15.0238   21.8116 H   0  0  0  0  0  0
  1 25  1  0  0  0
  1 30  2  0  0  0
  1 82  1  0  0  0
  2  3  1  0  0  0
  2 25  1  0  0  0
  2 85  1  0  0  0
  2 86  1  0  0  0
  3  4  1  0  0  0
  3 87  1  0  0  0
  3 88  1  0  0  0
  4  5  1  0  0  0
  4 89  1  0  0  0
  4 90  1  0  0  0
  5  6  1  0  0  0
  5 26  1  0  0  0
  5 91  1  0  0  0
  6 25  1  0  0  0
  6 92  1  0  0  0
  6 93  1  0  0  0
  7  8  2  0  0  0
  7 26  1  0  0  0
  7 29  1  0  0  0
  8  9  1  0  0  0
  8 22  1  0  0  0
  9 10  1  0  0  0
  9 27  2  0  0  0
 10 11  2  0  0  0
 10 15  1  0  0  0
 11 12  1  0  0  0
 11 94  1  0  0  0
 12 13  2  0  0  0
 12 95  1  0  0  0
 13 14  1  0  0  0
 13 31  1  0  0  0
 14 15  2  0  0  0
 14 96  1  0  0  0
 15 97  1  0  0  0
 16 17  2  0  0  0
 16 21  1  0  0  0
 16 31  1  0  0  0
 17 18  1  0  0  0
 17 98  1  0  0  0
 18 19  2  0  0  0
 18 99  1  0  0  0
 19 20  1  0  0  0
 19 24  1  0  0  0
 20 21  2  0  0  0
 20100  1  0  0  0
 21 23  1  0  0  0
 22 28  1  0  0  0
 22 32  2  0  0  0
 26 27  1  0  0  0
 28101  1  0  0  0
 28102  1  0  0  0
 29103  1  0  0  0
 29104  1  0  0  0
 33 34  1  0  0  0
 33 66  1  0  0  0
 33 70  2  0  0  0
 34 36  1  0  0  0
 34 59  1  0  0  0
 34105  1  0  0  0
 35 44  2  0  0  0
 35 45  1  0  0  0
 35 68  1  0  0  0
 36 56  1  0  0  0
 36106  1  0  0  0
 37 39  1  0  0  0
 37 47  1  0  0  0
 37 66  1  0  0  0
 37107  1  0  0  0
 38 43  2  0  0  0
 38 46  1  0  0  0
 38 47  1  0  0  0
 39 64  1  0  0  0
 39 67  2  0  0  0
 40 52  1  0  0  0
 40 53  2  0  0  0
 40 58  1  0  0  0
 41108  1  0  0  0
 41109  1  0  0  0
 41110  1  0  0  0
 41 48  1  0  0  0
 42 43  1  0  0  0
 42 66  1  0  0  0
 42111  1  0  0  0
 42112  1  0  0  0
 43 44  1  0  0  0
 44113  1  0  0  0
 45 46  2  0  0  0
 45114  1  0  0  0
 46115  1  0  0  0
 47116  1  0  0  0
 47117  1  0  0  0
 48 56  1  0  0  0
 48 65  1  0  0  0
 48118  1  0  0  0
 49 50  1  0  0  0
 49 53  1  0  0  0
 49 64  1  0  0  0
 49119  1  0  0  0
 50 51  1  0  0  0
 50120  1  0  0  0
 50121  1  0  0  0
 51 52  1  0  0  0
 51122  1  0  0  0
 51123  1  0  0  0
 52124  1  0  0  0
 52125  1  0  0  0
 53 54  1  0  0  0
 54 55  2  0  0  0
 54126  1  0  0  0
 55 57  1  0  0  0
 55127  1  0  0  0
 56 69  2  0  0  0
 57 58  2  0  0  0
 57128  1  0  0  0
 58129  1  0  0  0
 59 60  1  0  0  0
 59 61  1  0  0  0
 59 62  1  0  0  0
 60130  1  0  0  0
 60131  1  0  0  0
 60132  1  0  0  0
 61133  1  0  0  0
 61134  1  0  0  0
 61135  1  0  0  0
 62136  1  0  0  0
 62137  1  0  0  0
 62138  1  0  0  0
 63 65  1  0  0  0
 63139  1  0  0  0
 63140  1  0  0  0
 63141  1  0  0  0
 64142  1  0  0  0
 65143  1  0  0  0
 68 80  1  0  0  0
 71 72  2  0  0  0
 71 74  1  0  0  0
 71144  1  0  0  0
 72 75  1  0  0  0
 72145  1  0  0  0
 73 74  2  0  0  0
 73 76  1  0  0  0
 73146  1  0  0  0
 74 82  1  0  0  0
 75 76  2  0  0  0
 75 81  1  0  0  0
 76 84  1  0  0  0
 77 78  1  0  0  0
 77 81  1  0  0  0
 77 83  2  0  0  0
 78 79  1  0  0  0
 78147  1  0  0  0
 78148  1  0  0  0
 79 80  1  0  0  0
 79149  1  0  0  0
 79150  1  0  0  0
 80151  1  0  0  0
 80152  1  0  0  0
 81153  1  0  0  0
 82154  1  0  0  0
M  ISO  4   1 100  68 101  80 101  82 100
M  END
> <chiral flag>
0

> <version>
0

> <s_m_source_file>
/data/baiqing/PycharmProjects/Reinvent-master-3.2/result/LINK_invent/BTK/process_docking_weight1_custom_product_contain_oxygen_bond_distance_aromatic_linkinvent_7_9_3/rearranged_h_0124.sdf

> <i_m_source_file_index>
22

> <r_mmod_Potential_Energy-OPLS-2005>
-82.2989501953125

> <r_mmod_Stretch_Energy-OPLS-2005>
34.6163787841797

> <r_mmod_Bend_Energy-OPLS-2005>
92.9430160522461

> <r_mmod_Torsional_Energy-OPLS-2005>
292.850646972656

> <r_mmod_Improper_Torsional_Energy-OPLS-2005>
6.68062782287598

> <r_mmod_Van_der_Waal_Energy-OPLS-2005>
156.580932617188

> <r_mmod_Electrostatic_Energy-OPLS-2005>
-434.153839111328

> <r_mmod_Solvation_Energy-OPLS-2005>
-243.029983520508

> <b_mmod_Minimization_Converged-OPLS-2005>
0

> <r_mmod_RMS_Derivative-OPLS-2005>
4.25109195709229

$$$$
22
                    3D
 Structure written by MMmdl.
159167  0  0  1  0            999 V2000
  -30.6965  -14.4607   20.5697 C   0  0  0  0  0  0
  -30.4228  -12.2962   19.4245 C   0  0  0  0  0  0
  -29.4958  -12.5045   18.2086 C   0  0  0  0  0  0
  -28.0156  -12.3696   18.6183 C   0  0  0  0  0  0
  -27.6636  -13.2053   19.8783 C   0  0  2  0  0  0
  -28.7028  -12.9734   20.9987 C   0  0  0  0  0  0
  -25.2593  -13.8160   20.5671 C   0  0  0  0  0  0
  -24.1842  -13.0440   20.9175 C   0  0  0  0  0  0
  -24.6394  -11.6907   20.8739 C   0  0  0  0  0  0
  -23.9058  -10.4295   21.0407 C   0  0  0  0  0  0
  -24.3613   -9.4210   21.9184 C   0  0  0  0  0  0
  -23.6290   -8.2244   22.0754 C   0  0  0  0  0  0
  -22.4272   -8.0282   21.3544 C   0  0  0  0  0  0
  -21.9906   -9.0255   20.4646 C   0  0  0  0  0  0
  -22.7233  -10.2135   20.3056 C   0  0  0  0  0  0
  -21.6852   -6.0736   22.5280 C   0  0  0  0  0  0
  -21.4013   -6.5641   23.8213 C   0  0  0  0  0  0
  -21.3659   -5.6793   24.9176 C   0  0  0  0  0  0
  -21.6044   -4.3056   24.7225 C   0  0  0  0  0  0
  -21.8819   -3.8147   23.4346 C   0  0  0  0  0  0
  -21.9193   -4.6964   22.3403 C   0  0  0  0  0  0
  -22.7866  -13.5243   21.1840 C   0  0  0  0  0  0
  -22.1661   -4.2151   21.0979 F   0  0  0  0  0  0
  -21.5629   -3.4539   25.7738 F   0  0  0  0  0  0
  -30.0379  -13.2758   20.4525 N   0  0  0  0  0  0
  -26.3032  -12.9328   20.3374 N   0  0  0  0  0  0
  -25.9320  -11.6489   20.5771 N   0  0  0  0  0  0
  -22.0506  -12.8237   22.0397 N   0  0  0  0  0  0
  -25.4316  -15.1873   20.4052 N   0  0  0  0  0  0
  -31.8245  -14.6372   20.1011 O   0  0  0  0  0  0
  -21.6638   -6.8878   21.4240 O   0  0  0  0  0  0
  -22.3554  -14.5553   20.6694 O   0  0  0  0  0  0
  -24.6125  -31.8688   23.2109 C   0  0  0  0  0  0
  -25.9024  -32.4829   23.8401 C   0  0  1  0  0  0
  -27.2379  -27.4477   20.1029 C   0  0  0  0  0  0
  -25.5885  -33.8626   24.2334 N   0  0  0  0  0  0
  -23.4012  -30.4905   21.5499 C   0  0  2  0  0  0
  -24.8512  -28.9540   20.1180 C   0  0  0  0  0  0
  -22.7401  -29.4660   22.4994 C   0  0  0  0  0  0
  -18.0271  -28.1381   22.8495 C   0  0  0  0  0  0
  -24.1487  -36.7320   23.2638 C   0  0  0  0  0  0
  -25.9273  -30.8374   21.3632 C   0  0  0  0  0  0
  -26.0073  -29.4691   20.7190 C   0  0  0  0  0  0
  -27.2047  -28.7202   20.7159 C   0  0  0  0  0  0
  -26.0730  -26.9435   19.4930 C   0  0  0  0  0  0
  -24.8769  -27.6879   19.5046 C   0  0  0  0  0  0
  -23.6115  -29.8190   20.1655 C   0  0  0  0  0  0
  -25.4105  -36.3116   24.0342 C   0  0  1  0  0  0
  -20.5861  -28.3663   23.1327 C   0  0  2  0  0  0
  -20.6764  -26.9400   22.5424 C   0  0  0  0  0  0
  -19.5744  -26.6387   21.5218 C   0  0  0  0  0  0
  -18.1921  -26.7930   22.1625 C   0  0  0  0  0  0
  -19.1520  -28.8837   23.2911 C   0  0  0  0  0  0
  -18.9450  -30.1445   23.8919 C   0  0  0  0  0  0
  -17.6453  -30.6587   24.0570 C   0  0  0  0  0  0
  -25.9027  -34.9479   23.5135 C   0  0  0  0  0  0
  -16.5343  -29.9094   23.6324 C   0  0  0  0  0  0
  -16.7261  -28.6512   23.0343 C   0  0  0  0  0  0
  -26.4461  -31.6600   25.0718 C   0  0  0  0  0  0
  -25.3734  -31.3700   26.1473 C   0  0  0  0  0  0
  -27.0287  -30.3047   24.6071 C   0  0  0  0  0  0
  -27.6046  -32.4310   25.7477 C   0  0  0  0  0  0
  -27.5582  -37.1813   24.8464 C   0  0  0  0  0  0
  -21.4131  -29.3033   22.3734 N   0  0  0  0  0  0
  -26.4295  -37.3795   23.9408 N   0  0  0  0  0  0
  -24.6650  -31.0798   22.1003 N   0  0  0  0  0  0
  -23.4180  -28.8204   23.3032 O   0  0  0  0  0  0
  -28.3896  -26.6997   20.0588 O   0  0  0  0  0  0
  -26.5592  -34.8926   22.4698 O   0  0  0  0  0  0
  -23.5321  -32.1433   23.7509 O   0  0  0  0  0  0
  -29.1550  -19.0927   21.5173 C   0  0  0  0  0  0
  -30.9632  -17.5035   20.0934 C   0  0  0  0  0  0
  -30.0581  -19.7273   20.6319 C   0  0  0  0  0  0
  -29.1516  -17.6882   21.6971 C   0  0  0  0  0  0
  -30.9675  -18.9051   19.9153 C   0  0  0  0  0  0
  -30.0610  -16.8699   20.9819 C   0  0  0  0  0  0
  -30.0494  -21.2034   20.4299 C   0  0  0  0  0  0
  -29.1592  -22.1082   20.9000 C   0  0  0  0  0  0
  -29.2994  -23.5576   20.6111 C   0  0  0  0  0  0
  -28.1520  -17.0718   22.6631 C   0  0  0  0  0  0
  -31.9652  -19.4961   18.9296 C   0  0  0  0  0  0
  -28.3053  -24.5264   21.2760 C   0  0  0  0  0  0
  -28.7155  -26.0233   21.2781 C   0  0  0  0  0  0
  -29.9866  -15.4468   21.1558 N   0  0  0  0  0  0
  -30.1759  -24.0036   19.8629 O   0  0  0  0  0  0
  -31.4680  -12.3908   19.1247 H   0  0  0  0  0  0
  -30.3190  -11.2833   19.8166 H   0  0  0  0  0  0
  -29.7332  -11.7822   17.4266 H   0  0  0  0  0  0
  -29.6690  -13.4910   17.7758 H   0  0  0  0  0  0
  -27.8208  -11.3136   18.8088 H   0  0  0  0  0  0
  -27.3678  -12.6515   17.7875 H   0  0  0  0  0  0
  -27.7122  -14.2552   19.5886 H   0  0  0  0  0  0
  -28.6740  -11.9345   21.3312 H   0  0  0  0  0  0
  -28.4622  -13.5636   21.8837 H   0  0  0  0  0  0
  -25.2759   -9.5687   22.4756 H   0  0  0  0  0  0
  -24.0003   -7.4635   22.7471 H   0  0  0  0  0  0
  -21.0839   -8.8772   19.8951 H   0  0  0  0  0  0
  -22.3693  -10.9673   19.6165 H   0  0  0  0  0  0
  -21.2004   -7.6149   23.9717 H   0  0  0  0  0  0
  -21.1482   -6.0523   25.9078 H   0  0  0  0  0  0
  -22.0598   -2.7610   23.2845 H   0  0  0  0  0  0
  -22.4115  -11.9892   22.4779 H   0  0  0  0  0  0
  -21.1126  -13.1266   22.2604 H   0  0  0  0  0  0
  -24.6638  -15.8419   20.5050 H   0  0  0  0  0  0
  -26.2804  -15.6219   20.0661 H   0  0  0  0  0  0
  -26.7099  -32.5555   23.1175 H   0  0  0  0  0  0
  -25.0041  -33.9793   25.0484 H   0  0  0  0  0  0
  -22.6894  -31.3064   21.4086 H   0  0  0  0  0  0
  -23.3743  -35.9660   23.3312 H   0  0  0  0  0  0
  -24.3582  -36.8919   22.2051 H   0  0  0  0  0  0
  -23.7248  -37.6533   23.6641 H   0  0  0  0  0  0
  -26.0331  -31.5991   20.5895 H   0  0  0  0  0  0
  -26.8179  -30.8980   21.9769 H   0  0  0  0  0  0
  -28.0999  -29.1154   21.1759 H   0  0  0  0  0  0
  -26.0933  -25.9744   19.0145 H   0  0  0  0  0  0
  -23.9887  -27.2858   19.0368 H   0  0  0  0  0  0
  -23.7192  -30.5919   19.4036 H   0  0  0  0  0  0
  -22.7370  -29.2361   19.8706 H   0  0  0  0  0  0
  -25.1283  -36.1985   25.0837 H   0  0  0  0  0  0
  -20.9951  -28.3227   24.1448 H   0  0  0  0  0  0
  -20.5668  -26.2268   23.3608 H   0  0  0  0  0  0
  -21.6635  -26.7449   22.1212 H   0  0  0  0  0  0
  -19.6905  -25.6302   21.1238 H   0  0  0  0  0  0
  -19.6690  -27.3208   20.6759 H   0  0  0  0  0  0
  -17.4193  -26.6682   21.4024 H   0  0  0  0  0  0
  -18.0316  -26.0069   22.9017 H   0  0  0  0  0  0
  -19.7926  -30.7255   24.2298 H   0  0  0  0  0  0
  -17.5010  -31.6269   24.5169 H   0  0  0  0  0  0
  -15.5346  -30.3007   23.7637 H   0  0  0  0  0  0
  -15.8659  -28.0844   22.7041 H   0  0  0  0  0  0
  -24.5907  -30.7048   25.7810 H   0  0  0  0  0  0
  -24.8927  -32.2855   26.4929 H   0  0  0  0  0  0
  -25.8093  -30.8864   27.0223 H   0  0  0  0  0  0
  -26.2823  -29.6818   24.1125 H   0  0  0  0  0  0
  -27.4074  -29.7267   25.4511 H   0  0  0  0  0  0
  -27.8649  -30.4378   23.9203 H   0  0  0  0  0  0
  -27.2671  -33.3594   26.2094 H   0  0  0  0  0  0
  -28.3834  -32.6889   25.0290 H   0  0  0  0  0  0
  -28.0736  -31.8408   26.5359 H   0  0  0  0  0  0
  -28.2607  -38.0103   24.7500 H   0  0  0  0  0  0
  -28.1071  -36.2635   24.6300 H   0  0  0  0  0  0
  -27.2300  -37.1476   25.8868 H   0  0  0  0  0  0
  -20.9285  -29.8752   21.6958 H   0  0  0  0  0  0
  -26.0189  -38.2877   24.1401 H   0  0  0  0  0  0
  -28.4482  -19.6866   22.0776 H   0  0  0  0  0  0
  -31.6647  -16.9263   19.5118 H   0  0  0  0  0  0
  -30.8649  -21.5967   19.8412 H   0  0  0  0  0  0
  -28.3155  -21.8061   21.5012 H   0  0  0  0  0  0
  -27.5580  -17.8344   23.1674 H   0  0  0  0  0  0
  -28.6662  -16.4931   23.4309 H   0  0  0  0  0  0
  -27.4634  -16.4117   22.1356 H   0  0  0  0  0  0
  -32.5497  -18.7224   18.4308 H   0  0  0  0  0  0
  -32.6657  -20.1561   19.4421 H   0  0  0  0  0  0
  -31.4514  -20.0662   18.1548 H   0  0  0  0  0  0
  -28.2059  -24.2007   22.3115 H   0  0  0  0  0  0
  -27.3220  -24.4028   20.8235 H   0  0  0  0  0  0
  -29.7885  -26.1216   21.4473 H   0  0  0  0  0  0
  -28.2475  -26.5162   22.1327 H   0  0  0  0  0  0
  -29.1578  -15.1204   21.6267 H   0  0  0  0  0  0
  1 25  1  0  0  0
  1 30  2  0  0  0
  1 84  1  0  0  0
  2  3  1  0  0  0
  2 25  1  0  0  0
  2 86  1  0  0  0
  2 87  1  0  0  0
  3  4  1  0  0  0
  3 88  1  0  0  0
  3 89  1  0  0  0
  4  5  1  0  0  0
  4 90  1  0  0  0
  4 91  1  0  0  0
  5  6  1  0  0  0
  5 26  1  0  0  0
  5 92  1  0  0  0
  6 25  1  0  0  0
  6 93  1  0  0  0
  6 94  1  0  0  0
  7  8  2  0  0  0
  7 26  1  0  0  0
  7 29  1  0  0  0
  8  9  1  0  0  0
  8 22  1  0  0  0
  9 10  1  0  0  0
  9 27  2  0  0  0
 10 11  2  0  0  0
 10 15  1  0  0  0
 11 12  1  0  0  0
 11 95  1  0  0  0
 12 13  2  0  0  0
 12 96  1  0  0  0
 13 14  1  0  0  0
 13 31  1  0  0  0
 14 15  2  0  0  0
 14 97  1  0  0  0
 15 98  1  0  0  0
 16 17  2  0  0  0
 16 21  1  0  0  0
 16 31  1  0  0  0
 17 18  1  0  0  0
 17 99  1  0  0  0
 18 19  2  0  0  0
 18100  1  0  0  0
 19 20  1  0  0  0
 19 24  1  0  0  0
 20 21  2  0  0  0
 20101  1  0  0  0
 21 23  1  0  0  0
 22 28  1  0  0  0
 22 32  2  0  0  0
 26 27  1  0  0  0
 28102  1  0  0  0
 28103  1  0  0  0
 29104  1  0  0  0
 29105  1  0  0  0
 33 34  1  0  0  0
 33 66  1  0  0  0
 33 70  2  0  0  0
 34 36  1  0  0  0
 34 59  1  0  0  0
 34106  1  0  0  0
 35 44  2  0  0  0
 35 45  1  0  0  0
 35 68  1  0  0  0
 36 56  1  0  0  0
 36107  1  0  0  0
 37 39  1  0  0  0
 37 47  1  0  0  0
 37 66  1  0  0  0
 37108  1  0  0  0
 38 43  2  0  0  0
 38 46  1  0  0  0
 38 47  1  0  0  0
 39 64  1  0  0  0
 39 67  2  0  0  0
 40 52  1  0  0  0
 40 53  2  0  0  0
 40 58  1  0  0  0
 41109  1  0  0  0
 41110  1  0  0  0
 41111  1  0  0  0
 41 48  1  0  0  0
 42 43  1  0  0  0
 42 66  1  0  0  0
 42112  1  0  0  0
 42113  1  0  0  0
 43 44  1  0  0  0
 44114  1  0  0  0
 45 46  2  0  0  0
 45115  1  0  0  0
 46116  1  0  0  0
 47117  1  0  0  0
 47118  1  0  0  0
 48 56  1  0  0  0
 48 65  1  0  0  0
 48119  1  0  0  0
 49 50  1  0  0  0
 49 53  1  0  0  0
 49 64  1  0  0  0
 49120  1  0  0  0
 50 51  1  0  0  0
 50121  1  0  0  0
 50122  1  0  0  0
 51 52  1  0  0  0
 51123  1  0  0  0
 51124  1  0  0  0
 52125  1  0  0  0
 52126  1  0  0  0
 53 54  1  0  0  0
 54 55  2  0  0  0
 54127  1  0  0  0
 55 57  1  0  0  0
 55128  1  0  0  0
 56 69  2  0  0  0
 57 58  2  0  0  0
 57129  1  0  0  0
 58130  1  0  0  0
 59 60  1  0  0  0
 59 61  1  0  0  0
 59 62  1  0  0  0
 60131  1  0  0  0
 60132  1  0  0  0
 60133  1  0  0  0
 61134  1  0  0  0
 61135  1  0  0  0
 61136  1  0  0  0
 62137  1  0  0  0
 62138  1  0  0  0
 62139  1  0  0  0
 63 65  1  0  0  0
 63140  1  0  0  0
 63141  1  0  0  0
 63142  1  0  0  0
 64143  1  0  0  0
 65144  1  0  0  0
 68 83  1  0  0  0
 71 73  2  0  0  0
 71 74  1  0  0  0
 71145  1  0  0  0
 72 75  2  0  0  0
 72 76  1  0  0  0
 72146  1  0  0  0
 73 75  1  0  0  0
 73 77  1  0  0  0
 74 76  2  0  0  0
 74 80  1  0  0  0
 75 81  1  0  0  0
 76 84  1  0  0  0
 77 78  2  0  0  0
 77147  1  0  0  0
 78 79  1  0  0  0
 78148  1  0  0  0
 79 82  1  0  0  0
 79 85  2  0  0  0
 80149  1  0  0  0
 80150  1  0  0  0
 80151  1  0  0  0
 81152  1  0  0  0
 81153  1  0  0  0
 81154  1  0  0  0
 82 83  1  0  0  0
 82155  1  0  0  0
 82156  1  0  0  0
 83157  1  0  0  0
 83158  1  0  0  0
 84159  1  0  0  0
M  ISO  4   1 100  68 101  83 101  84 100
M  END
> <chiral flag>
0

> <version>
0

> <s_m_source_file>
/data/baiqing/PycharmProjects/Reinvent-master-3.2/result/LINK_invent/BTK/process_docking_weight1_custom_product_contain_oxygen_bond_distance_aromatic_linkinvent_7_9_3/rearranged_h_0124.sdf

> <i_m_source_file_index>
23

> <r_mmod_Potential_Energy-OPLS-2005>
-100.49821472168

> <r_mmod_Stretch_Energy-OPLS-2005>
38.4925422668457

> <r_mmod_Bend_Energy-OPLS-2005>
97.7496719360352

> <r_mmod_Torsional_Energy-OPLS-2005>
227.102127075195

> <r_mmod_Improper_Torsional_Energy-OPLS-2005>
3.24468803405762

> <r_mmod_Van_der_Waal_Energy-OPLS-2005>
161.027893066406

> <r_mmod_Electrostatic_Energy-OPLS-2005>
-418.594268798828

> <r_mmod_Solvation_Energy-OPLS-2005>
-220.0595703125

> <b_mmod_Minimization_Converged-OPLS-2005>
0

> <r_mmod_RMS_Derivative-OPLS-2005>
0.333418726921082

$$$$
23
                    3D
 Structure written by MMmdl.
156164  0  0  1  0            999 V2000
  -30.6144  -14.6279   20.5005 C   0  0  0  0  0  0
  -30.4431  -12.3874   19.4451 C   0  0  0  0  0  0
  -29.5095  -12.5121   18.2199 C   0  0  0  0  0  0
  -28.0320  -12.3464   18.6322 C   0  0  0  0  0  0
  -27.6534  -13.2136   19.8628 C   0  0  2  0  0  0
  -28.6990  -13.0560   20.9899 C   0  0  0  0  0  0
  -25.2554  -13.8146   20.5675 C   0  0  0  0  0  0
  -24.1819  -13.0416   20.9159 C   0  0  0  0  0  0
  -24.6382  -11.6886   20.8711 C   0  0  0  0  0  0
  -23.9044  -10.4283   21.0391 C   0  0  0  0  0  0
  -24.3604   -9.4207   21.9172 C   0  0  0  0  0  0
  -23.6284   -8.2238   22.0749 C   0  0  0  0  0  0
  -22.4262   -8.0276   21.3544 C   0  0  0  0  0  0
  -21.9896   -9.0247   20.4648 C   0  0  0  0  0  0
  -22.7215  -10.2123   20.3049 C   0  0  0  0  0  0
  -21.6850   -6.0723   22.5273 C   0  0  0  0  0  0
  -21.4013   -6.5623   23.8207 C   0  0  0  0  0  0
  -21.3663   -5.6784   24.9174 C   0  0  0  0  0  0
  -21.6042   -4.3047   24.7225 C   0  0  0  0  0  0
  -21.8822   -3.8138   23.4347 C   0  0  0  0  0  0
  -21.9197   -4.6952   22.3402 C   0  0  0  0  0  0
  -22.7845  -13.5230   21.1833 C   0  0  0  0  0  0
  -22.1667   -4.2139   21.0977 F   0  0  0  0  0  0
  -21.5632   -3.4528   25.7740 F   0  0  0  0  0  0
  -30.0154  -13.3995   20.4276 N   0  0  0  0  0  0
  -26.2986  -12.9325   20.3321 N   0  0  0  0  0  0
  -25.9311  -11.6477   20.5732 N   0  0  0  0  0  0
  -22.0477  -12.8244   22.0398 N   0  0  0  0  0  0
  -25.4202  -15.1870   20.4135 N   0  0  0  0  0  0
  -31.7827  -14.8028   20.1425 O   0  0  0  0  0  0
  -21.6633   -6.8865   21.4235 O   0  0  0  0  0  0
  -22.3537  -14.5536   20.6682 O   0  0  0  0  0  0
  -24.6253  -31.8604   23.2034 C   0  0  0  0  0  0
  -25.9106  -32.4780   23.8363 C   0  0  1  0  0  0
  -27.2242  -27.3284   20.1105 C   0  0  0  0  0  0
  -25.5925  -33.8582   24.2285 N   0  0  0  0  0  0
  -23.4185  -30.4850   21.5465 C   0  0  2  0  0  0
  -24.8643  -28.9450   20.1113 C   0  0  0  0  0  0
  -22.7475  -29.4624   22.4942 C   0  0  0  0  0  0
  -18.0284  -28.1389   22.8484 C   0  0  0  0  0  0
  -24.1482  -36.7281   23.2632 C   0  0  0  0  0  0
  -25.9600  -30.7943   21.3745 C   0  0  0  0  0  0
  -26.0344  -29.4244   20.7133 C   0  0  0  0  0  0
  -27.2179  -28.6284   20.7026 C   0  0  0  0  0  0
  -26.0262  -26.9000   19.4903 C   0  0  0  0  0  0
  -24.8618  -27.6870   19.4936 C   0  0  0  0  0  0
  -23.6326  -29.8222   20.1602 C   0  0  0  0  0  0
  -25.4106  -36.3076   24.0328 C   0  0  1  0  0  0
  -20.5887  -28.3679   23.1288 C   0  0  2  0  0  0
  -20.6767  -26.9400   22.5420 C   0  0  0  0  0  0
  -19.5752  -26.6386   21.5206 C   0  0  0  0  0  0
  -18.1923  -26.7940   22.1607 C   0  0  0  0  0  0
  -19.1539  -28.8853   23.2882 C   0  0  0  0  0  0
  -18.9471  -30.1456   23.8903 C   0  0  0  0  0  0
  -17.6468  -30.6588   24.0562 C   0  0  0  0  0  0
  -25.9051  -34.9449   23.5102 C   0  0  0  0  0  0
  -16.5357  -29.9084   23.6327 C   0  0  0  0  0  0
  -16.7271  -28.6499   23.0353 C   0  0  0  0  0  0
  -26.4480  -31.6600   25.0741 C   0  0  0  0  0  0
  -25.3718  -31.3793   26.1486 C   0  0  0  0  0  0
  -27.0290  -30.3005   24.6221 C   0  0  0  0  0  0
  -27.6049  -32.4332   25.7499 C   0  0  0  0  0  0
  -27.5590  -37.1775   24.8437 C   0  0  0  0  0  0
  -21.4191  -29.3030   22.3684 N   0  0  0  0  0  0
  -26.4273  -37.3784   23.9425 N   0  0  0  0  0  0
  -24.6865  -31.0634   22.0978 N   0  0  0  0  0  0
  -23.4202  -28.8159   23.3016 O   0  0  0  0  0  0
  -28.3454  -26.4836   20.1592 O   0  0  0  0  0  0
  -26.5613  -34.8914   22.4664 O   0  0  0  0  0  0
  -23.5420  -32.1397   23.7369 O   0  0  0  0  0  0
  -31.0611  -17.8623   20.8285 C   0  0  0  0  0  0
  -28.6727  -19.2579   20.3937 C   0  0  0  0  0  0
  -31.0699  -19.2997   20.7960 C   0  0  0  0  0  0
  -29.8745  -17.1058   20.6728 C   0  0  0  0  0  0
  -29.8514  -20.0380   20.5587 C   0  0  0  0  0  0
  -28.6846  -17.8375   20.4597 C   0  0  0  0  0  0
  -32.3864  -19.9981   21.0257 C   0  0  0  0  0  0
  -28.8872  -22.4518   20.2347 C   0  0  0  0  0  0
  -33.5943  -19.1591   21.4367 C   0  0  0  0  0  0
  -29.2481  -23.9847   20.3640 C   0  0  0  0  0  0
  -28.1188  -25.0323   19.9753 C   0  0  0  0  0  0
  -29.8402  -21.5122   20.5340 N   0  0  0  0  0  0
  -29.7700  -15.6582   20.7946 N   0  0  0  0  0  0
  -32.5477  -21.2187   20.9221 O   0  0  0  0  0  0
  -27.7569  -22.1398   19.8559 O   0  0  0  0  0  0
  -27.5222  -17.1549   20.3207 F   0  0  0  0  0  0
  -31.4844  -12.5193   19.1424 H   0  0  0  0  0  0
  -30.3803  -11.3891   19.8800 H   0  0  0  0  0  0
  -29.7739  -11.7697   17.4662 H   0  0  0  0  0  0
  -29.6521  -13.4882   17.7518 H   0  0  0  0  0  0
  -27.8724  -11.2923   18.8629 H   0  0  0  0  0  0
  -27.3763  -12.5781   17.7918 H   0  0  0  0  0  0
  -27.6703  -14.2499   19.5242 H   0  0  0  0  0  0
  -28.7085  -12.0305   21.3628 H   0  0  0  0  0  0
  -28.4482  -13.6798   21.8490 H   0  0  0  0  0  0
  -25.2744   -9.5694   22.4748 H   0  0  0  0  0  0
  -23.9999   -7.4632   22.7466 H   0  0  0  0  0  0
  -21.0825   -8.8759   19.8960 H   0  0  0  0  0  0
  -22.3662  -10.9663   19.6164 H   0  0  0  0  0  0
  -21.1996   -7.6132   23.9706 H   0  0  0  0  0  0
  -21.1479   -6.0512   25.9077 H   0  0  0  0  0  0
  -22.0597   -2.7602   23.2846 H   0  0  0  0  0  0
  -22.4068  -11.9919   22.4831 H   0  0  0  0  0  0
  -21.1093  -13.1295   22.2563 H   0  0  0  0  0  0
  -24.6487  -15.8322   20.5369 H   0  0  0  0  0  0
  -26.2822  -15.6624   20.1663 H   0  0  0  0  0  0
  -26.7177  -32.5437   23.1113 H   0  0  0  0  0  0
  -25.0076  -33.9741   25.0434 H   0  0  0  0  0  0
  -22.7108  -31.3042   21.4040 H   0  0  0  0  0  0
  -23.3760  -35.9592   23.3253 H   0  0  0  0  0  0
  -24.3591  -36.8951   22.2059 H   0  0  0  0  0  0
  -23.7215  -37.6463   23.6681 H   0  0  0  0  0  0
  -26.0952  -31.5612   20.6105 H   0  0  0  0  0  0
  -26.8388  -30.8394   22.0066 H   0  0  0  0  0  0
  -28.1166  -28.9914   21.1817 H   0  0  0  0  0  0
  -25.9514  -25.9374   19.0078 H   0  0  0  0  0  0
  -23.9628  -27.3110   19.0247 H   0  0  0  0  0  0
  -23.7505  -30.5966   19.4012 H   0  0  0  0  0  0
  -22.7545  -29.2491   19.8593 H   0  0  0  0  0  0
  -25.1277  -36.1919   25.0820 H   0  0  0  0  0  0
  -20.9990  -28.3253   24.1405 H   0  0  0  0  0  0
  -20.5648  -26.2283   23.3619 H   0  0  0  0  0  0
  -21.6642  -26.7414   22.1236 H   0  0  0  0  0  0
  -19.6901  -25.6296   21.1234 H   0  0  0  0  0  0
  -19.6706  -27.3193   20.6737 H   0  0  0  0  0  0
  -17.4210  -26.6721   21.3986 H   0  0  0  0  0  0
  -18.0286  -26.0077   22.8993 H   0  0  0  0  0  0
  -19.7949  -30.7259   24.2288 H   0  0  0  0  0  0
  -17.5025  -31.6268   24.5161 H   0  0  0  0  0  0
  -15.5359  -30.2982   23.7658 H   0  0  0  0  0  0
  -15.8670  -28.0807   22.7084 H   0  0  0  0  0  0
  -24.5873  -30.7148   25.7849 H   0  0  0  0  0  0
  -24.8927  -32.2991   26.4857 H   0  0  0  0  0  0
  -25.8053  -30.9027   27.0290 H   0  0  0  0  0  0
  -26.2857  -29.6797   24.1206 H   0  0  0  0  0  0
  -27.3910  -29.7242   25.4746 H   0  0  0  0  0  0
  -27.8764  -30.4256   23.9476 H   0  0  0  0  0  0
  -27.2654  -33.3625   26.2084 H   0  0  0  0  0  0
  -28.3839  -32.6920   25.0315 H   0  0  0  0  0  0
  -28.0725  -31.8456   26.5414 H   0  0  0  0  0  0
  -28.2550  -38.0125   24.7564 H   0  0  0  0  0  0
  -28.1146  -36.2669   24.6137 H   0  0  0  0  0  0
  -27.2337  -37.1285   25.8842 H   0  0  0  0  0  0
  -20.9370  -29.8758   21.6902 H   0  0  0  0  0  0
  -26.0147  -38.2838   24.1505 H   0  0  0  0  0  0
  -31.9707  -17.3086   21.0030 H   0  0  0  0  0  0
  -27.7171  -19.7314   20.2341 H   0  0  0  0  0  0
  -33.3597  -18.5515   22.3114 H   0  0  0  0  0  0
  -34.4361  -19.8029   21.6891 H   0  0  0  0  0  0
  -33.9005  -18.5070   20.6189 H   0  0  0  0  0  0
  -30.1299  -24.1719   19.7520 H   0  0  0  0  0  0
  -29.5481  -24.1649   21.3962 H   0  0  0  0  0  0
  -27.2309  -24.7569   20.5470 H   0  0  0  0  0  0
  -27.8777  -24.8666   18.9249 H   0  0  0  0  0  0
  -30.7405  -21.9204   20.7699 H   0  0  0  0  0  0
  -28.8254  -15.3461   20.9642 H   0  0  0  0  0  0
  1 25  1  0  0  0
  1 30  2  0  0  0
  1 83  1  0  0  0
  2  3  1  0  0  0
  2 25  1  0  0  0
  2 87  1  0  0  0
  2 88  1  0  0  0
  3  4  1  0  0  0
  3 89  1  0  0  0
  3 90  1  0  0  0
  4  5  1  0  0  0
  4 91  1  0  0  0
  4 92  1  0  0  0
  5  6  1  0  0  0
  5 26  1  0  0  0
  5 93  1  0  0  0
  6 25  1  0  0  0
  6 94  1  0  0  0
  6 95  1  0  0  0
  7  8  2  0  0  0
  7 26  1  0  0  0
  7 29  1  0  0  0
  8  9  1  0  0  0
  8 22  1  0  0  0
  9 10  1  0  0  0
  9 27  2  0  0  0
 10 11  2  0  0  0
 10 15  1  0  0  0
 11 12  1  0  0  0
 11 96  1  0  0  0
 12 13  2  0  0  0
 12 97  1  0  0  0
 13 14  1  0  0  0
 13 31  1  0  0  0
 14 15  2  0  0  0
 14 98  1  0  0  0
 15 99  1  0  0  0
 16 17  2  0  0  0
 16 21  1  0  0  0
 16 31  1  0  0  0
 17 18  1  0  0  0
 17100  1  0  0  0
 18 19  2  0  0  0
 18101  1  0  0  0
 19 20  1  0  0  0
 19 24  1  0  0  0
 20 21  2  0  0  0
 20102  1  0  0  0
 21 23  1  0  0  0
 22 28  1  0  0  0
 22 32  2  0  0  0
 26 27  1  0  0  0
 28103  1  0  0  0
 28104  1  0  0  0
 29105  1  0  0  0
 29106  1  0  0  0
 33 34  1  0  0  0
 33 66  1  0  0  0
 33 70  2  0  0  0
 34 36  1  0  0  0
 34 59  1  0  0  0
 34107  1  0  0  0
 35 44  2  0  0  0
 35 45  1  0  0  0
 35 68  1  0  0  0
 36 56  1  0  0  0
 36108  1  0  0  0
 37 39  1  0  0  0
 37 47  1  0  0  0
 37 66  1  0  0  0
 37109  1  0  0  0
 38 43  2  0  0  0
 38 46  1  0  0  0
 38 47  1  0  0  0
 39 64  1  0  0  0
 39 67  2  0  0  0
 40 52  1  0  0  0
 40 53  2  0  0  0
 40 58  1  0  0  0
 41110  1  0  0  0
 41111  1  0  0  0
 41112  1  0  0  0
 41 48  1  0  0  0
 42 43  1  0  0  0
 42 66  1  0  0  0
 42113  1  0  0  0
 42114  1  0  0  0
 43 44  1  0  0  0
 44115  1  0  0  0
 45 46  2  0  0  0
 45116  1  0  0  0
 46117  1  0  0  0
 47118  1  0  0  0
 47119  1  0  0  0
 48 56  1  0  0  0
 48 65  1  0  0  0
 48120  1  0  0  0
 49 50  1  0  0  0
 49 53  1  0  0  0
 49 64  1  0  0  0
 49121  1  0  0  0
 50 51  1  0  0  0
 50122  1  0  0  0
 50123  1  0  0  0
 51 52  1  0  0  0
 51124  1  0  0  0
 51125  1  0  0  0
 52126  1  0  0  0
 52127  1  0  0  0
 53 54  1  0  0  0
 54 55  2  0  0  0
 54128  1  0  0  0
 55 57  1  0  0  0
 55129  1  0  0  0
 56 69  2  0  0  0
 57 58  2  0  0  0
 57130  1  0  0  0
 58131  1  0  0  0
 59 60  1  0  0  0
 59 61  1  0  0  0
 59 62  1  0  0  0
 60132  1  0  0  0
 60133  1  0  0  0
 60134  1  0  0  0
 61135  1  0  0  0
 61136  1  0  0  0
 61137  1  0  0  0
 62138  1  0  0  0
 62139  1  0  0  0
 62140  1  0  0  0
 63 65  1  0  0  0
 63141  1  0  0  0
 63142  1  0  0  0
 63143  1  0  0  0
 64144  1  0  0  0
 65145  1  0  0  0
 68 81  1  0  0  0
 71 73  2  0  0  0
 71 74  1  0  0  0
 71146  1  0  0  0
 72 75  2  0  0  0
 72 76  1  0  0  0
 72147  1  0  0  0
 73 75  1  0  0  0
 73 77  1  0  0  0
 74 76  2  0  0  0
 74 83  1  0  0  0
 75 82  1  0  0  0
 76 86  1  0  0  0
 77 79  1  0  0  0
 77 84  2  0  0  0
 78 80  1  0  0  0
 78 82  1  0  0  0
 78 85  2  0  0  0
 79148  1  0  0  0
 79149  1  0  0  0
 79150  1  0  0  0
 80 81  1  0  0  0
 80151  1  0  0  0
 80152  1  0  0  0
 81153  1  0  0  0
 81154  1  0  0  0
 82155  1  0  0  0
 83156  1  0  0  0
M  ISO  4   1 100  68 101  81 101  83 100
M  END
> <chiral flag>
0

> <version>
0

> <s_m_source_file>
/data/baiqing/PycharmProjects/Reinvent-master-3.2/result/LINK_invent/BTK/process_docking_weight1_custom_product_contain_oxygen_bond_distance_aromatic_linkinvent_7_9_3/rearranged_h_0124.sdf

> <i_m_source_file_index>
24

> <r_mmod_Potential_Energy-OPLS-2005>
-8.2304048538208

> <r_mmod_Stretch_Energy-OPLS-2005>
79.5534591674805

> <r_mmod_Bend_Energy-OPLS-2005>
140.279632568359

> <r_mmod_Torsional_Energy-OPLS-2005>
240.101211547852

> <r_mmod_Improper_Torsional_Energy-OPLS-2005>
5.18853425979614

> <r_mmod_Van_der_Waal_Energy-OPLS-2005>
163.238632202148

> <r_mmod_Electrostatic_Energy-OPLS-2005>
-465.424133300781

> <r_mmod_Solvation_Energy-OPLS-2005>
-217.047866821289

> <b_mmod_Minimization_Converged-OPLS-2005>
0

> <r_mmod_RMS_Derivative-OPLS-2005>
1.85440993309021

$$$$
24
                    3D
 Structure written by MMmdl.
151159  0  0  1  0            999 V2000
  -30.6316  -14.6948   20.4922 C   0  0  0  0  0  0
  -30.4365  -12.4272   19.4783 C   0  0  0  0  0  0
  -29.5150  -12.5271   18.2399 C   0  0  0  0  0  0
  -28.0358  -12.3551   18.6401 C   0  0  0  0  0  0
  -27.6510  -13.2234   19.8672 C   0  0  2  0  0  0
  -28.6925  -13.0744   20.9959 C   0  0  0  0  0  0
  -25.2540  -13.8186   20.5710 C   0  0  0  0  0  0
  -24.1811  -13.0434   20.9187 C   0  0  0  0  0  0
  -24.6392  -11.6911   20.8732 C   0  0  0  0  0  0
  -23.9067  -10.4288   21.0398 C   0  0  0  0  0  0
  -24.3616   -9.4204   21.9173 C   0  0  0  0  0  0
  -23.6286   -8.2245   22.0751 C   0  0  0  0  0  0
  -22.4262   -8.0289   21.3552 C   0  0  0  0  0  0
  -21.9903   -9.0259   20.4647 C   0  0  0  0  0  0
  -22.7240  -10.2132   20.3049 C   0  0  0  0  0  0
  -21.6850   -6.0737   22.5281 C   0  0  0  0  0  0
  -21.4014   -6.5640   23.8216 C   0  0  0  0  0  0
  -21.3659   -5.6795   24.9179 C   0  0  0  0  0  0
  -21.6043   -4.3058   24.7225 C   0  0  0  0  0  0
  -21.8817   -3.8149   23.4345 C   0  0  0  0  0  0
  -21.9191   -4.6964   22.3404 C   0  0  0  0  0  0
  -22.7833  -13.5223   21.1861 C   0  0  0  0  0  0
  -22.1663   -4.2152   21.0981 F   0  0  0  0  0  0
  -21.5628   -3.4542   25.7738 F   0  0  0  0  0  0
  -30.0045  -13.4622   20.4497 N   0  0  0  0  0  0
  -26.2975  -12.9379   20.3332 N   0  0  0  0  0  0
  -25.9320  -11.6521   20.5735 N   0  0  0  0  0  0
  -22.0484  -12.8207   22.0421 N   0  0  0  0  0  0
  -25.4243  -15.1911   20.4176 N   0  0  0  0  0  0
  -31.7823  -14.8121   20.0554 O   0  0  0  0  0  0
  -21.6635   -6.8879   21.4243 O   0  0  0  0  0  0
  -22.3511  -14.5530   20.6717 O   0  0  0  0  0  0
  -24.6286  -31.8582   23.1993 C   0  0  0  0  0  0
  -25.9125  -32.4768   23.8333 C   0  0  1  0  0  0
  -27.2281  -27.2919   20.1088 C   0  0  0  0  0  0
  -25.5929  -33.8569   24.2260 N   0  0  0  0  0  0
  -23.4235  -30.4812   21.5434 C   0  0  2  0  0  0
  -24.8695  -28.9335   20.1099 C   0  0  0  0  0  0
  -22.7488  -29.4617   22.4928 C   0  0  0  0  0  0
  -18.0291  -28.1385   22.8493 C   0  0  0  0  0  0
  -24.1492  -36.7297   23.2636 C   0  0  0  0  0  0
  -25.9671  -30.7791   21.3750 C   0  0  0  0  0  0
  -26.0389  -29.4035   20.7182 C   0  0  0  0  0  0
  -27.2152  -28.5922   20.7130 C   0  0  0  0  0  0
  -26.0299  -26.8866   19.4723 C   0  0  0  0  0  0
  -24.8685  -27.6812   19.4807 C   0  0  0  0  0  0
  -23.6386  -29.8156   20.1592 C   0  0  0  0  0  0
  -25.4117  -36.3077   24.0322 C   0  0  1  0  0  0
  -20.5892  -28.3695   23.1280 C   0  0  2  0  0  0
  -20.6782  -26.9416   22.5415 C   0  0  0  0  0  0
  -19.5751  -26.6382   21.5223 C   0  0  0  0  0  0
  -18.1931  -26.7927   22.1636 C   0  0  0  0  0  0
  -19.1544  -28.8858   23.2880 C   0  0  0  0  0  0
  -18.9462  -30.1458   23.8898 C   0  0  0  0  0  0
  -17.6461  -30.6589   24.0562 C   0  0  0  0  0  0
  -25.9056  -34.9448   23.5094 C   0  0  0  0  0  0
  -16.5354  -29.9089   23.6327 C   0  0  0  0  0  0
  -16.7278  -28.6503   23.0354 C   0  0  0  0  0  0
  -26.4495  -31.6578   25.0711 C   0  0  0  0  0  0
  -25.3718  -31.3747   26.1435 C   0  0  0  0  0  0
  -27.0321  -30.2988   24.6182 C   0  0  0  0  0  0
  -27.6053  -32.4305   25.7490 C   0  0  0  0  0  0
  -27.5581  -37.1802   24.8459 C   0  0  0  0  0  0
  -21.4198  -29.3047   22.3672 N   0  0  0  0  0  0
  -26.4292  -37.3773   23.9404 N   0  0  0  0  0  0
  -24.6922  -31.0570   22.0958 N   0  0  0  0  0  0
  -23.4199  -28.8158   23.3017 O   0  0  0  0  0  0
  -28.3560  -26.4460   20.1834 O   0  0  0  0  0  0
  -26.5634  -34.8921   22.4667 O   0  0  0  0  0  0
  -23.5442  -32.1396   23.7304 O   0  0  0  0  0  0
  -29.6539  -18.6585   20.7674 C   0  0  0  0  0  0
  -29.9793  -19.7688   18.6396 C   0  0  0  0  0  0
  -30.2594  -17.3353   18.8280 C   0  0  0  0  0  0
  -29.6616  -19.8961   20.0095 C   0  0  0  0  0  0
  -29.9524  -17.3464   20.2085 C   0  0  0  0  0  0
  -30.2749  -18.5177   18.0633 C   0  0  0  0  0  0
  -29.3463  -21.2935   20.5722 C   0  0  0  0  0  0
  -29.1192  -22.4799   19.8940 C   0  0  0  0  0  0
  -29.8553  -16.0040   20.9905 C   0  0  0  0  0  0
  -28.8679  -23.8667   20.5007 C   0  0  0  0  0  0
  -28.3766  -25.0734   19.5888 C   0  0  0  0  0  0
  -29.1654  -15.9931   22.0530 N   0  0  0  0  0  0
  -29.0384  -24.0768   21.7061 O   0  0  0  0  0  0
  -30.5708  -18.4491   16.7432 F   0  0  0  0  0  0
  -31.4798  -12.5416   19.1803 H   0  0  0  0  0  0
  -30.3736  -11.4338   19.9254 H   0  0  0  0  0  0
  -29.7919  -11.7758   17.4989 H   0  0  0  0  0  0
  -29.6523  -13.4974   17.7598 H   0  0  0  0  0  0
  -27.8789  -11.3006   18.8717 H   0  0  0  0  0  0
  -27.3847  -12.5824   17.7954 H   0  0  0  0  0  0
  -27.6688  -14.2608   19.5340 H   0  0  0  0  0  0
  -28.7227  -12.0398   21.3408 H   0  0  0  0  0  0
  -28.4069  -13.6453   21.8755 H   0  0  0  0  0  0
  -25.2764   -9.5681   22.4741 H   0  0  0  0  0  0
  -24.0004   -7.4629   22.7459 H   0  0  0  0  0  0
  -21.0843   -8.8774   19.8941 H   0  0  0  0  0  0
  -22.3702  -10.9668   19.6154 H   0  0  0  0  0  0
  -21.2008   -7.6147   23.9724 H   0  0  0  0  0  0
  -21.1486   -6.0523   25.9082 H   0  0  0  0  0  0
  -22.0594   -2.7610   23.2847 H   0  0  0  0  0  0
  -22.4110  -11.9871   22.4809 H   0  0  0  0  0  0
  -21.1105  -13.1230   22.2634 H   0  0  0  0  0  0
  -24.6665  -15.8516   20.5529 H   0  0  0  0  0  0
  -26.2976  -15.6352   20.1641 H   0  0  0  0  0  0
  -26.7197  -32.5427   23.1082 H   0  0  0  0  0  0
  -25.0048  -33.9707   25.0387 H   0  0  0  0  0  0
  -22.7184  -31.3021   21.3990 H   0  0  0  0  0  0
  -23.3752  -35.9629   23.3281 H   0  0  0  0  0  0
  -24.3587  -36.8940   22.2054 H   0  0  0  0  0  0
  -23.7246  -37.6492   23.6677 H   0  0  0  0  0  0
  -26.1011  -31.5388   20.6038 H   0  0  0  0  0  0
  -26.8470  -30.8295   22.0045 H   0  0  0  0  0  0
  -28.1100  -28.9493   21.2037 H   0  0  0  0  0  0
  -25.9297  -25.9425   18.9657 H   0  0  0  0  0  0
  -23.9720  -27.3158   18.9984 H   0  0  0  0  0  0
  -23.7586  -30.5914   19.4023 H   0  0  0  0  0  0
  -22.7582  -29.2455   19.8572 H   0  0  0  0  0  0
  -25.1296  -36.1926   25.0815 H   0  0  0  0  0  0
  -20.9987  -28.3274   24.1399 H   0  0  0  0  0  0
  -20.5697  -26.2303   23.3616 H   0  0  0  0  0  0
  -21.6645  -26.7449   22.1196 H   0  0  0  0  0  0
  -19.6911  -25.6292   21.1253 H   0  0  0  0  0  0
  -19.6682  -27.3194   20.6753 H   0  0  0  0  0  0
  -17.4201  -26.6675   21.4041 H   0  0  0  0  0  0
  -18.0327  -26.0072   22.9035 H   0  0  0  0  0  0
  -19.7937  -30.7276   24.2265 H   0  0  0  0  0  0
  -17.5016  -31.6269   24.5164 H   0  0  0  0  0  0
  -15.5354  -30.2991   23.7643 H   0  0  0  0  0  0
  -15.8677  -28.0820   22.7068 H   0  0  0  0  0  0
  -24.5850  -30.7153   25.7757 H   0  0  0  0  0  0
  -24.8965  -32.2932   26.4882 H   0  0  0  0  0  0
  -25.8016  -30.8883   27.0198 H   0  0  0  0  0  0
  -26.2888  -29.6746   24.1204 H   0  0  0  0  0  0
  -27.3997  -29.7243   25.4694 H   0  0  0  0  0  0
  -27.8775  -30.4251   23.9414 H   0  0  0  0  0  0
  -27.2662  -33.3606   26.2063 H   0  0  0  0  0  0
  -28.3871  -32.6857   25.0326 H   0  0  0  0  0  0
  -28.0706  -31.8425   26.5411 H   0  0  0  0  0  0
  -28.2585  -38.0112   24.7512 H   0  0  0  0  0  0
  -28.1091  -36.2641   24.6274 H   0  0  0  0  0  0
  -27.2301  -37.1438   25.8862 H   0  0  0  0  0  0
  -20.9378  -29.8771   21.6882 H   0  0  0  0  0  0
  -26.0170  -38.2848   24.1404 H   0  0  0  0  0  0
  -29.4046  -18.7205   21.8173 H   0  0  0  0  0  0
  -30.0169  -20.6374   17.9997 H   0  0  0  0  0  0
  -30.4710  -16.4069   18.3188 H   0  0  0  0  0  0
  -29.3256  -21.3458   21.6525 H   0  0  0  0  0  0
  -29.1198  -22.4648   18.8149 H   0  0  0  0  0  0
  -27.4169  -24.7544   19.2012 H   0  0  0  0  0  0
  -29.0377  -25.1141   18.7231 H   0  0  0  0  0  0
  -28.7468  -16.8978   22.2279 H   0  0  0  0  0  0
  1 25  1  0  0  0
  1 30  2  0  0  0
  1 79  1  0  0  0
  2  3  1  0  0  0
  2 25  1  0  0  0
  2 85  1  0  0  0
  2 86  1  0  0  0
  3  4  1  0  0  0
  3 87  1  0  0  0
  3 88  1  0  0  0
  4  5  1  0  0  0
  4 89  1  0  0  0
  4 90  1  0  0  0
  5  6  1  0  0  0
  5 26  1  0  0  0
  5 91  1  0  0  0
  6 25  1  0  0  0
  6 92  1  0  0  0
  6 93  1  0  0  0
  7  8  2  0  0  0
  7 26  1  0  0  0
  7 29  1  0  0  0
  8  9  1  0  0  0
  8 22  1  0  0  0
  9 10  1  0  0  0
  9 27  2  0  0  0
 10 11  2  0  0  0
 10 15  1  0  0  0
 11 12  1  0  0  0
 11 94  1  0  0  0
 12 13  2  0  0  0
 12 95  1  0  0  0
 13 14  1  0  0  0
 13 31  1  0  0  0
 14 15  2  0  0  0
 14 96  1  0  0  0
 15 97  1  0  0  0
 16 17  2  0  0  0
 16 21  1  0  0  0
 16 31  1  0  0  0
 17 18  1  0  0  0
 17 98  1  0  0  0
 18 19  2  0  0  0
 18 99  1  0  0  0
 19 20  1  0  0  0
 19 24  1  0  0  0
 20 21  2  0  0  0
 20100  1  0  0  0
 21 23  1  0  0  0
 22 28  1  0  0  0
 22 32  2  0  0  0
 26 27  1  0  0  0
 28101  1  0  0  0
 28102  1  0  0  0
 29103  1  0  0  0
 29104  1  0  0  0
 33 34  1  0  0  0
 33 66  1  0  0  0
 33 70  2  0  0  0
 34 36  1  0  0  0
 34 59  1  0  0  0
 34105  1  0  0  0
 35 44  2  0  0  0
 35 45  1  0  0  0
 35 68  1  0  0  0
 36 56  1  0  0  0
 36106  1  0  0  0
 37 39  1  0  0  0
 37 47  1  0  0  0
 37 66  1  0  0  0
 37107  1  0  0  0
 38 43  2  0  0  0
 38 46  1  0  0  0
 38 47  1  0  0  0
 39 64  1  0  0  0
 39 67  2  0  0  0
 40 52  1  0  0  0
 40 53  2  0  0  0
 40 58  1  0  0  0
 41108  1  0  0  0
 41109  1  0  0  0
 41110  1  0  0  0
 41 48  1  0  0  0
 42 43  1  0  0  0
 42 66  1  0  0  0
 42111  1  0  0  0
 42112  1  0  0  0
 43 44  1  0  0  0
 44113  1  0  0  0
 45 46  2  0  0  0
 45114  1  0  0  0
 46115  1  0  0  0
 47116  1  0  0  0
 47117  1  0  0  0
 48 56  1  0  0  0
 48 65  1  0  0  0
 48118  1  0  0  0
 49 50  1  0  0  0
 49 53  1  0  0  0
 49 64  1  0  0  0
 49119  1  0  0  0
 50 51  1  0  0  0
 50120  1  0  0  0
 50121  1  0  0  0
 51 52  1  0  0  0
 51122  1  0  0  0
 51123  1  0  0  0
 52124  1  0  0  0
 52125  1  0  0  0
 53 54  1  0  0  0
 54 55  2  0  0  0
 54126  1  0  0  0
 55 57  1  0  0  0
 55127  1  0  0  0
 56 69  2  0  0  0
 57 58  2  0  0  0
 57128  1  0  0  0
 58129  1  0  0  0
 59 60  1  0  0  0
 59 61  1  0  0  0
 59 62  1  0  0  0
 60130  1  0  0  0
 60131  1  0  0  0
 60132  1  0  0  0
 61133  1  0  0  0
 61134  1  0  0  0
 61135  1  0  0  0
 62136  1  0  0  0
 62137  1  0  0  0
 62138  1  0  0  0
 63 65  1  0  0  0
 63139  1  0  0  0
 63140  1  0  0  0
 63141  1  0  0  0
 64142  1  0  0  0
 65143  1  0  0  0
 68 81  1  0  0  0
 71 74  2  0  0  0
 71 75  1  0  0  0
 71144  1  0  0  0
 72 74  1  0  0  0
 72 76  2  0  0  0
 72145  1  0  0  0
 73 75  2  0  0  0
 73 76  1  0  0  0
 73146  1  0  0  0
 74 77  1  0  0  0
 75 79  1  0  0  0
 76 84  1  0  0  0
 77 78  2  0  0  0
 77147  1  0  0  0
 78 80  1  0  0  0
 78148  1  0  0  0
 79 82  2  0  0  0
 80 81  1  0  0  0
 80 83  2  0  0  0
 81149  1  0  0  0
 81150  1  0  0  0
 82151  1  0  0  0
M  ISO  4   1 100  68 101  79 100  81 101
M  END
> <chiral flag>
0

> <version>
0

> <s_m_source_file>
/data/baiqing/PycharmProjects/Reinvent-master-3.2/result/LINK_invent/BTK/process_docking_weight1_custom_product_contain_oxygen_bond_distance_aromatic_linkinvent_7_9_3/rearranged_h_0124.sdf

> <i_m_source_file_index>
25

> <r_mmod_Potential_Energy-OPLS-2005>
225.076797485352

> <r_mmod_Stretch_Energy-OPLS-2005>
117.446197509766

> <r_mmod_Bend_Energy-OPLS-2005>
154.77815246582

> <r_mmod_Torsional_Energy-OPLS-2005>
193.113983154297

> <r_mmod_Improper_Torsional_Energy-OPLS-2005>
2.92504620552063

> <r_mmod_Van_der_Waal_Energy-OPLS-2005>
149.122283935547

> <r_mmod_Electrostatic_Energy-OPLS-2005>
-230.017791748047

> <r_mmod_Solvation_Energy-OPLS-2005>
-223.07991027832

> <b_mmod_Minimization_Converged-OPLS-2005>
0

> <r_mmod_RMS_Derivative-OPLS-2005>
0.980391561985016

$$$$
25
                    3D
 Structure written by MMmdl.
151159  0  0  1  0            999 V2000
  -30.4242  -15.3559   20.3863 C   0  0  0  0  0  0
  -30.4474  -12.8654   19.5737 C   0  0  0  0  0  0
  -29.5622  -12.6120   18.3220 C   0  0  0  0  0  0
  -28.1181  -12.2992   18.7459 C   0  0  0  0  0  0
  -27.6227  -13.2847   19.8329 C   0  0  2  0  0  0
  -28.6434  -13.4907   20.9765 C   0  0  0  0  0  0
  -25.2429  -13.8261   20.5781 C   0  0  0  0  0  0
  -24.1752  -13.0433   20.9208 C   0  0  0  0  0  0
  -24.6427  -11.6914   20.8726 C   0  0  0  0  0  0
  -23.9088  -10.4282   21.0396 C   0  0  0  0  0  0
  -24.3635   -9.4207   21.9180 C   0  0  0  0  0  0
  -23.6279   -8.2276   22.0777 C   0  0  0  0  0  0
  -22.4249   -8.0312   21.3593 C   0  0  0  0  0  0
  -21.9891   -9.0295   20.4699 C   0  0  0  0  0  0
  -22.7247  -10.2150   20.3055 C   0  0  0  0  0  0
  -21.6854   -6.0736   22.5272 C   0  0  0  0  0  0
  -21.4050   -6.5632   23.8207 C   0  0  0  0  0  0
  -21.3658   -5.6779   24.9161 C   0  0  0  0  0  0
  -21.6016   -4.3037   24.7205 C   0  0  0  0  0  0
  -21.8822   -3.8144   23.4329 C   0  0  0  0  0  0
  -21.9184   -4.6966   22.3394 C   0  0  0  0  0  0
  -22.7767  -13.5215   21.1825 C   0  0  0  0  0  0
  -22.1648   -4.2150   21.0971 F   0  0  0  0  0  0
  -21.5616   -3.4524   25.7745 F   0  0  0  0  0  0
  -29.8806  -14.0236   20.3786 N   0  0  0  0  0  0
  -26.2870  -12.9544   20.3242 N   0  0  0  0  0  0
  -25.9378  -11.6632   20.5690 N   0  0  0  0  0  0
  -22.0380  -12.8277   22.0396 N   0  0  0  0  0  0
  -25.4069  -15.2000   20.4306 N   0  0  0  0  0  0
  -31.6229  -15.3236   20.0776 O   0  0  0  0  0  0
  -21.6623   -6.8901   21.4254 O   0  0  0  0  0  0
  -22.3483  -14.5513   20.6619 O   0  0  0  0  0  0
  -24.6697  -31.8164   23.1602 C   0  0  0  0  0  0
  -25.9344  -32.4542   23.8122 C   0  0  1  0  0  0
  -27.2160  -26.8744   20.1759 C   0  0  0  0  0  0
  -25.5961  -33.8358   24.2020 N   0  0  0  0  0  0
  -23.4839  -30.4262   21.5137 C   0  0  2  0  0  0
  -24.9328  -28.7968   20.1100 C   0  0  0  0  0  0
  -22.7687  -29.4431   22.4766 C   0  0  0  0  0  0
  -18.0329  -28.1385   22.8469 C   0  0  0  0  0  0
  -24.1515  -36.7224   23.2644 C   0  0  0  0  0  0
  -26.0542  -30.6022   21.3952 C   0  0  0  0  0  0
  -26.1190  -29.1874   20.7429 C   0  0  0  0  0  0
  -27.2501  -28.2471   20.7510 C   0  0  0  0  0  0
  -26.0047  -26.6556   19.4774 C   0  0  0  0  0  0
  -24.9028  -27.5517   19.4589 C   0  0  0  0  0  0
  -23.7210  -29.7285   20.1452 C   0  0  0  0  0  0
  -25.4139  -36.2945   24.0297 C   0  0  1  0  0  0
  -20.5961  -28.3762   23.1163 C   0  0  2  0  0  0
  -20.6798  -26.9430   22.5393 C   0  0  0  0  0  0
  -19.5775  -26.6357   21.5207 C   0  0  0  0  0  0
  -18.1970  -26.7914   22.1631 C   0  0  0  0  0  0
  -19.1592  -28.8891   23.2815 C   0  0  0  0  0  0
  -18.9501  -30.1474   23.8862 C   0  0  0  0  0  0
  -17.6495  -30.6593   24.0526 C   0  0  0  0  0  0
  -25.9099  -34.9327   23.4991 C   0  0  0  0  0  0
  -16.5388  -29.9069   23.6318 C   0  0  0  0  0  0
  -16.7312  -28.6472   23.0374 C   0  0  0  0  0  0
  -26.4549  -31.6494   25.0664 C   0  0  0  0  0  0
  -25.3660  -31.3781   26.1317 C   0  0  0  0  0  0
  -27.0410  -30.2845   24.6403 C   0  0  0  0  0  0
  -27.6065  -32.4288   25.7441 C   0  0  0  0  0  0
  -27.5589  -37.1758   24.8458 C   0  0  0  0  0  0
  -21.4369  -29.3037   22.3518 N   0  0  0  0  0  0
  -26.4290  -37.3676   23.9401 N   0  0  0  0  0  0
  -24.7573  -30.9793   22.0751 N   0  0  0  0  0  0
  -23.4198  -28.8007   23.3028 O   0  0  0  0  0  0
  -28.1994  -25.7396   20.3009 O   0  0  0  0  0  0
  -26.5763  -34.8875   22.4617 O   0  0  0  0  0  0
  -23.5773  -32.1144   23.6672 O   0  0  0  0  0  0
  -29.0129  -21.1831   20.0784 C   0  0  0  0  0  0
  -28.6536  -21.2861   22.7485 C   0  0  0  0  0  0
  -29.2702  -19.8193   20.7982 C   0  0  0  0  0  0
  -28.5750  -22.5861   20.6240 C   0  0  0  0  0  0
  -28.4045  -22.4877   22.0281 C   0  0  0  0  0  0
  -29.0425  -20.0345   22.1909 C   0  0  0  0  0  0
  -29.8458  -18.2273   20.3781 C   0  0  0  0  0  0
  -29.6445  -16.7817   20.6986 C   0  0  0  0  0  0
  -27.8510  -23.6697   22.8099 C   0  0  0  0  0  0
  -28.0515  -24.1190   19.8968 C   0  0  0  0  0  0
  -29.2438  -19.0022   23.1059 N   0  0  0  0  0  0
  -31.4730  -13.0474   19.2561 H   0  0  0  0  0  0
  -30.5020  -11.9631   20.1860 H   0  0  0  0  0  0
  -29.9758  -11.7960   17.7262 H   0  0  0  0  0  0
  -29.5817  -13.4924   17.6783 H   0  0  0  0  0  0
  -28.1089  -11.2881   19.1520 H   0  0  0  0  0  0
  -27.4529  -12.2917   17.8840 H   0  0  0  0  0  0
  -27.5372  -14.2439   19.3241 H   0  0  0  0  0  0
  -28.8238  -12.5614   21.5200 H   0  0  0  0  0  0
  -28.2585  -14.2046   21.7051 H   0  0  0  0  0  0
  -25.2794   -9.5662   22.4708 H   0  0  0  0  0  0
  -23.9977   -7.4662   22.7489 H   0  0  0  0  0  0
  -21.0816   -8.8818   19.9015 H   0  0  0  0  0  0
  -22.3725  -10.9673   19.6142 H   0  0  0  0  0  0
  -21.2080   -7.6156   23.9713 H   0  0  0  0  0  0
  -21.1467   -6.0515   25.9063 H   0  0  0  0  0  0
  -22.0597   -2.7612   23.2813 H   0  0  0  0  0  0
  -22.3987  -11.9998   22.4899 H   0  0  0  0  0  0
  -21.1035  -13.1387   22.2591 H   0  0  0  0  0  0
  -24.6463  -15.8492   20.5803 H   0  0  0  0  0  0
  -26.2659  -15.6544   20.1507 H   0  0  0  0  0  0
  -26.7386  -32.5040   23.0821 H   0  0  0  0  0  0
  -24.9929  -33.9376   25.0044 H   0  0  0  0  0  0
  -22.8009  -31.2586   21.3373 H   0  0  0  0  0  0
  -23.3761  -35.9580   23.3272 H   0  0  0  0  0  0
  -24.3610  -36.8905   22.2074 H   0  0  0  0  0  0
  -23.7306  -37.6413   23.6723 H   0  0  0  0  0  0
  -26.2366  -31.3302   20.6054 H   0  0  0  0  0  0
  -26.9183  -30.6643   22.0436 H   0  0  0  0  0  0
  -28.1478  -28.5401   21.2738 H   0  0  0  0  0  0
  -25.8669  -25.7129   18.9677 H   0  0  0  0  0  0
  -24.0001  -27.2434   18.9520 H   0  0  0  0  0  0
  -23.8749  -30.4886   19.3786 H   0  0  0  0  0  0
  -22.8256  -29.1844   19.8361 H   0  0  0  0  0  0
  -25.1348  -36.1739   25.0791 H   0  0  0  0  0  0
  -21.0058  -28.3365   24.1282 H   0  0  0  0  0  0
  -20.5659  -26.2380   23.3645 H   0  0  0  0  0  0
  -21.6667  -26.7373   22.1222 H   0  0  0  0  0  0
  -19.6929  -25.6254   21.1283 H   0  0  0  0  0  0
  -19.6690  -27.3121   20.6710 H   0  0  0  0  0  0
  -17.4215  -26.6644   21.4052 H   0  0  0  0  0  0
  -18.0386  -26.0071   22.9059 H   0  0  0  0  0  0
  -19.7985  -30.7302   24.2208 H   0  0  0  0  0  0
  -17.5044  -31.6274   24.5145 H   0  0  0  0  0  0
  -15.5382  -30.2955   23.7647 H   0  0  0  0  0  0
  -15.8726  -28.0757   22.7122 H   0  0  0  0  0  0
  -24.5703  -30.7328   25.7566 H   0  0  0  0  0  0
  -24.9014  -32.3009   26.4803 H   0  0  0  0  0  0
  -25.7825  -30.8792   27.0071 H   0  0  0  0  0  0
  -26.3038  -29.6532   24.1414 H   0  0  0  0  0  0
  -27.3919  -29.7215   25.5066 H   0  0  0  0  0  0
  -27.9017  -30.4015   23.9813 H   0  0  0  0  0  0
  -27.2640  -33.3586   26.2003 H   0  0  0  0  0  0
  -28.3866  -32.6861   25.0260 H   0  0  0  0  0  0
  -28.0748  -31.8426   26.5357 H   0  0  0  0  0  0
  -28.2584  -38.0071   24.7489 H   0  0  0  0  0  0
  -28.1108  -36.2602   24.6292 H   0  0  0  0  0  0
  -27.2316  -37.1414   25.8860 H   0  0  0  0  0  0
  -20.9627  -29.8688   21.6622 H   0  0  0  0  0  0
  -26.0153  -38.2753   24.1342 H   0  0  0  0  0  0
  -29.1598  -21.1458   19.0084 H   0  0  0  0  0  0
  -28.5118  -21.3293   23.8206 H   0  0  0  0  0  0
  -30.7106  -18.3415   19.7415 H   0  0  0  0  0  0
  -28.7851  -16.6301   21.3335 H   0  0  0  0  0  0
  -28.0404  -23.5887   23.8808 H   0  0  0  0  0  0
  -26.7698  -23.7138   22.6717 H   0  0  0  0  0  0
  -28.2862  -24.6140   22.4908 H   0  0  0  0  0  0
  -26.9701  -23.9764   19.8648 H   0  0  0  0  0  0
  -28.3444  -24.0539   18.8465 H   0  0  0  0  0  0
  -29.3639  -19.2373   24.0887 H   0  0  0  0  0  0
  -29.8126  -18.2162   22.8102 H   0  0  0  0  0  0
  1 25  1  0  0  0
  1 30  2  0  0  0
  1 78  1  0  0  0
  2  3  1  0  0  0
  2 25  1  0  0  0
  2 82  1  0  0  0
  2 83  1  0  0  0
  3  4  1  0  0  0
  3 84  1  0  0  0
  3 85  1  0  0  0
  4  5  1  0  0  0
  4 86  1  0  0  0
  4 87  1  0  0  0
  5  6  1  0  0  0
  5 26  1  0  0  0
  5 88  1  0  0  0
  6 25  1  0  0  0
  6 89  1  0  0  0
  6 90  1  0  0  0
  7  8  2  0  0  0
  7 26  1  0  0  0
  7 29  1  0  0  0
  8  9  1  0  0  0
  8 22  1  0  0  0
  9 10  1  0  0  0
  9 27  2  0  0  0
 10 11  2  0  0  0
 10 15  1  0  0  0
 11 12  1  0  0  0
 11 91  1  0  0  0
 12 13  2  0  0  0
 12 92  1  0  0  0
 13 14  1  0  0  0
 13 31  1  0  0  0
 14 15  2  0  0  0
 14 93  1  0  0  0
 15 94  1  0  0  0
 16 17  2  0  0  0
 16 21  1  0  0  0
 16 31  1  0  0  0
 17 18  1  0  0  0
 17 95  1  0  0  0
 18 19  2  0  0  0
 18 96  1  0  0  0
 19 20  1  0  0  0
 19 24  1  0  0  0
 20 21  2  0  0  0
 20 97  1  0  0  0
 21 23  1  0  0  0
 22 28  1  0  0  0
 22 32  2  0  0  0
 26 27  1  0  0  0
 28 98  1  0  0  0
 28 99  1  0  0  0
 29100  1  0  0  0
 29101  1  0  0  0
 33 34  1  0  0  0
 33 66  1  0  0  0
 33 70  2  0  0  0
 34 36  1  0  0  0
 34 59  1  0  0  0
 34102  1  0  0  0
 35 44  2  0  0  0
 35 45  1  0  0  0
 35 68  1  0  0  0
 36 56  1  0  0  0
 36103  1  0  0  0
 37 39  1  0  0  0
 37 47  1  0  0  0
 37 66  1  0  0  0
 37104  1  0  0  0
 38 43  2  0  0  0
 38 46  1  0  0  0
 38 47  1  0  0  0
 39 64  1  0  0  0
 39 67  2  0  0  0
 40 52  1  0  0  0
 40 53  2  0  0  0
 40 58  1  0  0  0
 41105  1  0  0  0
 41106  1  0  0  0
 41107  1  0  0  0
 41 48  1  0  0  0
 42 43  1  0  0  0
 42 66  1  0  0  0
 42108  1  0  0  0
 42109  1  0  0  0
 43 44  1  0  0  0
 44110  1  0  0  0
 45 46  2  0  0  0
 45111  1  0  0  0
 46112  1  0  0  0
 47113  1  0  0  0
 47114  1  0  0  0
 48 56  1  0  0  0
 48 65  1  0  0  0
 48115  1  0  0  0
 49 50  1  0  0  0
 49 53  1  0  0  0
 49 64  1  0  0  0
 49116  1  0  0  0
 50 51  1  0  0  0
 50117  1  0  0  0
 50118  1  0  0  0
 51 52  1  0  0  0
 51119  1  0  0  0
 51120  1  0  0  0
 52121  1  0  0  0
 52122  1  0  0  0
 53 54  1  0  0  0
 54 55  2  0  0  0
 54123  1  0  0  0
 55 57  1  0  0  0
 55124  1  0  0  0
 56 69  2  0  0  0
 57 58  2  0  0  0
 57125  1  0  0  0
 58126  1  0  0  0
 59 60  1  0  0  0
 59 61  1  0  0  0
 59 62  1  0  0  0
 60127  1  0  0  0
 60128  1  0  0  0
 60129  1  0  0  0
 61130  1  0  0  0
 61131  1  0  0  0
 61132  1  0  0  0
 62133  1  0  0  0
 62134  1  0  0  0
 62135  1  0  0  0
 63 65  1  0  0  0
 63136  1  0  0  0
 63137  1  0  0  0
 63138  1  0  0  0
 64139  1  0  0  0
 65140  1  0  0  0
 68 80  1  0  0  0
 71 73  2  0  0  0
 71 74  1  0  0  0
 71141  1  0  0  0
 72 75  1  0  0  0
 72 76  2  0  0  0
 72142  1  0  0  0
 73 76  1  0  0  0
 73 77  1  0  0  0
 74 75  2  0  0  0
 74 80  1  0  0  0
 75 79  1  0  0  0
 76 81  1  0  0  0
 77 78  2  0  0  0
 77143  1  0  0  0
 78144  1  0  0  0
 79145  1  0  0  0
 79146  1  0  0  0
 79147  1  0  0  0
 80148  1  0  0  0
 80149  1  0  0  0
 81150  1  0  0  0
 81151  1  0  0  0
M  ISO  4   1 100  68 101  78 100  80 101
M  END
> <chiral flag>
0

> <version>
0

> <s_m_source_file>
/data/baiqing/PycharmProjects/Reinvent-master-3.2/result/LINK_invent/BTK/process_docking_weight1_custom_product_contain_oxygen_bond_distance_aromatic_linkinvent_7_9_3/rearranged_h_0124.sdf

> <i_m_source_file_index>
26

> <r_mmod_Potential_Energy-OPLS-2005>
1458.36828613281

> <r_mmod_Stretch_Energy-OPLS-2005>
671.26025390625

> <r_mmod_Bend_Energy-OPLS-2005>
439.558380126953

> <r_mmod_Torsional_Energy-OPLS-2005>
212.107757568359

> <r_mmod_Improper_Torsional_Energy-OPLS-2005>
7.81324243545532

> <r_mmod_Van_der_Waal_Energy-OPLS-2005>
132.403793334961

> <r_mmod_Electrostatic_Energy-OPLS-2005>
-351.551086425781

> <r_mmod_Solvation_Energy-OPLS-2005>
-199.022766113281

> <b_mmod_Minimization_Converged-OPLS-2005>
0

> <r_mmod_RMS_Derivative-OPLS-2005>
5.74285697937012

$$$$
26
                    3D
 Structure written by MMmdl.
150158  0  0  1  0            999 V2000
  -30.6217  -14.7380   20.4236 C   0  0  0  0  0  0
  -30.4218  -12.4444   19.4761 C   0  0  0  0  0  0
  -29.5045  -12.4993   18.2349 C   0  0  0  0  0  0
  -28.0318  -12.3292   18.6505 C   0  0  0  0  0  0
  -27.6384  -13.2364   19.8481 C   0  0  2  0  0  0
  -28.6827  -13.1811   20.9856 C   0  0  0  0  0  0
  -25.2489  -13.8204   20.5689 C   0  0  0  0  0  0
  -24.1789  -13.0445   20.9193 C   0  0  0  0  0  0
  -24.6387  -11.6924   20.8749 C   0  0  0  0  0  0
  -23.9081  -10.4296   21.0412 C   0  0  0  0  0  0
  -24.3618   -9.4213   21.9191 C   0  0  0  0  0  0
  -23.6279   -8.2256   22.0764 C   0  0  0  0  0  0
  -22.4275   -8.0285   21.3543 C   0  0  0  0  0  0
  -21.9928   -9.0267   20.4639 C   0  0  0  0  0  0
  -22.7262  -10.2136   20.3049 C   0  0  0  0  0  0
  -21.6853   -6.0734   22.5273 C   0  0  0  0  0  0
  -21.4019   -6.5633   23.8209 C   0  0  0  0  0  0
  -21.3658   -5.6788   24.9170 C   0  0  0  0  0  0
  -21.6045   -4.3055   24.7222 C   0  0  0  0  0  0
  -21.8822   -3.8148   23.4344 C   0  0  0  0  0  0
  -21.9193   -4.6958   22.3395 C   0  0  0  0  0  0
  -22.7816  -13.5218   21.1858 C   0  0  0  0  0  0
  -22.1656   -4.2147   21.0970 F   0  0  0  0  0  0
  -21.5627   -3.4531   25.7733 F   0  0  0  0  0  0
  -29.9868  -13.5165   20.4024 N   0  0  0  0  0  0
  -26.2918  -12.9428   20.3270 N   0  0  0  0  0  0
  -25.9317  -11.6564   20.5749 N   0  0  0  0  0  0
  -22.0475  -12.8184   22.0403 N   0  0  0  0  0  0
  -25.4180  -15.1924   20.4092 N   0  0  0  0  0  0
  -31.8182  -14.7973   20.1317 O   0  0  0  0  0  0
  -21.6636   -6.8884   21.4244 O   0  0  0  0  0  0
  -22.3502  -14.5544   20.6747 O   0  0  0  0  0  0
  -24.6324  -31.8533   23.1982 C   0  0  0  0  0  0
  -25.9167  -32.4733   23.8312 C   0  0  1  0  0  0
  -27.2278  -27.2716   20.1087 C   0  0  0  0  0  0
  -25.5975  -33.8539   24.2227 N   0  0  0  0  0  0
  -23.4261  -30.4728   21.5439 C   0  0  2  0  0  0
  -24.8719  -28.9167   20.1116 C   0  0  0  0  0  0
  -22.7494  -29.4571   22.4959 C   0  0  0  0  0  0
  -18.0274  -28.1382   22.8506 C   0  0  0  0  0  0
  -24.1469  -36.7249   23.2658 C   0  0  0  0  0  0
  -25.9698  -30.7637   21.3784 C   0  0  0  0  0  0
  -26.0409  -29.3891   20.7170 C   0  0  0  0  0  0
  -27.2174  -28.5770   20.7061 C   0  0  0  0  0  0
  -26.0280  -26.8566   19.4871 C   0  0  0  0  0  0
  -24.8691  -27.6590   19.4888 C   0  0  0  0  0  0
  -23.6400  -29.7989   20.1623 C   0  0  0  0  0  0
  -25.4106  -36.3051   24.0323 C   0  0  1  0  0  0
  -20.5871  -28.3690   23.1287 C   0  0  2  0  0  0
  -20.6750  -26.9408   22.5421 C   0  0  0  0  0  0
  -19.5722  -26.6378   21.5227 C   0  0  0  0  0  0
  -18.1900  -26.7947   22.1607 C   0  0  0  0  0  0
  -19.1528  -28.8862   23.2878 C   0  0  0  0  0  0
  -18.9456  -30.1471   23.8883 C   0  0  0  0  0  0
  -17.6458  -30.6601   24.0562 C   0  0  0  0  0  0
  -25.9055  -34.9429   23.5062 C   0  0  0  0  0  0
  -16.5348  -29.9082   23.6373 C   0  0  0  0  0  0
  -16.7259  -28.6491   23.0409 C   0  0  0  0  0  0
  -26.4560  -31.6610   25.0728 C   0  0  0  0  0  0
  -25.3783  -31.3723   26.1432 C   0  0  0  0  0  0
  -27.0535  -30.3083   24.6245 C   0  0  0  0  0  0
  -27.6030  -32.4449   25.7533 C   0  0  0  0  0  0
  -27.5556  -37.1767   24.8481 C   0  0  0  0  0  0
  -21.4204  -29.3034   22.3700 N   0  0  0  0  0  0
  -26.4273  -37.3750   23.9419 N   0  0  0  0  0  0
  -24.6946  -31.0487   22.0963 N   0  0  0  0  0  0
  -23.4194  -28.8117   23.3061 O   0  0  0  0  0  0
  -28.3531  -26.4215   20.1849 O   0  0  0  0  0  0
  -26.5589  -34.8905   22.4608 O   0  0  0  0  0  0
  -23.5477  -32.1358   23.7280 O   0  0  0  0  0  0
  -29.4255  -18.4911   20.5264 C   0  0  0  0  0  0
  -30.5514  -19.8781   18.8786 C   0  0  0  0  0  0
  -30.9919  -17.4638   18.9783 C   0  0  0  0  0  0
  -29.6406  -19.8231   19.9573 C   0  0  0  0  0  0
  -30.0996  -17.2785   20.0632 C   0  0  0  0  0  0
  -31.2090  -18.7283   18.3999 C   0  0  0  0  0  0
  -28.9903  -21.1562   20.4167 C   0  0  0  0  0  0
  -29.0557  -22.4257   19.8454 C   0  0  0  0  0  0
  -28.4499  -23.7483   20.3744 C   0  0  0  0  0  0
  -28.4593  -25.0903   19.4967 C   0  0  0  0  0  0
  -29.8677  -15.8990   20.5898 N   0  0  0  0  0  0
  -27.9399  -23.8002   21.4977 O   0  0  0  0  0  0
  -32.0692  -18.8404   17.3590 F   0  0  0  0  0  0
  -31.4621  -12.5561   19.1710 H   0  0  0  0  0  0
  -30.3532  -11.4713   19.9659 H   0  0  0  0  0  0
  -29.7838  -11.7214   17.5242 H   0  0  0  0  0  0
  -29.6331  -13.4525   17.7212 H   0  0  0  0  0  0
  -27.8860  -11.2823   18.9162 H   0  0  0  0  0  0
  -27.3788  -12.5241   17.8004 H   0  0  0  0  0  0
  -27.6311  -14.2556   19.4607 H   0  0  0  0  0  0
  -28.7110  -12.1904   21.4414 H   0  0  0  0  0  0
  -28.4269  -13.8801   21.7837 H   0  0  0  0  0  0
  -25.2760   -9.5685   22.4777 H   0  0  0  0  0  0
  -23.9978   -7.4652   22.7497 H   0  0  0  0  0  0
  -21.0870   -8.8791   19.8932 H   0  0  0  0  0  0
  -22.3727  -10.9682   19.6151 H   0  0  0  0  0  0
  -21.2021   -7.6143   23.9705 H   0  0  0  0  0  0
  -21.1471   -6.0521   25.9065 H   0  0  0  0  0  0
  -22.0607   -2.7615   23.2849 H   0  0  0  0  0  0
  -22.4067  -11.9787   22.4718 H   0  0  0  0  0  0
  -21.1114  -13.1227   22.2669 H   0  0  0  0  0  0
  -24.6541  -15.8503   20.5195 H   0  0  0  0  0  0
  -26.2645  -15.6277   20.0657 H   0  0  0  0  0  0
  -26.7218  -32.5375   23.1034 H   0  0  0  0  0  0
  -25.0272  -33.9658   25.0476 H   0  0  0  0  0  0
  -22.7251  -31.2958   21.3927 H   0  0  0  0  0  0
  -23.3766  -35.9548   23.3326 H   0  0  0  0  0  0
  -24.3526  -36.8903   22.2075 H   0  0  0  0  0  0
  -23.7169  -37.6414   23.6705 H   0  0  0  0  0  0
  -26.1076  -31.5222   20.6081 H   0  0  0  0  0  0
  -26.8461  -30.8073   22.0131 H   0  0  0  0  0  0
  -28.1160  -28.9380   21.1883 H   0  0  0  0  0  0
  -25.9432  -25.8858   19.0244 H   0  0  0  0  0  0
  -23.9649  -27.2916   19.0226 H   0  0  0  0  0  0
  -23.7544  -30.5684   19.3984 H   0  0  0  0  0  0
  -22.7611  -29.2233   19.8681 H   0  0  0  0  0  0
  -25.1257  -36.1908   25.0804 H   0  0  0  0  0  0
  -20.9876  -28.3285   24.1442 H   0  0  0  0  0  0
  -20.5696  -26.2282   23.3611 H   0  0  0  0  0  0
  -21.6607  -26.7450   22.1187 H   0  0  0  0  0  0
  -19.6871  -25.6284   21.1275 H   0  0  0  0  0  0
  -19.6700  -27.3166   20.6750 H   0  0  0  0  0  0
  -17.4175  -26.6774   21.4001 H   0  0  0  0  0  0
  -18.0251  -26.0082   22.8967 H   0  0  0  0  0  0
  -19.7935  -30.7293   24.2236 H   0  0  0  0  0  0
  -17.5025  -31.6289   24.5149 H   0  0  0  0  0  0
  -15.5343  -30.2967   23.7731 H   0  0  0  0  0  0
  -15.8659  -28.0781   22.7159 H   0  0  0  0  0  0
  -24.5966  -30.7071   25.7744 H   0  0  0  0  0  0
  -24.8971  -32.2897   26.4848 H   0  0  0  0  0  0
  -25.8128  -30.8916   27.0208 H   0  0  0  0  0  0
  -26.3185  -29.6722   24.1310 H   0  0  0  0  0  0
  -27.4351  -29.7440   25.4764 H   0  0  0  0  0  0
  -27.8955  -30.4468   23.9454 H   0  0  0  0  0  0
  -27.2565  -33.3800   26.1938 H   0  0  0  0  0  0
  -28.3918  -32.6944   25.0431 H   0  0  0  0  0  0
  -28.0603  -31.8720   26.5612 H   0  0  0  0  0  0
  -28.2540  -38.0098   24.7553 H   0  0  0  0  0  0
  -28.1081  -36.2609   24.6291 H   0  0  0  0  0  0
  -27.2259  -37.1386   25.8884 H   0  0  0  0  0  0
  -20.9425  -29.8779   21.6890 H   0  0  0  0  0  0
  -26.0172  -38.2815   24.1481 H   0  0  0  0  0  0
  -28.7275  -18.4038   21.3470 H   0  0  0  0  0  0
  -30.7782  -20.8166   18.3958 H   0  0  0  0  0  0
  -31.5249  -16.6322   18.5426 H   0  0  0  0  0  0
  -28.4208  -21.0760   21.3344 H   0  0  0  0  0  0
  -29.6018  -22.5428   18.9210 H   0  0  0  0  0  0
  -27.7351  -24.9963   18.6896 H   0  0  0  0  0  0
  -29.4255  -25.0986   18.9905 H   0  0  0  0  0  0
  -28.9618  -15.7475   21.0074 H   0  0  0  0  0  0
  1 25  1  0  0  0
  1 30  2  0  0  0
  1 81  1  0  0  0
  2  3  1  0  0  0
  2 25  1  0  0  0
  2 84  1  0  0  0
  2 85  1  0  0  0
  3  4  1  0  0  0
  3 86  1  0  0  0
  3 87  1  0  0  0
  4  5  1  0  0  0
  4 88  1  0  0  0
  4 89  1  0  0  0
  5  6  1  0  0  0
  5 26  1  0  0  0
  5 90  1  0  0  0
  6 25  1  0  0  0
  6 91  1  0  0  0
  6 92  1  0  0  0
  7  8  2  0  0  0
  7 26  1  0  0  0
  7 29  1  0  0  0
  8  9  1  0  0  0
  8 22  1  0  0  0
  9 10  1  0  0  0
  9 27  2  0  0  0
 10 11  2  0  0  0
 10 15  1  0  0  0
 11 12  1  0  0  0
 11 93  1  0  0  0
 12 13  2  0  0  0
 12 94  1  0  0  0
 13 14  1  0  0  0
 13 31  1  0  0  0
 14 15  2  0  0  0
 14 95  1  0  0  0
 15 96  1  0  0  0
 16 17  2  0  0  0
 16 21  1  0  0  0
 16 31  1  0  0  0
 17 18  1  0  0  0
 17 97  1  0  0  0
 18 19  2  0  0  0
 18 98  1  0  0  0
 19 20  1  0  0  0
 19 24  1  0  0  0
 20 21  2  0  0  0
 20 99  1  0  0  0
 21 23  1  0  0  0
 22 28  1  0  0  0
 22 32  2  0  0  0
 26 27  1  0  0  0
 28100  1  0  0  0
 28101  1  0  0  0
 29102  1  0  0  0
 29103  1  0  0  0
 33 34  1  0  0  0
 33 66  1  0  0  0
 33 70  2  0  0  0
 34 36  1  0  0  0
 34 59  1  0  0  0
 34104  1  0  0  0
 35 44  2  0  0  0
 35 45  1  0  0  0
 35 68  1  0  0  0
 36 56  1  0  0  0
 36105  1  0  0  0
 37 39  1  0  0  0
 37 47  1  0  0  0
 37 66  1  0  0  0
 37106  1  0  0  0
 38 43  2  0  0  0
 38 46  1  0  0  0
 38 47  1  0  0  0
 39 64  1  0  0  0
 39 67  2  0  0  0
 40 52  1  0  0  0
 40 53  2  0  0  0
 40 58  1  0  0  0
 41107  1  0  0  0
 41108  1  0  0  0
 41109  1  0  0  0
 41 48  1  0  0  0
 42 43  1  0  0  0
 42 66  1  0  0  0
 42110  1  0  0  0
 42111  1  0  0  0
 43 44  1  0  0  0
 44112  1  0  0  0
 45 46  2  0  0  0
 45113  1  0  0  0
 46114  1  0  0  0
 47115  1  0  0  0
 47116  1  0  0  0
 48 56  1  0  0  0
 48 65  1  0  0  0
 48117  1  0  0  0
 49 50  1  0  0  0
 49 53  1  0  0  0
 49 64  1  0  0  0
 49118  1  0  0  0
 50 51  1  0  0  0
 50119  1  0  0  0
 50120  1  0  0  0
 51 52  1  0  0  0
 51121  1  0  0  0
 51122  1  0  0  0
 52123  1  0  0  0
 52124  1  0  0  0
 53 54  1  0  0  0
 54 55  2  0  0  0
 54125  1  0  0  0
 55 57  1  0  0  0
 55126  1  0  0  0
 56 69  2  0  0  0
 57 58  2  0  0  0
 57127  1  0  0  0
 58128  1  0  0  0
 59 60  1  0  0  0
 59 61  1  0  0  0
 59 62  1  0  0  0
 60129  1  0  0  0
 60130  1  0  0  0
 60131  1  0  0  0
 61132  1  0  0  0
 61133  1  0  0  0
 61134  1  0  0  0
 62135  1  0  0  0
 62136  1  0  0  0
 62137  1  0  0  0
 63 65  1  0  0  0
 63138  1  0  0  0
 63139  1  0  0  0
 63140  1  0  0  0
 64141  1  0  0  0
 65142  1  0  0  0
 68 80  1  0  0  0
 71 74  2  0  0  0
 71 75  1  0  0  0
 71143  1  0  0  0
 72 74  1  0  0  0
 72 76  2  0  0  0
 72144  1  0  0  0
 73 75  2  0  0  0
 73 76  1  0  0  0
 73145  1  0  0  0
 74 77  1  0  0  0
 75 81  1  0  0  0
 76 83  1  0  0  0
 77 78  2  0  0  0
 77146  1  0  0  0
 78 79  1  0  0  0
 78147  1  0  0  0
 79 80  1  0  0  0
 79 82  2  0  0  0
 80148  1  0  0  0
 80149  1  0  0  0
 81150  1  0  0  0
M  ISO  4   1 100  68 101  80 101  81 100
M  END
> <chiral flag>
0

> <version>
0

> <s_m_source_file>
/data/baiqing/PycharmProjects/Reinvent-master-3.2/result/LINK_invent/BTK/process_docking_weight1_custom_product_contain_oxygen_bond_distance_aromatic_linkinvent_7_9_3/rearranged_h_0124.sdf

> <i_m_source_file_index>
27

> <r_mmod_Potential_Energy-OPLS-2005>
171.084747314453

> <r_mmod_Stretch_Energy-OPLS-2005>
126.379364013672

> <r_mmod_Bend_Energy-OPLS-2005>
157.961608886719

> <r_mmod_Torsional_Energy-OPLS-2005>
219.400863647461

> <r_mmod_Improper_Torsional_Energy-OPLS-2005>
4.56625843048096

> <r_mmod_Van_der_Waal_Energy-OPLS-2005>
141.890319824219

> <r_mmod_Electrostatic_Energy-OPLS-2005>
-326.752655029297

> <r_mmod_Solvation_Energy-OPLS-2005>
-232.764099121094

> <b_mmod_Minimization_Converged-OPLS-2005>
0

> <r_mmod_RMS_Derivative-OPLS-2005>
3.17234182357788

$$$$
27
                    3D
 Structure written by MMmdl.
155163  0  0  1  0            999 V2000
  -30.6300  -14.5906   20.4992 C   0  0  0  0  0  0
  -30.4400  -12.3544   19.4716 C   0  0  0  0  0  0
  -29.5231  -12.4925   18.2357 C   0  0  0  0  0  0
  -28.0399  -12.3412   18.6349 C   0  0  0  0  0  0
  -27.6538  -13.2054   19.8649 C   0  0  2  0  0  0
  -28.6892  -13.0546   21.0009 C   0  0  0  0  0  0
  -25.2575  -13.8147   20.5657 C   0  0  0  0  0  0
  -24.1813  -13.0431   20.9166 C   0  0  0  0  0  0
  -24.6345  -11.6901   20.8686 C   0  0  0  0  0  0
  -23.9006  -10.4295   21.0381 C   0  0  0  0  0  0
  -24.3576   -9.4233   21.9169 C   0  0  0  0  0  0
  -23.6289   -8.2244   22.0727 C   0  0  0  0  0  0
  -22.4270   -8.0255   21.3523 C   0  0  0  0  0  0
  -21.9882   -9.0226   20.4630 C   0  0  0  0  0  0
  -22.7178  -10.2115   20.3051 C   0  0  0  0  0  0
  -21.6841   -6.0717   22.5294 C   0  0  0  0  0  0
  -21.4000   -6.5634   23.8221 C   0  0  0  0  0  0
  -21.3673   -5.6788   24.9190 C   0  0  0  0  0  0
  -21.6062   -4.3049   24.7244 C   0  0  0  0  0  0
  -21.8818   -3.8130   23.4358 C   0  0  0  0  0  0
  -21.9193   -4.6950   22.3407 C   0  0  0  0  0  0
  -22.7854  -13.5258   21.1880 C   0  0  0  0  0  0
  -22.1658   -4.2132   21.0991 F   0  0  0  0  0  0
  -21.5655   -3.4545   25.7755 F   0  0  0  0  0  0
  -30.0178  -13.3709   20.4521 N   0  0  0  0  0  0
  -26.2968  -12.9279   20.3250 N   0  0  0  0  0  0
  -25.9269  -11.6454   20.5673 N   0  0  0  0  0  0
  -22.0476  -12.8242   22.0423 N   0  0  0  0  0  0
  -25.4390  -15.1860   20.4118 N   0  0  0  0  0  0
  -31.7788  -14.7644   20.0805 O   0  0  0  0  0  0
  -21.6632   -6.8854   21.4239 O   0  0  0  0  0  0
  -22.3554  -14.5582   20.6770 O   0  0  0  0  0  0
  -24.6142  -31.8653   23.2072 C   0  0  0  0  0  0
  -25.9015  -32.4822   23.8397 C   0  0  1  0  0  0
  -27.2333  -27.4057   20.1003 C   0  0  0  0  0  0
  -25.5861  -33.8622   24.2343 N   0  0  0  0  0  0
  -23.4068  -30.4867   21.5450 C   0  0  2  0  0  0
  -24.8549  -28.9529   20.0978 C   0  0  0  0  0  0
  -22.7433  -29.4617   22.4945 C   0  0  0  0  0  0
  -18.0273  -28.1389   22.8488 C   0  0  0  0  0  0
  -24.1475  -36.7335   23.2644 C   0  0  0  0  0  0
  -25.9354  -30.8192   21.3648 C   0  0  0  0  0  0
  -26.0079  -29.4491   20.7157 C   0  0  0  0  0  0
  -27.1911  -28.6756   20.7260 C   0  0  0  0  0  0
  -26.0699  -26.9370   19.4487 C   0  0  0  0  0  0
  -24.8840  -27.7013   19.4529 C   0  0  0  0  0  0
  -23.6164  -29.8202   20.1559 C   0  0  0  0  0  0
  -25.4088  -36.3129   24.0358 C   0  0  1  0  0  0
  -20.5869  -28.3652   23.1328 C   0  0  2  0  0  0
  -20.6738  -26.9372   22.5450 C   0  0  0  0  0  0
  -19.5743  -26.6374   21.5216 C   0  0  0  0  0  0
  -18.1909  -26.7940   22.1597 C   0  0  0  0  0  0
  -19.1525  -28.8833   23.2908 C   0  0  0  0  0  0
  -18.9445  -30.1433   23.8926 C   0  0  0  0  0  0
  -17.6441  -30.6576   24.0570 C   0  0  0  0  0  0
  -25.9011  -34.9481   23.5156 C   0  0  0  0  0  0
  -16.5335  -29.9075   23.6317 C   0  0  0  0  0  0
  -16.7263  -28.6502   23.0333 C   0  0  0  0  0  0
  -26.4438  -31.6608   25.0730 C   0  0  0  0  0  0
  -25.3742  -31.3725   26.1527 C   0  0  0  0  0  0
  -27.0202  -30.3043   24.6073 C   0  0  0  0  0  0
  -27.6071  -32.4296   25.7430 C   0  0  0  0  0  0
  -27.5598  -37.1800   24.8449 C   0  0  0  0  0  0
  -21.4157  -29.3005   22.3715 N   0  0  0  0  0  0
  -26.4287  -37.3806   23.9427 N   0  0  0  0  0  0
  -24.6711  -31.0727   22.0980 N   0  0  0  0  0  0
  -23.4199  -28.8167   23.2999 O   0  0  0  0  0  0
  -28.3943  -26.6600   20.2002 O   0  0  0  0  0  0
  -26.5581  -34.8927   22.4722 O   0  0  0  0  0  0
  -23.5325  -32.1406   23.7440 O   0  0  0  0  0  0
  -28.5607  -17.7851   18.1208 C   0  0  0  0  0  0
  -28.7120  -19.0827   18.6394 C   0  0  0  0  0  0
  -28.9958  -16.6705   18.8559 C   0  0  0  0  0  0
  -29.7165  -18.1565   20.6543 C   0  0  0  0  0  0
  -29.3172  -19.3071   19.8993 C   0  0  0  0  0  0
  -29.5729  -16.8265   20.1368 C   0  0  0  0  0  0
  -29.5478  -20.7312   20.3300 C   0  0  0  0  0  0
  -28.8459  -21.8226   19.9059 C   0  0  0  0  0  0
  -28.3930  -24.1997   19.4990 C   0  0  0  0  0  0
  -29.1999  -23.2521   20.0531 C   0  0  0  0  0  0
  -30.4994  -23.6788   20.7200 C   0  0  0  0  0  0
  -28.7389  -25.6779   19.2124 C   0  0  0  0  0  0
  -29.8584  -15.6362   20.9056 N   0  0  0  0  0  0
  -31.4891  -12.4675   19.1883 H   0  0  0  0  0  0
  -30.3545  -11.3602   19.9115 H   0  0  0  0  0  0
  -29.7868  -11.7403   17.4912 H   0  0  0  0  0  0
  -29.6876  -13.4606   17.7612 H   0  0  0  0  0  0
  -27.8692  -11.2890   18.8634 H   0  0  0  0  0  0
  -27.3948  -12.5786   17.7887 H   0  0  0  0  0  0
  -27.6688  -14.2384   19.5311 H   0  0  0  0  0  0
  -28.6805  -12.0380   21.3952 H   0  0  0  0  0  0
  -28.4261  -13.6983   21.8428 H   0  0  0  0  0  0
  -25.2714   -9.5757   22.4747 H   0  0  0  0  0  0
  -24.0041   -7.4637   22.7428 H   0  0  0  0  0  0
  -21.0814   -8.8729   19.8941 H   0  0  0  0  0  0
  -22.3604  -10.9664   19.6176 H   0  0  0  0  0  0
  -21.1964   -7.6138   23.9719 H   0  0  0  0  0  0
  -21.1509   -6.0511   25.9096 H   0  0  0  0  0  0
  -22.0577   -2.7593   23.2847 H   0  0  0  0  0  0
  -22.4049  -11.9902   22.4859 H   0  0  0  0  0  0
  -21.1106  -13.1288   22.2627 H   0  0  0  0  0  0
  -24.6909  -15.8567   20.5513 H   0  0  0  0  0  0
  -26.3052  -15.6178   20.1120 H   0  0  0  0  0  0
  -26.7089  -32.5527   23.1161 H   0  0  0  0  0  0
  -25.0000  -33.9778   25.0482 H   0  0  0  0  0  0
  -22.6971  -31.3045   21.4060 H   0  0  0  0  0  0
  -23.3743  -35.9662   23.3283 H   0  0  0  0  0  0
  -24.3588  -36.8965   22.2066 H   0  0  0  0  0  0
  -23.7204  -37.6531   23.6656 H   0  0  0  0  0  0
  -26.0445  -31.5778   20.5885 H   0  0  0  0  0  0
  -26.8282  -30.8830   21.9747 H   0  0  0  0  0  0
  -28.0765  -29.0455   21.2238 H   0  0  0  0  0  0
  -26.0596  -25.9766   18.9525 H   0  0  0  0  0  0
  -24.0023  -27.3301   18.9471 H   0  0  0  0  0  0
  -23.7189  -30.5968   19.3972 H   0  0  0  0  0  0
  -22.7431  -29.2360   19.8620 H   0  0  0  0  0  0
  -25.1251  -36.2013   25.0854 H   0  0  0  0  0  0
  -20.9969  -28.3220   24.1447 H   0  0  0  0  0  0
  -20.5556  -26.2265   23.3646 H   0  0  0  0  0  0
  -21.6626  -26.7343   22.1306 H   0  0  0  0  0  0
  -19.6879  -25.6277   21.1254 H   0  0  0  0  0  0
  -19.6727  -27.3180   20.6749 H   0  0  0  0  0  0
  -17.4199  -26.6729   21.3974 H   0  0  0  0  0  0
  -18.0260  -26.0073   22.8975 H   0  0  0  0  0  0
  -19.7912  -30.7235   24.2335 H   0  0  0  0  0  0
  -17.4987  -31.6247   24.5183 H   0  0  0  0  0  0
  -15.5331  -30.2973   23.7624 H   0  0  0  0  0  0
  -15.8670  -28.0819   22.7020 H   0  0  0  0  0  0
  -24.5887  -30.7079   25.7910 H   0  0  0  0  0  0
  -24.8946  -32.2873   26.5026 H   0  0  0  0  0  0
  -25.8134  -30.8884   27.0262 H   0  0  0  0  0  0
  -26.2680  -29.6862   24.1155 H   0  0  0  0  0  0
  -27.3990  -29.7229   25.4486 H   0  0  0  0  0  0
  -27.8534  -30.4351   23.9167 H   0  0  0  0  0  0
  -27.2748  -33.3566   26.2111 H   0  0  0  0  0  0
  -28.3787  -32.6911   25.0179 H   0  0  0  0  0  0
  -28.0858  -31.8368   26.5234 H   0  0  0  0  0  0
  -28.2615  -38.0096   24.7491 H   0  0  0  0  0  0
  -28.1083  -36.2631   24.6232 H   0  0  0  0  0  0
  -27.2350  -37.1431   25.8861 H   0  0  0  0  0  0
  -20.9309  -29.8749   21.6961 H   0  0  0  0  0  0
  -26.0195  -38.2894   24.1428 H   0  0  0  0  0  0
  -28.1109  -17.6435   17.1465 H   0  0  0  0  0  0
  -28.3935  -19.9140   18.0255 H   0  0  0  0  0  0
  -28.8515  -15.6923   18.4258 H   0  0  0  0  0  0
  -30.1425  -18.3011   21.6386 H   0  0  0  0  0  0
  -30.4137  -20.8812   20.9586 H   0  0  0  0  0  0
  -27.9532  -21.6235   19.3289 H   0  0  0  0  0  0
  -27.4277  -23.8990   19.1177 H   0  0  0  0  0  0
  -30.7661  -23.0307   21.5543 H   0  0  0  0  0  0
  -30.4186  -24.6902   21.1246 H   0  0  0  0  0  0
  -31.3118  -23.6714   19.9928 H   0  0  0  0  0  0
  -28.3450  -25.9546   18.2342 H   0  0  0  0  0  0
  -29.8196  -25.7439   19.0900 H   0  0  0  0  0  0
  -29.0598  -15.3243   21.4385 H   0  0  0  0  0  0
  1 25  1  0  0  0
  1 30  2  0  0  0
  1 83  1  0  0  0
  2  3  1  0  0  0
  2 25  1  0  0  0
  2 84  1  0  0  0
  2 85  1  0  0  0
  3  4  1  0  0  0
  3 86  1  0  0  0
  3 87  1  0  0  0
  4  5  1  0  0  0
  4 88  1  0  0  0
  4 89  1  0  0  0
  5  6  1  0  0  0
  5 26  1  0  0  0
  5 90  1  0  0  0
  6 25  1  0  0  0
  6 91  1  0  0  0
  6 92  1  0  0  0
  7  8  2  0  0  0
  7 26  1  0  0  0
  7 29  1  0  0  0
  8  9  1  0  0  0
  8 22  1  0  0  0
  9 10  1  0  0  0
  9 27  2  0  0  0
 10 11  2  0  0  0
 10 15  1  0  0  0
 11 12  1  0  0  0
 11 93  1  0  0  0
 12 13  2  0  0  0
 12 94  1  0  0  0
 13 14  1  0  0  0
 13 31  1  0  0  0
 14 15  2  0  0  0
 14 95  1  0  0  0
 15 96  1  0  0  0
 16 17  2  0  0  0
 16 21  1  0  0  0
 16 31  1  0  0  0
 17 18  1  0  0  0
 17 97  1  0  0  0
 18 19  2  0  0  0
 18 98  1  0  0  0
 19 20  1  0  0  0
 19 24  1  0  0  0
 20 21  2  0  0  0
 20 99  1  0  0  0
 21 23  1  0  0  0
 22 28  1  0  0  0
 22 32  2  0  0  0
 26 27  1  0  0  0
 28100  1  0  0  0
 28101  1  0  0  0
 29102  1  0  0  0
 29103  1  0  0  0
 33 34  1  0  0  0
 33 66  1  0  0  0
 33 70  2  0  0  0
 34 36  1  0  0  0
 34 59  1  0  0  0
 34104  1  0  0  0
 35 44  2  0  0  0
 35 45  1  0  0  0
 35 68  1  0  0  0
 36 56  1  0  0  0
 36105  1  0  0  0
 37 39  1  0  0  0
 37 47  1  0  0  0
 37 66  1  0  0  0
 37106  1  0  0  0
 38 43  2  0  0  0
 38 46  1  0  0  0
 38 47  1  0  0  0
 39 64  1  0  0  0
 39 67  2  0  0  0
 40 52  1  0  0  0
 40 53  2  0  0  0
 40 58  1  0  0  0
 41107  1  0  0  0
 41108  1  0  0  0
 41109  1  0  0  0
 41 48  1  0  0  0
 42 43  1  0  0  0
 42 66  1  0  0  0
 42110  1  0  0  0
 42111  1  0  0  0
 43 44  1  0  0  0
 44112  1  0  0  0
 45 46  2  0  0  0
 45113  1  0  0  0
 46114  1  0  0  0
 47115  1  0  0  0
 47116  1  0  0  0
 48 56  1  0  0  0
 48 65  1  0  0  0
 48117  1  0  0  0
 49 50  1  0  0  0
 49 53  1  0  0  0
 49 64  1  0  0  0
 49118  1  0  0  0
 50 51  1  0  0  0
 50119  1  0  0  0
 50120  1  0  0  0
 51 52  1  0  0  0
 51121  1  0  0  0
 51122  1  0  0  0
 52123  1  0  0  0
 52124  1  0  0  0
 53 54  1  0  0  0
 54 55  2  0  0  0
 54125  1  0  0  0
 55 57  1  0  0  0
 55126  1  0  0  0
 56 69  2  0  0  0
 57 58  2  0  0  0
 57127  1  0  0  0
 58128  1  0  0  0
 59 60  1  0  0  0
 59 61  1  0  0  0
 59 62  1  0  0  0
 60129  1  0  0  0
 60130  1  0  0  0
 60131  1  0  0  0
 61132  1  0  0  0
 61133  1  0  0  0
 61134  1  0  0  0
 62135  1  0  0  0
 62136  1  0  0  0
 62137  1  0  0  0
 63 65  1  0  0  0
 63138  1  0  0  0
 63139  1  0  0  0
 63140  1  0  0  0
 64141  1  0  0  0
 65142  1  0  0  0
 68 82  1  0  0  0
 71 72  2  0  0  0
 71 73  1  0  0  0
 71143  1  0  0  0
 72 75  1  0  0  0
 72144  1  0  0  0
 73 76  2  0  0  0
 73145  1  0  0  0
 74 75  2  0  0  0
 74 76  1  0  0  0
 74146  1  0  0  0
 75 77  1  0  0  0
 76 83  1  0  0  0
 77 78  2  0  0  0
 77147  1  0  0  0
 78 80  1  0  0  0
 78148  1  0  0  0
 79 80  2  0  0  0
 79 82  1  0  0  0
 79149  1  0  0  0
 80 81  1  0  0  0
 81150  1  0  0  0
 81151  1  0  0  0
 81152  1  0  0  0
 82153  1  0  0  0
 82154  1  0  0  0
 83155  1  0  0  0
M  ISO  4   1 100  68 101  82 101  83 100
M  END
> <chiral flag>
0

> <version>
0

> <s_m_source_file>
/data/baiqing/PycharmProjects/Reinvent-master-3.2/result/LINK_invent/BTK/process_docking_weight1_custom_product_contain_oxygen_bond_distance_aromatic_linkinvent_7_9_3/rearranged_h_0124.sdf

> <i_m_source_file_index>
28

> <r_mmod_Potential_Energy-OPLS-2005>
64.4313354492188

> <r_mmod_Stretch_Energy-OPLS-2005>
51.1574630737305

> <r_mmod_Bend_Energy-OPLS-2005>
118.993782043457

> <r_mmod_Torsional_Energy-OPLS-2005>
268.715057373047

> <r_mmod_Improper_Torsional_Energy-OPLS-2005>
10.7624816894531

> <r_mmod_Van_der_Waal_Energy-OPLS-2005>
145.470169067383

> <r_mmod_Electrostatic_Energy-OPLS-2005>
-356.452239990234

> <r_mmod_Solvation_Energy-OPLS-2005>
-205.427734375

> <b_mmod_Minimization_Converged-OPLS-2005>
0

> <r_mmod_RMS_Derivative-OPLS-2005>
3.35163474082947

$$$$
28
                    3D
 Structure written by MMmdl.
159167  0  0  1  0            999 V2000
  -30.7015  -14.4925   20.5738 C   0  0  0  0  0  0
  -30.4238  -12.3217   19.4232 C   0  0  0  0  0  0
  -29.4946  -12.5017   18.2054 C   0  0  0  0  0  0
  -28.0163  -12.3608   18.6197 C   0  0  0  0  0  0
  -27.6578  -13.2094   19.8685 C   0  0  2  0  0  0
  -28.7011  -13.0113   20.9907 C   0  0  0  0  0  0
  -25.2572  -13.8168   20.5670 C   0  0  0  0  0  0
  -24.1830  -13.0441   20.9184 C   0  0  0  0  0  0
  -24.6391  -11.6912   20.8734 C   0  0  0  0  0  0
  -23.9053  -10.4294   21.0403 C   0  0  0  0  0  0
  -24.3607   -9.4213   21.9185 C   0  0  0  0  0  0
  -23.6284   -8.2250   22.0761 C   0  0  0  0  0  0
  -22.4272   -8.0276   21.3541 C   0  0  0  0  0  0
  -21.9902   -9.0252   20.4647 C   0  0  0  0  0  0
  -22.7225  -10.2133   20.3053 C   0  0  0  0  0  0
  -21.6849   -6.0728   22.5275 C   0  0  0  0  0  0
  -21.4013   -6.5634   23.8210 C   0  0  0  0  0  0
  -21.3659   -5.6788   24.9173 C   0  0  0  0  0  0
  -21.6045   -4.3053   24.7226 C   0  0  0  0  0  0
  -21.8817   -3.8141   23.4347 C   0  0  0  0  0  0
  -21.9195   -4.6957   22.3398 C   0  0  0  0  0  0
  -22.7854  -13.5236   21.1848 C   0  0  0  0  0  0
  -22.1660   -4.2145   21.0978 F   0  0  0  0  0  0
  -21.5635   -3.4535   25.7738 F   0  0  0  0  0  0
  -30.0273  -13.3175   20.4313 N   0  0  0  0  0  0
  -26.3007  -12.9342   20.3331 N   0  0  0  0  0  0
  -25.9312  -11.6500   20.5754 N   0  0  0  0  0  0
  -22.0483  -12.8226   22.0400 N   0  0  0  0  0  0
  -25.4283  -15.1888   20.4061 N   0  0  0  0  0  0
  -31.8427  -14.6558   20.1339 O   0  0  0  0  0  0
  -21.6634   -6.8872   21.4240 O   0  0  0  0  0  0
  -22.3535  -14.5543   20.6701 O   0  0  0  0  0  0
  -24.6185  -31.8659   23.2079 C   0  0  0  0  0  0
  -25.9065  -32.4816   23.8388 C   0  0  1  0  0  0
  -27.2272  -27.4096   20.1070 C   0  0  0  0  0  0
  -25.5899  -33.8620   24.2314 N   0  0  0  0  0  0
  -23.4079  -30.4901   21.5480 C   0  0  2  0  0  0
  -24.8557  -28.9592   20.1069 C   0  0  0  0  0  0
  -22.7451  -29.4642   22.4964 C   0  0  0  0  0  0
  -18.0281  -28.1378   22.8476 C   0  0  0  0  0  0
  -24.1490  -36.7321   23.2640 C   0  0  0  0  0  0
  -25.9402  -30.8273   21.3634 C   0  0  0  0  0  0
  -26.0181  -29.4617   20.7061 C   0  0  0  0  0  0
  -27.2114  -28.6971   20.6977 C   0  0  0  0  0  0
  -26.0508  -26.9376   19.4827 C   0  0  0  0  0  0
  -24.8687  -27.6991   19.4863 C   0  0  0  0  0  0
  -23.6175  -29.8275   20.1607 C   0  0  0  0  0  0
  -25.4106  -36.3115   24.0338 C   0  0  1  0  0  0
  -20.5864  -28.3668   23.1296 C   0  0  2  0  0  0
  -20.6764  -26.9400   22.5406 C   0  0  0  0  0  0
  -19.5740  -26.6380   21.5202 C   0  0  0  0  0  0
  -18.1917  -26.7922   22.1607 C   0  0  0  0  0  0
  -19.1527  -28.8840   23.2881 C   0  0  0  0  0  0
  -18.9457  -30.1438   23.8904 C   0  0  0  0  0  0
  -17.6462  -30.6584   24.0561 C   0  0  0  0  0  0
  -25.9036  -34.9480   23.5122 C   0  0  0  0  0  0
  -16.5353  -29.9084   23.6324 C   0  0  0  0  0  0
  -16.7267  -28.6498   23.0345 C   0  0  0  0  0  0
  -26.4474  -31.6609   25.0733 C   0  0  0  0  0  0
  -25.3738  -31.3704   26.1480 C   0  0  0  0  0  0
  -27.0315  -30.3062   24.6109 C   0  0  0  0  0  0
  -27.6046  -32.4337   25.7495 C   0  0  0  0  0  0
  -27.5582  -37.1815   24.8464 C   0  0  0  0  0  0
  -21.4170  -29.3029   22.3718 N   0  0  0  0  0  0
  -26.4300  -37.3789   23.9400 N   0  0  0  0  0  0
  -24.6734  -31.0757   22.0977 N   0  0  0  0  0  0
  -23.4226  -28.8181   23.3011 O   0  0  0  0  0  0
  -28.3489  -26.6048   20.1524 O   0  0  0  0  0  0
  -26.5612  -34.8940   22.4691 O   0  0  0  0  0  0
  -23.5370  -32.1412   23.7456 O   0  0  0  0  0  0
  -29.5875  -17.9768   21.0671 C   0  0  0  0  0  0
  -31.6505  -17.0851   21.9897 C   0  0  0  0  0  0
  -29.9801  -19.3050   21.3959 C   0  0  0  0  0  0
  -32.0530  -18.3860   22.3504 C   0  0  0  0  0  0
  -31.2180  -19.5001   22.0740 C   0  0  0  0  0  0
  -30.4143  -16.8582   21.3513 C   0  0  0  0  0  0
  -29.0788  -20.4298   21.0066 C   0  0  0  0  0  0
  -29.4361  -21.6316   20.4904 C   0  0  0  0  0  0
  -29.0574  -24.2000   20.3209 C   0  0  0  0  0  0
  -33.3895  -18.5475   23.0602 C   0  0  0  0  0  0
  -31.6478  -20.8800   22.5677 C   0  0  0  0  0  0
  -28.4670  -22.7754   20.1604 C   0  0  0  0  0  0
  -28.0937  -25.3183   20.7750 C   0  0  0  0  0  0
  -29.9726  -15.5253   21.0561 N   0  0  0  0  0  0
  -30.2479  -24.4333   20.0870 O   0  0  0  0  0  0
  -31.4680  -12.4226   19.1204 H   0  0  0  0  0  0
  -30.3291  -11.3155   19.8336 H   0  0  0  0  0  0
  -29.7368  -11.7689   17.4344 H   0  0  0  0  0  0
  -29.6587  -13.4822   17.7561 H   0  0  0  0  0  0
  -27.8317  -11.3054   18.8252 H   0  0  0  0  0  0
  -27.3643  -12.6238   17.7861 H   0  0  0  0  0  0
  -27.6944  -14.2528   19.5566 H   0  0  0  0  0  0
  -28.6842  -11.9817   21.3503 H   0  0  0  0  0  0
  -28.4632  -13.6275   21.8583 H   0  0  0  0  0  0
  -25.2747   -9.5694   22.4762 H   0  0  0  0  0  0
  -23.9989   -7.4642   22.7487 H   0  0  0  0  0  0
  -21.0834   -8.8759   19.8954 H   0  0  0  0  0  0
  -22.3671  -10.9671   19.6163 H   0  0  0  0  0  0
  -21.1996   -7.6142   23.9709 H   0  0  0  0  0  0
  -21.1488   -6.0520   25.9075 H   0  0  0  0  0  0
  -22.0597   -2.7604   23.2844 H   0  0  0  0  0  0
  -22.4076  -11.9867   22.4766 H   0  0  0  0  0  0
  -21.1112  -13.1273   22.2620 H   0  0  0  0  0  0
  -24.6580  -15.8418   20.5030 H   0  0  0  0  0  0
  -26.2738  -15.6253   20.0618 H   0  0  0  0  0  0
  -26.7152  -32.5531   23.1168 H   0  0  0  0  0  0
  -25.0082  -33.9778   25.0479 H   0  0  0  0  0  0
  -22.6965  -31.3075   21.4097 H   0  0  0  0  0  0
  -23.3758  -35.9651   23.3315 H   0  0  0  0  0  0
  -24.3579  -36.8922   22.2053 H   0  0  0  0  0  0
  -23.7240  -37.6524   23.6650 H   0  0  0  0  0  0
  -26.0562  -31.5954   20.5969 H   0  0  0  0  0  0
  -26.8266  -30.8779   21.9845 H   0  0  0  0  0  0
  -28.1071  -29.0742   21.1712 H   0  0  0  0  0  0
  -26.0375  -25.9710   18.9970 H   0  0  0  0  0  0
  -23.9798  -27.3104   19.0082 H   0  0  0  0  0  0
  -23.7242  -30.6053   19.4035 H   0  0  0  0  0  0
  -22.7408  -29.2483   19.8639 H   0  0  0  0  0  0
  -25.1283  -36.1997   25.0831 H   0  0  0  0  0  0
  -20.9942  -28.3242   24.1419 H   0  0  0  0  0  0
  -20.5660  -26.2283   23.3606 H   0  0  0  0  0  0
  -21.6642  -26.7444   22.1200 H   0  0  0  0  0  0
  -19.6917  -25.6292   21.1233 H   0  0  0  0  0  0
  -19.6688  -27.3198   20.6737 H   0  0  0  0  0  0
  -17.4191  -26.6668   21.4015 H   0  0  0  0  0  0
  -18.0310  -26.0068   22.9002 H   0  0  0  0  0  0
  -19.7937  -30.7227   24.2304 H   0  0  0  0  0  0
  -17.5023  -31.6267   24.5157 H   0  0  0  0  0  0
  -15.5349  -30.2992   23.7642 H   0  0  0  0  0  0
  -15.8659  -28.0825   22.7055 H   0  0  0  0  0  0
  -24.5919  -30.7044   25.7808 H   0  0  0  0  0  0
  -24.8930  -32.2856   26.4951 H   0  0  0  0  0  0
  -25.8095  -30.8865   27.0228 H   0  0  0  0  0  0
  -26.2854  -29.6820   24.1180 H   0  0  0  0  0  0
  -27.4104  -29.7304   25.4556 H   0  0  0  0  0  0
  -27.8682  -30.4385   23.9241 H   0  0  0  0  0  0
  -27.2664  -33.3639   26.2080 H   0  0  0  0  0  0
  -28.3859  -32.6895   25.0320 H   0  0  0  0  0  0
  -28.0722  -31.8462   26.5411 H   0  0  0  0  0  0
  -28.2603  -38.0111   24.7518 H   0  0  0  0  0  0
  -28.1071  -36.2644   24.6287 H   0  0  0  0  0  0
  -27.2302  -37.1469   25.8866 H   0  0  0  0  0  0
  -20.9344  -29.8796   21.6970 H   0  0  0  0  0  0
  -26.0210  -38.2872   24.1392 H   0  0  0  0  0  0
  -28.6398  -17.8204   20.5698 H   0  0  0  0  0  0
  -32.2923  -16.2494   22.2328 H   0  0  0  0  0  0
  -28.0262  -20.2558   21.1892 H   0  0  0  0  0  0
  -30.4785  -21.8175   20.2728 H   0  0  0  0  0  0
  -34.0547  -17.7128   22.8368 H   0  0  0  0  0  0
  -33.2447  -18.5827   24.1410 H   0  0  0  0  0  0
  -33.9067  -19.4556   22.7502 H   0  0  0  0  0  0
  -30.8118  -21.5638   22.7024 H   0  0  0  0  0  0
  -32.3588  -21.3330   21.8757 H   0  0  0  0  0  0
  -32.1212  -20.8160   23.5474 H   0  0  0  0  0  0
  -27.5691  -22.6784   20.7712 H   0  0  0  0  0  0
  -28.1516  -22.6682   19.1222 H   0  0  0  0  0  0
  -28.1939  -25.4381   21.8540 H   0  0  0  0  0  0
  -27.0782  -24.9651   20.6046 H   0  0  0  0  0  0
  -28.9924  -15.3334   21.1919 H   0  0  0  0  0  0
  1 25  1  0  0  0
  1 30  2  0  0  0
  1 84  1  0  0  0
  2  3  1  0  0  0
  2 25  1  0  0  0
  2 86  1  0  0  0
  2 87  1  0  0  0
  3  4  1  0  0  0
  3 88  1  0  0  0
  3 89  1  0  0  0
  4  5  1  0  0  0
  4 90  1  0  0  0
  4 91  1  0  0  0
  5  6  1  0  0  0
  5 26  1  0  0  0
  5 92  1  0  0  0
  6 25  1  0  0  0
  6 93  1  0  0  0
  6 94  1  0  0  0
  7  8  2  0  0  0
  7 26  1  0  0  0
  7 29  1  0  0  0
  8  9  1  0  0  0
  8 22  1  0  0  0
  9 10  1  0  0  0
  9 27  2  0  0  0
 10 11  2  0  0  0
 10 15  1  0  0  0
 11 12  1  0  0  0
 11 95  1  0  0  0
 12 13  2  0  0  0
 12 96  1  0  0  0
 13 14  1  0  0  0
 13 31  1  0  0  0
 14 15  2  0  0  0
 14 97  1  0  0  0
 15 98  1  0  0  0
 16 17  2  0  0  0
 16 21  1  0  0  0
 16 31  1  0  0  0
 17 18  1  0  0  0
 17 99  1  0  0  0
 18 19  2  0  0  0
 18100  1  0  0  0
 19 20  1  0  0  0
 19 24  1  0  0  0
 20 21  2  0  0  0
 20101  1  0  0  0
 21 23  1  0  0  0
 22 28  1  0  0  0
 22 32  2  0  0  0
 26 27  1  0  0  0
 28102  1  0  0  0
 28103  1  0  0  0
 29104  1  0  0  0
 29105  1  0  0  0
 33 34  1  0  0  0
 33 66  1  0  0  0
 33 70  2  0  0  0
 34 36  1  0  0  0
 34 59  1  0  0  0
 34106  1  0  0  0
 35 44  2  0  0  0
 35 45  1  0  0  0
 35 68  1  0  0  0
 36 56  1  0  0  0
 36107  1  0  0  0
 37 39  1  0  0  0
 37 47  1  0  0  0
 37 66  1  0  0  0
 37108  1  0  0  0
 38 43  2  0  0  0
 38 46  1  0  0  0
 38 47  1  0  0  0
 39 64  1  0  0  0
 39 67  2  0  0  0
 40 52  1  0  0  0
 40 53  2  0  0  0
 40 58  1  0  0  0
 41109  1  0  0  0
 41110  1  0  0  0
 41111  1  0  0  0
 41 48  1  0  0  0
 42 43  1  0  0  0
 42 66  1  0  0  0
 42112  1  0  0  0
 42113  1  0  0  0
 43 44  1  0  0  0
 44114  1  0  0  0
 45 46  2  0  0  0
 45115  1  0  0  0
 46116  1  0  0  0
 47117  1  0  0  0
 47118  1  0  0  0
 48 56  1  0  0  0
 48 65  1  0  0  0
 48119  1  0  0  0
 49 50  1  0  0  0
 49 53  1  0  0  0
 49 64  1  0  0  0
 49120  1  0  0  0
 50 51  1  0  0  0
 50121  1  0  0  0
 50122  1  0  0  0
 51 52  1  0  0  0
 51123  1  0  0  0
 51124  1  0  0  0
 52125  1  0  0  0
 52126  1  0  0  0
 53 54  1  0  0  0
 54 55  2  0  0  0
 54127  1  0  0  0
 55 57  1  0  0  0
 55128  1  0  0  0
 56 69  2  0  0  0
 57 58  2  0  0  0
 57129  1  0  0  0
 58130  1  0  0  0
 59 60  1  0  0  0
 59 61  1  0  0  0
 59 62  1  0  0  0
 60131  1  0  0  0
 60132  1  0  0  0
 60133  1  0  0  0
 61134  1  0  0  0
 61135  1  0  0  0
 61136  1  0  0  0
 62137  1  0  0  0
 62138  1  0  0  0
 62139  1  0  0  0
 63 65  1  0  0  0
 63140  1  0  0  0
 63141  1  0  0  0
 63142  1  0  0  0
 64143  1  0  0  0
 65144  1  0  0  0
 68 83  1  0  0  0
 71 73  2  0  0  0
 71 76  1  0  0  0
 71145  1  0  0  0
 72 74  1  0  0  0
 72 76  2  0  0  0
 72146  1  0  0  0
 73 75  1  0  0  0
 73 77  1  0  0  0
 74 75  2  0  0  0
 74 80  1  0  0  0
 75 81  1  0  0  0
 76 84  1  0  0  0
 77 78  2  0  0  0
 77147  1  0  0  0
 78 82  1  0  0  0
 78148  1  0  0  0
 79 82  1  0  0  0
 79 83  1  0  0  0
 79 85  2  0  0  0
 80149  1  0  0  0
 80150  1  0  0  0
 80151  1  0  0  0
 81152  1  0  0  0
 81153  1  0  0  0
 81154  1  0  0  0
 82155  1  0  0  0
 82156  1  0  0  0
 83157  1  0  0  0
 83158  1  0  0  0
 84159  1  0  0  0
M  ISO  4   1 100  68 101  83 101  84 100
M  END
> <chiral flag>
0

> <version>
0

> <s_m_source_file>
/data/baiqing/PycharmProjects/Reinvent-master-3.2/result/LINK_invent/BTK/process_docking_weight1_custom_product_contain_oxygen_bond_distance_aromatic_linkinvent_7_9_3/rearranged_h_0124.sdf

> <i_m_source_file_index>
29

> <r_mmod_Potential_Energy-OPLS-2005>
3.88163685798645

> <r_mmod_Stretch_Energy-OPLS-2005>
44.3207702636719

> <r_mmod_Bend_Energy-OPLS-2005>
95.4904251098633

> <r_mmod_Torsional_Energy-OPLS-2005>
255.222061157227

> <r_mmod_Improper_Torsional_Energy-OPLS-2005>
4.31785011291504

> <r_mmod_Van_der_Waal_Energy-OPLS-2005>
159.778015136719

> <r_mmod_Electrostatic_Energy-OPLS-2005>
-348.684265136719

> <r_mmod_Solvation_Energy-OPLS-2005>
-225.282028198242

> <b_mmod_Minimization_Converged-OPLS-2005>
0

> <r_mmod_RMS_Derivative-OPLS-2005>
1.79359078407288

$$$$
29
                    3D
 Structure written by MMmdl.
151159  0  0  1  0            999 V2000
  -30.5303  -15.0201   20.3826 C   0  0  0  0  0  0
  -30.4361  -12.6333   19.5065 C   0  0  0  0  0  0
  -29.5234  -12.5339   18.2622 C   0  0  0  0  0  0
  -28.0590  -12.3115   18.6820 C   0  0  0  0  0  0
  -27.6239  -13.2572   19.8316 C   0  0  2  0  0  0
  -28.6653  -13.3281   20.9681 C   0  0  0  0  0  0
  -25.2441  -13.8234   20.5721 C   0  0  0  0  0  0
  -24.1768  -13.0445   20.9239 C   0  0  0  0  0  0
  -24.6397  -11.6933   20.8758 C   0  0  0  0  0  0
  -23.9085  -10.4297   21.0410 C   0  0  0  0  0  0
  -24.3632   -9.4208   21.9185 C   0  0  0  0  0  0
  -23.6299   -8.2245   22.0754 C   0  0  0  0  0  0
  -22.4279   -8.0286   21.3547 C   0  0  0  0  0  0
  -21.9920   -9.0263   20.4650 C   0  0  0  0  0  0
  -22.7256  -10.2139   20.3060 C   0  0  0  0  0  0
  -21.6856   -6.0738   22.5277 C   0  0  0  0  0  0
  -21.4018   -6.5641   23.8212 C   0  0  0  0  0  0
  -21.3659   -5.6793   24.9172 C   0  0  0  0  0  0
  -21.6042   -4.3055   24.7223 C   0  0  0  0  0  0
  -21.8819   -3.8148   23.4345 C   0  0  0  0  0  0
  -21.9194   -4.6966   22.3400 C   0  0  0  0  0  0
  -22.7787  -13.5207   21.1887 C   0  0  0  0  0  0
  -22.1662   -4.2151   21.0979 F   0  0  0  0  0  0
  -21.5627   -3.4539   25.7738 F   0  0  0  0  0  0
  -29.9312  -13.7540   20.3587 N   0  0  0  0  0  0
  -26.2864  -12.9479   20.3228 N   0  0  0  0  0  0
  -25.9331  -11.6601   20.5734 N   0  0  0  0  0  0
  -22.0442  -12.8194   22.0444 N   0  0  0  0  0  0
  -25.4095  -15.1964   20.4149 N   0  0  0  0  0  0
  -31.7501  -15.0219   20.1883 O   0  0  0  0  0  0
  -21.6643   -6.8881   21.4239 O   0  0  0  0  0  0
  -22.3466  -14.5508   20.6727 O   0  0  0  0  0  0
  -24.6490  -31.8394   23.1846 C   0  0  0  0  0  0
  -25.9240  -32.4670   23.8252 C   0  0  1  0  0  0
  -27.2101  -27.0792   20.1650 C   0  0  0  0  0  0
  -25.5964  -33.8477   24.2164 N   0  0  0  0  0  0
  -23.4552  -30.4582   21.5313 C   0  0  2  0  0  0
  -24.9047  -28.8758   20.1129 C   0  0  0  0  0  0
  -22.7595  -29.4527   22.4838 C   0  0  0  0  0  0
  -18.0313  -28.1403   22.8473 C   0  0  0  0  0  0
  -24.1494  -36.7247   23.2643 C   0  0  0  0  0  0
  -26.0160  -30.6943   21.3940 C   0  0  0  0  0  0
  -26.0850  -29.2999   20.7371 C   0  0  0  0  0  0
  -27.2399  -28.4200   20.7427 C   0  0  0  0  0  0
  -26.0081  -26.7779   19.4879 C   0  0  0  0  0  0
  -24.8829  -27.6302   19.4700 C   0  0  0  0  0  0
  -23.6853  -29.7860   20.1522 C   0  0  0  0  0  0
  -25.4128  -36.3016   24.0310 C   0  0  1  0  0  0
  -20.5928  -28.3735   23.1220 C   0  0  2  0  0  0
  -20.6796  -26.9432   22.5402 C   0  0  0  0  0  0
  -19.5768  -26.6382   21.5214 C   0  0  0  0  0  0
  -18.1950  -26.7939   22.1624 C   0  0  0  0  0  0
  -19.1570  -28.8888   23.2837 C   0  0  0  0  0  0
  -18.9483  -30.1482   23.8866 C   0  0  0  0  0  0
  -17.6478  -30.6595   24.0559 C   0  0  0  0  0  0
  -25.9081  -34.9393   23.5048 C   0  0  0  0  0  0
  -16.5369  -29.9084   23.6339 C   0  0  0  0  0  0
  -16.7296  -28.6506   23.0354 C   0  0  0  0  0  0
  -26.4534  -31.6561   25.0722 C   0  0  0  0  0  0
  -25.3698  -31.3772   26.1403 C   0  0  0  0  0  0
  -27.0412  -30.2945   24.6362 C   0  0  0  0  0  0
  -27.6049  -32.4344   25.7514 C   0  0  0  0  0  0
  -27.5575  -37.1783   24.8464 C   0  0  0  0  0  0
  -21.4281  -29.3052   22.3585 N   0  0  0  0  0  0
  -26.4288  -37.3734   23.9402 N   0  0  0  0  0  0
  -24.7268  -31.0200   22.0910 N   0  0  0  0  0  0
  -23.4212  -28.8079   23.3012 O   0  0  0  0  0  0
  -28.2392  -26.0499   20.2038 O   0  0  0  0  0  0
  -26.5670  -34.8899   22.4630 O   0  0  0  0  0  0
  -23.5597  -32.1296   23.7033 O   0  0  0  0  0  0
  -30.3738  -20.5225   19.0713 C   0  0  0  0  0  0
  -31.0380  -19.4077   18.5236 C   0  0  0  0  0  0
  -29.2473  -18.9706   20.5422 C   0  0  0  0  0  0
  -29.4058  -20.3998   20.0817 C   0  0  0  0  0  0
  -30.8233  -18.0680   18.9346 C   0  0  0  0  0  0
  -29.9603  -17.7417   20.0288 C   0  0  0  0  0  0
  -28.6670  -21.7907   20.4916 C   0  0  0  0  0  0
  -28.7712  -23.1682   20.0889 C   0  0  0  0  0  0
  -31.5169  -17.0245   18.0732 C   0  0  0  0  0  0
  -27.8935  -24.5320   20.4883 C   0  0  0  0  0  0
  -29.7662  -16.2453   20.4589 N   0  0  0  0  0  0
  -31.4683  -12.7914   19.1907 H   0  0  0  0  0  0
  -30.4379  -11.6950   20.0634 H   0  0  0  0  0  0
  -29.8543  -11.7232   17.6118 H   0  0  0  0  0  0
  -29.6027  -13.4503   17.6751 H   0  0  0  0  0  0
  -27.9661  -11.2743   19.0058 H   0  0  0  0  0  0
  -27.3953  -12.4234   17.8240 H   0  0  0  0  0  0
  -27.5742  -14.2500   19.3834 H   0  0  0  0  0  0
  -28.7702  -12.3656   21.4710 H   0  0  0  0  0  0
  -28.3542  -14.0447   21.7298 H   0  0  0  0  0  0
  -25.2777   -9.5683   22.4762 H   0  0  0  0  0  0
  -24.0009   -7.4636   22.7474 H   0  0  0  0  0  0
  -21.0850   -8.8785   19.8958 H   0  0  0  0  0  0
  -22.3711  -10.9680   19.6172 H   0  0  0  0  0  0
  -21.2012   -7.6151   23.9714 H   0  0  0  0  0  0
  -21.1480   -6.0525   25.9075 H   0  0  0  0  0  0
  -22.0597   -2.7610   23.2845 H   0  0  0  0  0  0
  -22.4072  -11.9867   22.4843 H   0  0  0  0  0  0
  -21.1056  -13.1209   22.2649 H   0  0  0  0  0  0
  -24.6389  -15.8464   20.5273 H   0  0  0  0  0  0
  -26.2476  -15.6372   20.0582 H   0  0  0  0  0  0
  -26.7307  -32.5256   23.0975 H   0  0  0  0  0  0
  -25.0074  -33.9582   25.0287 H   0  0  0  0  0  0
  -22.7608  -31.2861   21.3737 H   0  0  0  0  0  0
  -23.3760  -35.9576   23.3295 H   0  0  0  0  0  0
  -24.3573  -36.8895   22.2060 H   0  0  0  0  0  0
  -23.7252  -37.6439   23.6693 H   0  0  0  0  0  0
  -26.1814  -31.4457   20.6207 H   0  0  0  0  0  0
  -26.8825  -30.7432   22.0416 H   0  0  0  0  0  0
  -28.1386  -28.7411   21.2505 H   0  0  0  0  0  0
  -25.9097  -25.8378   18.9665 H   0  0  0  0  0  0
  -23.9874  -27.3053   18.9582 H   0  0  0  0  0  0
  -23.8289  -30.5599   19.3973 H   0  0  0  0  0  0
  -22.7982  -29.2331   19.8382 H   0  0  0  0  0  0
  -25.1322  -36.1833   25.0803 H   0  0  0  0  0  0
  -21.0021  -28.3333   24.1342 H   0  0  0  0  0  0
  -20.5691  -26.2349   23.3627 H   0  0  0  0  0  0
  -21.6660  -26.7429   22.1200 H   0  0  0  0  0  0
  -19.6927  -25.6283   21.1266 H   0  0  0  0  0  0
  -19.6707  -27.3173   20.6729 H   0  0  0  0  0  0
  -17.4217  -26.6681   21.4030 H   0  0  0  0  0  0
  -18.0349  -26.0091   22.9031 H   0  0  0  0  0  0
  -19.7957  -30.7310   24.2219 H   0  0  0  0  0  0
  -17.5028  -31.6271   24.5168 H   0  0  0  0  0  0
  -15.5367  -30.2973   23.7685 H   0  0  0  0  0  0
  -15.8697  -28.0816   22.7081 H   0  0  0  0  0  0
  -24.5879  -30.7121   25.7717 H   0  0  0  0  0  0
  -24.8887  -32.2963   26.4758 H   0  0  0  0  0  0
  -25.7960  -30.8983   27.0228 H   0  0  0  0  0  0
  -26.3051  -29.6652   24.1348 H   0  0  0  0  0  0
  -27.3967  -29.7268   25.4971 H   0  0  0  0  0  0
  -27.8983  -30.4159   23.9735 H   0  0  0  0  0  0
  -27.2626  -33.3663   26.2026 H   0  0  0  0  0  0
  -28.3894  -32.6879   25.0371 H   0  0  0  0  0  0
  -28.0682  -31.8517   26.5487 H   0  0  0  0  0  0
  -28.2587  -38.0083   24.7500 H   0  0  0  0  0  0
  -28.1076  -36.2611   24.6306 H   0  0  0  0  0  0
  -27.2288  -37.1446   25.8866 H   0  0  0  0  0  0
  -20.9503  -29.8756   21.6747 H   0  0  0  0  0  0
  -26.0151  -38.2802   24.1396 H   0  0  0  0  0  0
  -30.5962  -21.4962   18.6588 H   0  0  0  0  0  0
  -31.7244  -19.6004   17.7105 H   0  0  0  0  0  0
  -28.5224  -18.8083   21.3269 H   0  0  0  0  0  0
  -27.8950  -21.6211   21.2296 H   0  0  0  0  0  0
  -29.5296  -23.3879   19.3521 H   0  0  0  0  0  0
  -31.7388  -17.4193   17.0811 H   0  0  0  0  0  0
  -30.8890  -16.1498   17.9094 H   0  0  0  0  0  0
  -32.4674  -16.7277   18.5149 H   0  0  0  0  0  0
  -27.7307  -24.4679   21.5645 H   0  0  0  0  0  0
  -26.9123  -24.3276   20.0669 H   0  0  0  0  0  0
  -28.8371  -16.0612   20.8072 H   0  0  0  0  0  0
  1 25  1  0  0  0
  1 30  2  0  0  0
  1 81  1  0  0  0
  2  3  1  0  0  0
  2 25  1  0  0  0
  2 82  1  0  0  0
  2 83  1  0  0  0
  3  4  1  0  0  0
  3 84  1  0  0  0
  3 85  1  0  0  0
  4  5  1  0  0  0
  4 86  1  0  0  0
  4 87  1  0  0  0
  5  6  1  0  0  0
  5 26  1  0  0  0
  5 88  1  0  0  0
  6 25  1  0  0  0
  6 89  1  0  0  0
  6 90  1  0  0  0
  7  8  2  0  0  0
  7 26  1  0  0  0
  7 29  1  0  0  0
  8  9  1  0  0  0
  8 22  1  0  0  0
  9 10  1  0  0  0
  9 27  2  0  0  0
 10 11  2  0  0  0
 10 15  1  0  0  0
 11 12  1  0  0  0
 11 91  1  0  0  0
 12 13  2  0  0  0
 12 92  1  0  0  0
 13 14  1  0  0  0
 13 31  1  0  0  0
 14 15  2  0  0  0
 14 93  1  0  0  0
 15 94  1  0  0  0
 16 17  2  0  0  0
 16 21  1  0  0  0
 16 31  1  0  0  0
 17 18  1  0  0  0
 17 95  1  0  0  0
 18 19  2  0  0  0
 18 96  1  0  0  0
 19 20  1  0  0  0
 19 24  1  0  0  0
 20 21  2  0  0  0
 20 97  1  0  0  0
 21 23  1  0  0  0
 22 28  1  0  0  0
 22 32  2  0  0  0
 26 27  1  0  0  0
 28 98  1  0  0  0
 28 99  1  0  0  0
 29100  1  0  0  0
 29101  1  0  0  0
 33 34  1  0  0  0
 33 66  1  0  0  0
 33 70  2  0  0  0
 34 36  1  0  0  0
 34 59  1  0  0  0
 34102  1  0  0  0
 35 44  2  0  0  0
 35 45  1  0  0  0
 35 68  1  0  0  0
 36 56  1  0  0  0
 36103  1  0  0  0
 37 39  1  0  0  0
 37 47  1  0  0  0
 37 66  1  0  0  0
 37104  1  0  0  0
 38 43  2  0  0  0
 38 46  1  0  0  0
 38 47  1  0  0  0
 39 64  1  0  0  0
 39 67  2  0  0  0
 40 52  1  0  0  0
 40 53  2  0  0  0
 40 58  1  0  0  0
 41105  1  0  0  0
 41106  1  0  0  0
 41107  1  0  0  0
 41 48  1  0  0  0
 42 43  1  0  0  0
 42 66  1  0  0  0
 42108  1  0  0  0
 42109  1  0  0  0
 43 44  1  0  0  0
 44110  1  0  0  0
 45 46  2  0  0  0
 45111  1  0  0  0
 46112  1  0  0  0
 47113  1  0  0  0
 47114  1  0  0  0
 48 56  1  0  0  0
 48 65  1  0  0  0
 48115  1  0  0  0
 49 50  1  0  0  0
 49 53  1  0  0  0
 49 64  1  0  0  0
 49116  1  0  0  0
 50 51  1  0  0  0
 50117  1  0  0  0
 50118  1  0  0  0
 51 52  1  0  0  0
 51119  1  0  0  0
 51120  1  0  0  0
 52121  1  0  0  0
 52122  1  0  0  0
 53 54  1  0  0  0
 54 55  2  0  0  0
 54123  1  0  0  0
 55 57  1  0  0  0
 55124  1  0  0  0
 56 69  2  0  0  0
 57 58  2  0  0  0
 57125  1  0  0  0
 58126  1  0  0  0
 59 60  1  0  0  0
 59 61  1  0  0  0
 59 62  1  0  0  0
 60127  1  0  0  0
 60128  1  0  0  0
 60129  1  0  0  0
 61130  1  0  0  0
 61131  1  0  0  0
 61132  1  0  0  0
 62133  1  0  0  0
 62134  1  0  0  0
 62135  1  0  0  0
 63 65  1  0  0  0
 63136  1  0  0  0
 63137  1  0  0  0
 63138  1  0  0  0
 64139  1  0  0  0
 65140  1  0  0  0
 68 80  1  0  0  0
 71 72  2  0  0  0
 71 74  1  0  0  0
 71141  1  0  0  0
 72 75  1  0  0  0
 72142  1  0  0  0
 73 74  2  0  0  0
 73 76  1  0  0  0
 73143  1  0  0  0
 74 77  1  0  0  0
 75 76  2  0  0  0
 75 79  1  0  0  0
 76 81  1  0  0  0
 77 78  2  0  0  0
 77144  1  0  0  0
 78 80  1  0  0  0
 78145  1  0  0  0
 79146  1  0  0  0
 79147  1  0  0  0
 79148  1  0  0  0
 80149  1  0  0  0
 80150  1  0  0  0
 81151  1  0  0  0
M  ISO  4   1 100  68 101  80 101  81 100
M  END
> <chiral flag>
0

> <version>
0

> <s_m_source_file>
/data/baiqing/PycharmProjects/Reinvent-master-3.2/result/LINK_invent/BTK/process_docking_weight1_custom_product_contain_oxygen_bond_distance_aromatic_linkinvent_7_9_3/rearranged_h_0124.sdf

> <i_m_source_file_index>
30

> <r_mmod_Potential_Energy-OPLS-2005>
638.435302734375

> <r_mmod_Stretch_Energy-OPLS-2005>
322.438598632812

> <r_mmod_Bend_Energy-OPLS-2005>
262.934051513672

> <r_mmod_Torsional_Energy-OPLS-2005>
243.794143676758

> <r_mmod_Improper_Torsional_Energy-OPLS-2005>
4.23120641708374

> <r_mmod_Van_der_Waal_Energy-OPLS-2005>
139.681350708008

> <r_mmod_Electrostatic_Energy-OPLS-2005>
-375.69482421875

> <r_mmod_Solvation_Energy-OPLS-2005>
-205.498428344727

> <b_mmod_Minimization_Converged-OPLS-2005>
0

> <r_mmod_RMS_Derivative-OPLS-2005>
0.500337719917297

$$$$
30
                    3D
 Structure written by MMmdl.
162170  0  0  1  0            999 V2000
  -30.6794  -14.6471   20.4587 C   0  0  0  0  0  0
  -30.4197  -12.3862   19.4764 C   0  0  0  0  0  0
  -29.5084  -12.4974   18.2331 C   0  0  0  0  0  0
  -28.0303  -12.3426   18.6391 C   0  0  0  0  0  0
  -27.6483  -13.2315   19.8527 C   0  0  2  0  0  0
  -28.6908  -13.1345   20.9878 C   0  0  0  0  0  0
  -25.2528  -13.8188   20.5702 C   0  0  0  0  0  0
  -24.1814  -13.0436   20.9190 C   0  0  0  0  0  0
  -24.6398  -11.6905   20.8735 C   0  0  0  0  0  0
  -23.9074  -10.4277   21.0413 C   0  0  0  0  0  0
  -24.3616   -9.4181   21.9197 C   0  0  0  0  0  0
  -23.6279   -8.2220   22.0760 C   0  0  0  0  0  0
  -22.4268   -8.0263   21.3540 C   0  0  0  0  0  0
  -21.9900   -9.0244   20.4656 C   0  0  0  0  0  0
  -22.7235  -10.2117   20.3068 C   0  0  0  0  0  0
  -21.6845   -6.0719   22.5274 C   0  0  0  0  0  0
  -21.4020   -6.5624   23.8207 C   0  0  0  0  0  0
  -21.3666   -5.6777   24.9169 C   0  0  0  0  0  0
  -21.6061   -4.3043   24.7224 C   0  0  0  0  0  0
  -21.8816   -3.8130   23.4345 C   0  0  0  0  0  0
  -21.9192   -4.6944   22.3400 C   0  0  0  0  0  0
  -22.7827  -13.5209   21.1857 C   0  0  0  0  0  0
  -22.1657   -4.2124   21.0971 F   0  0  0  0  0  0
  -21.5640   -3.4533   25.7743 F   0  0  0  0  0  0
  -30.0103  -13.4464   20.4233 N   0  0  0  0  0  0
  -26.2974  -12.9408   20.3297 N   0  0  0  0  0  0
  -25.9331  -11.6538   20.5726 N   0  0  0  0  0  0
  -22.0475  -12.8219   22.0432 N   0  0  0  0  0  0
  -25.4251  -15.1907   20.4147 N   0  0  0  0  0  0
  -31.8571  -14.6944   20.0949 O   0  0  0  0  0  0
  -21.6627   -6.8867   21.4237 O   0  0  0  0  0  0
  -22.3501  -14.5514   20.6687 O   0  0  0  0  0  0
  -24.6246  -31.8600   23.2040 C   0  0  0  0  0  0
  -25.9109  -32.4767   23.8366 C   0  0  1  0  0  0
  -27.2207  -27.3340   20.1115 C   0  0  0  0  0  0
  -25.5951  -33.8584   24.2297 N   0  0  0  0  0  0
  -23.4186  -30.4835   21.5460 C   0  0  2  0  0  0
  -24.8656  -28.9406   20.1094 C   0  0  0  0  0  0
  -22.7457  -29.4640   22.4939 C   0  0  0  0  0  0
  -18.0315  -28.1396   22.8493 C   0  0  0  0  0  0
  -24.1491  -36.7298   23.2633 C   0  0  0  0  0  0
  -25.9566  -30.7928   21.3733 C   0  0  0  0  0  0
  -26.0321  -29.4210   20.7180 C   0  0  0  0  0  0
  -27.2170  -28.6289   20.7109 C   0  0  0  0  0  0
  -26.0398  -26.9095   19.4661 C   0  0  0  0  0  0
  -24.8706  -27.6902   19.4728 C   0  0  0  0  0  0
  -23.6296  -29.8142   20.1624 C   0  0  0  0  0  0
  -25.4117  -36.3087   24.0343 C   0  0  1  0  0  0
  -20.5906  -28.3710   23.1290 C   0  0  2  0  0  0
  -20.6818  -26.9428   22.5442 C   0  0  0  0  0  0
  -19.5813  -26.6375   21.5258 C   0  0  0  0  0  0
  -18.1959  -26.7945   22.1620 C   0  0  0  0  0  0
  -19.1563  -28.8869   23.2896 C   0  0  0  0  0  0
  -18.9480  -30.1484   23.8890 C   0  0  0  0  0  0
  -17.6477  -30.6591   24.0567 C   0  0  0  0  0  0
  -25.9051  -34.9460   23.5104 C   0  0  0  0  0  0
  -16.5368  -29.9085   23.6342 C   0  0  0  0  0  0
  -16.7306  -28.6511   23.0358 C   0  0  0  0  0  0
  -26.4533  -31.6563   25.0710 C   0  0  0  0  0  0
  -25.3791  -31.3677   26.1439 C   0  0  0  0  0  0
  -27.0359  -30.2990   24.6124 C   0  0  0  0  0  0
  -27.6102  -32.4277   25.7458 C   0  0  0  0  0  0
  -27.5581  -37.1802   24.8461 C   0  0  0  0  0  0
  -21.4175  -29.3074   22.3683 N   0  0  0  0  0  0
  -26.4295  -37.3776   23.9400 N   0  0  0  0  0  0
  -24.6856  -31.0618   22.0993 N   0  0  0  0  0  0
  -23.4173  -28.8160   23.3014 O   0  0  0  0  0  0
  -28.3207  -26.4704   20.1489 O   0  0  0  0  0  0
  -26.5578  -34.8924   22.4648 O   0  0  0  0  0  0
  -23.5418  -32.1383   23.7393 O   0  0  0  0  0  0
  -29.4370  -19.3234   19.2475 C   0  0  0  0  0  0
  -29.8010  -19.2130   21.6138 C   0  0  0  0  0  0
  -29.8138  -18.5357   20.3708 C   0  0  0  0  0  0
  -29.0214  -20.6889   19.3511 C   0  0  0  0  0  0
  -29.4283  -20.5883   21.7314 C   0  0  0  0  0  0
  -29.0165  -21.3620   20.6064 C   0  0  0  0  0  0
  -30.3117  -17.1079   20.1990 C   0  0  0  0  0  0
  -29.9338  -15.9081   20.7617 C   0  0  0  0  0  0
  -28.5218  -21.3914   18.0989 C   0  0  0  0  0  0
  -28.1207  -21.1961   23.8199 C   0  0  0  0  0  0
  -28.1458  -25.2817   22.2411 C   0  0  0  0  0  0
  -29.4756  -21.2352   23.1069 C   0  0  0  0  0  0
  -28.9488  -23.8835   20.2340 C   0  0  0  0  0  0
  -28.0719  -25.1242   20.7130 C   0  0  2  0  0  0
  -28.4584  -22.6365   20.8259 O   0  0  0  0  0  0
  -31.4679  -12.4586   19.1832 H   0  0  0  0  0  0
  -30.3176  -11.4061   19.9454 H   0  0  0  0  0  0
  -29.7745  -11.7327   17.5034 H   0  0  0  0  0  0
  -29.6634  -13.4580   17.7418 H   0  0  0  0  0  0
  -27.8762  -11.2921   18.8905 H   0  0  0  0  0  0
  -27.3739  -12.5520   17.7926 H   0  0  0  0  0  0
  -27.6552  -14.2596   19.4902 H   0  0  0  0  0  0
  -28.6937  -12.1329   21.4187 H   0  0  0  0  0  0
  -28.4379  -13.8101   21.8047 H   0  0  0  0  0  0
  -25.2762   -9.5644   22.4772 H   0  0  0  0  0  0
  -23.9985   -7.4606   22.7468 H   0  0  0  0  0  0
  -21.0844   -8.8774   19.8956 H   0  0  0  0  0  0
  -22.3716  -10.9663   19.6177 H   0  0  0  0  0  0
  -21.2005   -7.6130   23.9706 H   0  0  0  0  0  0
  -21.1509   -6.0507   25.9077 H   0  0  0  0  0  0
  -22.0595   -2.7594   23.2848 H   0  0  0  0  0  0
  -22.4064  -11.9881   22.4849 H   0  0  0  0  0  0
  -21.1098  -13.1279   22.2629 H   0  0  0  0  0  0
  -24.6637  -15.8503   20.5307 H   0  0  0  0  0  0
  -26.2874  -15.6304   20.1160 H   0  0  0  0  0  0
  -26.7162  -32.5402   23.1099 H   0  0  0  0  0  0
  -25.0142  -33.9755   25.0468 H   0  0  0  0  0  0
  -22.7162  -31.3062   21.4035 H   0  0  0  0  0  0
  -23.3757  -35.9614   23.3283 H   0  0  0  0  0  0
  -24.3561  -36.8910   22.2033 H   0  0  0  0  0  0
  -23.7244  -37.6520   23.6636 H   0  0  0  0  0  0
  -26.0824  -31.5527   20.6000 H   0  0  0  0  0  0
  -26.8406  -30.8436   21.9995 H   0  0  0  0  0  0
  -28.1106  -28.9872   21.1998 H   0  0  0  0  0  0
  -26.0082  -25.9578   18.9535 H   0  0  0  0  0  0
  -23.9805  -27.3248   18.9810 H   0  0  0  0  0  0
  -23.7373  -30.5867   19.4009 H   0  0  0  0  0  0
  -22.7550  -29.2309   19.8680 H   0  0  0  0  0  0
  -25.1290  -36.1949   25.0840 H   0  0  0  0  0  0
  -21.0019  -28.3290   24.1409 H   0  0  0  0  0  0
  -20.5728  -26.2324   23.3646 H   0  0  0  0  0  0
  -21.6694  -26.7467   22.1222 H   0  0  0  0  0  0
  -19.6977  -25.6262   21.1367 H   0  0  0  0  0  0
  -19.6786  -27.3123   20.6756 H   0  0  0  0  0  0
  -17.4257  -26.6706   21.3991 H   0  0  0  0  0  0
  -18.0349  -26.0087   22.9017 H   0  0  0  0  0  0
  -19.7947  -30.7345   24.2218 H   0  0  0  0  0  0
  -17.5018  -31.6262   24.5180 H   0  0  0  0  0  0
  -15.5373  -30.2982   23.7696 H   0  0  0  0  0  0
  -15.8699  -28.0836   22.7075 H   0  0  0  0  0  0
  -24.6022  -30.6958   25.7772 H   0  0  0  0  0  0
  -24.8919  -32.2815   26.4831 H   0  0  0  0  0  0
  -25.8146  -30.8908   27.0220 H   0  0  0  0  0  0
  -26.2922  -29.6752   24.1151 H   0  0  0  0  0  0
  -27.4079  -29.7225   25.4603 H   0  0  0  0  0  0
  -27.8777  -30.4271   23.9323 H   0  0  0  0  0  0
  -27.2772  -33.3592   26.2027 H   0  0  0  0  0  0
  -28.3919  -32.6790   25.0289 H   0  0  0  0  0  0
  -28.0754  -31.8387   26.5365 H   0  0  0  0  0  0
  -28.2608  -38.0094   24.7498 H   0  0  0  0  0  0
  -28.1093  -36.2629   24.6309 H   0  0  0  0  0  0
  -27.2282  -37.1449   25.8862 H   0  0  0  0  0  0
  -20.9336  -29.8775   21.6879 H   0  0  0  0  0  0
  -26.0199  -38.2863   24.1379 H   0  0  0  0  0  0
  -29.4437  -18.8551   18.2732 H   0  0  0  0  0  0
  -30.1125  -18.6748   22.4971 H   0  0  0  0  0  0
  -31.1495  -17.0590   19.5157 H   0  0  0  0  0  0
  -29.0965  -15.8910   21.4411 H   0  0  0  0  0  0
  -28.3033  -20.6823   17.3007 H   0  0  0  0  0  0
  -29.2692  -22.0905   17.7280 H   0  0  0  0  0  0
  -27.6029  -21.9417   18.3051 H   0  0  0  0  0  0
  -28.1940  -21.6392   24.8145 H   0  0  0  0  0  0
  -27.7699  -20.1701   23.9362 H   0  0  0  0  0  0
  -27.3666  -21.7525   23.2618 H   0  0  0  0  0  0
  -29.1263  -25.6367   22.5560 H   0  0  0  0  0  0
  -27.9534  -24.3334   22.7446 H   0  0  0  0  0  0
  -27.4029  -25.9963   22.5960 H   0  0  0  0  0  0
  -29.8156  -22.2676   23.0183 H   0  0  0  0  0  0
  -30.2269  -20.7319   23.7168 H   0  0  0  0  0  0
  -29.9902  -24.0297   20.5204 H   0  0  0  0  0  0
  -28.9191  -23.8274   19.1478 H   0  0  0  0  0  0
  -27.0502  -24.8175   20.4943 H   0  0  0  0  0  0
  1 25  1  0  0  0
  1 30  2  0  0  0
  1 78  1  0  0  0
  2  3  1  0  0  0
  2 25  1  0  0  0
  2 86  1  0  0  0
  2 87  1  0  0  0
  3  4  1  0  0  0
  3 88  1  0  0  0
  3 89  1  0  0  0
  4  5  1  0  0  0
  4 90  1  0  0  0
  4 91  1  0  0  0
  5  6  1  0  0  0
  5 26  1  0  0  0
  5 92  1  0  0  0
  6 25  1  0  0  0
  6 93  1  0  0  0
  6 94  1  0  0  0
  7  8  2  0  0  0
  7 26  1  0  0  0
  7 29  1  0  0  0
  8  9  1  0  0  0
  8 22  1  0  0  0
  9 10  1  0  0  0
  9 27  2  0  0  0
 10 11  2  0  0  0
 10 15  1  0  0  0
 11 12  1  0  0  0
 11 95  1  0  0  0
 12 13  2  0  0  0
 12 96  1  0  0  0
 13 14  1  0  0  0
 13 31  1  0  0  0
 14 15  2  0  0  0
 14 97  1  0  0  0
 15 98  1  0  0  0
 16 17  2  0  0  0
 16 21  1  0  0  0
 16 31  1  0  0  0
 17 18  1  0  0  0
 17 99  1  0  0  0
 18 19  2  0  0  0
 18100  1  0  0  0
 19 20  1  0  0  0
 19 24  1  0  0  0
 20 21  2  0  0  0
 20101  1  0  0  0
 21 23  1  0  0  0
 22 28  1  0  0  0
 22 32  2  0  0  0
 26 27  1  0  0  0
 28102  1  0  0  0
 28103  1  0  0  0
 29104  1  0  0  0
 29105  1  0  0  0
 33 34  1  0  0  0
 33 66  1  0  0  0
 33 70  2  0  0  0
 34 36  1  0  0  0
 34 59  1  0  0  0
 34106  1  0  0  0
 35 44  2  0  0  0
 35 45  1  0  0  0
 35 68  1  0  0  0
 36 56  1  0  0  0
 36107  1  0  0  0
 37 39  1  0  0  0
 37 47  1  0  0  0
 37 66  1  0  0  0
 37108  1  0  0  0
 38 43  2  0  0  0
 38 46  1  0  0  0
 38 47  1  0  0  0
 39 64  1  0  0  0
 39 67  2  0  0  0
 40 52  1  0  0  0
 40 53  2  0  0  0
 40 58  1  0  0  0
 41109  1  0  0  0
 41110  1  0  0  0
 41111  1  0  0  0
 41 48  1  0  0  0
 42 43  1  0  0  0
 42 66  1  0  0  0
 42112  1  0  0  0
 42113  1  0  0  0
 43 44  1  0  0  0
 44114  1  0  0  0
 45 46  2  0  0  0
 45115  1  0  0  0
 46116  1  0  0  0
 47117  1  0  0  0
 47118  1  0  0  0
 48 56  1  0  0  0
 48 65  1  0  0  0
 48119  1  0  0  0
 49 50  1  0  0  0
 49 53  1  0  0  0
 49 64  1  0  0  0
 49120  1  0  0  0
 50 51  1  0  0  0
 50121  1  0  0  0
 50122  1  0  0  0
 51 52  1  0  0  0
 51123  1  0  0  0
 51124  1  0  0  0
 52125  1  0  0  0
 52126  1  0  0  0
 53 54  1  0  0  0
 54 55  2  0  0  0
 54127  1  0  0  0
 55 57  1  0  0  0
 55128  1  0  0  0
 56 69  2  0  0  0
 57 58  2  0  0  0
 57129  1  0  0  0
 58130  1  0  0  0
 59 60  1  0  0  0
 59 61  1  0  0  0
 59 62  1  0  0  0
 60131  1  0  0  0
 60132  1  0  0  0
 60133  1  0  0  0
 61134  1  0  0  0
 61135  1  0  0  0
 61136  1  0  0  0
 62137  1  0  0  0
 62138  1  0  0  0
 62139  1  0  0  0
 63 65  1  0  0  0
 63140  1  0  0  0
 63141  1  0  0  0
 63142  1  0  0  0
 64143  1  0  0  0
 65144  1  0  0  0
 68 84  1  0  0  0
 71 73  2  0  0  0
 71 74  1  0  0  0
 71145  1  0  0  0
 72 73  1  0  0  0
 72 75  2  0  0  0
 72146  1  0  0  0
 73 77  1  0  0  0
 74 76  2  0  0  0
 74 79  1  0  0  0
 75 76  1  0  0  0
 75 82  1  0  0  0
 76 85  1  0  0  0
 77 78  2  0  0  0
 77147  1  0  0  0
 78148  1  0  0  0
 79149  1  0  0  0
 79150  1  0  0  0
 79151  1  0  0  0
 80 82  1  0  0  0
 80152  1  0  0  0
 80153  1  0  0  0
 80154  1  0  0  0
 81155  1  0  0  0
 81156  1  0  0  0
 81157  1  0  0  0
 81 84  1  0  0  0
 82158  1  0  0  0
 82159  1  0  0  0
 83 84  1  0  0  0
 83 85  1  0  0  0
 83160  1  0  0  0
 83161  1  0  0  0
 84162  1  0  0  0
M  ISO  4   1 100  68 101  78 100  84 101
M  END
> <chiral flag>
0

> <version>
0

> <s_m_source_file>
/data/baiqing/PycharmProjects/Reinvent-master-3.2/result/LINK_invent/BTK/process_docking_weight1_custom_product_contain_oxygen_bond_distance_aromatic_linkinvent_7_9_3/rearranged_h_0124.sdf

> <i_m_source_file_index>
31

> <r_mmod_Potential_Energy-OPLS-2005>
109.666328430176

> <r_mmod_Stretch_Energy-OPLS-2005>
76.7378540039062

> <r_mmod_Bend_Energy-OPLS-2005>
142.352401733398

> <r_mmod_Torsional_Energy-OPLS-2005>
248.489852905273

> <r_mmod_Improper_Torsional_Energy-OPLS-2005>
5.12616348266602

> <r_mmod_Van_der_Waal_Energy-OPLS-2005>
139.398315429688

> <r_mmod_Electrostatic_Energy-OPLS-2005>
-365.724273681641

> <r_mmod_Solvation_Energy-OPLS-2005>
-187.23616027832

> <b_mmod_Minimization_Converged-OPLS-2005>
0

> <r_mmod_RMS_Derivative-OPLS-2005>
3.33512234687805

$$$$
31
                    3D
 Structure written by MMmdl.
156164  0  0  1  0            999 V2000
  -30.5689  -14.8835   20.4926 C   0  0  0  0  0  0
  -30.4522  -12.5524   19.5062 C   0  0  0  0  0  0
  -29.5240  -12.5326   18.2661 C   0  0  0  0  0  0
  -28.0547  -12.3265   18.6768 C   0  0  0  0  0  0
  -27.6478  -13.2337   19.8649 C   0  0  2  0  0  0
  -28.6887  -13.1716   21.0024 C   0  0  0  0  0  0
  -25.2536  -13.8190   20.5739 C   0  0  0  0  0  0
  -24.1821  -13.0440   20.9204 C   0  0  0  0  0  0
  -24.6410  -11.6904   20.8733 C   0  0  0  0  0  0
  -23.9068  -10.4293   21.0398 C   0  0  0  0  0  0
  -24.3619   -9.4209   21.9188 C   0  0  0  0  0  0
  -23.6295   -8.2237   22.0753 C   0  0  0  0  0  0
  -22.4278   -8.0281   21.3534 C   0  0  0  0  0  0
  -21.9914   -9.0254   20.4634 C   0  0  0  0  0  0
  -22.7235  -10.2128   20.3051 C   0  0  0  0  0  0
  -21.6853   -6.0732   22.5264 C   0  0  0  0  0  0
  -21.4012   -6.5631   23.8199 C   0  0  0  0  0  0
  -21.3661   -5.6783   24.9160 C   0  0  0  0  0  0
  -21.6042   -4.3044   24.7214 C   0  0  0  0  0  0
  -21.8823   -3.8146   23.4333 C   0  0  0  0  0  0
  -21.9197   -4.6962   22.3391 C   0  0  0  0  0  0
  -22.7835  -13.5223   21.1850 C   0  0  0  0  0  0
  -22.1665   -4.2144   21.0970 F   0  0  0  0  0  0
  -21.5636   -3.4537   25.7736 F   0  0  0  0  0  0
  -29.9826  -13.6124   20.4478 N   0  0  0  0  0  0
  -26.2980  -12.9405   20.3359 N   0  0  0  0  0  0
  -25.9354  -11.6537   20.5783 N   0  0  0  0  0  0
  -22.0487  -12.8207   22.0401 N   0  0  0  0  0  0
  -25.4225  -15.1918   20.4171 N   0  0  0  0  0  0
  -31.6926  -15.0157   19.9925 O   0  0  0  0  0  0
  -21.6638   -6.8877   21.4231 O   0  0  0  0  0  0
  -22.3518  -14.5540   20.6710 O   0  0  0  0  0  0
  -24.6399  -31.8446   23.1897 C   0  0  0  0  0  0
  -25.9182  -32.4689   23.8282 C   0  0  1  0  0  0
  -27.2224  -27.1715   20.1427 C   0  0  0  0  0  0
  -25.5930  -33.8495   24.2188 N   0  0  0  0  0  0
  -23.4424  -30.4636   21.5335 C   0  0  2  0  0  0
  -24.8942  -28.9008   20.1054 C   0  0  0  0  0  0
  -22.7537  -29.4531   22.4861 C   0  0  0  0  0  0
  -18.0277  -28.1377   22.8460 C   0  0  0  0  0  0
  -24.1485  -36.7257   23.2649 C   0  0  0  0  0  0
  -25.9948  -30.7347   21.3783 C   0  0  0  0  0  0
  -26.0695  -29.3480   20.7224 C   0  0  0  0  0  0
  -27.2350  -28.4984   20.7259 C   0  0  0  0  0  0
  -26.0226  -26.8228   19.4818 C   0  0  0  0  0  0
  -24.8809  -27.6521   19.4698 C   0  0  0  0  0  0
  -23.6651  -29.7931   20.1515 C   0  0  0  0  0  0
  -25.4115  -36.3032   24.0316 C   0  0  1  0  0  0
  -20.5891  -28.3685   23.1251 C   0  0  2  0  0  0
  -20.6756  -26.9390   22.5407 C   0  0  0  0  0  0
  -19.5739  -26.6363   21.5194 C   0  0  0  0  0  0
  -18.1913  -26.7911   22.1606 C   0  0  0  0  0  0
  -19.1541  -28.8852   23.2842 C   0  0  0  0  0  0
  -18.9471  -30.1461   23.8855 C   0  0  0  0  0  0
  -17.6475  -30.6582   24.0557 C   0  0  0  0  0  0
  -25.9056  -34.9399   23.5063 C   0  0  0  0  0  0
  -16.5361  -29.9079   23.6344 C   0  0  0  0  0  0
  -16.7270  -28.6501   23.0350 C   0  0  0  0  0  0
  -26.4508  -31.6561   25.0717 C   0  0  0  0  0  0
  -25.3692  -31.3738   26.1424 C   0  0  0  0  0  0
  -27.0357  -30.2956   24.6270 C   0  0  0  0  0  0
  -27.6073  -32.4312   25.7469 C   0  0  0  0  0  0
  -27.5561  -37.1798   24.8477 C   0  0  0  0  0  0
  -21.4234  -29.3033   22.3657 N   0  0  0  0  0  0
  -26.4281  -37.3742   23.9401 N   0  0  0  0  0  0
  -24.7116  -31.0339   22.0905 N   0  0  0  0  0  0
  -23.4188  -28.8058   23.2990 O   0  0  0  0  0  0
  -28.2848  -26.2067   20.2284 O   0  0  0  0  0  0
  -26.5655  -34.8909   22.4647 O   0  0  0  0  0  0
  -23.5526  -32.1301   23.7148 O   0  0  0  0  0  0
  -30.3762  -18.4209   19.7255 C   0  0  0  0  0  0
  -30.1651  -19.8329   19.4382 C   0  0  0  0  0  0
  -28.7962  -18.5987   21.4553 C   0  0  0  0  0  0
  -29.7002  -17.7027   20.7657 C   0  0  0  0  0  0
  -28.5844  -20.0090   21.1841 C   0  0  0  0  0  0
  -29.2756  -20.7131   20.1511 C   0  0  0  0  0  0
  -27.4924  -20.7005   21.8743 C   0  0  0  0  0  0
  -27.6256  -21.3206   23.0592 C   0  0  0  0  0  0
  -29.8532  -16.1624   21.2448 C   0  0  0  0  0  0
  -26.5113  -22.0813   23.7437 C   0  0  0  0  0  0
  -28.0508  -24.7023   19.9492 C   0  0  0  0  0  0
  -28.9302  -23.3865   20.4843 C   0  0  0  0  0  0
  -29.4125  -15.9328   22.4120 N   0  0  0  0  0  0
  -29.0084  -22.0747   19.6994 O   0  0  0  0  0  0
  -31.4848  -12.7094   19.1910 H   0  0  0  0  0  0
  -30.4499  -11.5811   20.0017 H   0  0  0  0  0  0
  -29.8311  -11.7394   17.5830 H   0  0  0  0  0  0
  -29.6239  -13.4694   17.7169 H   0  0  0  0  0  0
  -27.9379  -11.2799   18.9623 H   0  0  0  0  0  0
  -27.3900  -12.4884   17.8273 H   0  0  0  0  0  0
  -27.6413  -14.2561   19.4865 H   0  0  0  0  0  0
  -28.7671  -12.1579   21.3982 H   0  0  0  0  0  0
  -28.3606  -13.7736   21.8455 H   0  0  0  0  0  0
  -25.2769   -9.5679   22.4759 H   0  0  0  0  0  0
  -24.0000   -7.4632   22.7476 H   0  0  0  0  0  0
  -21.0851   -8.8766   19.8947 H   0  0  0  0  0  0
  -22.3701  -10.9668   19.6159 H   0  0  0  0  0  0
  -21.1990   -7.6136   23.9696 H   0  0  0  0  0  0
  -21.1482   -6.0515   25.9058 H   0  0  0  0  0  0
  -22.0602   -2.7610   23.2835 H   0  0  0  0  0  0
  -22.4119  -11.9865   22.4776 H   0  0  0  0  0  0
  -21.1115  -13.1217   22.2640 H   0  0  0  0  0  0
  -24.6614  -15.8483   20.5518 H   0  0  0  0  0  0
  -26.2827  -15.6352   20.1233 H   0  0  0  0  0  0
  -26.7263  -32.5297   23.1022 H   0  0  0  0  0  0
  -25.0074  -33.9631   25.0337 H   0  0  0  0  0  0
  -22.7437  -31.2897   21.3793 H   0  0  0  0  0  0
  -23.3726  -35.9626   23.3368 H   0  0  0  0  0  0
  -24.3544  -36.8795   22.2053 H   0  0  0  0  0  0
  -23.7274  -37.6488   23.6638 H   0  0  0  0  0  0
  -26.1366  -31.4884   20.6037 H   0  0  0  0  0  0
  -26.8712  -30.7900   22.0121 H   0  0  0  0  0  0
  -28.1324  -28.8347   21.2269 H   0  0  0  0  0  0
  -25.9329  -25.8698   18.9828 H   0  0  0  0  0  0
  -23.9850  -27.3058   18.9734 H   0  0  0  0  0  0
  -23.7879  -30.5667   19.3928 H   0  0  0  0  0  0
  -22.7845  -29.2247   19.8474 H   0  0  0  0  0  0
  -25.1295  -36.1863   25.0804 H   0  0  0  0  0  0
  -20.9981  -28.3242   24.1377 H   0  0  0  0  0  0
  -20.5597  -26.2284   23.3601 H   0  0  0  0  0  0
  -21.6626  -26.7350   22.1232 H   0  0  0  0  0  0
  -19.6901  -25.6266   21.1232 H   0  0  0  0  0  0
  -19.6701  -27.3177   20.6721 H   0  0  0  0  0  0
  -17.4179  -26.6656   21.4013 H   0  0  0  0  0  0
  -18.0339  -26.0041   22.8996 H   0  0  0  0  0  0
  -19.7954  -30.7291   24.2190 H   0  0  0  0  0  0
  -17.5026  -31.6255   24.5180 H   0  0  0  0  0  0
  -15.5368  -30.2980   23.7694 H   0  0  0  0  0  0
  -15.8648  -28.0828   22.7087 H   0  0  0  0  0  0
  -24.5927  -30.6996   25.7766 H   0  0  0  0  0  0
  -24.8826  -32.2911   26.4772 H   0  0  0  0  0  0
  -25.8003  -30.8994   27.0249 H   0  0  0  0  0  0
  -26.2963  -29.6692   24.1270 H   0  0  0  0  0  0
  -27.3961  -29.7241   25.4832 H   0  0  0  0  0  0
  -27.8859  -30.4185   23.9555 H   0  0  0  0  0  0
  -27.2725  -33.3682   26.1943 H   0  0  0  0  0  0
  -28.3936  -32.6739   25.0299 H   0  0  0  0  0  0
  -28.0675  -31.8466   26.5450 H   0  0  0  0  0  0
  -28.2620  -38.0057   24.7460 H   0  0  0  0  0  0
  -28.1001  -36.2575   24.6371 H   0  0  0  0  0  0
  -27.2269  -37.1537   25.8883 H   0  0  0  0  0  0
  -20.9441  -29.8783   21.6870 H   0  0  0  0  0  0
  -26.0133  -38.2808   24.1395 H   0  0  0  0  0  0
  -31.0861  -17.8780   19.1172 H   0  0  0  0  0  0
  -30.7102  -20.2519   18.6045 H   0  0  0  0  0  0
  -28.1837  -18.1860   22.2443 H   0  0  0  0  0  0
  -26.5353  -20.7035   21.3627 H   0  0  0  0  0  0
  -28.5772  -21.3035   23.5756 H   0  0  0  0  0  0
  -25.6594  -22.2327   23.0749 H   0  0  0  0  0  0
  -26.8725  -23.0636   24.0562 H   0  0  0  0  0  0
  -26.1653  -21.5422   24.6277 H   0  0  0  0  0  0
  -27.0307  -24.4742   20.2647 H   0  0  0  0  0  0
  -28.0295  -24.6246   18.8627 H   0  0  0  0  0  0
  -28.6350  -23.1782   21.5103 H   0  0  0  0  0  0
  -29.9664  -23.7166   20.5701 H   0  0  0  0  0  0
  -29.0465  -16.7769   22.8333 H   0  0  0  0  0  0
  1 25  1  0  0  0
  1 30  2  0  0  0
  1 79  1  0  0  0
  2  3  1  0  0  0
  2 25  1  0  0  0
  2 85  1  0  0  0
  2 86  1  0  0  0
  3  4  1  0  0  0
  3 87  1  0  0  0
  3 88  1  0  0  0
  4  5  1  0  0  0
  4 89  1  0  0  0
  4 90  1  0  0  0
  5  6  1  0  0  0
  5 26  1  0  0  0
  5 91  1  0  0  0
  6 25  1  0  0  0
  6 92  1  0  0  0
  6 93  1  0  0  0
  7  8  2  0  0  0
  7 26  1  0  0  0
  7 29  1  0  0  0
  8  9  1  0  0  0
  8 22  1  0  0  0
  9 10  1  0  0  0
  9 27  2  0  0  0
 10 11  2  0  0  0
 10 15  1  0  0  0
 11 12  1  0  0  0
 11 94  1  0  0  0
 12 13  2  0  0  0
 12 95  1  0  0  0
 13 14  1  0  0  0
 13 31  1  0  0  0
 14 15  2  0  0  0
 14 96  1  0  0  0
 15 97  1  0  0  0
 16 17  2  0  0  0
 16 21  1  0  0  0
 16 31  1  0  0  0
 17 18  1  0  0  0
 17 98  1  0  0  0
 18 19  2  0  0  0
 18 99  1  0  0  0
 19 20  1  0  0  0
 19 24  1  0  0  0
 20 21  2  0  0  0
 20100  1  0  0  0
 21 23  1  0  0  0
 22 28  1  0  0  0
 22 32  2  0  0  0
 26 27  1  0  0  0
 28101  1  0  0  0
 28102  1  0  0  0
 29103  1  0  0  0
 29104  1  0  0  0
 33 34  1  0  0  0
 33 66  1  0  0  0
 33 70  2  0  0  0
 34 36  1  0  0  0
 34 59  1  0  0  0
 34105  1  0  0  0
 35 44  2  0  0  0
 35 45  1  0  0  0
 35 68  1  0  0  0
 36 56  1  0  0  0
 36106  1  0  0  0
 37 39  1  0  0  0
 37 47  1  0  0  0
 37 66  1  0  0  0
 37107  1  0  0  0
 38 43  2  0  0  0
 38 46  1  0  0  0
 38 47  1  0  0  0
 39 64  1  0  0  0
 39 67  2  0  0  0
 40 52  1  0  0  0
 40 53  2  0  0  0
 40 58  1  0  0  0
 41108  1  0  0  0
 41109  1  0  0  0
 41110  1  0  0  0
 41 48  1  0  0  0
 42 43  1  0  0  0
 42 66  1  0  0  0
 42111  1  0  0  0
 42112  1  0  0  0
 43 44  1  0  0  0
 44113  1  0  0  0
 45 46  2  0  0  0
 45114  1  0  0  0
 46115  1  0  0  0
 47116  1  0  0  0
 47117  1  0  0  0
 48 56  1  0  0  0
 48 65  1  0  0  0
 48118  1  0  0  0
 49 50  1  0  0  0
 49 53  1  0  0  0
 49 64  1  0  0  0
 49119  1  0  0  0
 50 51  1  0  0  0
 50120  1  0  0  0
 50121  1  0  0  0
 51 52  1  0  0  0
 51122  1  0  0  0
 51123  1  0  0  0
 52124  1  0  0  0
 52125  1  0  0  0
 53 54  1  0  0  0
 54 55  2  0  0  0
 54126  1  0  0  0
 55 57  1  0  0  0
 55127  1  0  0  0
 56 69  2  0  0  0
 57 58  2  0  0  0
 57128  1  0  0  0
 58129  1  0  0  0
 59 60  1  0  0  0
 59 61  1  0  0  0
 59 62  1  0  0  0
 60130  1  0  0  0
 60131  1  0  0  0
 60132  1  0  0  0
 61133  1  0  0  0
 61134  1  0  0  0
 61135  1  0  0  0
 62136  1  0  0  0
 62137  1  0  0  0
 62138  1  0  0  0
 63 65  1  0  0  0
 63139  1  0  0  0
 63140  1  0  0  0
 63141  1  0  0  0
 64142  1  0  0  0
 65143  1  0  0  0
 68 81  1  0  0  0
 71 72  2  0  0  0
 71 74  1  0  0  0
 71144  1  0  0  0
 72 76  1  0  0  0
 72145  1  0  0  0
 73 74  2  0  0  0
 73 75  1  0  0  0
 73146  1  0  0  0
 74 79  1  0  0  0
 75 76  2  0  0  0
 75 77  1  0  0  0
 76 84  1  0  0  0
 77 78  2  0  0  0
 77147  1  0  0  0
 78 80  1  0  0  0
 78148  1  0  0  0
 79 83  2  0  0  0
 80149  1  0  0  0
 80150  1  0  0  0
 80151  1  0  0  0
 81 82  1  0  0  0
 81152  1  0  0  0
 81153  1  0  0  0
 82 84  1  0  0  0
 82154  1  0  0  0
 82155  1  0  0  0
 83156  1  0  0  0
M  ISO  4   1 100  68 101  79 100  81 101
M  END
> <chiral flag>
0

> <version>
0

> <s_m_source_file>
/data/baiqing/PycharmProjects/Reinvent-master-3.2/result/LINK_invent/BTK/process_docking_weight1_custom_product_contain_oxygen_bond_distance_aromatic_linkinvent_7_9_3/rearranged_h_0124.sdf

> <i_m_source_file_index>
32

> <r_mmod_Potential_Energy-OPLS-2005>
623.788391113281

> <r_mmod_Stretch_Energy-OPLS-2005>
228.447250366211

> <r_mmod_Bend_Energy-OPLS-2005>
276.165069580078

> <r_mmod_Torsional_Energy-OPLS-2005>
245.962158203125

> <r_mmod_Improper_Torsional_Energy-OPLS-2005>
4.30179119110107

> <r_mmod_Van_der_Waal_Energy-OPLS-2005>
140.276779174805

> <r_mmod_Electrostatic_Energy-OPLS-2005>
-225.457046508789

> <r_mmod_Solvation_Energy-OPLS-2005>
-197.910888671875

> <b_mmod_Minimization_Converged-OPLS-2005>
0

> <r_mmod_RMS_Derivative-OPLS-2005>
3.80252122879028

$$$$
32
                    3D
 Structure written by MMmdl.
157165  0  0  1  0            999 V2000
  -30.5821  -14.7499   20.4710 C   0  0  0  0  0  0
  -30.4463  -12.4607   19.4548 C   0  0  0  0  0  0
  -29.5084  -12.4951   18.2265 C   0  0  0  0  0  0
  -28.0350  -12.3141   18.6470 C   0  0  0  0  0  0
  -27.6415  -13.2172   19.8460 C   0  0  2  0  0  0
  -28.6924  -13.1408   20.9737 C   0  0  0  0  0  0
  -25.2536  -13.8171   20.5677 C   0  0  0  0  0  0
  -24.1808  -13.0445   20.9191 C   0  0  0  0  0  0
  -24.6374  -11.6910   20.8747 C   0  0  0  0  0  0
  -23.9030  -10.4299   21.0404 C   0  0  0  0  0  0
  -24.3590   -9.4214   21.9180 C   0  0  0  0  0  0
  -23.6274   -8.2246   22.0753 C   0  0  0  0  0  0
  -22.4262   -8.0278   21.3536 C   0  0  0  0  0  0
  -21.9885   -9.0244   20.4638 C   0  0  0  0  0  0
  -22.7198  -10.2133   20.3052 C   0  0  0  0  0  0
  -21.6854   -6.0725   22.5265 C   0  0  0  0  0  0
  -21.4015   -6.5628   23.8197 C   0  0  0  0  0  0
  -21.3651   -5.6780   24.9160 C   0  0  0  0  0  0
  -21.6049   -4.3046   24.7212 C   0  0  0  0  0  0
  -21.8820   -3.8136   23.4333 C   0  0  0  0  0  0
  -21.9194   -4.6952   22.3389 C   0  0  0  0  0  0
  -22.7831  -13.5243   21.1841 C   0  0  0  0  0  0
  -22.1663   -4.2135   21.0969 F   0  0  0  0  0  0
  -21.5625   -3.4533   25.7726 F   0  0  0  0  0  0
  -29.9861  -13.5132   20.3857 N   0  0  0  0  0  0
  -26.2939  -12.9341   20.3269 N   0  0  0  0  0  0
  -25.9302  -11.6506   20.5756 N   0  0  0  0  0  0
  -22.0475  -12.8248   22.0400 N   0  0  0  0  0  0
  -25.4262  -15.1891   20.4059 N   0  0  0  0  0  0
  -31.7834  -14.8825   20.2202 O   0  0  0  0  0  0
  -21.6637   -6.8868   21.4228 O   0  0  0  0  0  0
  -22.3512  -14.5544   20.6678 O   0  0  0  0  0  0
  -24.6344  -31.8551   23.1960 C   0  0  0  0  0  0
  -25.9164  -32.4737   23.8307 C   0  0  1  0  0  0
  -27.2225  -27.2502   20.1236 C   0  0  0  0  0  0
  -25.5975  -33.8534   24.2238 N   0  0  0  0  0  0
  -23.4323  -30.4769   21.5428 C   0  0  2  0  0  0
  -24.8787  -28.9246   20.1127 C   0  0  0  0  0  0
  -22.7532  -29.4602   22.4922 C   0  0  0  0  0  0
  -18.0322  -28.1369   22.8480 C   0  0  0  0  0  0
  -24.1503  -36.7262   23.2645 C   0  0  0  0  0  0
  -25.9806  -30.7624   21.3799 C   0  0  0  0  0  0
  -26.0545  -29.3861   20.7190 C   0  0  0  0  0  0
  -27.2292  -28.5641   20.7092 C   0  0  0  0  0  0
  -26.0155  -26.8619   19.4935 C   0  0  0  0  0  0
  -24.8664  -27.6704   19.4910 C   0  0  0  0  0  0
  -23.6501  -29.8099   20.1611 C   0  0  0  0  0  0
  -25.4126  -36.3039   24.0328 C   0  0  1  0  0  0
  -20.5929  -28.3693   23.1253 C   0  0  2  0  0  0
  -20.6817  -26.9404   22.5404 C   0  0  0  0  0  0
  -19.5782  -26.6366   21.5225 C   0  0  0  0  0  0
  -18.1955  -26.7902   22.1623 C   0  0  0  0  0  0
  -19.1575  -28.8849   23.2847 C   0  0  0  0  0  0
  -18.9492  -30.1455   23.8850 C   0  0  0  0  0  0
  -17.6484  -30.6568   24.0553 C   0  0  0  0  0  0
  -25.9077  -34.9421   23.5079 C   0  0  0  0  0  0
  -16.5378  -29.9062   23.6336 C   0  0  0  0  0  0
  -16.7301  -28.6488   23.0333 C   0  0  0  0  0  0
  -26.4521  -31.6568   25.0695 C   0  0  0  0  0  0
  -25.3718  -31.3759   26.1399 C   0  0  0  0  0  0
  -27.0405  -30.2989   24.6216 C   0  0  0  0  0  0
  -27.6077  -32.4331   25.7462 C   0  0  0  0  0  0
  -27.5581  -37.1780   24.8469 C   0  0  0  0  0  0
  -21.4244  -29.3021   22.3633 N   0  0  0  0  0  0
  -26.4299  -37.3739   23.9407 N   0  0  0  0  0  0
  -24.7011  -31.0497   22.0953 N   0  0  0  0  0  0
  -23.4218  -28.8141   23.3039 O   0  0  0  0  0  0
  -28.3153  -26.3451   20.1667 O   0  0  0  0  0  0
  -26.5619  -34.8909   22.4639 O   0  0  0  0  0  0
  -23.5487  -32.1395   23.7242 O   0  0  0  0  0  0
  -29.8448  -18.6980   23.0337 C   0  0  0  0  0  0
  -29.7238  -18.4462   20.2779 C   0  0  0  0  0  0
  -29.8782  -17.4016   22.4762 C   0  0  0  0  0  0
  -29.8606  -17.2224   21.0650 C   0  0  0  0  0  0
  -29.6302  -19.7896   20.8445 C   0  0  0  0  0  0
  -29.7380  -19.8629   22.2521 C   0  0  0  0  0  0
  -28.3960  -15.8409   23.8034 C   0  0  0  0  0  0
  -29.8395  -16.2323   23.4528 C   0  0  0  0  0  0
  -29.1468  -23.6904   20.2345 C   0  0  0  0  0  0
  -28.0283  -24.8618   20.1739 C   0  0  0  0  0  0
  -28.6643  -22.1534   20.4497 C   0  0  0  0  0  0
  -29.7272  -15.8417   20.5349 N   0  0  0  0  0  0
  -29.5238  -20.9857   20.0703 O   0  0  0  0  0  0
  -29.7648  -21.0593   22.8862 F   0  0  0  0  0  0
  -31.4820  -12.6104   19.1427 H   0  0  0  0  0  0
  -30.4147  -11.4844   19.9420 H   0  0  0  0  0  0
  -29.7892  -11.7151   17.5174 H   0  0  0  0  0  0
  -29.6236  -13.4437   17.7001 H   0  0  0  0  0  0
  -27.8960  -11.2666   18.9170 H   0  0  0  0  0  0
  -27.3707  -12.4974   17.8006 H   0  0  0  0  0  0
  -27.6335  -14.2367   19.4620 H   0  0  0  0  0  0
  -28.7396  -12.1373   21.3993 H   0  0  0  0  0  0
  -28.4266  -13.8013   21.7984 H   0  0  0  0  0  0
  -25.2746   -9.5695   22.4742 H   0  0  0  0  0  0
  -23.9986   -7.4640   22.7483 H   0  0  0  0  0  0
  -21.0813   -8.8742   19.8948 H   0  0  0  0  0  0
  -22.3644  -10.9663   19.6155 H   0  0  0  0  0  0
  -21.2012   -7.6136   23.9680 H   0  0  0  0  0  0
  -21.1475   -6.0526   25.9057 H   0  0  0  0  0  0
  -22.0615   -2.7601   23.2837 H   0  0  0  0  0  0
  -22.4099  -11.9906   22.4771 H   0  0  0  0  0  0
  -21.1088  -13.1267   22.2600 H   0  0  0  0  0  0
  -24.6629  -15.8471   20.5184 H   0  0  0  0  0  0
  -26.2662  -15.6244   20.0491 H   0  0  0  0  0  0
  -26.7221  -32.5375   23.1040 H   0  0  0  0  0  0
  -25.0143  -33.9674   25.0394 H   0  0  0  0  0  0
  -22.7280  -31.2987   21.3926 H   0  0  0  0  0  0
  -23.3764  -35.9593   23.3293 H   0  0  0  0  0  0
  -24.3612  -36.8899   22.2066 H   0  0  0  0  0  0
  -23.7264  -37.6462   23.6685 H   0  0  0  0  0  0
  -26.1244  -31.5232   20.6108 H   0  0  0  0  0  0
  -26.8563  -30.8063   22.0149 H   0  0  0  0  0  0
  -28.1291  -28.9155   21.1956 H   0  0  0  0  0  0
  -25.9124  -25.9094   19.0005 H   0  0  0  0  0  0
  -23.9655  -27.3086   19.0130 H   0  0  0  0  0  0
  -23.7676  -30.5840   19.4019 H   0  0  0  0  0  0
  -22.7693  -29.2384   19.8640 H   0  0  0  0  0  0
  -25.1300  -36.1892   25.0818 H   0  0  0  0  0  0
  -21.0021  -28.3293   24.1382 H   0  0  0  0  0  0
  -20.5799  -26.2297   23.3614 H   0  0  0  0  0  0
  -21.6667  -26.7455   22.1145 H   0  0  0  0  0  0
  -19.6967  -25.6293   21.1243 H   0  0  0  0  0  0
  -19.6727  -27.3184   20.6759 H   0  0  0  0  0  0
  -17.4241  -26.6684   21.3999 H   0  0  0  0  0  0
  -18.0313  -26.0026   22.8995 H   0  0  0  0  0  0
  -19.7974  -30.7281   24.2184 H   0  0  0  0  0  0
  -17.5048  -31.6254   24.5153 H   0  0  0  0  0  0
  -15.5374  -30.2940   23.7695 H   0  0  0  0  0  0
  -15.8697  -28.0818   22.7028 H   0  0  0  0  0  0
  -24.5896  -30.7101   25.7729 H   0  0  0  0  0  0
  -24.8890  -32.2944   26.4744 H   0  0  0  0  0  0
  -25.7978  -30.8989   27.0230 H   0  0  0  0  0  0
  -26.3010  -29.6676   24.1267 H   0  0  0  0  0  0
  -27.4129  -29.7310   25.4750 H   0  0  0  0  0  0
  -27.8854  -30.4256   23.9435 H   0  0  0  0  0  0
  -27.2699  -33.3693   26.1920 H   0  0  0  0  0  0
  -28.3922  -32.6806   25.0295 H   0  0  0  0  0  0
  -28.0685  -31.8529   26.5464 H   0  0  0  0  0  0
  -28.2574  -38.0092   24.7500 H   0  0  0  0  0  0
  -28.1091  -36.2620   24.6298 H   0  0  0  0  0  0
  -27.2295  -37.1407   25.8870 H   0  0  0  0  0  0
  -20.9456  -29.8679   21.6766 H   0  0  0  0  0  0
  -26.0168  -38.2815   24.1404 H   0  0  0  0  0  0
  -29.8722  -18.8110   24.1072 H   0  0  0  0  0  0
  -29.6586  -18.3595   19.2034 H   0  0  0  0  0  0
  -28.3713  -14.9306   24.4024 H   0  0  0  0  0  0
  -27.7980  -15.6652   22.9093 H   0  0  0  0  0  0
  -27.8999  -16.6277   24.3719 H   0  0  0  0  0  0
  -30.3680  -16.5120   24.3654 H   0  0  0  0  0  0
  -30.3844  -15.3706   23.0752 H   0  0  0  0  0  0
  -29.8613  -23.9265   21.0228 H   0  0  0  0  0  0
  -29.7184  -23.7381   19.3075 H   0  0  0  0  0  0
  -27.3366  -24.6851   20.9999 H   0  0  0  0  0  0
  -27.4810  -24.6232   19.2648 H   0  0  0  0  0  0
  -27.7717  -22.0264   19.8362 H   0  0  0  0  0  0
  -28.2853  -22.0571   21.4651 H   0  0  0  0  0  0
  -28.7696  -15.5412   20.4595 H   0  0  0  0  0  0
  1 25  1  0  0  0
  1 30  2  0  0  0
  1 82  1  0  0  0
  2  3  1  0  0  0
  2 25  1  0  0  0
  2 85  1  0  0  0
  2 86  1  0  0  0
  3  4  1  0  0  0
  3 87  1  0  0  0
  3 88  1  0  0  0
  4  5  1  0  0  0
  4 89  1  0  0  0
  4 90  1  0  0  0
  5  6  1  0  0  0
  5 26  1  0  0  0
  5 91  1  0  0  0
  6 25  1  0  0  0
  6 92  1  0  0  0
  6 93  1  0  0  0
  7  8  2  0  0  0
  7 26  1  0  0  0
  7 29  1  0  0  0
  8  9  1  0  0  0
  8 22  1  0  0  0
  9 10  1  0  0  0
  9 27  2  0  0  0
 10 11  2  0  0  0
 10 15  1  0  0  0
 11 12  1  0  0  0
 11 94  1  0  0  0
 12 13  2  0  0  0
 12 95  1  0  0  0
 13 14  1  0  0  0
 13 31  1  0  0  0
 14 15  2  0  0  0
 14 96  1  0  0  0
 15 97  1  0  0  0
 16 17  2  0  0  0
 16 21  1  0  0  0
 16 31  1  0  0  0
 17 18  1  0  0  0
 17 98  1  0  0  0
 18 19  2  0  0  0
 18 99  1  0  0  0
 19 20  1  0  0  0
 19 24  1  0  0  0
 20 21  2  0  0  0
 20100  1  0  0  0
 21 23  1  0  0  0
 22 28  1  0  0  0
 22 32  2  0  0  0
 26 27  1  0  0  0
 28101  1  0  0  0
 28102  1  0  0  0
 29103  1  0  0  0
 29104  1  0  0  0
 33 34  1  0  0  0
 33 66  1  0  0  0
 33 70  2  0  0  0
 34 36  1  0  0  0
 34 59  1  0  0  0
 34105  1  0  0  0
 35 44  2  0  0  0
 35 45  1  0  0  0
 35 68  1  0  0  0
 36 56  1  0  0  0
 36106  1  0  0  0
 37 39  1  0  0  0
 37 47  1  0  0  0
 37 66  1  0  0  0
 37107  1  0  0  0
 38 43  2  0  0  0
 38 46  1  0  0  0
 38 47  1  0  0  0
 39 64  1  0  0  0
 39 67  2  0  0  0
 40 52  1  0  0  0
 40 53  2  0  0  0
 40 58  1  0  0  0
 41108  1  0  0  0
 41109  1  0  0  0
 41110  1  0  0  0
 41 48  1  0  0  0
 42 43  1  0  0  0
 42 66  1  0  0  0
 42111  1  0  0  0
 42112  1  0  0  0
 43 44  1  0  0  0
 44113  1  0  0  0
 45 46  2  0  0  0
 45114  1  0  0  0
 46115  1  0  0  0
 47116  1  0  0  0
 47117  1  0  0  0
 48 56  1  0  0  0
 48 65  1  0  0  0
 48118  1  0  0  0
 49 50  1  0  0  0
 49 53  1  0  0  0
 49 64  1  0  0  0
 49119  1  0  0  0
 50 51  1  0  0  0
 50120  1  0  0  0
 50121  1  0  0  0
 51 52  1  0  0  0
 51122  1  0  0  0
 51123  1  0  0  0
 52124  1  0  0  0
 52125  1  0  0  0
 53 54  1  0  0  0
 54 55  2  0  0  0
 54126  1  0  0  0
 55 57  1  0  0  0
 55127  1  0  0  0
 56 69  2  0  0  0
 57 58  2  0  0  0
 57128  1  0  0  0
 58129  1  0  0  0
 59 60  1  0  0  0
 59 61  1  0  0  0
 59 62  1  0  0  0
 60130  1  0  0  0
 60131  1  0  0  0
 60132  1  0  0  0
 61133  1  0  0  0
 61134  1  0  0  0
 61135  1  0  0  0
 62136  1  0  0  0
 62137  1  0  0  0
 62138  1  0  0  0
 63 65  1  0  0  0
 63139  1  0  0  0
 63140  1  0  0  0
 63141  1  0  0  0
 64142  1  0  0  0
 65143  1  0  0  0
 68 80  1  0  0  0
 71 73  2  0  0  0
 71 76  1  0  0  0
 71144  1  0  0  0
 72 74  2  0  0  0
 72 75  1  0  0  0
 72145  1  0  0  0
 73 74  1  0  0  0
 73 78  1  0  0  0
 74 82  1  0  0  0
 75 76  2  0  0  0
 75 83  1  0  0  0
 76 84  1  0  0  0
 77 78  1  0  0  0
 77146  1  0  0  0
 77147  1  0  0  0
 77148  1  0  0  0
 78149  1  0  0  0
 78150  1  0  0  0
 79 80  1  0  0  0
 79 81  1  0  0  0
 79151  1  0  0  0
 79152  1  0  0  0
 80153  1  0  0  0
 80154  1  0  0  0
 81 83  1  0  0  0
 81155  1  0  0  0
 81156  1  0  0  0
 82157  1  0  0  0
M  ISO  4   1 100  68 101  80 101  82 100
M  END
> <chiral flag>
0

> <version>
0

> <s_m_source_file>
/data/baiqing/PycharmProjects/Reinvent-master-3.2/result/LINK_invent/BTK/process_docking_weight1_custom_product_contain_oxygen_bond_distance_aromatic_linkinvent_7_9_3/rearranged_h_0124.sdf

> <i_m_source_file_index>
33

> <r_mmod_Potential_Energy-OPLS-2005>
243.920867919922

> <r_mmod_Stretch_Energy-OPLS-2005>
127.925132751465

> <r_mmod_Bend_Energy-OPLS-2005>
176.962341308594

> <r_mmod_Torsional_Energy-OPLS-2005>
267.507049560547

> <r_mmod_Improper_Torsional_Energy-OPLS-2005>
10.4601430892944

> <r_mmod_Van_der_Waal_Energy-OPLS-2005>
139.937316894531

> <r_mmod_Electrostatic_Energy-OPLS-2005>
-362.378387451172

> <r_mmod_Solvation_Energy-OPLS-2005>
-208.557250976562

> <b_mmod_Minimization_Converged-OPLS-2005>
0

> <r_mmod_RMS_Derivative-OPLS-2005>
2.64873361587524

$$$$
33
                    3D
 Structure written by MMmdl.
158166  0  0  1  0            999 V2000
  -30.7116  -14.4628   20.4925 C   0  0  0  0  0  0
  -30.4097  -12.2752   19.4422 C   0  0  0  0  0  0
  -29.4975  -12.4883   18.2146 C   0  0  0  0  0  0
  -28.0146  -12.3618   18.6181 C   0  0  0  0  0  0
  -27.6570  -13.2121   19.8676 C   0  0  2  0  0  0
  -28.6963  -13.0179   20.9934 C   0  0  0  0  0  0
  -25.2564  -13.8175   20.5675 C   0  0  0  0  0  0
  -24.1825  -13.0444   20.9164 C   0  0  0  0  0  0
  -24.6384  -11.6909   20.8718 C   0  0  0  0  0  0
  -23.9053  -10.4291   21.0402 C   0  0  0  0  0  0
  -24.3603   -9.4208   21.9186 C   0  0  0  0  0  0
  -23.6273   -8.2249   22.0756 C   0  0  0  0  0  0
  -22.4256   -8.0286   21.3543 C   0  0  0  0  0  0
  -21.9889   -9.0260   20.4646 C   0  0  0  0  0  0
  -22.7225  -10.2134   20.3050 C   0  0  0  0  0  0
  -21.6839   -6.0735   22.5282 C   0  0  0  0  0  0
  -21.4013   -6.5645   23.8219 C   0  0  0  0  0  0
  -21.3656   -5.6802   24.9182 C   0  0  0  0  0  0
  -21.6036   -4.3060   24.7229 C   0  0  0  0  0  0
  -21.8818   -3.8149   23.4350 C   0  0  0  0  0  0
  -21.9186   -4.6962   22.3402 C   0  0  0  0  0  0
  -22.7848  -13.5233   21.1847 C   0  0  0  0  0  0
  -22.1648   -4.2153   21.0975 F   0  0  0  0  0  0
  -21.5620   -3.4538   25.7739 F   0  0  0  0  0  0
  -30.0332  -13.2850   20.4442 N   0  0  0  0  0  0
  -26.3001  -12.9357   20.3325 N   0  0  0  0  0  0
  -25.9311  -11.6508   20.5732 N   0  0  0  0  0  0
  -22.0493  -12.8229   22.0404 N   0  0  0  0  0  0
  -25.4285  -15.1900   20.4123 N   0  0  0  0  0  0
  -31.8973  -14.5435   20.1612 O   0  0  0  0  0  0
  -21.6625   -6.8882   21.4241 O   0  0  0  0  0  0
  -22.3535  -14.5538   20.6696 O   0  0  0  0  0  0
  -24.6126  -31.8701   23.2117 C   0  0  0  0  0  0
  -25.9026  -32.4833   23.8409 C   0  0  1  0  0  0
  -27.2333  -27.4556   20.0971 C   0  0  0  0  0  0
  -25.5893  -33.8631   24.2340 N   0  0  0  0  0  0
  -23.3988  -30.4928   21.5525 C   0  0  2  0  0  0
  -24.8444  -28.9592   20.1179 C   0  0  0  0  0  0
  -22.7393  -29.4673   22.5011 C   0  0  0  0  0  0
  -18.0267  -28.1377   22.8501 C   0  0  0  0  0  0
  -24.1480  -36.7323   23.2637 C   0  0  0  0  0  0
  -25.9240  -30.8442   21.3577 C   0  0  0  0  0  0
  -26.0036  -29.4788   20.7079 C   0  0  0  0  0  0
  -27.2036  -28.7355   20.6902 C   0  0  0  0  0  0
  -26.0591  -26.9423   19.5059 C   0  0  0  0  0  0
  -24.8662  -27.6896   19.5138 C   0  0  0  0  0  0
  -23.6047  -29.8236   20.1674 C   0  0  0  0  0  0
  -25.4098  -36.3117   24.0339 C   0  0  1  0  0  0
  -20.5860  -28.3662   23.1333 C   0  0  2  0  0  0
  -20.6758  -26.9404   22.5429 C   0  0  0  0  0  0
  -19.5735  -26.6392   21.5224 C   0  0  0  0  0  0
  -18.1910  -26.7928   22.1628 C   0  0  0  0  0  0
  -19.1515  -28.8837   23.2916 C   0  0  0  0  0  0
  -18.9443  -30.1447   23.8920 C   0  0  0  0  0  0
  -17.6447  -30.6587   24.0573 C   0  0  0  0  0  0
  -25.9032  -34.9481   23.5135 C   0  0  0  0  0  0
  -16.5343  -29.9092   23.6329 C   0  0  0  0  0  0
  -16.7258  -28.6511   23.0349 C   0  0  0  0  0  0
  -26.4463  -31.6602   25.0727 C   0  0  0  0  0  0
  -25.3737  -31.3685   26.1479 C   0  0  0  0  0  0
  -27.0300  -30.3056   24.6079 C   0  0  0  0  0  0
  -27.6050  -32.4313   25.7485 C   0  0  0  0  0  0
  -27.5587  -37.1801   24.8454 C   0  0  0  0  0  0
  -21.4128  -29.3036   22.3743 N   0  0  0  0  0  0
  -26.4280  -37.3810   23.9427 N   0  0  0  0  0  0
  -24.6637  -31.0825   22.1000 N   0  0  0  0  0  0
  -23.4177  -28.8226   23.3048 O   0  0  0  0  0  0
  -28.4032  -26.7347   20.0850 O   0  0  0  0  0  0
  -26.5598  -34.8930   22.4697 O   0  0  0  0  0  0
  -23.5328  -32.1440   23.7533 O   0  0  0  0  0  0
  -28.9330  -18.6176   20.9025 C   0  0  0  0  0  0
  -28.3366  -19.8963   20.8489 C   0  0  0  0  0  0
  -28.8824  -20.0449   18.4892 C   0  0  0  0  0  0
  -29.5480  -18.0495   19.7619 C   0  0  0  0  0  0
  -29.5015  -18.7758   18.5327 C   0  0  0  0  0  0
  -28.3106  -20.6174   19.6375 C   0  0  0  0  0  0
  -30.1718  -16.7076   19.8386 C   0  0  0  0  0  0
  -29.9017  -15.6689   20.6650 C   0  0  0  0  0  0
  -30.1225  -18.3007   17.2612 C   0  0  0  0  0  0
  -28.2345  -24.2814   19.8715 C   0  0  0  0  0  0
  -29.2362  -18.3178   16.0224 C   0  0  0  0  0  0
  -28.0760  -22.8954   20.5201 C   0  0  0  0  0  0
  -28.3525  -25.4952   20.8072 C   0  0  0  0  0  0
  -27.7183  -21.8811   19.5269 N   0  0  0  0  0  0
  -31.2893  -17.9121   17.1593 O   0  0  0  0  0  0
  -28.2690  -24.3972   18.6388 O   0  0  0  0  0  0
  -31.4596  -12.3361   19.1498 H   0  0  0  0  0  0
  -30.2726  -11.2733   19.8507 H   0  0  0  0  0  0
  -29.7336  -11.7633   17.4343 H   0  0  0  0  0  0
  -29.6832  -13.4727   17.7816 H   0  0  0  0  0  0
  -27.8193  -11.3075   18.8161 H   0  0  0  0  0  0
  -27.3716  -12.6369   17.7813 H   0  0  0  0  0  0
  -27.6931  -14.2559   19.5564 H   0  0  0  0  0  0
  -28.6582  -11.9949   21.3716 H   0  0  0  0  0  0
  -28.4734  -13.6537   21.8509 H   0  0  0  0  0  0
  -25.2748   -9.5674   22.4764 H   0  0  0  0  0  0
  -23.9975   -7.4638   22.7470 H   0  0  0  0  0  0
  -21.0821   -8.8786   19.8948 H   0  0  0  0  0  0
  -22.3696  -10.9674   19.6150 H   0  0  0  0  0  0
  -21.2021   -7.6162   23.9724 H   0  0  0  0  0  0
  -21.1476   -6.0535   25.9087 H   0  0  0  0  0  0
  -22.0594   -2.7607   23.2864 H   0  0  0  0  0  0
  -22.4102  -11.9886   22.4782 H   0  0  0  0  0  0
  -21.1120  -13.1273   22.2613 H   0  0  0  0  0  0
  -24.6666  -15.8490   20.5316 H   0  0  0  0  0  0
  -26.2921  -15.6277   20.1180 H   0  0  0  0  0  0
  -26.7104  -32.5559   23.1185 H   0  0  0  0  0  0
  -25.0034  -33.9794   25.0476 H   0  0  0  0  0  0
  -22.6866  -31.3092   21.4150 H   0  0  0  0  0  0
  -23.3753  -35.9644   23.3270 H   0  0  0  0  0  0
  -24.3587  -36.8973   22.2060 H   0  0  0  0  0  0
  -23.7212  -37.6508   23.6673 H   0  0  0  0  0  0
  -26.0270  -31.6094   20.5871 H   0  0  0  0  0  0
  -26.8153  -30.9030   21.9705 H   0  0  0  0  0  0
  -28.1025  -29.1371   21.1374 H   0  0  0  0  0  0
  -26.0633  -25.9734   19.0279 H   0  0  0  0  0  0
  -23.9746  -27.2846   19.0556 H   0  0  0  0  0  0
  -23.7093  -30.5977   19.4064 H   0  0  0  0  0  0
  -22.7285  -29.2418   19.8756 H   0  0  0  0  0  0
  -25.1265  -36.1981   25.0831 H   0  0  0  0  0  0
  -20.9942  -28.3227   24.1457 H   0  0  0  0  0  0
  -20.5678  -26.2268   23.3610 H   0  0  0  0  0  0
  -21.6626  -26.7458   22.1218 H   0  0  0  0  0  0
  -19.6898  -25.6309   21.1238 H   0  0  0  0  0  0
  -19.6670  -27.3218   20.6767 H   0  0  0  0  0  0
  -17.4183  -26.6696   21.4024 H   0  0  0  0  0  0
  -18.0299  -26.0069   22.9018 H   0  0  0  0  0  0
  -19.7912  -30.7266   24.2298 H   0  0  0  0  0  0
  -17.4998  -31.6263   24.5174 H   0  0  0  0  0  0
  -15.5348  -30.3000   23.7641 H   0  0  0  0  0  0
  -15.8657  -28.0847   22.7043 H   0  0  0  0  0  0
  -24.5911  -30.7037   25.7807 H   0  0  0  0  0  0
  -24.8927  -32.2829   26.4961 H   0  0  0  0  0  0
  -25.8099  -30.8829   27.0217 H   0  0  0  0  0  0
  -26.2838  -29.6813   24.1154 H   0  0  0  0  0  0
  -27.4108  -29.7294   25.4522 H   0  0  0  0  0  0
  -27.8649  -30.4395   23.9198 H   0  0  0  0  0  0
  -27.2687  -33.3610   26.2086 H   0  0  0  0  0  0
  -28.3845  -32.6875   25.0298 H   0  0  0  0  0  0
  -28.0732  -31.8421   26.5379 H   0  0  0  0  0  0
  -28.2558  -38.0145   24.7578 H   0  0  0  0  0  0
  -28.1127  -36.2682   24.6172 H   0  0  0  0  0  0
  -27.2322  -37.1323   25.8858 H   0  0  0  0  0  0
  -20.9283  -29.8748   21.6964 H   0  0  0  0  0  0
  -26.0166  -38.2878   24.1480 H   0  0  0  0  0  0
  -28.9352  -18.0857   21.8427 H   0  0  0  0  0  0
  -27.8865  -20.3077   21.7408 H   0  0  0  0  0  0
  -28.8694  -20.5975   17.5589 H   0  0  0  0  0  0
  -30.9774  -16.5569   19.1353 H   0  0  0  0  0  0
  -29.1238  -15.7320   21.4103 H   0  0  0  0  0  0
  -28.1850  -18.2372   16.2975 H   0  0  0  0  0  0
  -29.4858  -17.4799   15.3725 H   0  0  0  0  0  0
  -29.3824  -19.2440   15.4687 H   0  0  0  0  0  0
  -27.3036  -22.9477   21.2886 H   0  0  0  0  0  0
  -29.0125  -22.6411   21.0179 H   0  0  0  0  0  0
  -29.2737  -25.3942   21.3807 H   0  0  0  0  0  0
  -27.5305  -25.4874   21.5245 H   0  0  0  0  0  0
  -27.7423  -22.2919   18.5942 H   0  0  0  0  0  0
  1 25  1  0  0  0
  1 30  2  0  0  0
  1 78  1  0  0  0
  2  3  1  0  0  0
  2 25  1  0  0  0
  2 87  1  0  0  0
  2 88  1  0  0  0
  3  4  1  0  0  0
  3 89  1  0  0  0
  3 90  1  0  0  0
  4  5  1  0  0  0
  4 91  1  0  0  0
  4 92  1  0  0  0
  5  6  1  0  0  0
  5 26  1  0  0  0
  5 93  1  0  0  0
  6 25  1  0  0  0
  6 94  1  0  0  0
  6 95  1  0  0  0
  7  8  2  0  0  0
  7 26  1  0  0  0
  7 29  1  0  0  0
  8  9  1  0  0  0
  8 22  1  0  0  0
  9 10  1  0  0  0
  9 27  2  0  0  0
 10 11  2  0  0  0
 10 15  1  0  0  0
 11 12  1  0  0  0
 11 96  1  0  0  0
 12 13  2  0  0  0
 12 97  1  0  0  0
 13 14  1  0  0  0
 13 31  1  0  0  0
 14 15  2  0  0  0
 14 98  1  0  0  0
 15 99  1  0  0  0
 16 17  2  0  0  0
 16 21  1  0  0  0
 16 31  1  0  0  0
 17 18  1  0  0  0
 17100  1  0  0  0
 18 19  2  0  0  0
 18101  1  0  0  0
 19 20  1  0  0  0
 19 24  1  0  0  0
 20 21  2  0  0  0
 20102  1  0  0  0
 21 23  1  0  0  0
 22 28  1  0  0  0
 22 32  2  0  0  0
 26 27  1  0  0  0
 28103  1  0  0  0
 28104  1  0  0  0
 29105  1  0  0  0
 29106  1  0  0  0
 33 34  1  0  0  0
 33 66  1  0  0  0
 33 70  2  0  0  0
 34 36  1  0  0  0
 34 59  1  0  0  0
 34107  1  0  0  0
 35 44  2  0  0  0
 35 45  1  0  0  0
 35 68  1  0  0  0
 36 56  1  0  0  0
 36108  1  0  0  0
 37 39  1  0  0  0
 37 47  1  0  0  0
 37 66  1  0  0  0
 37109  1  0  0  0
 38 43  2  0  0  0
 38 46  1  0  0  0
 38 47  1  0  0  0
 39 64  1  0  0  0
 39 67  2  0  0  0
 40 52  1  0  0  0
 40 53  2  0  0  0
 40 58  1  0  0  0
 41110  1  0  0  0
 41111  1  0  0  0
 41112  1  0  0  0
 41 48  1  0  0  0
 42 43  1  0  0  0
 42 66  1  0  0  0
 42113  1  0  0  0
 42114  1  0  0  0
 43 44  1  0  0  0
 44115  1  0  0  0
 45 46  2  0  0  0
 45116  1  0  0  0
 46117  1  0  0  0
 47118  1  0  0  0
 47119  1  0  0  0
 48 56  1  0  0  0
 48 65  1  0  0  0
 48120  1  0  0  0
 49 50  1  0  0  0
 49 53  1  0  0  0
 49 64  1  0  0  0
 49121  1  0  0  0
 50 51  1  0  0  0
 50122  1  0  0  0
 50123  1  0  0  0
 51 52  1  0  0  0
 51124  1  0  0  0
 51125  1  0  0  0
 52126  1  0  0  0
 52127  1  0  0  0
 53 54  1  0  0  0
 54 55  2  0  0  0
 54128  1  0  0  0
 55 57  1  0  0  0
 55129  1  0  0  0
 56 69  2  0  0  0
 57 58  2  0  0  0
 57130  1  0  0  0
 58131  1  0  0  0
 59 60  1  0  0  0
 59 61  1  0  0  0
 59 62  1  0  0  0
 60132  1  0  0  0
 60133  1  0  0  0
 60134  1  0  0  0
 61135  1  0  0  0
 61136  1  0  0  0
 61137  1  0  0  0
 62138  1  0  0  0
 62139  1  0  0  0
 62140  1  0  0  0
 63 65  1  0  0  0
 63141  1  0  0  0
 63142  1  0  0  0
 63143  1  0  0  0
 64144  1  0  0  0
 65145  1  0  0  0
 68 83  1  0  0  0
 71 72  2  0  0  0
 71 74  1  0  0  0
 71146  1  0  0  0
 72 76  1  0  0  0
 72147  1  0  0  0
 73 75  1  0  0  0
 73 76  2  0  0  0
 73148  1  0  0  0
 74 75  2  0  0  0
 74 77  1  0  0  0
 75 79  1  0  0  0
 76 84  1  0  0  0
 77 78  2  0  0  0
 77149  1  0  0  0
 78150  1  0  0  0
 79 81  1  0  0  0
 79 85  2  0  0  0
 80 82  1  0  0  0
 80 83  1  0  0  0
 80 86  2  0  0  0
 81151  1  0  0  0
 81152  1  0  0  0
 81153  1  0  0  0
 82 84  1  0  0  0
 82154  1  0  0  0
 82155  1  0  0  0
 83156  1  0  0  0
 83157  1  0  0  0
 84158  1  0  0  0
M  ISO  4   1 100  68 101  78 100  83 101
M  END
> <chiral flag>
0

> <version>
0

> <s_m_source_file>
/data/baiqing/PycharmProjects/Reinvent-master-3.2/result/LINK_invent/BTK/process_docking_weight1_custom_product_contain_oxygen_bond_distance_aromatic_linkinvent_7_9_3/rearranged_h_0124.sdf

> <i_m_source_file_index>
34

> <r_mmod_Potential_Energy-OPLS-2005>
5.82133817672729

> <r_mmod_Stretch_Energy-OPLS-2005>
36.5426330566406

> <r_mmod_Bend_Energy-OPLS-2005>
97.6146621704102

> <r_mmod_Torsional_Energy-OPLS-2005>
261.030639648438

> <r_mmod_Improper_Torsional_Energy-OPLS-2005>
11.4046897888184

> <r_mmod_Van_der_Waal_Energy-OPLS-2005>
160.269165039062

> <r_mmod_Electrostatic_Energy-OPLS-2005>
-343.774230957031

> <r_mmod_Solvation_Energy-OPLS-2005>
-234.258987426758

> <b_mmod_Minimization_Converged-OPLS-2005>
0

> <r_mmod_RMS_Derivative-OPLS-2005>
1.41725242137909

$$$$
34
                    3D
 Structure written by MMmdl.
180189  0  0  1  0            999 V2000
  -30.8583  -14.2394   20.8129 C   0  0  0  0  0  0
  -30.4085  -12.2922   19.3638 C   0  0  0  0  0  0
  -29.4717  -12.5524   18.1751 C   0  0  0  0  0  0
  -28.0039  -12.3801   18.5974 C   0  0  0  0  0  0
  -27.6623  -13.2053   19.8617 C   0  0  2  0  0  0
  -28.6930  -12.9613   20.9798 C   0  0  0  0  0  0
  -25.2602  -13.8167   20.5647 C   0  0  0  0  0  0
  -24.1854  -13.0446   20.9159 C   0  0  0  0  0  0
  -24.6399  -11.6910   20.8697 C   0  0  0  0  0  0
  -23.9053  -10.4300   21.0386 C   0  0  0  0  0  0
  -24.3608   -9.4220   21.9171 C   0  0  0  0  0  0
  -23.6291   -8.2252   22.0750 C   0  0  0  0  0  0
  -22.4274   -8.0282   21.3537 C   0  0  0  0  0  0
  -21.9897   -9.0253   20.4641 C   0  0  0  0  0  0
  -22.7219  -10.2135   20.3045 C   0  0  0  0  0  0
  -21.6857   -6.0735   22.5282 C   0  0  0  0  0  0
  -21.4015   -6.5637   23.8214 C   0  0  0  0  0  0
  -21.3657   -5.6787   24.9175 C   0  0  0  0  0  0
  -21.6044   -4.3051   24.7223 C   0  0  0  0  0  0
  -21.8821   -3.8146   23.4345 C   0  0  0  0  0  0
  -21.9199   -4.6964   22.3402 C   0  0  0  0  0  0
  -22.7879  -13.5252   21.1839 C   0  0  0  0  0  0
  -22.1669   -4.2150   21.0979 F   0  0  0  0  0  0
  -21.5623   -3.4535   25.7735 F   0  0  0  0  0  0
  -30.0560  -13.1978   20.4645 N   0  0  0  0  0  0
  -26.3029  -12.9337   20.3275 N   0  0  0  0  0  0
  -25.9313  -11.6495   20.5665 N   0  0  0  0  0  0
  -22.0514  -12.8252   22.0396 N   0  0  0  0  0  0
  -25.4319  -15.1887   20.4072 N   0  0  0  0  0  0
  -31.7198  -14.6941   20.0480 O   0  0  0  0  0  0
  -21.6638   -6.8878   21.4243 O   0  0  0  0  0  0
  -22.3558  -14.5556   20.6686 O   0  0  0  0  0  0
  -24.6091  -31.8697   23.2133 C   0  0  0  0  0  0
  -25.9007  -32.4833   23.8407 C   0  0  1  0  0  0
  -27.2414  -27.4851   20.0679 C   0  0  0  0  0  0
  -25.5885  -33.8633   24.2334 N   0  0  0  0  0  0
  -23.3946  -30.4913   21.5529 C   0  0  2  0  0  0
  -24.8419  -28.9570   20.1193 C   0  0  0  0  0  0
  -22.7376  -29.4644   22.5023 C   0  0  0  0  0  0
  -18.0265  -28.1369   22.8480 C   0  0  0  0  0  0
  -24.1479  -36.7319   23.2638 C   0  0  0  0  0  0
  -25.9189  -30.8425   21.3651 C   0  0  0  0  0  0
  -25.9953  -29.4770   20.7198 C   0  0  0  0  0  0
  -27.1955  -28.7382   20.7100 C   0  0  0  0  0  0
  -26.0719  -26.9550   19.4856 C   0  0  0  0  0  0
  -24.8704  -27.6894   19.5088 C   0  0  0  0  0  0
  -23.6014  -29.8200   20.1679 C   0  0  0  0  0  0
  -25.4099  -36.3116   24.0343 C   0  0  1  0  0  0
  -20.5847  -28.3635   23.1356 C   0  0  2  0  0  0
  -20.6745  -26.9377   22.5437 C   0  0  0  0  0  0
  -19.5736  -26.6368   21.5214 C   0  0  0  0  0  0
  -18.1913  -26.7912   22.1618 C   0  0  0  0  0  0
  -19.1511  -28.8816   23.2917 C   0  0  0  0  0  0
  -18.9441  -30.1422   23.8932 C   0  0  0  0  0  0
  -17.6449  -30.6576   24.0562 C   0  0  0  0  0  0
  -25.9027  -34.9485   23.5133 C   0  0  0  0  0  0
  -16.5341  -29.9087   23.6303 C   0  0  0  0  0  0
  -16.7256  -28.6501   23.0323 C   0  0  0  0  0  0
  -26.4451  -31.6629   25.0736 C   0  0  0  0  0  0
  -25.3734  -31.3761   26.1507 C   0  0  0  0  0  0
  -27.0270  -30.3070   24.6106 C   0  0  0  0  0  0
  -27.6017  -32.4361   25.7494 C   0  0  0  0  0  0
  -27.5585  -37.1801   24.8451 C   0  0  0  0  0  0
  -21.4106  -29.3012   22.3779 N   0  0  0  0  0  0
  -26.4285  -37.3804   23.9417 N   0  0  0  0  0  0
  -24.6579  -31.0821   22.1025 N   0  0  0  0  0  0
  -23.4177  -28.8186   23.3039 O   0  0  0  0  0  0
  -28.4328  -26.8138   19.9863 O   0  0  0  0  0  0
  -26.5577  -34.8933   22.4691 O   0  0  0  0  0  0
  -23.5295  -32.1443   23.7544 O   0  0  0  0  0  0
  -32.6893  -17.4985   23.5842 C   0  0  0  0  0  0
  -32.3065  -16.2007   23.2143 C   0  0  0  0  0  0
  -30.7355  -18.3928   22.4492 C   0  0  0  0  0  0
  -31.1708  -25.6954   22.0917 C   0  0  0  0  0  0
  -31.9117  -18.6081   23.2052 C   0  0  0  0  0  0
  -32.1849  -23.5402   22.5790 C   0  0  0  0  0  0
  -30.3306  -17.0890   22.0845 C   0  0  0  0  0  0
  -31.4894  -24.6928   23.0307 C   0  0  0  0  0  0
  -31.1310  -15.9803   22.4620 C   0  0  0  0  0  0
  -32.5581  -23.4843   21.2085 C   0  0  0  0  0  0
  -31.5367  -25.5158   20.7513 C   0  0  0  0  0  0
  -30.4652  -13.9541   24.4515 C   0  0  0  0  0  0
  -32.3924  -19.9476   23.5756 C   0  0  0  0  0  0
  -31.9230  -21.1104   23.0901 C   0  0  0  0  0  0
  -30.7115  -13.6835   23.1556 C   0  0  0  0  0  0
  -32.4803  -22.4088   23.5012 C   0  0  0  0  0  0
  -29.0340  -16.9116   21.3096 C   0  0  0  0  0  0
  -31.0389  -24.8723   24.4734 C   0  0  0  0  0  0
  -33.3797  -22.3528   20.6056 C   0  0  0  0  0  0
  -29.2592  -28.0876   18.0426 C   0  0  0  0  0  0
  -30.2630  -25.8737   18.7774 C   0  0  0  0  0  0
  -28.9780  -26.7051   18.6658 C   0  0  1  0  0  0
  -32.2289  -24.4484   20.3210 N   0  0  0  0  0  0
  -31.1520  -26.4400   19.7884 N   0  0  0  0  0  0
  -30.7883  -14.6388   22.1136 N   0  0  0  0  0  0
  -33.1223  -22.5609   24.5443 O   0  0  0  0  0  0
  -31.4490  -12.4059   19.0533 H   0  0  0  0  0  0
  -30.3128  -11.2597   19.7037 H   0  0  0  0  0  0
  -29.7076  -11.8752   17.3533 H   0  0  0  0  0  0
  -29.6312  -13.5629   17.7947 H   0  0  0  0  0  0
  -27.8296  -11.3197   18.7847 H   0  0  0  0  0  0
  -27.3420  -12.6589   17.7770 H   0  0  0  0  0  0
  -27.7184  -14.2575   19.5826 H   0  0  0  0  0  0
  -28.6267  -11.9369   21.3492 H   0  0  0  0  0  0
  -28.4389  -13.6061   21.8207 H   0  0  0  0  0  0
  -25.2762   -9.5705   22.4730 H   0  0  0  0  0  0
  -24.0009   -7.4649   22.7471 H   0  0  0  0  0  0
  -21.0827   -8.8761   19.8954 H   0  0  0  0  0  0
  -22.3675  -10.9661   19.6144 H   0  0  0  0  0  0
  -21.2001   -7.6142   23.9716 H   0  0  0  0  0  0
  -21.1476   -6.0515   25.9076 H   0  0  0  0  0  0
  -22.0600   -2.7611   23.2843 H   0  0  0  0  0  0
  -22.4116  -11.9917   22.4801 H   0  0  0  0  0  0
  -21.1132  -13.1289   22.2583 H   0  0  0  0  0  0
  -24.6654  -15.8441   20.5156 H   0  0  0  0  0  0
  -26.2873  -15.6274   20.0909 H   0  0  0  0  0  0
  -26.7082  -32.5543   23.1176 H   0  0  0  0  0  0
  -25.0033  -33.9794   25.0472 H   0  0  0  0  0  0
  -22.6798  -31.3056   21.4163 H   0  0  0  0  0  0
  -23.3741  -35.9653   23.3289 H   0  0  0  0  0  0
  -24.3568  -36.8940   22.2056 H   0  0  0  0  0  0
  -23.7246  -37.6531   23.6647 H   0  0  0  0  0  0
  -26.0308  -31.6074   20.5954 H   0  0  0  0  0  0
  -26.8077  -30.8963   21.9812 H   0  0  0  0  0  0
  -28.0920  -29.1410   21.1595 H   0  0  0  0  0  0
  -26.0959  -25.9868   19.0053 H   0  0  0  0  0  0
  -23.9822  -27.2779   19.0477 H   0  0  0  0  0  0
  -23.7019  -30.5913   19.4038 H   0  0  0  0  0  0
  -22.7275  -29.2341   19.8775 H   0  0  0  0  0  0
  -25.1279  -36.1975   25.0841 H   0  0  0  0  0  0
  -20.9934  -28.3184   24.1481 H   0  0  0  0  0  0
  -20.5630  -26.2231   23.3611 H   0  0  0  0  0  0
  -21.6627  -26.7414   22.1261 H   0  0  0  0  0  0
  -19.6894  -25.6282   21.1234 H   0  0  0  0  0  0
  -19.6695  -27.3177   20.6750 H   0  0  0  0  0  0
  -17.4188  -26.6652   21.4019 H   0  0  0  0  0  0
  -18.0320  -26.0064   22.9027 H   0  0  0  0  0  0
  -19.7919  -30.7210   24.2339 H   0  0  0  0  0  0
  -17.5011  -31.6259   24.5159 H   0  0  0  0  0  0
  -15.5345  -30.3009   23.7606 H   0  0  0  0  0  0
  -15.8649  -28.0840   22.7022 H   0  0  0  0  0  0
  -24.5862  -30.7150   25.7869 H   0  0  0  0  0  0
  -24.8976  -32.2941   26.4976 H   0  0  0  0  0  0
  -25.8106  -30.8920   27.0249 H   0  0  0  0  0  0
  -26.2814  -29.6869   24.1118 H   0  0  0  0  0  0
  -27.3999  -29.7282   25.4565 H   0  0  0  0  0  0
  -27.8668  -30.4388   23.9276 H   0  0  0  0  0  0
  -27.2601  -33.3620   26.2137 H   0  0  0  0  0  0
  -28.3788  -32.7010   25.0311 H   0  0  0  0  0  0
  -28.0739  -31.8472   26.5365 H   0  0  0  0  0  0
  -28.2592  -38.0107   24.7525 H   0  0  0  0  0  0
  -28.1091  -36.2645   24.6228 H   0  0  0  0  0  0
  -27.2306  -37.1417   25.8853 H   0  0  0  0  0  0
  -20.9245  -29.8768   21.7049 H   0  0  0  0  0  0
  -26.0167  -38.2880   24.1432 H   0  0  0  0  0  0
  -33.5967  -17.6373   24.1548 H   0  0  0  0  0  0
  -32.9295  -15.3680   23.5106 H   0  0  0  0  0  0
  -30.1211  -19.2292   22.1496 H   0  0  0  0  0  0
  -30.6141  -26.5713   22.3979 H   0  0  0  0  0  0
  -30.4331  -13.1576   25.1815 H   0  0  0  0  0  0
  -30.2887  -14.9581   24.8114 H   0  0  0  0  0  0
  -33.1941  -19.9755   24.3012 H   0  0  0  0  0  0
  -31.1291  -21.1302   22.3597 H   0  0  0  0  0  0
  -30.8803  -12.6620   22.8383 H   0  0  0  0  0  0
  -28.4326  -17.8212   21.3249 H   0  0  0  0  0  0
  -28.4295  -16.1139   21.7414 H   0  0  0  0  0  0
  -29.2395  -16.6670   20.2675 H   0  0  0  0  0  0
  -30.4268  -25.7668   24.5907 H   0  0  0  0  0  0
  -31.9002  -24.9694   25.1350 H   0  0  0  0  0  0
  -30.4419  -24.0226   24.8054 H   0  0  0  0  0  0
  -34.1914  -22.0506   21.2672 H   0  0  0  0  0  0
  -33.8371  -22.6546   19.6623 H   0  0  0  0  0  0
  -32.7526  -21.4851   20.4024 H   0  0  0  0  0  0
  -29.7793  -27.9858   17.0896 H   0  0  0  0  0  0
  -29.8822  -28.7051   18.6901 H   0  0  0  0  0  0
  -28.3382  -28.6369   17.8464 H   0  0  0  0  0  0
  -30.7803  -25.8381   17.8182 H   0  0  0  0  0  0
  -29.9912  -24.8428   19.0150 H   0  0  0  0  0  0
  -28.2853  -26.1676   18.0166 H   0  0  0  0  0  0
  -30.7099  -27.2508   20.2064 H   0  0  0  0  0  0
  1 25  1  0  0  0
  1 30  2  0  0  0
  1 95  1  0  0  0
  2  3  1  0  0  0
  2 25  1  0  0  0
  2 97  1  0  0  0
  2 98  1  0  0  0
  3  4  1  0  0  0
  3 99  1  0  0  0
  3100  1  0  0  0
  4  5  1  0  0  0
  4101  1  0  0  0
  4102  1  0  0  0
  5  6  1  0  0  0
  5 26  1  0  0  0
  5103  1  0  0  0
  6 25  1  0  0  0
  6104  1  0  0  0
  6105  1  0  0  0
  7  8  2  0  0  0
  7 26  1  0  0  0
  7 29  1  0  0  0
  8  9  1  0  0  0
  8 22  1  0  0  0
  9 10  1  0  0  0
  9 27  2  0  0  0
 10 11  2  0  0  0
 10 15  1  0  0  0
 11 12  1  0  0  0
 11106  1  0  0  0
 12 13  2  0  0  0
 12107  1  0  0  0
 13 14  1  0  0  0
 13 31  1  0  0  0
 14 15  2  0  0  0
 14108  1  0  0  0
 15109  1  0  0  0
 16 17  2  0  0  0
 16 21  1  0  0  0
 16 31  1  0  0  0
 17 18  1  0  0  0
 17110  1  0  0  0
 18 19  2  0  0  0
 18111  1  0  0  0
 19 20  1  0  0  0
 19 24  1  0  0  0
 20 21  2  0  0  0
 20112  1  0  0  0
 21 23  1  0  0  0
 22 28  1  0  0  0
 22 32  2  0  0  0
 26 27  1  0  0  0
 28113  1  0  0  0
 28114  1  0  0  0
 29115  1  0  0  0
 29116  1  0  0  0
 33 34  1  0  0  0
 33 66  1  0  0  0
 33 70  2  0  0  0
 34 36  1  0  0  0
 34 59  1  0  0  0
 34117  1  0  0  0
 35 44  2  0  0  0
 35 45  1  0  0  0
 35 68  1  0  0  0
 36 56  1  0  0  0
 36118  1  0  0  0
 37 39  1  0  0  0
 37 47  1  0  0  0
 37 66  1  0  0  0
 37119  1  0  0  0
 38 43  2  0  0  0
 38 46  1  0  0  0
 38 47  1  0  0  0
 39 64  1  0  0  0
 39 67  2  0  0  0
 40 52  1  0  0  0
 40 53  2  0  0  0
 40 58  1  0  0  0
 41120  1  0  0  0
 41121  1  0  0  0
 41122  1  0  0  0
 41 48  1  0  0  0
 42 43  1  0  0  0
 42 66  1  0  0  0
 42123  1  0  0  0
 42124  1  0  0  0
 43 44  1  0  0  0
 44125  1  0  0  0
 45 46  2  0  0  0
 45126  1  0  0  0
 46127  1  0  0  0
 47128  1  0  0  0
 47129  1  0  0  0
 48 56  1  0  0  0
 48 65  1  0  0  0
 48130  1  0  0  0
 49 50  1  0  0  0
 49 53  1  0  0  0
 49 64  1  0  0  0
 49131  1  0  0  0
 50 51  1  0  0  0
 50132  1  0  0  0
 50133  1  0  0  0
 51 52  1  0  0  0
 51134  1  0  0  0
 51135  1  0  0  0
 52136  1  0  0  0
 52137  1  0  0  0
 53 54  1  0  0  0
 54 55  2  0  0  0
 54138  1  0  0  0
 55 57  1  0  0  0
 55139  1  0  0  0
 56 69  2  0  0  0
 57 58  2  0  0  0
 57140  1  0  0  0
 58141  1  0  0  0
 59 60  1  0  0  0
 59 61  1  0  0  0
 59 62  1  0  0  0
 60142  1  0  0  0
 60143  1  0  0  0
 60144  1  0  0  0
 61145  1  0  0  0
 61146  1  0  0  0
 61147  1  0  0  0
 62148  1  0  0  0
 62149  1  0  0  0
 62150  1  0  0  0
 63 65  1  0  0  0
 63151  1  0  0  0
 63152  1  0  0  0
 63153  1  0  0  0
 64154  1  0  0  0
 65155  1  0  0  0
 68 92  1  0  0  0
 71 72  2  0  0  0
 71 75  1  0  0  0
 71156  1  0  0  0
 72 79  1  0  0  0
 72157  1  0  0  0
 73 75  2  0  0  0
 73 77  1  0  0  0
 73158  1  0  0  0
 74 78  2  0  0  0
 74 81  1  0  0  0
 74159  1  0  0  0
 75 83  1  0  0  0
 76 78  1  0  0  0
 76 80  2  0  0  0
 76 86  1  0  0  0
 77 79  2  0  0  0
 77 87  1  0  0  0
 78 88  1  0  0  0
 79 95  1  0  0  0
 80 89  1  0  0  0
 80 93  1  0  0  0
 81 93  2  0  0  0
 81 94  1  0  0  0
 82 85  2  0  0  0
 82160  1  0  0  0
 82161  1  0  0  0
 83 84  2  0  0  0
 83162  1  0  0  0
 84 86  1  0  0  0
 84163  1  0  0  0
 85 95  1  0  0  0
 85164  1  0  0  0
 86 96  2  0  0  0
 87165  1  0  0  0
 87166  1  0  0  0
 87167  1  0  0  0
 88168  1  0  0  0
 88169  1  0  0  0
 88170  1  0  0  0
 89171  1  0  0  0
 89172  1  0  0  0
 89173  1  0  0  0
 90174  1  0  0  0
 90175  1  0  0  0
 90176  1  0  0  0
 90 92  1  0  0  0
 91 92  1  0  0  0
 91 94  1  0  0  0
 91177  1  0  0  0
 91178  1  0  0  0
 92179  1  0  0  0
 94180  1  0  0  0
M  ISO  4   1 100  68 101  92 101  95 100
M  END
> <chiral flag>
0

> <version>
0

> <s_m_source_file>
/data/baiqing/PycharmProjects/Reinvent-master-3.2/result/LINK_invent/BTK/process_docking_weight1_custom_product_contain_oxygen_bond_distance_aromatic_linkinvent_7_9_3/rearranged_h_0124.sdf

> <i_m_source_file_index>
35

> <r_mmod_Potential_Energy-OPLS-2005>
-61.384147644043

> <r_mmod_Stretch_Energy-OPLS-2005>
38.9155540466309

> <r_mmod_Bend_Energy-OPLS-2005>
92.8808670043945

> <r_mmod_Torsional_Energy-OPLS-2005>
376.393310546875

> <r_mmod_Improper_Torsional_Energy-OPLS-2005>
10.1328926086426

> <r_mmod_Van_der_Waal_Energy-OPLS-2005>
198.394638061523

> <r_mmod_Electrostatic_Energy-OPLS-2005>
-562.812744140625

> <r_mmod_Solvation_Energy-OPLS-2005>
-227.546203613281

> <b_mmod_Minimization_Converged-OPLS-2005>
0

> <r_mmod_RMS_Derivative-OPLS-2005>
1.62435472011566

$$$$
35
                    3D
 Structure written by MMmdl.
162170  0  0  1  0            999 V2000
  -30.6788  -14.4924   20.5662 C   0  0  0  0  0  0
  -30.4323  -12.3203   19.4163 C   0  0  0  0  0  0
  -29.4954  -12.5147   18.2050 C   0  0  0  0  0  0
  -28.0174  -12.3610   18.6200 C   0  0  0  0  0  0
  -27.6615  -13.1926   19.8813 C   0  0  2  0  0  0
  -28.7089  -12.9721   20.9966 C   0  0  0  0  0  0
  -25.2608  -13.8113   20.5705 C   0  0  0  0  0  0
  -24.1838  -13.0413   20.9177 C   0  0  0  0  0  0
  -24.6375  -11.6872   20.8738 C   0  0  0  0  0  0
  -23.9040  -10.4270   21.0403 C   0  0  0  0  0  0
  -24.3600   -9.4194   21.9184 C   0  0  0  0  0  0
  -23.6278   -8.2231   22.0756 C   0  0  0  0  0  0
  -22.4262   -8.0268   21.3542 C   0  0  0  0  0  0
  -21.9892   -9.0240   20.4649 C   0  0  0  0  0  0
  -22.7216  -10.2118   20.3055 C   0  0  0  0  0  0
  -21.6850   -6.0731   22.5281 C   0  0  0  0  0  0
  -21.4009   -6.5635   23.8213 C   0  0  0  0  0  0
  -21.3655   -5.6789   24.9178 C   0  0  0  0  0  0
  -21.6044   -4.3053   24.7230 C   0  0  0  0  0  0
  -21.8821   -3.8145   23.4351 C   0  0  0  0  0  0
  -21.9190   -4.6960   22.3407 C   0  0  0  0  0  0
  -22.7866  -13.5233   21.1834 C   0  0  0  0  0  0
  -22.1661   -4.2147   21.0985 F   0  0  0  0  0  0
  -21.5629   -3.4539   25.7742 F   0  0  0  0  0  0
  -30.0382  -13.2955   20.4447 N   0  0  0  0  0  0
  -26.3030  -12.9244   20.3421 N   0  0  0  0  0  0
  -25.9301  -11.6419   20.5795 N   0  0  0  0  0  0
  -22.0495  -12.8237   22.0391 N   0  0  0  0  0  0
  -25.4350  -15.1836   20.4139 N   0  0  0  0  0  0
  -31.8014  -14.7042   20.0987 O   0  0  0  0  0  0
  -21.6628   -6.8867   21.4239 O   0  0  0  0  0  0
  -22.3561  -14.5541   20.6679 O   0  0  0  0  0  0
  -24.6143  -31.8677   23.2088 C   0  0  0  0  0  0
  -25.9040  -32.4820   23.8387 C   0  0  1  0  0  0
  -27.2441  -27.4305   20.0870 C   0  0  0  0  0  0
  -25.5894  -33.8620   24.2313 N   0  0  0  0  0  0
  -23.4020  -30.4899   21.5501 C   0  0  2  0  0  0
  -24.8489  -28.9513   20.1168 C   0  0  0  0  0  0
  -22.7397  -29.4662   22.4998 C   0  0  0  0  0  0
  -18.0269  -28.1379   22.8499 C   0  0  0  0  0  0
  -24.1487  -36.7311   23.2639 C   0  0  0  0  0  0
  -25.9310  -30.8285   21.3641 C   0  0  0  0  0  0
  -26.0077  -29.4605   20.7151 C   0  0  0  0  0  0
  -27.2014  -28.7032   20.7050 C   0  0  0  0  0  0
  -26.0604  -26.9327   19.4919 C   0  0  0  0  0  0
  -24.8692  -27.6844   19.5082 C   0  0  0  0  0  0
  -23.6108  -29.8183   20.1660 C   0  0  0  0  0  0
  -25.4110  -36.3111   24.0334 C   0  0  1  0  0  0
  -20.5856  -28.3674   23.1323 C   0  0  2  0  0  0
  -20.6762  -26.9413   22.5425 C   0  0  0  0  0  0
  -19.5743  -26.6392   21.5223 C   0  0  0  0  0  0
  -18.1917  -26.7925   22.1626 C   0  0  0  0  0  0
  -19.1515  -28.8841   23.2911 C   0  0  0  0  0  0
  -18.9445  -30.1444   23.8929 C   0  0  0  0  0  0
  -17.6447  -30.6589   24.0576 C   0  0  0  0  0  0
  -25.9042  -34.9478   23.5126 C   0  0  0  0  0  0
  -16.5342  -29.9094   23.6325 C   0  0  0  0  0  0
  -16.7259  -28.6507   23.0357 C   0  0  0  0  0  0
  -26.4463  -31.6598   25.0716 C   0  0  0  0  0  0
  -25.3725  -31.3697   26.1459 C   0  0  0  0  0  0
  -27.0289  -30.3040   24.6093 C   0  0  0  0  0  0
  -27.6041  -32.4315   25.7472 C   0  0  0  0  0  0
  -27.5584  -37.1805   24.8462 C   0  0  0  0  0  0
  -21.4125  -29.3043   22.3733 N   0  0  0  0  0  0
  -26.4293  -37.3800   23.9412 N   0  0  0  0  0  0
  -24.6675  -31.0765   22.0998 N   0  0  0  0  0  0
  -23.4163  -28.8215   23.3055 O   0  0  0  0  0  0
  -28.4379  -26.7289   20.1013 O   0  0  0  0  0  0
  -26.5611  -34.8929   22.4693 O   0  0  0  0  0  0
  -23.5336  -32.1439   23.7478 O   0  0  0  0  0  0
  -30.5515  -17.6030   22.1511 C   0  0  0  0  0  0
  -29.6331  -19.0265   19.9180 C   0  0  0  0  0  0
  -30.5534  -19.0182   22.1633 C   0  0  0  0  0  0
  -29.6375  -17.6106   19.8934 C   0  0  0  0  0  0
  -30.0906  -16.8813   21.0287 C   0  0  0  0  0  0
  -30.0670  -19.7502   21.0554 C   0  0  0  0  0  0
  -29.2060  -23.3726   20.5492 C   0  0  0  0  0  0
  -31.0533  -19.7565   23.3925 C   0  0  0  0  0  0
  -30.1767  -16.8579   17.5287 C   0  0  0  0  0  0
  -29.1184  -16.9307   18.6345 C   0  0  0  0  0  0
  -28.1205  -24.2310   19.8712 C   0  0  0  0  0  0
  -29.2487  -21.8678   20.1987 C   0  0  0  0  0  0
  -28.6084  -25.5748   19.2619 C   0  0  0  0  0  0
  -29.9443  -15.4638   21.1443 N   0  0  0  0  0  0
  -30.0069  -23.8729   21.3467 O   0  0  0  0  0  0
  -30.0383  -21.1332   21.1466 O   0  0  0  0  0  0
  -31.4742  -12.4356   19.1118 H   0  0  0  0  0  0
  -30.3481  -11.3058   19.8088 H   0  0  0  0  0  0
  -29.7400  -11.7976   17.4203 H   0  0  0  0  0  0
  -29.6531  -13.5049   17.7741 H   0  0  0  0  0  0
  -27.8347  -11.3030   18.8126 H   0  0  0  0  0  0
  -27.3630  -12.6350   17.7919 H   0  0  0  0  0  0
  -27.6944  -14.2377   19.5909 H   0  0  0  0  0  0
  -28.6951  -11.9316   21.3247 H   0  0  0  0  0  0
  -28.4651  -13.5551   21.8856 H   0  0  0  0  0  0
  -25.2744   -9.5677   22.4761 H   0  0  0  0  0  0
  -23.9991   -7.4625   22.7473 H   0  0  0  0  0  0
  -21.0827   -8.8750   19.8955 H   0  0  0  0  0  0
  -22.3669  -10.9658   19.6165 H   0  0  0  0  0  0
  -21.1993   -7.6139   23.9718 H   0  0  0  0  0  0
  -21.1479   -6.0519   25.9080 H   0  0  0  0  0  0
  -22.0603   -2.7608   23.2856 H   0  0  0  0  0  0
  -22.4090  -11.9894   22.4787 H   0  0  0  0  0  0
  -21.1118  -13.1284   22.2588 H   0  0  0  0  0  0
  -24.6709  -15.8407   20.5280 H   0  0  0  0  0  0
  -26.2961  -15.6276   20.1227 H   0  0  0  0  0  0
  -26.7110  -32.5522   23.1151 H   0  0  0  0  0  0
  -25.0034  -33.9789   25.0450 H   0  0  0  0  0  0
  -22.6921  -31.3072   21.4086 H   0  0  0  0  0  0
  -23.3754  -35.9640   23.3297 H   0  0  0  0  0  0
  -24.3588  -36.8935   22.2056 H   0  0  0  0  0  0
  -23.7231  -37.6510   23.6660 H   0  0  0  0  0  0
  -26.0424  -31.5915   20.5923 H   0  0  0  0  0  0
  -26.8198  -30.8854   21.9806 H   0  0  0  0  0  0
  -28.0954  -29.0966   21.1688 H   0  0  0  0  0  0
  -26.0336  -25.9633   19.0170 H   0  0  0  0  0  0
  -23.9766  -27.2821   19.0491 H   0  0  0  0  0  0
  -23.7180  -30.5916   19.4042 H   0  0  0  0  0  0
  -22.7346  -29.2374   19.8711 H   0  0  0  0  0  0
  -25.1289  -36.1977   25.0827 H   0  0  0  0  0  0
  -20.9943  -28.3249   24.1443 H   0  0  0  0  0  0
  -20.5681  -26.2286   23.3618 H   0  0  0  0  0  0
  -21.6639  -26.7471   22.1211 H   0  0  0  0  0  0
  -19.6915  -25.6307   21.1243 H   0  0  0  0  0  0
  -19.6676  -27.3220   20.6766 H   0  0  0  0  0  0
  -17.4189  -26.6685   21.4019 H   0  0  0  0  0  0
  -18.0311  -26.0059   22.9010 H   0  0  0  0  0  0
  -19.7919  -30.7255   24.2308 H   0  0  0  0  0  0
  -17.5004  -31.6271   24.5177 H   0  0  0  0  0  0
  -15.5350  -30.3018   23.7623 H   0  0  0  0  0  0
  -15.8650  -28.0841   22.7066 H   0  0  0  0  0  0
  -24.5916  -30.7024   25.7789 H   0  0  0  0  0  0
  -24.8891  -32.2844   26.4902 H   0  0  0  0  0  0
  -25.8076  -30.8870   27.0219 H   0  0  0  0  0  0
  -26.2828  -29.6803   24.1151 H   0  0  0  0  0  0
  -27.4061  -29.7273   25.4548 H   0  0  0  0  0  0
  -27.8660  -30.4357   23.9234 H   0  0  0  0  0  0
  -27.2679  -33.3617   26.2064 H   0  0  0  0  0  0
  -28.3841  -32.6871   25.0289 H   0  0  0  0  0  0
  -28.0720  -31.8426   26.5375 H   0  0  0  0  0  0
  -28.2593  -38.0112   24.7539 H   0  0  0  0  0  0
  -28.1087  -36.2646   24.6249 H   0  0  0  0  0  0
  -27.2306  -37.1410   25.8865 H   0  0  0  0  0  0
  -20.9288  -29.8758   21.6945 H   0  0  0  0  0  0
  -26.0177  -38.2871   24.1434 H   0  0  0  0  0  0
  -30.8843  -17.0635   23.0270 H   0  0  0  0  0  0
  -29.2749  -19.5474   19.0422 H   0  0  0  0  0  0
  -31.3649  -19.0692   24.1790 H   0  0  0  0  0  0
  -30.2688  -20.3965   23.7971 H   0  0  0  0  0  0
  -31.9067  -20.3856   23.1371 H   0  0  0  0  0  0
  -29.7717  -16.3783   16.6376 H   0  0  0  0  0  0
  -31.0434  -16.2818   17.8513 H   0  0  0  0  0  0
  -30.5221  -17.8516   17.2426 H   0  0  0  0  0  0
  -28.2487  -17.4798   18.2717 H   0  0  0  0  0  0
  -28.7592  -15.9313   18.8524 H   0  0  0  0  0  0
  -27.3089  -24.4043   20.5773 H   0  0  0  0  0  0
  -27.6975  -23.6259   19.0696 H   0  0  0  0  0  0
  -29.6696  -21.7585   19.1982 H   0  0  0  0  0  0
  -28.2309  -21.4770   20.1810 H   0  0  0  0  0  0
  -28.1439  -25.7399   18.2894 H   0  0  0  0  0  0
  -29.6737  -25.5034   19.0376 H   0  0  0  0  0  0
  -29.0775  -15.1463   21.5506 H   0  0  0  0  0  0
  1 25  1  0  0  0
  1 30  2  0  0  0
  1 84  1  0  0  0
  2  3  1  0  0  0
  2 25  1  0  0  0
  2 87  1  0  0  0
  2 88  1  0  0  0
  3  4  1  0  0  0
  3 89  1  0  0  0
  3 90  1  0  0  0
  4  5  1  0  0  0
  4 91  1  0  0  0
  4 92  1  0  0  0
  5  6  1  0  0  0
  5 26  1  0  0  0
  5 93  1  0  0  0
  6 25  1  0  0  0
  6 94  1  0  0  0
  6 95  1  0  0  0
  7  8  2  0  0  0
  7 26  1  0  0  0
  7 29  1  0  0  0
  8  9  1  0  0  0
  8 22  1  0  0  0
  9 10  1  0  0  0
  9 27  2  0  0  0
 10 11  2  0  0  0
 10 15  1  0  0  0
 11 12  1  0  0  0
 11 96  1  0  0  0
 12 13  2  0  0  0
 12 97  1  0  0  0
 13 14  1  0  0  0
 13 31  1  0  0  0
 14 15  2  0  0  0
 14 98  1  0  0  0
 15 99  1  0  0  0
 16 17  2  0  0  0
 16 21  1  0  0  0
 16 31  1  0  0  0
 17 18  1  0  0  0
 17100  1  0  0  0
 18 19  2  0  0  0
 18101  1  0  0  0
 19 20  1  0  0  0
 19 24  1  0  0  0
 20 21  2  0  0  0
 20102  1  0  0  0
 21 23  1  0  0  0
 22 28  1  0  0  0
 22 32  2  0  0  0
 26 27  1  0  0  0
 28103  1  0  0  0
 28104  1  0  0  0
 29105  1  0  0  0
 29106  1  0  0  0
 33 34  1  0  0  0
 33 66  1  0  0  0
 33 70  2  0  0  0
 34 36  1  0  0  0
 34 59  1  0  0  0
 34107  1  0  0  0
 35 44  2  0  0  0
 35 45  1  0  0  0
 35 68  1  0  0  0
 36 56  1  0  0  0
 36108  1  0  0  0
 37 39  1  0  0  0
 37 47  1  0  0  0
 37 66  1  0  0  0
 37109  1  0  0  0
 38 43  2  0  0  0
 38 46  1  0  0  0
 38 47  1  0  0  0
 39 64  1  0  0  0
 39 67  2  0  0  0
 40 52  1  0  0  0
 40 53  2  0  0  0
 40 58  1  0  0  0
 41110  1  0  0  0
 41111  1  0  0  0
 41112  1  0  0  0
 41 48  1  0  0  0
 42 43  1  0  0  0
 42 66  1  0  0  0
 42113  1  0  0  0
 42114  1  0  0  0
 43 44  1  0  0  0
 44115  1  0  0  0
 45 46  2  0  0  0
 45116  1  0  0  0
 46117  1  0  0  0
 47118  1  0  0  0
 47119  1  0  0  0
 48 56  1  0  0  0
 48 65  1  0  0  0
 48120  1  0  0  0
 49 50  1  0  0  0
 49 53  1  0  0  0
 49 64  1  0  0  0
 49121  1  0  0  0
 50 51  1  0  0  0
 50122  1  0  0  0
 50123  1  0  0  0
 51 52  1  0  0  0
 51124  1  0  0  0
 51125  1  0  0  0
 52126  1  0  0  0
 52127  1  0  0  0
 53 54  1  0  0  0
 54 55  2  0  0  0
 54128  1  0  0  0
 55 57  1  0  0  0
 55129  1  0  0  0
 56 69  2  0  0  0
 57 58  2  0  0  0
 57130  1  0  0  0
 58131  1  0  0  0
 59 60  1  0  0  0
 59 61  1  0  0  0
 59 62  1  0  0  0
 60132  1  0  0  0
 60133  1  0  0  0
 60134  1  0  0  0
 61135  1  0  0  0
 61136  1  0  0  0
 61137  1  0  0  0
 62138  1  0  0  0
 62139  1  0  0  0
 62140  1  0  0  0
 63 65  1  0  0  0
 63141  1  0  0  0
 63142  1  0  0  0
 63143  1  0  0  0
 64144  1  0  0  0
 65145  1  0  0  0
 68 83  1  0  0  0
 71 73  2  0  0  0
 71 75  1  0  0  0
 71146  1  0  0  0
 72 74  1  0  0  0
 72 76  2  0  0  0
 72147  1  0  0  0
 73 76  1  0  0  0
 73 78  1  0  0  0
 74 75  2  0  0  0
 74 80  1  0  0  0
 75 84  1  0  0  0
 76 86  1  0  0  0
 77 81  1  0  0  0
 77 82  1  0  0  0
 77 85  2  0  0  0
 78148  1  0  0  0
 78149  1  0  0  0
 78150  1  0  0  0
 79 80  1  0  0  0
 79151  1  0  0  0
 79152  1  0  0  0
 79153  1  0  0  0
 80154  1  0  0  0
 80155  1  0  0  0
 81 83  1  0  0  0
 81156  1  0  0  0
 81157  1  0  0  0
 82 86  1  0  0  0
 82158  1  0  0  0
 82159  1  0  0  0
 83160  1  0  0  0
 83161  1  0  0  0
 84162  1  0  0  0
M  ISO  4   1 100  68 101  83 101  84 100
M  END
> <chiral flag>
0

> <version>
0

> <s_m_source_file>
/data/baiqing/PycharmProjects/Reinvent-master-3.2/result/LINK_invent/BTK/process_docking_weight1_custom_product_contain_oxygen_bond_distance_aromatic_linkinvent_7_9_3/rearranged_h_0124.sdf

> <i_m_source_file_index>
36

> <r_mmod_Potential_Energy-OPLS-2005>
-74.2806015014648

> <r_mmod_Stretch_Energy-OPLS-2005>
40.3330879211426

> <r_mmod_Bend_Energy-OPLS-2005>
108.721405029297

> <r_mmod_Torsional_Energy-OPLS-2005>
232.421051025391

> <r_mmod_Improper_Torsional_Energy-OPLS-2005>
3.77020740509033

> <r_mmod_Van_der_Waal_Energy-OPLS-2005>
146.66389465332

> <r_mmod_Electrostatic_Energy-OPLS-2005>
-379.239715576172

> <r_mmod_Solvation_Energy-OPLS-2005>
-240.693069458008

> <b_mmod_Minimization_Converged-OPLS-2005>
0

> <r_mmod_RMS_Derivative-OPLS-2005>
1.06382215023041

$$$$
36
                    3D
 Structure written by MMmdl.
158166  0  0  1  0            999 V2000
  -30.6987  -14.4424   20.5868 C   0  0  0  0  0  0
  -30.4167  -12.2934   19.4198 C   0  0  0  0  0  0
  -29.4932  -12.5143   18.2039 C   0  0  0  0  0  0
  -28.0098  -12.3803   18.6071 C   0  0  0  0  0  0
  -27.6570  -13.2019   19.8773 C   0  0  2  0  0  0
  -28.6954  -12.9521   20.9936 C   0  0  0  0  0  0
  -25.2551  -13.8148   20.5666 C   0  0  0  0  0  0
  -24.1811  -13.0427   20.9187 C   0  0  0  0  0  0
  -24.6346  -11.6889   20.8741 C   0  0  0  0  0  0
  -23.9013  -10.4291   21.0416 C   0  0  0  0  0  0
  -24.3591   -9.4219   21.9198 C   0  0  0  0  0  0
  -23.6299   -8.2234   22.0746 C   0  0  0  0  0  0
  -22.4283   -8.0253   21.3533 C   0  0  0  0  0  0
  -21.9904   -9.0223   20.4649 C   0  0  0  0  0  0
  -22.7188  -10.2124   20.3057 C   0  0  0  0  0  0
  -21.6852   -6.0728   22.5279 C   0  0  0  0  0  0
  -21.4016   -6.5641   23.8212 C   0  0  0  0  0  0
  -21.3673   -5.6795   24.9183 C   0  0  0  0  0  0
  -21.6037   -4.3047   24.7233 C   0  0  0  0  0  0
  -21.8818   -3.8141   23.4357 C   0  0  0  0  0  0
  -21.9200   -4.6958   22.3415 C   0  0  0  0  0  0
  -22.7853  -13.5245   21.1880 C   0  0  0  0  0  0
  -22.1654   -4.2150   21.0991 F   0  0  0  0  0  0
  -21.5641   -3.4528   25.7745 F   0  0  0  0  0  0
  -30.0242  -13.2683   20.4483 N   0  0  0  0  0  0
  -26.2977  -12.9298   20.3357 N   0  0  0  0  0  0
  -25.9261  -11.6453   20.5726 N   0  0  0  0  0  0
  -22.0490  -12.8235   22.0431 N   0  0  0  0  0  0
  -25.4297  -15.1861   20.4054 N   0  0  0  0  0  0
  -31.8385  -14.5905   20.1293 O   0  0  0  0  0  0
  -21.6631   -6.8859   21.4233 O   0  0  0  0  0  0
  -22.3551  -14.5545   20.6708 O   0  0  0  0  0  0
  -24.6093  -31.8719   23.2154 C   0  0  0  0  0  0
  -25.9014  -32.4845   23.8423 C   0  0  1  0  0  0
  -27.2392  -27.4820   20.0962 C   0  0  0  0  0  0
  -25.5881  -33.8645   24.2349 N   0  0  0  0  0  0
  -23.3929  -30.4940   21.5567 C   0  0  2  0  0  0
  -24.8392  -28.9657   20.1183 C   0  0  0  0  0  0
  -22.7389  -29.4640   22.5035 C   0  0  0  0  0  0
  -18.0264  -28.1376   22.8486 C   0  0  0  0  0  0
  -24.1485  -36.7315   23.2638 C   0  0  0  0  0  0
  -25.9151  -30.8537   21.3609 C   0  0  0  0  0  0
  -25.9933  -29.4915   20.7105 C   0  0  0  0  0  0
  -27.1961  -28.7611   20.6951 C   0  0  0  0  0  0
  -26.0732  -26.9661   19.4968 C   0  0  0  0  0  0
  -24.8696  -27.6985   19.5099 C   0  0  0  0  0  0
  -23.5982  -29.8258   20.1705 C   0  0  0  0  0  0
  -25.4107  -36.3116   24.0339 C   0  0  1  0  0  0
  -20.5849  -28.3614   23.1360 C   0  0  2  0  0  0
  -20.6758  -26.9362   22.5433 C   0  0  0  0  0  0
  -19.5751  -26.6373   21.5214 C   0  0  0  0  0  0
  -18.1924  -26.7924   22.1609 C   0  0  0  0  0  0
  -19.1511  -28.8818   23.2920 C   0  0  0  0  0  0
  -18.9428  -30.1439   23.8919 C   0  0  0  0  0  0
  -17.6429  -30.6575   24.0551 C   0  0  0  0  0  0
  -25.9021  -34.9485   23.5144 C   0  0  0  0  0  0
  -16.5324  -29.9077   23.6314 C   0  0  0  0  0  0
  -16.7256  -28.6496   23.0331 C   0  0  0  0  0  0
  -26.4460  -31.6609   25.0728 C   0  0  0  0  0  0
  -25.3735  -31.3721   26.1483 C   0  0  0  0  0  0
  -27.0276  -30.3071   24.6055 C   0  0  0  0  0  0
  -27.6039  -32.4325   25.7485 C   0  0  0  0  0  0
  -27.5591  -37.1807   24.8456 C   0  0  0  0  0  0
  -21.4122  -29.2978   22.3769 N   0  0  0  0  0  0
  -26.4304  -37.3791   23.9403 N   0  0  0  0  0  0
  -24.6563  -31.0864   22.1025 N   0  0  0  0  0  0
  -23.4205  -28.8187   23.3051 O   0  0  0  0  0  0
  -28.3739  -26.7091   20.0545 O   0  0  0  0  0  0
  -26.5564  -34.8908   22.4686 O   0  0  0  0  0  0
  -23.5311  -32.1423   23.7604 O   0  0  0  0  0  0
  -30.8489  -19.0319   22.2182 C   0  0  0  0  0  0
  -30.3744  -20.3290   22.4699 C   0  0  0  0  0  0
  -28.5808  -18.2813   21.7851 C   0  0  0  0  0  0
  -29.9683  -18.0037   21.8350 C   0  0  0  0  0  0
  -29.0013  -20.6333   22.3501 C   0  0  0  0  0  0
  -28.0963  -19.5896   22.0288 C   0  0  0  0  0  0
  -30.5662  -16.7165   21.4361 C   0  0  0  0  0  0
  -28.5677  -22.0409   22.4326 C   0  0  0  0  0  0
  -29.9307  -15.5693   21.1228 C   0  0  0  0  0  0
  -29.3387  -23.0650   22.0178 C   0  0  0  0  0  0
  -28.9227  -24.4701   22.0850 C   0  0  0  0  0  0
  -26.6064  -19.8662   21.8817 C   0  0  0  0  0  0
  -29.8885  -25.4770   21.4474 C   0  0  0  0  0  0
  -29.2834  -26.8509   21.1429 C   0  0  0  0  0  0
  -27.8732  -24.8416   22.6192 O   0  0  0  0  0  0
  -31.4626  -12.3873   19.1223 H   0  0  0  0  0  0
  -30.3117  -11.2784   19.8066 H   0  0  0  0  0  0
  -29.7343  -11.8051   17.4105 H   0  0  0  0  0  0
  -29.6705  -13.5079   17.7880 H   0  0  0  0  0  0
  -27.8049  -11.3216   18.7738 H   0  0  0  0  0  0
  -27.3700  -12.6888   17.7782 H   0  0  0  0  0  0
  -27.7039  -14.2547   19.5989 H   0  0  0  0  0  0
  -28.6667  -11.9048   21.2966 H   0  0  0  0  0  0
  -28.4628  -13.5168   21.8975 H   0  0  0  0  0  0
  -25.2750   -9.5681   22.4750 H   0  0  0  0  0  0
  -24.0023   -7.4607   22.7432 H   0  0  0  0  0  0
  -21.0845   -8.8708   19.8950 H   0  0  0  0  0  0
  -22.3655  -10.9644   19.6135 H   0  0  0  0  0  0
  -21.1996   -7.6142   23.9735 H   0  0  0  0  0  0
  -21.1502   -6.0514   25.9091 H   0  0  0  0  0  0
  -22.0601   -2.7595   23.2859 H   0  0  0  0  0  0
  -22.4102  -11.9892   22.4813 H   0  0  0  0  0  0
  -21.1083  -13.1220   22.2597 H   0  0  0  0  0  0
  -24.6650  -15.8456   20.4997 H   0  0  0  0  0  0
  -26.2787  -15.6137   20.0591 H   0  0  0  0  0  0
  -26.7074  -32.5562   23.1186 H   0  0  0  0  0  0
  -25.0081  -33.9801   25.0530 H   0  0  0  0  0  0
  -22.6770  -31.3064   21.4227 H   0  0  0  0  0  0
  -23.3742  -35.9654   23.3307 H   0  0  0  0  0  0
  -24.3599  -36.8918   22.2056 H   0  0  0  0  0  0
  -23.7239  -37.6526   23.6637 H   0  0  0  0  0  0
  -26.0197  -31.6225   20.5940 H   0  0  0  0  0  0
  -26.8062  -30.9123   21.9745 H   0  0  0  0  0  0
  -28.0818  -29.1907   21.1386 H   0  0  0  0  0  0
  -26.0901  -25.9909   19.0296 H   0  0  0  0  0  0
  -23.9779  -27.2864   19.0547 H   0  0  0  0  0  0
  -23.6987  -30.5986   19.4089 H   0  0  0  0  0  0
  -22.7213  -29.2438   19.8792 H   0  0  0  0  0  0
  -25.1294  -36.1987   25.0837 H   0  0  0  0  0  0
  -20.9940  -28.3147   24.1477 H   0  0  0  0  0  0
  -20.5669  -26.2205   23.3589 H   0  0  0  0  0  0
  -21.6633  -26.7409   22.1216 H   0  0  0  0  0  0
  -19.6910  -25.6279   21.1248 H   0  0  0  0  0  0
  -19.6746  -27.3173   20.6738 H   0  0  0  0  0  0
  -17.4207  -26.6680   21.3985 H   0  0  0  0  0  0
  -18.0294  -26.0064   22.8996 H   0  0  0  0  0  0
  -19.7908  -30.7254   24.2308 H   0  0  0  0  0  0
  -17.4976  -31.6253   24.5131 H   0  0  0  0  0  0
  -15.5325  -30.2978   23.7636 H   0  0  0  0  0  0
  -15.8654  -28.0822   22.7043 H   0  0  0  0  0  0
  -24.5865  -30.7131   25.7783 H   0  0  0  0  0  0
  -24.8984  -32.2898   26.4966 H   0  0  0  0  0  0
  -25.8070  -30.8828   27.0215 H   0  0  0  0  0  0
  -26.2811  -29.6878   24.1085 H   0  0  0  0  0  0
  -27.4027  -29.7265   25.4480 H   0  0  0  0  0  0
  -27.8644  -30.4397   23.9210 H   0  0  0  0  0  0
  -27.2662  -33.3587   26.2141 H   0  0  0  0  0  0
  -28.3822  -32.6958   25.0313 H   0  0  0  0  0  0
  -28.0757  -31.8430   26.5346 H   0  0  0  0  0  0
  -28.2587  -38.0118   24.7506 H   0  0  0  0  0  0
  -28.1109  -36.2647   24.6281 H   0  0  0  0  0  0
  -27.2320  -37.1469   25.8862 H   0  0  0  0  0  0
  -20.9271  -29.8701   21.6996 H   0  0  0  0  0  0
  -26.0196  -38.2870   24.1412 H   0  0  0  0  0  0
  -31.9120  -18.8472   22.2775 H   0  0  0  0  0  0
  -31.0914  -21.0964   22.7238 H   0  0  0  0  0  0
  -27.8833  -17.5094   21.4931 H   0  0  0  0  0  0
  -31.6459  -16.7400   21.3496 H   0  0  0  0  0  0
  -27.5903  -22.2348   22.8573 H   0  0  0  0  0  0
  -28.8576  -15.5208   21.2225 H   0  0  0  0  0  0
  -30.3135  -22.8787   21.5916 H   0  0  0  0  0  0
  -26.0946  -19.0375   21.3906 H   0  0  0  0  0  0
  -26.4313  -20.7602   21.2822 H   0  0  0  0  0  0
  -26.1502  -20.0096   22.8619 H   0  0  0  0  0  0
  -30.2874  -25.0484   20.5292 H   0  0  0  0  0  0
  -30.7303  -25.6058   22.1276 H   0  0  0  0  0  0
  -30.0674  -27.5554   20.8596 H   0  0  0  0  0  0
  -28.8155  -27.2364   22.0485 H   0  0  0  0  0  0
  1 25  1  0  0  0
  1 30  2  0  0  0
  1 79  1  0  0  0
  2  3  1  0  0  0
  2 25  1  0  0  0
  2 86  1  0  0  0
  2 87  1  0  0  0
  3  4  1  0  0  0
  3 88  1  0  0  0
  3 89  1  0  0  0
  4  5  1  0  0  0
  4 90  1  0  0  0
  4 91  1  0  0  0
  5  6  1  0  0  0
  5 26  1  0  0  0
  5 92  1  0  0  0
  6 25  1  0  0  0
  6 93  1  0  0  0
  6 94  1  0  0  0
  7  8  2  0  0  0
  7 26  1  0  0  0
  7 29  1  0  0  0
  8  9  1  0  0  0
  8 22  1  0  0  0
  9 10  1  0  0  0
  9 27  2  0  0  0
 10 11  2  0  0  0
 10 15  1  0  0  0
 11 12  1  0  0  0
 11 95  1  0  0  0
 12 13  2  0  0  0
 12 96  1  0  0  0
 13 14  1  0  0  0
 13 31  1  0  0  0
 14 15  2  0  0  0
 14 97  1  0  0  0
 15 98  1  0  0  0
 16 17  2  0  0  0
 16 21  1  0  0  0
 16 31  1  0  0  0
 17 18  1  0  0  0
 17 99  1  0  0  0
 18 19  2  0  0  0
 18100  1  0  0  0
 19 20  1  0  0  0
 19 24  1  0  0  0
 20 21  2  0  0  0
 20101  1  0  0  0
 21 23  1  0  0  0
 22 28  1  0  0  0
 22 32  2  0  0  0
 26 27  1  0  0  0
 28102  1  0  0  0
 28103  1  0  0  0
 29104  1  0  0  0
 29105  1  0  0  0
 33 34  1  0  0  0
 33 66  1  0  0  0
 33 70  2  0  0  0
 34 36  1  0  0  0
 34 59  1  0  0  0
 34106  1  0  0  0
 35 44  2  0  0  0
 35 45  1  0  0  0
 35 68  1  0  0  0
 36 56  1  0  0  0
 36107  1  0  0  0
 37 39  1  0  0  0
 37 47  1  0  0  0
 37 66  1  0  0  0
 37108  1  0  0  0
 38 43  2  0  0  0
 38 46  1  0  0  0
 38 47  1  0  0  0
 39 64  1  0  0  0
 39 67  2  0  0  0
 40 52  1  0  0  0
 40 53  2  0  0  0
 40 58  1  0  0  0
 41109  1  0  0  0
 41110  1  0  0  0
 41111  1  0  0  0
 41 48  1  0  0  0
 42 43  1  0  0  0
 42 66  1  0  0  0
 42112  1  0  0  0
 42113  1  0  0  0
 43 44  1  0  0  0
 44114  1  0  0  0
 45 46  2  0  0  0
 45115  1  0  0  0
 46116  1  0  0  0
 47117  1  0  0  0
 47118  1  0  0  0
 48 56  1  0  0  0
 48 65  1  0  0  0
 48119  1  0  0  0
 49 50  1  0  0  0
 49 53  1  0  0  0
 49 64  1  0  0  0
 49120  1  0  0  0
 50 51  1  0  0  0
 50121  1  0  0  0
 50122  1  0  0  0
 51 52  1  0  0  0
 51123  1  0  0  0
 51124  1  0  0  0
 52125  1  0  0  0
 52126  1  0  0  0
 53 54  1  0  0  0
 54 55  2  0  0  0
 54127  1  0  0  0
 55 57  1  0  0  0
 55128  1  0  0  0
 56 69  2  0  0  0
 57 58  2  0  0  0
 57129  1  0  0  0
 58130  1  0  0  0
 59 60  1  0  0  0
 59 61  1  0  0  0
 59 62  1  0  0  0
 60131  1  0  0  0
 60132  1  0  0  0
 60133  1  0  0  0
 61134  1  0  0  0
 61135  1  0  0  0
 61136  1  0  0  0
 62137  1  0  0  0
 62138  1  0  0  0
 62139  1  0  0  0
 63 65  1  0  0  0
 63140  1  0  0  0
 63141  1  0  0  0
 63142  1  0  0  0
 64143  1  0  0  0
 65144  1  0  0  0
 68 84  1  0  0  0
 71 72  2  0  0  0
 71 74  1  0  0  0
 71145  1  0  0  0
 72 75  1  0  0  0
 72146  1  0  0  0
 73 74  2  0  0  0
 73 76  1  0  0  0
 73147  1  0  0  0
 74 77  1  0  0  0
 75 76  2  0  0  0
 75 78  1  0  0  0
 76 82  1  0  0  0
 77 79  2  0  0  0
 77148  1  0  0  0
 78 80  2  0  0  0
 78149  1  0  0  0
 79150  1  0  0  0
 80 81  1  0  0  0
 80151  1  0  0  0
 81 83  1  0  0  0
 81 85  2  0  0  0
 82152  1  0  0  0
 82153  1  0  0  0
 82154  1  0  0  0
 83 84  1  0  0  0
 83155  1  0  0  0
 83156  1  0  0  0
 84157  1  0  0  0
 84158  1  0  0  0
M  ISO  4   1 100  68 101  79 100  84 101
M  END
> <chiral flag>
0

> <version>
0

> <s_m_source_file>
/data/baiqing/PycharmProjects/Reinvent-master-3.2/result/LINK_invent/BTK/process_docking_weight1_custom_product_contain_oxygen_bond_distance_aromatic_linkinvent_7_9_3/rearranged_h_0124.sdf

> <i_m_source_file_index>
37

> <r_mmod_Potential_Energy-OPLS-2005>
-77.9912338256836

> <r_mmod_Stretch_Energy-OPLS-2005>
32.7337265014648

> <r_mmod_Bend_Energy-OPLS-2005>
94.4648132324219

> <r_mmod_Torsional_Energy-OPLS-2005>
183.908355712891

> <r_mmod_Improper_Torsional_Energy-OPLS-2005>
5.41341972351074

> <r_mmod_Van_der_Waal_Energy-OPLS-2005>
169.343933105469

> <r_mmod_Electrostatic_Energy-OPLS-2005>
-362.8349609375

> <r_mmod_Solvation_Energy-OPLS-2005>
-210.911148071289

> <b_mmod_Minimization_Converged-OPLS-2005>
0

> <r_mmod_RMS_Derivative-OPLS-2005>
3.65332102775574

$$$$
37
                    3D
 Structure written by MMmdl.
151159  0  0  1  0            999 V2000
  -30.4829  -14.9998   20.4158 C   0  0  0  0  0  0
  -30.4553  -12.6127   19.5101 C   0  0  0  0  0  0
  -29.5346  -12.5406   18.2662 C   0  0  0  0  0  0
  -28.0665  -12.3131   18.6770 C   0  0  0  0  0  0
  -27.6326  -13.2457   19.8362 C   0  0  2  0  0  0
  -28.6720  -13.2774   20.9755 C   0  0  0  0  0  0
  -25.2489  -13.8201   20.5705 C   0  0  0  0  0  0
  -24.1794  -13.0431   20.9210 C   0  0  0  0  0  0
  -24.6405  -11.6914   20.8735 C   0  0  0  0  0  0
  -23.9082  -10.4289   21.0399 C   0  0  0  0  0  0
  -24.3630   -9.4205   21.9179 C   0  0  0  0  0  0
  -23.6300   -8.2243   22.0752 C   0  0  0  0  0  0
  -22.4280   -8.0283   21.3545 C   0  0  0  0  0  0
  -21.9918   -9.0255   20.4644 C   0  0  0  0  0  0
  -22.7251  -10.2131   20.3051 C   0  0  0  0  0  0
  -21.6855   -6.0737   22.5279 C   0  0  0  0  0  0
  -21.4015   -6.5639   23.8213 C   0  0  0  0  0  0
  -21.3661   -5.6791   24.9175 C   0  0  0  0  0  0
  -21.6046   -4.3054   24.7224 C   0  0  0  0  0  0
  -21.8819   -3.8147   23.4344 C   0  0  0  0  0  0
  -21.9194   -4.6964   22.3401 C   0  0  0  0  0  0
  -22.7815  -13.5207   21.1873 C   0  0  0  0  0  0
  -22.1663   -4.2151   21.0978 F   0  0  0  0  0  0
  -21.5629   -3.4537   25.7736 F   0  0  0  0  0  0
  -29.9534  -13.7037   20.3968 N   0  0  0  0  0  0
  -26.2906  -12.9424   20.3217 N   0  0  0  0  0  0
  -25.9337  -11.6557   20.5708 N   0  0  0  0  0  0
  -22.0468  -12.8195   22.0430 N   0  0  0  0  0  0
  -25.4174  -15.1932   20.4171 N   0  0  0  0  0  0
  -31.6798  -15.0930   20.1126 O   0  0  0  0  0  0
  -21.6642   -6.8882   21.4242 O   0  0  0  0  0  0
  -22.3495  -14.5513   20.6722 O   0  0  0  0  0  0
  -24.6475  -31.8405   23.1852 C   0  0  0  0  0  0
  -25.9229  -32.4677   23.8256 C   0  0  1  0  0  0
  -27.2194  -27.0982   20.1558 C   0  0  0  0  0  0
  -25.5961  -33.8484   24.2171 N   0  0  0  0  0  0
  -23.4532  -30.4588   21.5318 C   0  0  2  0  0  0
  -24.9038  -28.8791   20.1118 C   0  0  0  0  0  0
  -22.7588  -29.4530   22.4848 C   0  0  0  0  0  0
  -18.0308  -28.1399   22.8477 C   0  0  0  0  0  0
  -24.1493  -36.7244   23.2643 C   0  0  0  0  0  0
  -26.0127  -30.7021   21.3900 C   0  0  0  0  0  0
  -26.0839  -29.3099   20.7312 C   0  0  0  0  0  0
  -27.2421  -28.4375   20.7330 C   0  0  0  0  0  0
  -26.0101  -26.7791   19.4977 C   0  0  0  0  0  0
  -24.8823  -27.6284   19.4786 C   0  0  0  0  0  0
  -23.6822  -29.7858   20.1527 C   0  0  0  0  0  0
  -25.4128  -36.3021   24.0312 C   0  0  1  0  0  0
  -20.5924  -28.3730   23.1226 C   0  0  2  0  0  0
  -20.6791  -26.9429   22.5403 C   0  0  0  0  0  0
  -19.5764  -26.6382   21.5214 C   0  0  0  0  0  0
  -18.1945  -26.7936   22.1625 C   0  0  0  0  0  0
  -19.1566  -28.8884   23.2842 C   0  0  0  0  0  0
  -18.9480  -30.1479   23.8869 C   0  0  0  0  0  0
  -17.6475  -30.6595   24.0557 C   0  0  0  0  0  0
  -25.9080  -34.9397   23.5053 C   0  0  0  0  0  0
  -16.5367  -29.9085   23.6339 C   0  0  0  0  0  0
  -16.7292  -28.6503   23.0361 C   0  0  0  0  0  0
  -26.4535  -31.6559   25.0715 C   0  0  0  0  0  0
  -25.3706  -31.3762   26.1401 C   0  0  0  0  0  0
  -27.0404  -30.2947   24.6330 C   0  0  0  0  0  0
  -27.6058  -32.4334   25.7503 C   0  0  0  0  0  0
  -27.5575  -37.1782   24.8467 C   0  0  0  0  0  0
  -21.4276  -29.3049   22.3593 N   0  0  0  0  0  0
  -26.4289  -37.3737   23.9405 N   0  0  0  0  0  0
  -24.7246  -31.0226   22.0905 N   0  0  0  0  0  0
  -23.4211  -28.8083   23.3018 O   0  0  0  0  0  0
  -28.2608  -26.0866   20.2232 O   0  0  0  0  0  0
  -26.5669  -34.8900   22.4634 O   0  0  0  0  0  0
  -23.5584  -32.1299   23.7046 O   0  0  0  0  0  0
  -31.2929  -22.3617   20.3259 C   0  0  0  0  0  0
  -30.8960  -21.0034   20.3760 C   0  0  0  0  0  0
  -28.6181  -21.7879   20.3125 C   0  0  0  0  0  0
  -30.3860  -23.4526   20.2659 C   0  0  0  0  0  0
  -28.9838  -23.2431   20.2548 C   0  0  0  0  0  0
  -29.5404  -20.6075   20.3754 C   0  0  0  0  0  0
  -29.9715  -18.0042   20.4331 C   0  0  0  0  0  0
  -30.9619  -24.8562   20.2039 C   0  0  0  0  0  0
  -27.9440  -24.5454   20.1185 C   0  0  0  0  0  0
  -29.5628  -16.3830   20.6670 C   0  0  0  0  0  0
  -29.1969  -19.1336   20.4702 N   0  0  0  0  0  0
  -31.4866  -12.7861   19.1992 H   0  0  0  0  0  0
  -30.4622  -11.6601   20.0422 H   0  0  0  0  0  0
  -29.8640  -11.7448   17.5968 H   0  0  0  0  0  0
  -29.6155  -13.4701   17.7005 H   0  0  0  0  0  0
  -27.9685  -11.2720   18.9871 H   0  0  0  0  0  0
  -27.4064  -12.4388   17.8180 H   0  0  0  0  0  0
  -27.5923  -14.2445   19.4030 H   0  0  0  0  0  0
  -28.7625  -12.2999   21.4515 H   0  0  0  0  0  0
  -28.3591  -13.9714   21.7569 H   0  0  0  0  0  0
  -25.2776   -9.5680   22.4752 H   0  0  0  0  0  0
  -24.0009   -7.4634   22.7471 H   0  0  0  0  0  0
  -21.0850   -8.8774   19.8949 H   0  0  0  0  0  0
  -22.3710  -10.9670   19.6159 H   0  0  0  0  0  0
  -21.2006   -7.6147   23.9717 H   0  0  0  0  0  0
  -21.1484   -6.0521   25.9078 H   0  0  0  0  0  0
  -22.0597   -2.7609   23.2843 H   0  0  0  0  0  0
  -22.4096  -11.9866   22.4825 H   0  0  0  0  0  0
  -21.1082  -13.1211   22.2635 H   0  0  0  0  0  0
  -24.6519  -15.8475   20.5379 H   0  0  0  0  0  0
  -26.2702  -15.6378   20.1026 H   0  0  0  0  0  0
  -26.7296  -32.5271   23.0982 H   0  0  0  0  0  0
  -25.0081  -33.9592   25.0301 H   0  0  0  0  0  0
  -22.7578  -31.2859   21.3744 H   0  0  0  0  0  0
  -23.3760  -35.9571   23.3298 H   0  0  0  0  0  0
  -24.3573  -36.8886   22.2059 H   0  0  0  0  0  0
  -23.7246  -37.6436   23.6688 H   0  0  0  0  0  0
  -26.1741  -31.4548   20.6171 H   0  0  0  0  0  0
  -26.8805  -30.7524   22.0360 H   0  0  0  0  0  0
  -28.1400  -28.7634   21.2390 H   0  0  0  0  0  0
  -25.8964  -25.8257   19.0060 H   0  0  0  0  0  0
  -23.9823  -27.2929   18.9816 H   0  0  0  0  0  0
  -23.8221  -30.5592   19.3966 H   0  0  0  0  0  0
  -22.7960  -29.2301   19.8410 H   0  0  0  0  0  0
  -25.1320  -36.1844   25.0805 H   0  0  0  0  0  0
  -21.0015  -28.3324   24.1347 H   0  0  0  0  0  0
  -20.5686  -26.2344   23.3626 H   0  0  0  0  0  0
  -21.6656  -26.7429   22.1201 H   0  0  0  0  0  0
  -19.6923  -25.6285   21.1262 H   0  0  0  0  0  0
  -19.6700  -27.3176   20.6731 H   0  0  0  0  0  0
  -17.4214  -26.6682   21.4028 H   0  0  0  0  0  0
  -18.0342  -26.0085   22.9028 H   0  0  0  0  0  0
  -19.7955  -30.7304   24.2225 H   0  0  0  0  0  0
  -17.5027  -31.6272   24.5164 H   0  0  0  0  0  0
  -15.5365  -30.2977   23.7679 H   0  0  0  0  0  0
  -15.8692  -28.0811   22.7095 H   0  0  0  0  0  0
  -24.5893  -30.7103   25.7718 H   0  0  0  0  0  0
  -24.8886  -32.2947   26.4757 H   0  0  0  0  0  0
  -25.7975  -30.8979   27.0224 H   0  0  0  0  0  0
  -26.3032  -29.6661   24.1321 H   0  0  0  0  0  0
  -27.3980  -29.7260   25.4924 H   0  0  0  0  0  0
  -27.8957  -30.4168   23.9680 H   0  0  0  0  0  0
  -27.2648  -33.3660   26.2010 H   0  0  0  0  0  0
  -28.3904  -32.6853   25.0355 H   0  0  0  0  0  0
  -28.0687  -31.8505   26.5476 H   0  0  0  0  0  0
  -28.2590  -38.0080   24.7503 H   0  0  0  0  0  0
  -28.1075  -36.2607   24.6310 H   0  0  0  0  0  0
  -27.2288  -37.1447   25.8869 H   0  0  0  0  0  0
  -20.9496  -29.8753   21.6758 H   0  0  0  0  0  0
  -26.0153  -38.2805   24.1402 H   0  0  0  0  0  0
  -32.3547  -22.5670   20.3324 H   0  0  0  0  0  0
  -31.6794  -20.2611   20.4262 H   0  0  0  0  0  0
  -27.5601  -21.5672   20.3037 H   0  0  0  0  0  0
  -31.0439  -18.1023   20.2481 H   0  0  0  0  0  0
  -32.0522  -24.8461   20.1951 H   0  0  0  0  0  0
  -30.6464  -25.4381   21.0702 H   0  0  0  0  0  0
  -30.6315  -25.3683   19.2998 H   0  0  0  0  0  0
  -27.1397  -24.3525   20.8291 H   0  0  0  0  0  0
  -27.5006  -24.3981   19.1346 H   0  0  0  0  0  0
  -28.6586  -16.2278   20.0819 H   0  0  0  0  0  0
  -29.2326  -16.3104   21.7023 H   0  0  0  0  0  0
  1 25  1  0  0  0
  1 30  2  0  0  0
  1 80  1  0  0  0
  2  3  1  0  0  0
  2 25  1  0  0  0
  2 82  1  0  0  0
  2 83  1  0  0  0
  3  4  1  0  0  0
  3 84  1  0  0  0
  3 85  1  0  0  0
  4  5  1  0  0  0
  4 86  1  0  0  0
  4 87  1  0  0  0
  5  6  1  0  0  0
  5 26  1  0  0  0
  5 88  1  0  0  0
  6 25  1  0  0  0
  6 89  1  0  0  0
  6 90  1  0  0  0
  7  8  2  0  0  0
  7 26  1  0  0  0
  7 29  1  0  0  0
  8  9  1  0  0  0
  8 22  1  0  0  0
  9 10  1  0  0  0
  9 27  2  0  0  0
 10 11  2  0  0  0
 10 15  1  0  0  0
 11 12  1  0  0  0
 11 91  1  0  0  0
 12 13  2  0  0  0
 12 92  1  0  0  0
 13 14  1  0  0  0
 13 31  1  0  0  0
 14 15  2  0  0  0
 14 93  1  0  0  0
 15 94  1  0  0  0
 16 17  2  0  0  0
 16 21  1  0  0  0
 16 31  1  0  0  0
 17 18  1  0  0  0
 17 95  1  0  0  0
 18 19  2  0  0  0
 18 96  1  0  0  0
 19 20  1  0  0  0
 19 24  1  0  0  0
 20 21  2  0  0  0
 20 97  1  0  0  0
 21 23  1  0  0  0
 22 28  1  0  0  0
 22 32  2  0  0  0
 26 27  1  0  0  0
 28 98  1  0  0  0
 28 99  1  0  0  0
 29100  1  0  0  0
 29101  1  0  0  0
 33 34  1  0  0  0
 33 66  1  0  0  0
 33 70  2  0  0  0
 34 36  1  0  0  0
 34 59  1  0  0  0
 34102  1  0  0  0
 35 44  2  0  0  0
 35 45  1  0  0  0
 35 68  1  0  0  0
 36 56  1  0  0  0
 36103  1  0  0  0
 37 39  1  0  0  0
 37 47  1  0  0  0
 37 66  1  0  0  0
 37104  1  0  0  0
 38 43  2  0  0  0
 38 46  1  0  0  0
 38 47  1  0  0  0
 39 64  1  0  0  0
 39 67  2  0  0  0
 40 52  1  0  0  0
 40 53  2  0  0  0
 40 58  1  0  0  0
 41105  1  0  0  0
 41106  1  0  0  0
 41107  1  0  0  0
 41 48  1  0  0  0
 42 43  1  0  0  0
 42 66  1  0  0  0
 42108  1  0  0  0
 42109  1  0  0  0
 43 44  1  0  0  0
 44110  1  0  0  0
 45 46  2  0  0  0
 45111  1  0  0  0
 46112  1  0  0  0
 47113  1  0  0  0
 47114  1  0  0  0
 48 56  1  0  0  0
 48 65  1  0  0  0
 48115  1  0  0  0
 49 50  1  0  0  0
 49 53  1  0  0  0
 49 64  1  0  0  0
 49116  1  0  0  0
 50 51  1  0  0  0
 50117  1  0  0  0
 50118  1  0  0  0
 51 52  1  0  0  0
 51119  1  0  0  0
 51120  1  0  0  0
 52121  1  0  0  0
 52122  1  0  0  0
 53 54  1  0  0  0
 54 55  2  0  0  0
 54123  1  0  0  0
 55 57  1  0  0  0
 55124  1  0  0  0
 56 69  2  0  0  0
 57 58  2  0  0  0
 57125  1  0  0  0
 58126  1  0  0  0
 59 60  1  0  0  0
 59 61  1  0  0  0
 59 62  1  0  0  0
 60127  1  0  0  0
 60128  1  0  0  0
 60129  1  0  0  0
 61130  1  0  0  0
 61131  1  0  0  0
 61132  1  0  0  0
 62133  1  0  0  0
 62134  1  0  0  0
 62135  1  0  0  0
 63 65  1  0  0  0
 63136  1  0  0  0
 63137  1  0  0  0
 63138  1  0  0  0
 64139  1  0  0  0
 65140  1  0  0  0
 68 79  1  0  0  0
 71 72  2  0  0  0
 71 74  1  0  0  0
 71141  1  0  0  0
 72 76  1  0  0  0
 72142  1  0  0  0
 73 75  1  0  0  0
 73 76  2  0  0  0
 73143  1  0  0  0
 74 75  2  0  0  0
 74 78  1  0  0  0
 75 79  1  0  0  0
 76 81  1  0  0  0
 77 80  1  0  0  0
 77 81  2  0  0  0
 77144  1  0  0  0
 78145  1  0  0  0
 78146  1  0  0  0
 78147  1  0  0  0
 79148  1  0  0  0
 79149  1  0  0  0
 80150  1  0  0  0
 80151  1  0  0  0
M  ISO  4   1 100  68 101  79 101  80 100
M  END
> <chiral flag>
0

> <version>
0

> <s_m_source_file>
/data/baiqing/PycharmProjects/Reinvent-master-3.2/result/LINK_invent/BTK/process_docking_weight1_custom_product_contain_oxygen_bond_distance_aromatic_linkinvent_7_9_3/rearranged_h_0124.sdf

> <i_m_source_file_index>
38

> <r_mmod_Potential_Energy-OPLS-2005>
577.307312011719

> <r_mmod_Stretch_Energy-OPLS-2005>
307.250335693359

> <r_mmod_Bend_Energy-OPLS-2005>
262.656341552734

> <r_mmod_Torsional_Energy-OPLS-2005>
184.206939697266

> <r_mmod_Improper_Torsional_Energy-OPLS-2005>
3.13947010040283

> <r_mmod_Van_der_Waal_Energy-OPLS-2005>
132.806182861328

> <r_mmod_Electrostatic_Energy-OPLS-2005>
-337.785186767578

> <r_mmod_Solvation_Energy-OPLS-2005>
-204.165298461914

> <b_mmod_Minimization_Converged-OPLS-2005>
0

> <r_mmod_RMS_Derivative-OPLS-2005>
0.212159514427185

$$$$
38
                    3D
 Structure written by MMmdl.
160168  0  0  1  0            999 V2000
  -30.6453  -14.7387   20.4531 C   0  0  0  0  0  0
  -30.4268  -12.4479   19.4702 C   0  0  0  0  0  0
  -29.5107  -12.5147   18.2310 C   0  0  0  0  0  0
  -28.0358  -12.3556   18.6372 C   0  0  0  0  0  0
  -27.6482  -13.2391   19.8543 C   0  0  2  0  0  0
  -28.6977  -13.1840   20.9897 C   0  0  0  0  0  0
  -25.2599  -13.8231   20.5742 C   0  0  0  0  0  0
  -24.1900  -13.0469   20.9236 C   0  0  0  0  0  0
  -24.6485  -11.6939   20.8788 C   0  0  0  0  0  0
  -23.9148  -10.4313   21.0411 C   0  0  0  0  0  0
  -24.3673   -9.4214   21.9186 C   0  0  0  0  0  0
  -23.6333   -8.2258   22.0752 C   0  0  0  0  0  0
  -22.4309   -8.0322   21.3533 C   0  0  0  0  0  0
  -21.9961   -9.0318   20.4640 C   0  0  0  0  0  0
  -22.7308  -10.2190   20.3072 C   0  0  0  0  0  0
  -21.6883   -6.0777   22.5264 C   0  0  0  0  0  0
  -21.4018   -6.5669   23.8202 C   0  0  0  0  0  0
  -21.3659   -5.6797   24.9159 C   0  0  0  0  0  0
  -21.6050   -4.3063   24.7191 C   0  0  0  0  0  0
  -21.8821   -3.8173   23.4299 C   0  0  0  0  0  0
  -21.9198   -4.7008   22.3360 C   0  0  0  0  0  0
  -22.7910  -13.5276   21.1819 C   0  0  0  0  0  0
  -22.1680   -4.2203   21.0943 F   0  0  0  0  0  0
  -21.5622   -3.4528   25.7686 F   0  0  0  0  0  0
  -29.9978  -13.5226   20.3964 N   0  0  0  0  0  0
  -26.3023  -12.9431   20.3315 N   0  0  0  0  0  0
  -25.9415  -11.6559   20.5770 N   0  0  0  0  0  0
  -22.0556  -12.8278   22.0357 N   0  0  0  0  0  0
  -25.4222  -15.1977   20.4206 N   0  0  0  0  0  0
  -31.8178  -14.8093   20.0704 O   0  0  0  0  0  0
  -21.6647   -6.8935   21.4232 O   0  0  0  0  0  0
  -22.3587  -14.5565   20.6644 O   0  0  0  0  0  0
  -24.6300  -31.8529   23.2002 C   0  0  0  0  0  0
  -25.9103  -32.4762   23.8369 C   0  0  1  0  0  0
  -27.2178  -27.2452   20.1416 C   0  0  0  0  0  0
  -25.5901  -33.8563   24.2280 N   0  0  0  0  0  0
  -23.4307  -30.4726   21.5446 C   0  0  2  0  0  0
  -24.8780  -28.9148   20.1145 C   0  0  0  0  0  0
  -22.7499  -29.4541   22.4915 C   0  0  0  0  0  0
  -18.0292  -28.1352   22.8464 C   0  0  0  0  0  0
  -24.1487  -36.7279   23.2635 C   0  0  0  0  0  0
  -25.9781  -30.7600   21.3838 C   0  0  0  0  0  0
  -26.0524  -29.3820   20.7221 C   0  0  0  0  0  0
  -27.2283  -28.5634   20.7146 C   0  0  0  0  0  0
  -26.0261  -26.8473   19.5020 C   0  0  0  0  0  0
  -24.8731  -27.6563   19.4905 C   0  0  0  0  0  0
  -23.6507  -29.8054   20.1609 C   0  0  0  0  0  0
  -25.4115  -36.3074   24.0328 C   0  0  1  0  0  0
  -20.5895  -28.3655   23.1254 C   0  0  2  0  0  0
  -20.6775  -26.9372   22.5383 C   0  0  0  0  0  0
  -19.5760  -26.6345   21.5180 C   0  0  0  0  0  0
  -18.1947  -26.7881   22.1605 C   0  0  0  0  0  0
  -19.1549  -28.8826   23.2852 C   0  0  0  0  0  0
  -18.9467  -30.1425   23.8873 C   0  0  0  0  0  0
  -17.6465  -30.6556   24.0538 C   0  0  0  0  0  0
  -25.9050  -34.9442   23.5110 C   0  0  0  0  0  0
  -16.5357  -29.9043   23.6319 C   0  0  0  0  0  0
  -16.7277  -28.6454   23.0363 C   0  0  0  0  0  0
  -26.4471  -31.6581   25.0749 C   0  0  0  0  0  0
  -25.3752  -31.3755   26.1541 C   0  0  0  0  0  0
  -27.0265  -30.2982   24.6223 C   0  0  0  0  0  0
  -27.6058  -32.4312   25.7485 C   0  0  0  0  0  0
  -27.5608  -37.1777   24.8455 C   0  0  0  0  0  0
  -21.4203  -29.3008   22.3656 N   0  0  0  0  0  0
  -26.4291  -37.3777   23.9419 N   0  0  0  0  0  0
  -24.6990  -31.0470   22.0986 N   0  0  0  0  0  0
  -23.4181  -28.8085   23.3026 O   0  0  0  0  0  0
  -28.2972  -26.3306   20.1636 O   0  0  0  0  0  0
  -26.5630  -34.8902   22.4684 O   0  0  0  0  0  0
  -23.5442  -32.1345   23.7278 O   0  0  0  0  0  0
  -31.0470  -20.0949   21.3376 C   0  0  0  0  0  0
  -29.5194  -18.4418   20.4621 C   0  0  0  0  0  0
  -31.8784  -19.0519   21.7950 C   0  0  0  0  0  0
  -31.4849  -17.6823   21.7088 C   0  0  0  0  0  0
  -30.3257  -17.3190   20.9436 C   0  0  0  0  0  0
  -29.8226  -19.8541   20.6844 C   0  0  0  0  0  0
  -34.3630  -19.0899   21.8718 C   0  0  0  0  0  0
  -33.1687  -19.4629   22.3704 C   0  0  0  0  0  0
  -28.7257  -23.6430   20.1131 C   0  0  0  0  0  0
  -32.0422  -16.8775   24.0728 C   0  0  0  0  0  0
  -32.2710  -16.6719   22.5658 C   0  0  0  0  0  0
  -28.0646  -24.9622   20.7718 C   0  0  0  0  0  0
  -28.9174  -22.2717   20.9518 C   0  0  0  0  0  0
  -29.9198  -15.8849   20.7603 N   0  0  0  0  0  0
  -29.0935  -23.6825   18.9340 O   0  0  0  0  0  0
  -29.0422  -20.9602   20.2082 O   0  0  0  0  0  0
  -31.4701  -12.5437   19.1668 H   0  0  0  0  0  0
  -30.3484  -11.4738   19.9577 H   0  0  0  0  0  0
  -29.7838  -11.7408   17.5097 H   0  0  0  0  0  0
  -29.6508  -13.4697   17.7211 H   0  0  0  0  0  0
  -27.8755  -11.3012   18.8606 H   0  0  0  0  0  0
  -27.3894  -12.5895   17.7899 H   0  0  0  0  0  0
  -27.6345  -14.2632   19.4805 H   0  0  0  0  0  0
  -28.7379  -12.1988   21.4575 H   0  0  0  0  0  0
  -28.4397  -13.8888   21.7833 H   0  0  0  0  0  0
  -25.2842   -9.5665   22.4757 H   0  0  0  0  0  0
  -24.0039   -7.4650   22.7496 H   0  0  0  0  0  0
  -21.0881   -8.8886   19.8953 H   0  0  0  0  0  0
  -22.3807  -10.9757   19.6207 H   0  0  0  0  0  0
  -21.2021   -7.6186   23.9731 H   0  0  0  0  0  0
  -21.1496   -6.0521   25.9065 H   0  0  0  0  0  0
  -22.0606   -2.7633   23.2766 H   0  0  0  0  0  0
  -22.4173  -11.9958   22.4747 H   0  0  0  0  0  0
  -21.1196  -13.1349   22.2573 H   0  0  0  0  0  0
  -24.6460  -15.8386   20.5499 H   0  0  0  0  0  0
  -26.2589  -15.6521   20.0769 H   0  0  0  0  0  0
  -26.7161  -32.5388   23.1100 H   0  0  0  0  0  0
  -25.0044  -33.9721   25.0427 H   0  0  0  0  0  0
  -22.7272  -31.2943   21.3994 H   0  0  0  0  0  0
  -23.3779  -35.9579   23.3240 H   0  0  0  0  0  0
  -24.3584  -36.8956   22.2061 H   0  0  0  0  0  0
  -23.7202  -37.6443   23.6696 H   0  0  0  0  0  0
  -26.1328  -31.5249   20.6204 H   0  0  0  0  0  0
  -26.8512  -30.8005   22.0247 H   0  0  0  0  0  0
  -28.1330  -28.9198   21.1888 H   0  0  0  0  0  0
  -25.9786  -25.8841   19.0142 H   0  0  0  0  0  0
  -23.9758  -27.2962   19.0045 H   0  0  0  0  0  0
  -23.7830  -30.5873   19.4124 H   0  0  0  0  0  0
  -22.7663  -29.2457   19.8503 H   0  0  0  0  0  0
  -25.1293  -36.1931   25.0824 H   0  0  0  0  0  0
  -20.9981  -28.3226   24.1374 H   0  0  0  0  0  0
  -20.5651  -26.2258   23.3572 H   0  0  0  0  0  0
  -21.6652  -26.7380   22.1208 H   0  0  0  0  0  0
  -19.6937  -25.6253   21.1227 H   0  0  0  0  0  0
  -19.6719  -27.3127   20.6692 H   0  0  0  0  0  0
  -17.4202  -26.6574   21.4046 H   0  0  0  0  0  0
  -18.0412  -26.0047   22.9033 H   0  0  0  0  0  0
  -19.7940  -30.7240   24.2243 H   0  0  0  0  0  0
  -17.5019  -31.6253   24.5110 H   0  0  0  0  0  0
  -15.5359  -30.2949   23.7649 H   0  0  0  0  0  0
  -15.8678  -28.0761   22.7126 H   0  0  0  0  0  0
  -24.5745  -30.7328   25.7873 H   0  0  0  0  0  0
  -24.9202  -32.2960   26.5220 H   0  0  0  0  0  0
  -25.8097  -30.8688   27.0173 H   0  0  0  0  0  0
  -26.2802  -29.6778   24.1250 H   0  0  0  0  0  0
  -27.3913  -29.7210   25.4729 H   0  0  0  0  0  0
  -27.8730  -30.4225   23.9466 H   0  0  0  0  0  0
  -27.2688  -33.3617   26.2086 H   0  0  0  0  0  0
  -28.3850  -32.6882   25.0284 H   0  0  0  0  0  0
  -28.0753  -31.8432   26.5390 H   0  0  0  0  0  0
  -28.2572  -38.0134   24.7589 H   0  0  0  0  0  0
  -28.1165  -36.2670   24.6172 H   0  0  0  0  0  0
  -27.2331  -37.1276   25.8854 H   0  0  0  0  0  0
  -20.9381  -29.8719   21.6863 H   0  0  0  0  0  0
  -26.0178  -38.2835   24.1484 H   0  0  0  0  0  0
  -31.3996  -21.1092   21.4584 H   0  0  0  0  0  0
  -28.6192  -18.2132   19.9095 H   0  0  0  0  0  0
  -35.2918  -19.4026   22.3276 H   0  0  0  0  0  0
  -34.4359  -18.4621   20.9928 H   0  0  0  0  0  0
  -33.1239  -20.0889   23.2528 H   0  0  0  0  0  0
  -32.5031  -16.0689   24.6416 H   0  0  0  0  0  0
  -30.9750  -16.8803   24.3057 H   0  0  0  0  0  0
  -32.4647  -17.8147   24.4338 H   0  0  0  0  0  0
  -33.3343  -16.7225   22.3424 H   0  0  0  0  0  0
  -32.0057  -15.6412   22.3846 H   0  0  0  0  0  0
  -28.4262  -25.0168   21.7997 H   0  0  0  0  0  0
  -26.9931  -24.7752   20.8607 H   0  0  0  0  0  0
  -28.0523  -22.1743   21.6083 H   0  0  0  0  0  0
  -29.7647  -22.4165   21.6203 H   0  0  0  0  0  0
  -28.9304  -15.7086   20.8482 H   0  0  0  0  0  0
  1 25  1  0  0  0
  1 30  2  0  0  0
  1 84  1  0  0  0
  2  3  1  0  0  0
  2 25  1  0  0  0
  2 87  1  0  0  0
  2 88  1  0  0  0
  3  4  1  0  0  0
  3 89  1  0  0  0
  3 90  1  0  0  0
  4  5  1  0  0  0
  4 91  1  0  0  0
  4 92  1  0  0  0
  5  6  1  0  0  0
  5 26  1  0  0  0
  5 93  1  0  0  0
  6 25  1  0  0  0
  6 94  1  0  0  0
  6 95  1  0  0  0
  7  8  2  0  0  0
  7 26  1  0  0  0
  7 29  1  0  0  0
  8  9  1  0  0  0
  8 22  1  0  0  0
  9 10  1  0  0  0
  9 27  2  0  0  0
 10 11  2  0  0  0
 10 15  1  0  0  0
 11 12  1  0  0  0
 11 96  1  0  0  0
 12 13  2  0  0  0
 12 97  1  0  0  0
 13 14  1  0  0  0
 13 31  1  0  0  0
 14 15  2  0  0  0
 14 98  1  0  0  0
 15 99  1  0  0  0
 16 17  2  0  0  0
 16 21  1  0  0  0
 16 31  1  0  0  0
 17 18  1  0  0  0
 17100  1  0  0  0
 18 19  2  0  0  0
 18101  1  0  0  0
 19 20  1  0  0  0
 19 24  1  0  0  0
 20 21  2  0  0  0
 20102  1  0  0  0
 21 23  1  0  0  0
 22 28  1  0  0  0
 22 32  2  0  0  0
 26 27  1  0  0  0
 28103  1  0  0  0
 28104  1  0  0  0
 29105  1  0  0  0
 29106  1  0  0  0
 33 34  1  0  0  0
 33 66  1  0  0  0
 33 70  2  0  0  0
 34 36  1  0  0  0
 34 59  1  0  0  0
 34107  1  0  0  0
 35 44  2  0  0  0
 35 45  1  0  0  0
 35 68  1  0  0  0
 36 56  1  0  0  0
 36108  1  0  0  0
 37 39  1  0  0  0
 37 47  1  0  0  0
 37 66  1  0  0  0
 37109  1  0  0  0
 38 43  2  0  0  0
 38 46  1  0  0  0
 38 47  1  0  0  0
 39 64  1  0  0  0
 39 67  2  0  0  0
 40 52  1  0  0  0
 40 53  2  0  0  0
 40 58  1  0  0  0
 41110  1  0  0  0
 41111  1  0  0  0
 41112  1  0  0  0
 41 48  1  0  0  0
 42 43  1  0  0  0
 42 66  1  0  0  0
 42113  1  0  0  0
 42114  1  0  0  0
 43 44  1  0  0  0
 44115  1  0  0  0
 45 46  2  0  0  0
 45116  1  0  0  0
 46117  1  0  0  0
 47118  1  0  0  0
 47119  1  0  0  0
 48 56  1  0  0  0
 48 65  1  0  0  0
 48120  1  0  0  0
 49 50  1  0  0  0
 49 53  1  0  0  0
 49 64  1  0  0  0
 49121  1  0  0  0
 50 51  1  0  0  0
 50122  1  0  0  0
 50123  1  0  0  0
 51 52  1  0  0  0
 51124  1  0  0  0
 51125  1  0  0  0
 52126  1  0  0  0
 52127  1  0  0  0
 53 54  1  0  0  0
 54 55  2  0  0  0
 54128  1  0  0  0
 55 57  1  0  0  0
 55129  1  0  0  0
 56 69  2  0  0  0
 57 58  2  0  0  0
 57130  1  0  0  0
 58131  1  0  0  0
 59 60  1  0  0  0
 59 61  1  0  0  0
 59 62  1  0  0  0
 60132  1  0  0  0
 60133  1  0  0  0
 60134  1  0  0  0
 61135  1  0  0  0
 61136  1  0  0  0
 61137  1  0  0  0
 62138  1  0  0  0
 62139  1  0  0  0
 62140  1  0  0  0
 63 65  1  0  0  0
 63141  1  0  0  0
 63142  1  0  0  0
 63143  1  0  0  0
 64144  1  0  0  0
 65145  1  0  0  0
 68 82  1  0  0  0
 71 73  2  0  0  0
 71 76  1  0  0  0
 71146  1  0  0  0
 72 75  1  0  0  0
 72 76  2  0  0  0
 72147  1  0  0  0
 73 74  1  0  0  0
 73 78  1  0  0  0
 74 75  2  0  0  0
 74 81  1  0  0  0
 75 84  1  0  0  0
 76 86  1  0  0  0
 77 78  2  0  0  0
 77148  1  0  0  0
 77149  1  0  0  0
 78150  1  0  0  0
 79 82  1  0  0  0
 79 83  1  0  0  0
 79 85  2  0  0  0
 80 81  1  0  0  0
 80151  1  0  0  0
 80152  1  0  0  0
 80153  1  0  0  0
 81154  1  0  0  0
 81155  1  0  0  0
 82156  1  0  0  0
 82157  1  0  0  0
 83 86  1  0  0  0
 83158  1  0  0  0
 83159  1  0  0  0
 84160  1  0  0  0
M  ISO  4   1 100  68 101  82 101  84 100
M  END
> <chiral flag>
0

> <version>
0

> <s_m_source_file>
/data/baiqing/PycharmProjects/Reinvent-master-3.2/result/LINK_invent/BTK/process_docking_weight1_custom_product_contain_oxygen_bond_distance_aromatic_linkinvent_7_9_3/rearranged_h_0124.sdf

> <i_m_source_file_index>
39

> <r_mmod_Potential_Energy-OPLS-2005>
297.372985839844

> <r_mmod_Stretch_Energy-OPLS-2005>
149.107482910156

> <r_mmod_Bend_Energy-OPLS-2005>
177.590438842773

> <r_mmod_Torsional_Energy-OPLS-2005>
289.002319335938

> <r_mmod_Improper_Torsional_Energy-OPLS-2005>
4.83703184127808

> <r_mmod_Van_der_Waal_Energy-OPLS-2005>
146.333343505859

> <r_mmod_Electrostatic_Energy-OPLS-2005>
-319.857666015625

> <r_mmod_Solvation_Energy-OPLS-2005>
-237.381423950195

> <b_mmod_Minimization_Converged-OPLS-2005>
0

> <r_mmod_RMS_Derivative-OPLS-2005>
4.72281169891357

$$$$
39
                    3D
 Structure written by MMmdl.
163171  0  0  1  0            999 V2000
  -30.6677  -14.6176   20.5864 C   0  0  0  0  0  0
  -30.4278  -12.4033   19.4603 C   0  0  0  0  0  0
  -29.5048  -12.5359   18.2293 C   0  0  0  0  0  0
  -28.0260  -12.3679   18.6284 C   0  0  0  0  0  0
  -27.6523  -13.2168   19.8709 C   0  0  2  0  0  0
  -28.6879  -13.0349   21.0001 C   0  0  0  0  0  0
  -25.2519  -13.8102   20.5620 C   0  0  0  0  0  0
  -24.1796  -13.0391   20.9167 C   0  0  0  0  0  0
  -24.6380  -11.6875   20.8745 C   0  0  0  0  0  0
  -23.9050  -10.4273   21.0423 C   0  0  0  0  0  0
  -24.3608   -9.4194   21.9198 C   0  0  0  0  0  0
  -23.6282   -8.2232   22.0762 C   0  0  0  0  0  0
  -22.4266   -8.0273   21.3550 C   0  0  0  0  0  0
  -21.9896   -9.0245   20.4652 C   0  0  0  0  0  0
  -22.7226  -10.2124   20.3064 C   0  0  0  0  0  0
  -21.6847   -6.0732   22.5283 C   0  0  0  0  0  0
  -21.4011   -6.5641   23.8217 C   0  0  0  0  0  0
  -21.3657   -5.6791   24.9178 C   0  0  0  0  0  0
  -21.6044   -4.3056   24.7219 C   0  0  0  0  0  0
  -21.8821   -3.8146   23.4340 C   0  0  0  0  0  0
  -21.9190   -4.6960   22.3398 C   0  0  0  0  0  0
  -22.7825  -13.5207   21.1832 C   0  0  0  0  0  0
  -22.1649   -4.2145   21.0976 F   0  0  0  0  0  0
  -21.5637   -3.4548   25.7734 F   0  0  0  0  0  0
  -30.0125  -13.4078   20.4681 N   0  0  0  0  0  0
  -26.2970  -12.9306   20.3316 N   0  0  0  0  0  0
  -25.9315  -11.6467   20.5754 N   0  0  0  0  0  0
  -22.0460  -12.8251   22.0421 N   0  0  0  0  0  0
  -25.4190  -15.1780   20.3933 N   0  0  0  0  0  0
  -31.7477  -14.8038   20.0144 O   0  0  0  0  0  0
  -21.6633   -6.8873   21.4245 O   0  0  0  0  0  0
  -22.3522  -14.5507   20.6663 O   0  0  0  0  0  0
  -24.6263  -31.8608   23.2031 C   0  0  0  0  0  0
  -25.9113  -32.4779   23.8357 C   0  0  1  0  0  0
  -27.2215  -27.3206   20.1135 C   0  0  0  0  0  0
  -25.5924  -33.8580   24.2283 N   0  0  0  0  0  0
  -23.4190  -30.4870   21.5460 C   0  0  2  0  0  0
  -24.8642  -28.9440   20.1127 C   0  0  0  0  0  0
  -22.7470  -29.4642   22.4933 C   0  0  0  0  0  0
  -18.0284  -28.1401   22.8486 C   0  0  0  0  0  0
  -24.1494  -36.7294   23.2640 C   0  0  0  0  0  0
  -25.9613  -30.7936   21.3733 C   0  0  0  0  0  0
  -26.0348  -29.4215   20.7156 C   0  0  0  0  0  0
  -27.2173  -28.6232   20.7037 C   0  0  0  0  0  0
  -26.0262  -26.9005   19.4850 C   0  0  0  0  0  0
  -24.8622  -27.6894   19.4890 C   0  0  0  0  0  0
  -23.6329  -29.8243   20.1612 C   0  0  0  0  0  0
  -25.4116  -36.3087   24.0331 C   0  0  1  0  0  0
  -20.5887  -28.3706   23.1274 C   0  0  2  0  0  0
  -20.6777  -26.9426   22.5406 C   0  0  0  0  0  0
  -19.5746  -26.6405   21.5212 C   0  0  0  0  0  0
  -18.1927  -26.7945   22.1627 C   0  0  0  0  0  0
  -19.1539  -28.8866   23.2879 C   0  0  0  0  0  0
  -18.9464  -30.1468   23.8897 C   0  0  0  0  0  0
  -17.6464  -30.6601   24.0571 C   0  0  0  0  0  0
  -25.9051  -34.9454   23.5110 C   0  0  0  0  0  0
  -16.5353  -29.9104   23.6336 C   0  0  0  0  0  0
  -16.7272  -28.6526   23.0345 C   0  0  0  0  0  0
  -26.4503  -31.6574   25.0713 C   0  0  0  0  0  0
  -25.3746  -31.3679   26.1439 C   0  0  0  0  0  0
  -27.0347  -30.3006   24.6145 C   0  0  0  0  0  0
  -27.6064  -32.4304   25.7478 C   0  0  0  0  0  0
  -27.5580  -37.1800   24.8465 C   0  0  0  0  0  0
  -21.4185  -29.3056   22.3662 N   0  0  0  0  0  0
  -26.4294  -37.3780   23.9408 N   0  0  0  0  0  0
  -24.6879  -31.0633   22.0976 N   0  0  0  0  0  0
  -23.4196  -28.8176   23.3012 O   0  0  0  0  0  0
  -28.3446  -26.4775   20.1428 O   0  0  0  0  0  0
  -26.5621  -34.8919   22.4677 O   0  0  0  0  0  0
  -23.5426  -32.1400   23.7361 O   0  0  0  0  0  0
  -30.9281  -17.8766   20.2783 C   0  0  0  0  0  0
  -28.8788  -19.5137   21.2146 C   0  0  0  0  0  0
  -29.9275  -17.2316   21.0550 C   0  0  0  0  0  0
  -28.8592  -18.1046   21.4931 C   0  0  0  0  0  0
  -29.9020  -20.1453   20.4640 C   0  0  0  0  0  0
  -30.9175  -19.2702   19.9905 C   0  0  0  0  0  0
  -29.1451  -22.5033   20.4504 C   0  0  0  0  0  0
  -30.0791  -15.7502   21.5159 C   0  0  0  0  0  0
  -25.6720  -18.7314   21.1424 C   0  0  0  0  0  0
  -30.0317  -24.2208   18.7591 C   0  0  0  0  0  0
  -27.6813  -17.5486   22.3139 C   0  0  0  0  0  0
  -26.4086  -18.4162   22.4554 C   0  0  0  0  0  0
  -28.1271  -25.0105   20.2576 C   0  0  0  0  0  0
  -29.3834  -24.0425   20.1464 C   0  0  1  0  0  0
  -29.7935  -15.4581   22.7164 N   0  0  0  0  0  0
  -30.0013  -21.5580   20.1857 N   0  0  0  0  0  0
  -31.9397  -19.7817   19.2609 F   0  0  0  0  0  0
  -31.4696  -12.5194   19.1590 H   0  0  0  0  0  0
  -30.3595  -11.3979   19.8793 H   0  0  0  0  0  0
  -29.7741  -11.7957   17.4749 H   0  0  0  0  0  0
  -29.6494  -13.5134   17.7668 H   0  0  0  0  0  0
  -27.8583  -11.3104   18.8361 H   0  0  0  0  0  0
  -27.3756  -12.6191   17.7889 H   0  0  0  0  0  0
  -27.6819  -14.2617   19.5623 H   0  0  0  0  0  0
  -28.7020  -11.9961   21.3343 H   0  0  0  0  0  0
  -28.3839  -13.6020   21.8754 H   0  0  0  0  0  0
  -25.2749   -9.5682   22.4780 H   0  0  0  0  0  0
  -23.9995   -7.4625   22.7478 H   0  0  0  0  0  0
  -21.0827   -8.8758   19.8962 H   0  0  0  0  0  0
  -22.3671  -10.9669   19.6182 H   0  0  0  0  0  0
  -21.2007   -7.6147   23.9721 H   0  0  0  0  0  0
  -21.1479   -6.0521   25.9081 H   0  0  0  0  0  0
  -22.0607   -2.7607   23.2837 H   0  0  0  0  0  0
  -22.4054  -11.9914   22.4833 H   0  0  0  0  0  0
  -21.1081  -13.1313   22.2621 H   0  0  0  0  0  0
  -24.6478  -15.8274   20.4990 H   0  0  0  0  0  0
  -26.2722  -15.6206   20.0788 H   0  0  0  0  0  0
  -26.7178  -32.5459   23.1103 H   0  0  0  0  0  0
  -25.0059  -33.9719   25.0417 H   0  0  0  0  0  0
  -22.7139  -31.3086   21.4051 H   0  0  0  0  0  0
  -23.3760  -35.9624   23.3299 H   0  0  0  0  0  0
  -24.3594  -36.8915   22.2057 H   0  0  0  0  0  0
  -23.7242  -37.6492   23.6663 H   0  0  0  0  0  0
  -26.0926  -31.5583   20.6064 H   0  0  0  0  0  0
  -26.8419  -30.8414   22.0014 H   0  0  0  0  0  0
  -28.1169  -28.9886   21.1792 H   0  0  0  0  0  0
  -25.9562  -25.9563   18.9701 H   0  0  0  0  0  0
  -23.9677  -27.3201   19.0060 H   0  0  0  0  0  0
  -23.7522  -30.6025   19.4063 H   0  0  0  0  0  0
  -22.7523  -29.2552   19.8580 H   0  0  0  0  0  0
  -25.1300  -36.1942   25.0825 H   0  0  0  0  0  0
  -20.9984  -28.3294   24.1390 H   0  0  0  0  0  0
  -20.5698  -26.2314   23.3608 H   0  0  0  0  0  0
  -21.6642  -26.7471   22.1180 H   0  0  0  0  0  0
  -19.6909  -25.6327   21.1220 H   0  0  0  0  0  0
  -19.6673  -27.3235   20.6758 H   0  0  0  0  0  0
  -17.4194  -26.6694   21.4031 H   0  0  0  0  0  0
  -18.0322  -26.0092   22.9028 H   0  0  0  0  0  0
  -19.7941  -30.7289   24.2261 H   0  0  0  0  0  0
  -17.5021  -31.6278   24.5180 H   0  0  0  0  0  0
  -15.5354  -30.3006   23.7671 H   0  0  0  0  0  0
  -15.8669  -28.0860   22.7039 H   0  0  0  0  0  0
  -24.5935  -30.7014   25.7757 H   0  0  0  0  0  0
  -24.8918  -32.2826   26.4889 H   0  0  0  0  0  0
  -25.8084  -30.8839   27.0197 H   0  0  0  0  0  0
  -26.2907  -29.6736   24.1213 H   0  0  0  0  0  0
  -27.4111  -29.7274   25.4628 H   0  0  0  0  0  0
  -27.8752  -30.4304   23.9320 H   0  0  0  0  0  0
  -27.2685  -33.3609   26.2050 H   0  0  0  0  0  0
  -28.3872  -32.6847   25.0297 H   0  0  0  0  0  0
  -28.0735  -31.8427   26.5389 H   0  0  0  0  0  0
  -28.2595  -38.0100   24.7522 H   0  0  0  0  0  0
  -28.1076  -36.2630   24.6287 H   0  0  0  0  0  0
  -27.2293  -37.1442   25.8866 H   0  0  0  0  0  0
  -20.9367  -29.8760   21.6852 H   0  0  0  0  0  0
  -26.0175  -38.2855   24.1414 H   0  0  0  0  0  0
  -31.7716  -17.3082   19.9189 H   0  0  0  0  0  0
  -28.0944  -20.1418   21.6007 H   0  0  0  0  0  0
  -28.1839  -22.2916   20.9244 H   0  0  0  0  0  0
  -24.7565  -19.2888   21.3408 H   0  0  0  0  0  0
  -25.3872  -17.8210   20.6209 H   0  0  0  0  0  0
  -26.2691  -19.3306   20.4562 H   0  0  0  0  0  0
  -30.9941  -23.7130   18.6964 H   0  0  0  0  0  0
  -30.2070  -25.2748   18.5402 H   0  0  0  0  0  0
  -29.3934  -23.8219   17.9689 H   0  0  0  0  0  0
  -28.0449  -17.3503   23.3231 H   0  0  0  0  0  0
  -27.3855  -16.5845   21.8997 H   0  0  0  0  0  0
  -25.7158  -17.8816   23.1068 H   0  0  0  0  0  0
  -26.6320  -19.3399   22.9896 H   0  0  0  0  0  0
  -27.6359  -24.8355   21.2165 H   0  0  0  0  0  0
  -27.4335  -24.6603   19.4970 H   0  0  0  0  0  0
  -30.1022  -24.3843   20.8917 H   0  0  0  0  0  0
  -29.4787  -16.2779   23.2189 H   0  0  0  0  0  0
  1 25  1  0  0  0
  1 30  2  0  0  0
  1 78  1  0  0  0
  2  3  1  0  0  0
  2 25  1  0  0  0
  2 88  1  0  0  0
  2 89  1  0  0  0
  3  4  1  0  0  0
  3 90  1  0  0  0
  3 91  1  0  0  0
  4  5  1  0  0  0
  4 92  1  0  0  0
  4 93  1  0  0  0
  5  6  1  0  0  0
  5 26  1  0  0  0
  5 94  1  0  0  0
  6 25  1  0  0  0
  6 95  1  0  0  0
  6 96  1  0  0  0
  7  8  2  0  0  0
  7 26  1  0  0  0
  7 29  1  0  0  0
  8  9  1  0  0  0
  8 22  1  0  0  0
  9 10  1  0  0  0
  9 27  2  0  0  0
 10 11  2  0  0  0
 10 15  1  0  0  0
 11 12  1  0  0  0
 11 97  1  0  0  0
 12 13  2  0  0  0
 12 98  1  0  0  0
 13 14  1  0  0  0
 13 31  1  0  0  0
 14 15  2  0  0  0
 14 99  1  0  0  0
 15100  1  0  0  0
 16 17  2  0  0  0
 16 21  1  0  0  0
 16 31  1  0  0  0
 17 18  1  0  0  0
 17101  1  0  0  0
 18 19  2  0  0  0
 18102  1  0  0  0
 19 20  1  0  0  0
 19 24  1  0  0  0
 20 21  2  0  0  0
 20103  1  0  0  0
 21 23  1  0  0  0
 22 28  1  0  0  0
 22 32  2  0  0  0
 26 27  1  0  0  0
 28104  1  0  0  0
 28105  1  0  0  0
 29106  1  0  0  0
 29107  1  0  0  0
 33 34  1  0  0  0
 33 66  1  0  0  0
 33 70  2  0  0  0
 34 36  1  0  0  0
 34 59  1  0  0  0
 34108  1  0  0  0
 35 44  2  0  0  0
 35 45  1  0  0  0
 35 68  1  0  0  0
 36 56  1  0  0  0
 36109  1  0  0  0
 37 39  1  0  0  0
 37 47  1  0  0  0
 37 66  1  0  0  0
 37110  1  0  0  0
 38 43  2  0  0  0
 38 46  1  0  0  0
 38 47  1  0  0  0
 39 64  1  0  0  0
 39 67  2  0  0  0
 40 52  1  0  0  0
 40 53  2  0  0  0
 40 58  1  0  0  0
 41111  1  0  0  0
 41112  1  0  0  0
 41113  1  0  0  0
 41 48  1  0  0  0
 42 43  1  0  0  0
 42 66  1  0  0  0
 42114  1  0  0  0
 42115  1  0  0  0
 43 44  1  0  0  0
 44116  1  0  0  0
 45 46  2  0  0  0
 45117  1  0  0  0
 46118  1  0  0  0
 47119  1  0  0  0
 47120  1  0  0  0
 48 56  1  0  0  0
 48 65  1  0  0  0
 48121  1  0  0  0
 49 50  1  0  0  0
 49 53  1  0  0  0
 49 64  1  0  0  0
 49122  1  0  0  0
 50 51  1  0  0  0
 50123  1  0  0  0
 50124  1  0  0  0
 51 52  1  0  0  0
 51125  1  0  0  0
 51126  1  0  0  0
 52127  1  0  0  0
 52128  1  0  0  0
 53 54  1  0  0  0
 54 55  2  0  0  0
 54129  1  0  0  0
 55 57  1  0  0  0
 55130  1  0  0  0
 56 69  2  0  0  0
 57 58  2  0  0  0
 57131  1  0  0  0
 58132  1  0  0  0
 59 60  1  0  0  0
 59 61  1  0  0  0
 59 62  1  0  0  0
 60133  1  0  0  0
 60134  1  0  0  0
 60135  1  0  0  0
 61136  1  0  0  0
 61137  1  0  0  0
 61138  1  0  0  0
 62139  1  0  0  0
 62140  1  0  0  0
 62141  1  0  0  0
 63 65  1  0  0  0
 63142  1  0  0  0
 63143  1  0  0  0
 63144  1  0  0  0
 64145  1  0  0  0
 65146  1  0  0  0
 68 83  1  0  0  0
 71 73  2  0  0  0
 71 76  1  0  0  0
 71147  1  0  0  0
 72 74  2  0  0  0
 72 75  1  0  0  0
 72148  1  0  0  0
 73 74  1  0  0  0
 73 78  1  0  0  0
 74 81  1  0  0  0
 75 76  2  0  0  0
 75 86  1  0  0  0
 76 87  1  0  0  0
 77 84  1  0  0  0
 77 86  2  0  0  0
 77149  1  0  0  0
 78 85  2  0  0  0
 79 82  1  0  0  0
 79150  1  0  0  0
 79151  1  0  0  0
 79152  1  0  0  0
 80153  1  0  0  0
 80154  1  0  0  0
 80155  1  0  0  0
 80 84  1  0  0  0
 81 82  1  0  0  0
 81156  1  0  0  0
 81157  1  0  0  0
 82158  1  0  0  0
 82159  1  0  0  0
 83 84  1  0  0  0
 83160  1  0  0  0
 83161  1  0  0  0
 84162  1  0  0  0
 85163  1  0  0  0
M  ISO  4   1 100  68 101  78 100  83 101
M  END
> <chiral flag>
0

> <version>
0

> <s_m_source_file>
/data/baiqing/PycharmProjects/Reinvent-master-3.2/result/LINK_invent/BTK/process_docking_weight1_custom_product_contain_oxygen_bond_distance_aromatic_linkinvent_7_9_3/rearranged_h_0124.sdf

> <i_m_source_file_index>
40

> <r_mmod_Potential_Energy-OPLS-2005>
263.581512451172

> <r_mmod_Stretch_Energy-OPLS-2005>
101.283752441406

> <r_mmod_Bend_Energy-OPLS-2005>
163.230239868164

> <r_mmod_Torsional_Energy-OPLS-2005>
211.237182617188

> <r_mmod_Improper_Torsional_Energy-OPLS-2005>
3.30862522125244

> <r_mmod_Van_der_Waal_Energy-OPLS-2005>
159.246215820312

> <r_mmod_Electrostatic_Energy-OPLS-2005>
-223.872543334961

> <r_mmod_Solvation_Energy-OPLS-2005>
-192.851287841797

> <b_mmod_Minimization_Converged-OPLS-2005>
0

> <r_mmod_RMS_Derivative-OPLS-2005>
1.68230080604553

$$$$
40
                    3D
 Structure written by MMmdl.
162170  0  0  1  0            999 V2000
  -30.7326  -14.4835   20.5296 C   0  0  0  0  0  0
  -30.4061  -12.2989   19.4432 C   0  0  0  0  0  0
  -29.4914  -12.4840   18.2163 C   0  0  0  0  0  0
  -28.0142  -12.3514   18.6296 C   0  0  0  0  0  0
  -27.6559  -13.2148   19.8693 C   0  0  2  0  0  0
  -28.6993  -13.0482   20.9995 C   0  0  0  0  0  0
  -25.2568  -13.8182   20.5694 C   0  0  0  0  0  0
  -24.1822  -13.0450   20.9184 C   0  0  0  0  0  0
  -24.6383  -11.6916   20.8743 C   0  0  0  0  0  0
  -23.9056  -10.4296   21.0408 C   0  0  0  0  0  0
  -24.3610   -9.4213   21.9187 C   0  0  0  0  0  0
  -23.6287   -8.2246   22.0756 C   0  0  0  0  0  0
  -22.4272   -8.0278   21.3544 C   0  0  0  0  0  0
  -21.9904   -9.0253   20.4649 C   0  0  0  0  0  0
  -22.7227  -10.2137   20.3058 C   0  0  0  0  0  0
  -21.6853   -6.0732   22.5273 C   0  0  0  0  0  0
  -21.4014   -6.5638   23.8204 C   0  0  0  0  0  0
  -21.3659   -5.6793   24.9168 C   0  0  0  0  0  0
  -21.6040   -4.3054   24.7224 C   0  0  0  0  0  0
  -21.8823   -3.8147   23.4346 C   0  0  0  0  0  0
  -21.9195   -4.6960   22.3401 C   0  0  0  0  0  0
  -22.7841  -13.5243   21.1839 C   0  0  0  0  0  0
  -22.1661   -4.2145   21.0981 F   0  0  0  0  0  0
  -21.5630   -3.4541   25.7739 F   0  0  0  0  0  0
  -30.0282  -13.3216   20.4341 N   0  0  0  0  0  0
  -26.3003  -12.9363   20.3370 N   0  0  0  0  0  0
  -25.9317  -11.6520   20.5790 N   0  0  0  0  0  0
  -22.0484  -12.8242   22.0400 N   0  0  0  0  0  0
  -25.4301  -15.1898   20.4082 N   0  0  0  0  0  0
  -31.8731  -14.5737   20.0732 O   0  0  0  0  0  0
  -21.6641   -6.8877   21.4235 O   0  0  0  0  0  0
  -22.3528  -14.5547   20.6681 O   0  0  0  0  0  0
  -24.6167  -31.8664   23.2099 C   0  0  0  0  0  0
  -25.9056  -32.4817   23.8393 C   0  0  1  0  0  0
  -27.2289  -27.4248   20.1019 C   0  0  0  0  0  0
  -25.5910  -33.8610   24.2324 N   0  0  0  0  0  0
  -23.4036  -30.4916   21.5503 C   0  0  2  0  0  0
  -24.8494  -28.9555   20.1132 C   0  0  0  0  0  0
  -22.7412  -29.4668   22.4986 C   0  0  0  0  0  0
  -18.0267  -28.1393   22.8492 C   0  0  0  0  0  0
  -24.1488  -36.7315   23.2636 C   0  0  0  0  0  0
  -25.9319  -30.8334   21.3590 C   0  0  0  0  0  0
  -26.0110  -29.4666   20.7066 C   0  0  0  0  0  0
  -27.2068  -28.7106   20.6919 C   0  0  0  0  0  0
  -26.0524  -26.9301   19.5006 C   0  0  0  0  0  0
  -24.8661  -27.6877   19.5058 C   0  0  0  0  0  0
  -23.6115  -29.8231   20.1652 C   0  0  0  0  0  0
  -25.4103  -36.3107   24.0338 C   0  0  1  0  0  0
  -20.5860  -28.3677   23.1321 C   0  0  2  0  0  0
  -20.6765  -26.9413   22.5421 C   0  0  0  0  0  0
  -19.5744  -26.6393   21.5226 C   0  0  0  0  0  0
  -18.1916  -26.7939   22.1626 C   0  0  0  0  0  0
  -19.1516  -28.8846   23.2910 C   0  0  0  0  0  0
  -18.9453  -30.1451   23.8921 C   0  0  0  0  0  0
  -17.6457  -30.6596   24.0570 C   0  0  0  0  0  0
  -25.9035  -34.9471   23.5125 C   0  0  0  0  0  0
  -16.5346  -29.9104   23.6334 C   0  0  0  0  0  0
  -16.7257  -28.6525   23.0346 C   0  0  0  0  0  0
  -26.4489  -31.6588   25.0714 C   0  0  0  0  0  0
  -25.3765  -31.3677   26.1473 C   0  0  0  0  0  0
  -27.0312  -30.3037   24.6067 C   0  0  0  0  0  0
  -27.6076  -32.4295   25.7474 C   0  0  0  0  0  0
  -27.5581  -37.1801   24.8461 C   0  0  0  0  0  0
  -21.4137  -29.3046   22.3730 N   0  0  0  0  0  0
  -26.4285  -37.3798   23.9419 N   0  0  0  0  0  0
  -24.6698  -31.0775   22.0990 N   0  0  0  0  0  0
  -23.4181  -28.8201   23.3019 O   0  0  0  0  0  0
  -28.3810  -26.6655   20.1137 O   0  0  0  0  0  0
  -26.5598  -34.8923   22.4686 O   0  0  0  0  0  0
  -23.5365  -32.1397   23.7503 O   0  0  0  0  0  0
  -31.3456  -19.6483   20.6711 C   0  0  0  0  0  0
  -29.5567  -17.9998   20.7816 C   0  0  0  0  0  0
  -31.8776  -17.2996   20.9762 C   0  0  0  0  0  0
  -29.9627  -19.3590   20.6647 C   0  0  0  0  0  0
  -32.3108  -18.6306   20.8097 C   0  0  0  0  0  0
  -30.5059  -16.9487   20.9170 C   0  0  0  0  0  0
  -28.9649  -20.4534   20.5077 C   0  0  0  0  0  0
  -29.2293  -21.7631   20.2599 C   0  0  0  0  0  0
  -33.7562  -18.9712   20.7617 C   0  0  0  0  0  0
  -28.1696  -22.7945   20.1425 C   0  0  0  0  0  0
  -34.3855  -18.0775   18.4582 C   0  0  0  0  0  0
  -34.6786  -18.0529   19.9675 C   0  0  0  0  0  0
  -28.5466  -24.2064   19.6425 C   0  0  0  0  0  0
  -28.2485  -25.3356   20.6610 C   0  0  0  0  0  0
  -34.2275  -20.0154   21.2991 N   0  0  0  0  0  0
  -30.0689  -15.5735   20.9886 N   0  0  0  0  0  0
  -26.9879  -22.5613   20.4152 O   0  0  0  0  0  0
  -31.4545  -12.3574   19.1456 H   0  0  0  0  0  0
  -30.2797  -11.3021   19.8688 H   0  0  0  0  0  0
  -29.7330  -11.7437   17.4522 H   0  0  0  0  0  0
  -29.6654  -13.4617   17.7642 H   0  0  0  0  0  0
  -27.8303  -11.2984   18.8485 H   0  0  0  0  0  0
  -27.3628  -12.6044   17.7921 H   0  0  0  0  0  0
  -27.6867  -14.2544   19.5425 H   0  0  0  0  0  0
  -28.6720  -12.0337   21.4002 H   0  0  0  0  0  0
  -28.4702  -13.7050   21.8401 H   0  0  0  0  0  0
  -25.2752   -9.5693   22.4758 H   0  0  0  0  0  0
  -23.9997   -7.4643   22.7473 H   0  0  0  0  0  0
  -21.0838   -8.8768   19.8955 H   0  0  0  0  0  0
  -22.3679  -10.9675   19.6167 H   0  0  0  0  0  0
  -21.2005   -7.6142   23.9705 H   0  0  0  0  0  0
  -21.1473   -6.0524   25.9070 H   0  0  0  0  0  0
  -22.0605   -2.7608   23.2848 H   0  0  0  0  0  0
  -22.4096  -11.9907   22.4802 H   0  0  0  0  0  0
  -21.1096  -13.1267   22.2586 H   0  0  0  0  0  0
  -24.6667  -15.8495   20.5118 H   0  0  0  0  0  0
  -26.2833  -15.6236   20.0797 H   0  0  0  0  0  0
  -26.7119  -32.5537   23.1148 H   0  0  0  0  0  0
  -25.0079  -33.9763   25.0484 H   0  0  0  0  0  0
  -22.6948  -31.3099   21.4103 H   0  0  0  0  0  0
  -23.3755  -35.9648   23.3295 H   0  0  0  0  0  0
  -24.3582  -36.8946   22.2053 H   0  0  0  0  0  0
  -23.7241  -37.6515   23.6653 H   0  0  0  0  0  0
  -26.0395  -31.5980   20.5878 H   0  0  0  0  0  0
  -26.8231  -30.8917   21.9718 H   0  0  0  0  0  0
  -28.1041  -29.1005   21.1513 H   0  0  0  0  0  0
  -26.0513  -25.9561   19.0323 H   0  0  0  0  0  0
  -23.9726  -27.2878   19.0470 H   0  0  0  0  0  0
  -23.7181  -30.5979   19.4054 H   0  0  0  0  0  0
  -22.7346  -29.2444   19.8699 H   0  0  0  0  0  0
  -25.1277  -36.1967   25.0832 H   0  0  0  0  0  0
  -20.9953  -28.3253   24.1441 H   0  0  0  0  0  0
  -20.5701  -26.2284   23.3606 H   0  0  0  0  0  0
  -21.6630  -26.7473   22.1191 H   0  0  0  0  0  0
  -19.6919  -25.6313   21.1235 H   0  0  0  0  0  0
  -19.6697  -27.3221   20.6775 H   0  0  0  0  0  0
  -17.4191  -26.6694   21.4019 H   0  0  0  0  0  0
  -18.0312  -26.0077   22.9017 H   0  0  0  0  0  0
  -19.7930  -30.7258   24.2308 H   0  0  0  0  0  0
  -17.5014  -31.6281   24.5169 H   0  0  0  0  0  0
  -15.5348  -30.3019   23.7654 H   0  0  0  0  0  0
  -15.8650  -28.0858   22.7056 H   0  0  0  0  0  0
  -24.5946  -30.7008   25.7822 H   0  0  0  0  0  0
  -24.8940  -32.2817   26.4947 H   0  0  0  0  0  0
  -25.8133  -30.8836   27.0216 H   0  0  0  0  0  0
  -26.2829  -29.6789   24.1174 H   0  0  0  0  0  0
  -27.4160  -29.7289   25.4503 H   0  0  0  0  0  0
  -27.8635  -30.4376   23.9150 H   0  0  0  0  0  0
  -27.2715  -33.3600   26.2062 H   0  0  0  0  0  0
  -28.3882  -32.6845   25.0290 H   0  0  0  0  0  0
  -28.0739  -31.8399   26.5378 H   0  0  0  0  0  0
  -28.2585  -38.0114   24.7531 H   0  0  0  0  0  0
  -28.1086  -36.2640   24.6246 H   0  0  0  0  0  0
  -27.2294  -37.1413   25.8864 H   0  0  0  0  0  0
  -20.9302  -29.8763   21.6941 H   0  0  0  0  0  0
  -26.0176  -38.2876   24.1442 H   0  0  0  0  0  0
  -31.6950  -20.6631   20.5593 H   0  0  0  0  0  0
  -28.5030  -17.7621   20.7485 H   0  0  0  0  0  0
  -32.6279  -16.5415   21.1348 H   0  0  0  0  0  0
  -27.9314  -20.1532   20.6151 H   0  0  0  0  0  0
  -30.2405  -22.1152   20.1362 H   0  0  0  0  0  0
  -35.0585  -17.4077   17.9226 H   0  0  0  0  0  0
  -34.5181  -19.0780   18.0443 H   0  0  0  0  0  0
  -33.3660  -17.7561   18.2402 H   0  0  0  0  0  0
  -34.6079  -17.0345   20.3468 H   0  0  0  0  0  0
  -35.7151  -18.3519   20.1294 H   0  0  0  0  0  0
  -27.9851  -24.3854   18.7262 H   0  0  0  0  0  0
  -29.6002  -24.2268   19.3646 H   0  0  0  0  0  0
  -28.9646  -25.2582   21.4797 H   0  0  0  0  0  0
  -27.2708  -25.1836   21.1239 H   0  0  0  0  0  0
  -33.5043  -20.5452   21.7745 H   0  0  0  0  0  0
  -29.1066  -15.4145   21.2454 H   0  0  0  0  0  0
  1 25  1  0  0  0
  1 30  2  0  0  0
  1 86  1  0  0  0
  2  3  1  0  0  0
  2 25  1  0  0  0
  2 88  1  0  0  0
  2 89  1  0  0  0
  3  4  1  0  0  0
  3 90  1  0  0  0
  3 91  1  0  0  0
  4  5  1  0  0  0
  4 92  1  0  0  0
  4 93  1  0  0  0
  5  6  1  0  0  0
  5 26  1  0  0  0
  5 94  1  0  0  0
  6 25  1  0  0  0
  6 95  1  0  0  0
  6 96  1  0  0  0
  7  8  2  0  0  0
  7 26  1  0  0  0
  7 29  1  0  0  0
  8  9  1  0  0  0
  8 22  1  0  0  0
  9 10  1  0  0  0
  9 27  2  0  0  0
 10 11  2  0  0  0
 10 15  1  0  0  0
 11 12  1  0  0  0
 11 97  1  0  0  0
 12 13  2  0  0  0
 12 98  1  0  0  0
 13 14  1  0  0  0
 13 31  1  0  0  0
 14 15  2  0  0  0
 14 99  1  0  0  0
 15100  1  0  0  0
 16 17  2  0  0  0
 16 21  1  0  0  0
 16 31  1  0  0  0
 17 18  1  0  0  0
 17101  1  0  0  0
 18 19  2  0  0  0
 18102  1  0  0  0
 19 20  1  0  0  0
 19 24  1  0  0  0
 20 21  2  0  0  0
 20103  1  0  0  0
 21 23  1  0  0  0
 22 28  1  0  0  0
 22 32  2  0  0  0
 26 27  1  0  0  0
 28104  1  0  0  0
 28105  1  0  0  0
 29106  1  0  0  0
 29107  1  0  0  0
 33 34  1  0  0  0
 33 66  1  0  0  0
 33 70  2  0  0  0
 34 36  1  0  0  0
 34 59  1  0  0  0
 34108  1  0  0  0
 35 44  2  0  0  0
 35 45  1  0  0  0
 35 68  1  0  0  0
 36 56  1  0  0  0
 36109  1  0  0  0
 37 39  1  0  0  0
 37 47  1  0  0  0
 37 66  1  0  0  0
 37110  1  0  0  0
 38 43  2  0  0  0
 38 46  1  0  0  0
 38 47  1  0  0  0
 39 64  1  0  0  0
 39 67  2  0  0  0
 40 52  1  0  0  0
 40 53  2  0  0  0
 40 58  1  0  0  0
 41111  1  0  0  0
 41112  1  0  0  0
 41113  1  0  0  0
 41 48  1  0  0  0
 42 43  1  0  0  0
 42 66  1  0  0  0
 42114  1  0  0  0
 42115  1  0  0  0
 43 44  1  0  0  0
 44116  1  0  0  0
 45 46  2  0  0  0
 45117  1  0  0  0
 46118  1  0  0  0
 47119  1  0  0  0
 47120  1  0  0  0
 48 56  1  0  0  0
 48 65  1  0  0  0
 48121  1  0  0  0
 49 50  1  0  0  0
 49 53  1  0  0  0
 49 64  1  0  0  0
 49122  1  0  0  0
 50 51  1  0  0  0
 50123  1  0  0  0
 50124  1  0  0  0
 51 52  1  0  0  0
 51125  1  0  0  0
 51126  1  0  0  0
 52127  1  0  0  0
 52128  1  0  0  0
 53 54  1  0  0  0
 54 55  2  0  0  0
 54129  1  0  0  0
 55 57  1  0  0  0
 55130  1  0  0  0
 56 69  2  0  0  0
 57 58  2  0  0  0
 57131  1  0  0  0
 58132  1  0  0  0
 59 60  1  0  0  0
 59 61  1  0  0  0
 59 62  1  0  0  0
 60133  1  0  0  0
 60134  1  0  0  0
 60135  1  0  0  0
 61136  1  0  0  0
 61137  1  0  0  0
 61138  1  0  0  0
 62139  1  0  0  0
 62140  1  0  0  0
 62141  1  0  0  0
 63 65  1  0  0  0
 63142  1  0  0  0
 63143  1  0  0  0
 63144  1  0  0  0
 64145  1  0  0  0
 65146  1  0  0  0
 68 84  1  0  0  0
 71 74  2  0  0  0
 71 75  1  0  0  0
 71147  1  0  0  0
 72 74  1  0  0  0
 72 76  2  0  0  0
 72148  1  0  0  0
 73 75  2  0  0  0
 73 76  1  0  0  0
 73149  1  0  0  0
 74 77  1  0  0  0
 75 79  1  0  0  0
 76 86  1  0  0  0
 77 78  2  0  0  0
 77150  1  0  0  0
 78 80  1  0  0  0
 78151  1  0  0  0
 79 82  1  0  0  0
 79 85  2  0  0  0
 80 83  1  0  0  0
 80 87  2  0  0  0
 81 82  1  0  0  0
 81152  1  0  0  0
 81153  1  0  0  0
 81154  1  0  0  0
 82155  1  0  0  0
 82156  1  0  0  0
 83 84  1  0  0  0
 83157  1  0  0  0
 83158  1  0  0  0
 84159  1  0  0  0
 84160  1  0  0  0
 85161  1  0  0  0
 86162  1  0  0  0
M  ISO  4   1 100  68 101  84 101  86 100
M  END
> <chiral flag>
0

> <version>
0

> <s_m_source_file>
/data/baiqing/PycharmProjects/Reinvent-master-3.2/result/LINK_invent/BTK/process_docking_weight1_custom_product_contain_oxygen_bond_distance_aromatic_linkinvent_7_9_3/rearranged_h_0124.sdf

> <i_m_source_file_index>
41

> <r_mmod_Potential_Energy-OPLS-2005>
-77.5556259155273

> <r_mmod_Stretch_Energy-OPLS-2005>
42.879695892334

> <r_mmod_Bend_Energy-OPLS-2005>
95.4030380249023

> <r_mmod_Torsional_Energy-OPLS-2005>
244.943176269531

> <r_mmod_Improper_Torsional_Energy-OPLS-2005>
4.3196816444397

> <r_mmod_Van_der_Waal_Energy-OPLS-2005>
163.906112670898

> <r_mmod_Electrostatic_Energy-OPLS-2005>
-419.854461669922

> <r_mmod_Solvation_Energy-OPLS-2005>
-226.728225708008

> <b_mmod_Minimization_Converged-OPLS-2005>
0

> <r_mmod_RMS_Derivative-OPLS-2005>
1.32271349430084

$$$$
41
                    3D
 Structure written by MMmdl.
150158  0  0  1  0            999 V2000
  -30.6398  -14.6303   20.5042 C   0  0  0  0  0  0
  -30.4381  -12.3880   19.4517 C   0  0  0  0  0  0
  -29.5085  -12.5096   18.2237 C   0  0  0  0  0  0
  -28.0300  -12.3533   18.6340 C   0  0  0  0  0  0
  -27.6556  -13.2194   19.8664 C   0  0  2  0  0  0
  -28.7023  -13.0719   20.9944 C   0  0  0  0  0  0
  -25.2565  -13.8175   20.5695 C   0  0  0  0  0  0
  -24.1826  -13.0433   20.9168 C   0  0  0  0  0  0
  -24.6402  -11.6907   20.8721 C   0  0  0  0  0  0
  -23.9065  -10.4294   21.0393 C   0  0  0  0  0  0
  -24.3617   -9.4212   21.9177 C   0  0  0  0  0  0
  -23.6289   -8.2247   22.0752 C   0  0  0  0  0  0
  -22.4271   -8.0284   21.3542 C   0  0  0  0  0  0
  -21.9904   -9.0259   20.4644 C   0  0  0  0  0  0
  -22.7231  -10.2138   20.3052 C   0  0  0  0  0  0
  -21.6858   -6.0735   22.5279 C   0  0  0  0  0  0
  -21.4020   -6.5639   23.8212 C   0  0  0  0  0  0
  -21.3658   -5.6789   24.9172 C   0  0  0  0  0  0
  -21.6044   -4.3052   24.7224 C   0  0  0  0  0  0
  -21.8820   -3.8144   23.4343 C   0  0  0  0  0  0
  -21.9195   -4.6962   22.3399 C   0  0  0  0  0  0
  -22.7848  -13.5231   21.1838 C   0  0  0  0  0  0
  -22.1660   -4.2145   21.0976 F   0  0  0  0  0  0
  -21.5625   -3.4536   25.7734 F   0  0  0  0  0  0
  -30.0202  -13.4091   20.4316 N   0  0  0  0  0  0
  -26.3006  -12.9366   20.3342 N   0  0  0  0  0  0
  -25.9340  -11.6518   20.5761 N   0  0  0  0  0  0
  -22.0489  -12.8235   22.0403 N   0  0  0  0  0  0
  -25.4267  -15.1903   20.4179 N   0  0  0  0  0  0
  -31.7979  -14.7855   20.1079 O   0  0  0  0  0  0
  -21.6643   -6.8877   21.4239 O   0  0  0  0  0  0
  -22.3532  -14.5535   20.6689 O   0  0  0  0  0  0
  -24.6252  -31.8603   23.2034 C   0  0  0  0  0  0
  -25.9102  -32.4781   23.8366 C   0  0  1  0  0  0
  -27.2285  -27.3252   20.1153 C   0  0  0  0  0  0
  -25.5921  -33.8580   24.2289 N   0  0  0  0  0  0
  -23.4195  -30.4841   21.5456 C   0  0  2  0  0  0
  -24.8673  -28.9413   20.1130 C   0  0  0  0  0  0
  -22.7472  -29.4621   22.4932 C   0  0  0  0  0  0
  -18.0289  -28.1377   22.8486 C   0  0  0  0  0  0
  -24.1490  -36.7295   23.2640 C   0  0  0  0  0  0
  -25.9610  -30.7931   21.3751 C   0  0  0  0  0  0
  -26.0363  -29.4213   20.7163 C   0  0  0  0  0  0
  -27.2198  -28.6249   20.7083 C   0  0  0  0  0  0
  -26.0321  -26.8975   19.4907 C   0  0  0  0  0  0
  -24.8660  -27.6833   19.4938 C   0  0  0  0  0  0
  -23.6355  -29.8204   20.1606 C   0  0  0  0  0  0
  -25.4113  -36.3080   24.0330 C   0  0  1  0  0  0
  -20.5886  -28.3681   23.1278 C   0  0  2  0  0  0
  -20.6777  -26.9404   22.5402 C   0  0  0  0  0  0
  -19.5749  -26.6376   21.5205 C   0  0  0  0  0  0
  -18.1934  -26.7918   22.1629 C   0  0  0  0  0  0
  -19.1540  -28.8847   23.2879 C   0  0  0  0  0  0
  -18.9463  -30.1448   23.8898 C   0  0  0  0  0  0
  -17.6463  -30.6581   24.0560 C   0  0  0  0  0  0
  -25.9046  -34.9449   23.5108 C   0  0  0  0  0  0
  -16.5355  -29.9079   23.6326 C   0  0  0  0  0  0
  -16.7277  -28.6495   23.0353 C   0  0  0  0  0  0
  -26.4489  -31.6588   25.0732 C   0  0  0  0  0  0
  -25.3725  -31.3734   26.1463 C   0  0  0  0  0  0
  -27.0335  -30.3013   24.6186 C   0  0  0  0  0  0
  -27.6051  -32.4323   25.7498 C   0  0  0  0  0  0
  -27.5577  -37.1806   24.8467 C   0  0  0  0  0  0
  -21.4186  -29.3038   22.3674 N   0  0  0  0  0  0
  -26.4296  -37.3768   23.9402 N   0  0  0  0  0  0
  -24.6872  -31.0621   22.0982 N   0  0  0  0  0  0
  -23.4199  -28.8155   23.3006 O   0  0  0  0  0  0
  -28.3471  -26.4778   20.1648 O   0  0  0  0  0  0
  -26.5611  -34.8909   22.4672 O   0  0  0  0  0  0
  -23.5414  -32.1402   23.7358 O   0  0  0  0  0  0
  -28.8372  -19.3437   21.0024 C   0  0  0  0  0  0
  -31.0751  -17.8431   20.2189 C   0  0  0  0  0  0
  -29.9531  -20.0652   20.5049 C   0  0  0  0  0  0
  -29.9605  -17.1303   20.7340 C   0  0  0  0  0  0
  -28.8473  -17.9218   21.1203 C   0  0  0  0  0  0
  -31.0673  -19.2671   20.1099 C   0  0  0  0  0  0
  -30.0050  -21.5850   20.3752 C   0  0  0  0  0  0
  -29.0222  -22.5422   20.4465 C   0  0  0  0  0  0
  -29.2739  -24.0419   20.3362 C   0  0  0  0  0  0
  -28.0923  -25.0266   20.0012 C   0  0  0  0  0  0
  -29.8512  -15.6781   20.8885 N   0  0  0  0  0  0
  -30.4034  -24.5177   20.4974 O   0  0  0  0  0  0
  -27.7546  -17.2950   21.6186 F   0  0  0  0  0  0
  -32.1686  -19.8766   19.6075 F   0  0  0  0  0  0
  -31.4800  -12.5079   19.1488 H   0  0  0  0  0  0
  -30.3688  -11.3920   19.8920 H   0  0  0  0  0  0
  -29.7690  -11.7578   17.4777 H   0  0  0  0  0  0
  -29.6564  -13.4789   17.7450 H   0  0  0  0  0  0
  -27.8599  -11.2991   18.8565 H   0  0  0  0  0  0
  -27.3789  -12.5927   17.7927 H   0  0  0  0  0  0
  -27.6723  -14.2562   19.5295 H   0  0  0  0  0  0
  -28.7113  -12.0497   21.3756 H   0  0  0  0  0  0
  -28.4503  -13.7037   21.8475 H   0  0  0  0  0  0
  -25.2763   -9.5690   22.4747 H   0  0  0  0  0  0
  -23.9996   -7.4646   22.7480 H   0  0  0  0  0  0
  -21.0828   -8.8782   19.8958 H   0  0  0  0  0  0
  -22.3689  -10.9678   19.6161 H   0  0  0  0  0  0
  -21.2021   -7.6149   23.9715 H   0  0  0  0  0  0
  -21.1473   -6.0519   25.9074 H   0  0  0  0  0  0
  -22.0601   -2.7604   23.2849 H   0  0  0  0  0  0
  -22.4098  -11.9897   22.4798 H   0  0  0  0  0  0
  -21.1113  -13.1283   22.2607 H   0  0  0  0  0  0
  -24.6694  -15.8463   20.5720 H   0  0  0  0  0  0
  -26.3004  -15.6462   20.1873 H   0  0  0  0  0  0
  -26.7172  -32.5453   23.1118 H   0  0  0  0  0  0
  -25.0069  -33.9727   25.0434 H   0  0  0  0  0  0
  -22.7127  -31.3041   21.4025 H   0  0  0  0  0  0
  -23.3733  -35.9649   23.3328 H   0  0  0  0  0  0
  -24.3578  -36.8886   22.2049 H   0  0  0  0  0  0
  -23.7267  -37.6517   23.6642 H   0  0  0  0  0  0
  -26.0935  -31.5574   20.6081 H   0  0  0  0  0  0
  -26.8406  -30.8405   22.0055 H   0  0  0  0  0  0
  -28.1154  -28.9880   21.1931 H   0  0  0  0  0  0
  -25.9634  -25.9390   18.9993 H   0  0  0  0  0  0
  -23.9686  -27.3080   19.0213 H   0  0  0  0  0  0
  -23.7566  -30.5979   19.4056 H   0  0  0  0  0  0
  -22.7563  -29.2503   19.8555 H   0  0  0  0  0  0
  -25.1290  -36.1942   25.0823 H   0  0  0  0  0  0
  -20.9979  -28.3255   24.1398 H   0  0  0  0  0  0
  -20.5673  -26.2289   23.3599 H   0  0  0  0  0  0
  -21.6647  -26.7431   22.1199 H   0  0  0  0  0  0
  -19.6909  -25.6286   21.1234 H   0  0  0  0  0  0
  -19.6679  -27.3185   20.6733 H   0  0  0  0  0  0
  -17.4192  -26.6651   21.4046 H   0  0  0  0  0  0
  -18.0351  -26.0067   22.9036 H   0  0  0  0  0  0
  -19.7938  -30.7263   24.2272 H   0  0  0  0  0  0
  -17.5017  -31.6262   24.5159 H   0  0  0  0  0  0
  -15.5356  -30.2984   23.7645 H   0  0  0  0  0  0
  -15.8680  -28.0811   22.7072 H   0  0  0  0  0  0
  -24.5881  -30.7106   25.7793 H   0  0  0  0  0  0
  -24.8942  -32.2908   26.4906 H   0  0  0  0  0  0
  -25.8046  -30.8893   27.0230 H   0  0  0  0  0  0
  -26.2917  -29.6761   24.1203 H   0  0  0  0  0  0
  -27.4029  -29.7270   25.4692 H   0  0  0  0  0  0
  -27.8785  -30.4304   23.9417 H   0  0  0  0  0  0
  -27.2665  -33.3620   26.2080 H   0  0  0  0  0  0
  -28.3859  -32.6886   25.0324 H   0  0  0  0  0  0
  -28.0722  -31.8447   26.5411 H   0  0  0  0  0  0
  -28.2602  -38.0093   24.7488 H   0  0  0  0  0  0
  -28.1062  -36.2622   24.6322 H   0  0  0  0  0  0
  -27.2290  -37.1489   25.8869 H   0  0  0  0  0  0
  -20.9354  -29.8781   21.6907 H   0  0  0  0  0  0
  -26.0175  -38.2846   24.1385 H   0  0  0  0  0  0
  -27.9576  -19.8797   21.3236 H   0  0  0  0  0  0
  -31.9583  -17.3130   19.8972 H   0  0  0  0  0  0
  -31.0064  -21.9609   20.2136 H   0  0  0  0  0  0
  -27.9966  -22.2393   20.5947 H   0  0  0  0  0  0
  -27.2369  -24.7372   20.6121 H   0  0  0  0  0  0
  -27.8233  -24.8390   18.9619 H   0  0  0  0  0  0
  -28.9505  -15.3865   21.2377 H   0  0  0  0  0  0
  1 25  1  0  0  0
  1 30  2  0  0  0
  1 81  1  0  0  0
  2  3  1  0  0  0
  2 25  1  0  0  0
  2 85  1  0  0  0
  2 86  1  0  0  0
  3  4  1  0  0  0
  3 87  1  0  0  0
  3 88  1  0  0  0
  4  5  1  0  0  0
  4 89  1  0  0  0
  4 90  1  0  0  0
  5  6  1  0  0  0
  5 26  1  0  0  0
  5 91  1  0  0  0
  6 25  1  0  0  0
  6 92  1  0  0  0
  6 93  1  0  0  0
  7  8  2  0  0  0
  7 26  1  0  0  0
  7 29  1  0  0  0
  8  9  1  0  0  0
  8 22  1  0  0  0
  9 10  1  0  0  0
  9 27  2  0  0  0
 10 11  2  0  0  0
 10 15  1  0  0  0
 11 12  1  0  0  0
 11 94  1  0  0  0
 12 13  2  0  0  0
 12 95  1  0  0  0
 13 14  1  0  0  0
 13 31  1  0  0  0
 14 15  2  0  0  0
 14 96  1  0  0  0
 15 97  1  0  0  0
 16 17  2  0  0  0
 16 21  1  0  0  0
 16 31  1  0  0  0
 17 18  1  0  0  0
 17 98  1  0  0  0
 18 19  2  0  0  0
 18 99  1  0  0  0
 19 20  1  0  0  0
 19 24  1  0  0  0
 20 21  2  0  0  0
 20100  1  0  0  0
 21 23  1  0  0  0
 22 28  1  0  0  0
 22 32  2  0  0  0
 26 27  1  0  0  0
 28101  1  0  0  0
 28102  1  0  0  0
 29103  1  0  0  0
 29104  1  0  0  0
 33 34  1  0  0  0
 33 66  1  0  0  0
 33 70  2  0  0  0
 34 36  1  0  0  0
 34 59  1  0  0  0
 34105  1  0  0  0
 35 44  2  0  0  0
 35 45  1  0  0  0
 35 68  1  0  0  0
 36 56  1  0  0  0
 36106  1  0  0  0
 37 39  1  0  0  0
 37 47  1  0  0  0
 37 66  1  0  0  0
 37107  1  0  0  0
 38 43  2  0  0  0
 38 46  1  0  0  0
 38 47  1  0  0  0
 39 64  1  0  0  0
 39 67  2  0  0  0
 40 52  1  0  0  0
 40 53  2  0  0  0
 40 58  1  0  0  0
 41108  1  0  0  0
 41109  1  0  0  0
 41110  1  0  0  0
 41 48  1  0  0  0
 42 43  1  0  0  0
 42 66  1  0  0  0
 42111  1  0  0  0
 42112  1  0  0  0
 43 44  1  0  0  0
 44113  1  0  0  0
 45 46  2  0  0  0
 45114  1  0  0  0
 46115  1  0  0  0
 47116  1  0  0  0
 47117  1  0  0  0
 48 56  1  0  0  0
 48 65  1  0  0  0
 48118  1  0  0  0
 49 50  1  0  0  0
 49 53  1  0  0  0
 49 64  1  0  0  0
 49119  1  0  0  0
 50 51  1  0  0  0
 50120  1  0  0  0
 50121  1  0  0  0
 51 52  1  0  0  0
 51122  1  0  0  0
 51123  1  0  0  0
 52124  1  0  0  0
 52125  1  0  0  0
 53 54  1  0  0  0
 54 55  2  0  0  0
 54126  1  0  0  0
 55 57  1  0  0  0
 55127  1  0  0  0
 56 69  2  0  0  0
 57 58  2  0  0  0
 57128  1  0  0  0
 58129  1  0  0  0
 59 60  1  0  0  0
 59 61  1  0  0  0
 59 62  1  0  0  0
 60130  1  0  0  0
 60131  1  0  0  0
 60132  1  0  0  0
 61133  1  0  0  0
 61134  1  0  0  0
 61135  1  0  0  0
 62136  1  0  0  0
 62137  1  0  0  0
 62138  1  0  0  0
 63 65  1  0  0  0
 63139  1  0  0  0
 63140  1  0  0  0
 63141  1  0  0  0
 64142  1  0  0  0
 65143  1  0  0  0
 68 80  1  0  0  0
 71 73  2  0  0  0
 71 75  1  0  0  0
 71144  1  0  0  0
 72 74  1  0  0  0
 72 76  2  0  0  0
 72145  1  0  0  0
 73 76  1  0  0  0
 73 77  1  0  0  0
 74 75  2  0  0  0
 74 81  1  0  0  0
 75 83  1  0  0  0
 76 84  1  0  0  0
 77 78  2  0  0  0
 77146  1  0  0  0
 78 79  1  0  0  0
 78147  1  0  0  0
 79 80  1  0  0  0
 79 82  2  0  0  0
 80148  1  0  0  0
 80149  1  0  0  0
 81150  1  0  0  0
M  ISO  4   1 100  68 101  80 101  81 100
M  END
> <chiral flag>
0

> <version>
0

> <s_m_source_file>
/data/baiqing/PycharmProjects/Reinvent-master-3.2/result/LINK_invent/BTK/process_docking_weight1_custom_product_contain_oxygen_bond_distance_aromatic_linkinvent_7_9_3/rearranged_h_0124.sdf

> <i_m_source_file_index>
42

> <r_mmod_Potential_Energy-OPLS-2005>
1.54651641845703

> <r_mmod_Stretch_Energy-OPLS-2005>
76.031623840332

> <r_mmod_Bend_Energy-OPLS-2005>
129.773254394531

> <r_mmod_Torsional_Energy-OPLS-2005>
210.734039306641

> <r_mmod_Improper_Torsional_Energy-OPLS-2005>
3.65939331054688

> <r_mmod_Van_der_Waal_Energy-OPLS-2005>
146.434051513672

> <r_mmod_Electrostatic_Energy-OPLS-2005>
-384.432312011719

> <r_mmod_Solvation_Energy-OPLS-2005>
-226.120407104492

> <b_mmod_Minimization_Converged-OPLS-2005>
0

> <r_mmod_RMS_Derivative-OPLS-2005>
1.13173401355743

$$$$
42
                    3D
 Structure written by MMmdl.
156164  0  0  1  0            999 V2000
  -30.6153  -14.7142   20.4197 C   0  0  0  0  0  0
  -30.4113  -12.4278   19.4771 C   0  0  0  0  0  0
  -29.5020  -12.5119   18.2340 C   0  0  0  0  0  0
  -28.0216  -12.3542   18.6381 C   0  0  0  0  0  0
  -27.6326  -13.2387   19.8551 C   0  0  2  0  0  0
  -28.6752  -13.1659   20.9891 C   0  0  0  0  0  0
  -25.2450  -13.8255   20.5708 C   0  0  0  0  0  0
  -24.1734  -13.0466   20.9214 C   0  0  0  0  0  0
  -24.6365  -11.6965   20.8762 C   0  0  0  0  0  0
  -23.9052  -10.4315   21.0418 C   0  0  0  0  0  0
  -24.3614   -9.4234   21.9190 C   0  0  0  0  0  0
  -23.6291   -8.2269   22.0757 C   0  0  0  0  0  0
  -22.4282   -8.0292   21.3544 C   0  0  0  0  0  0
  -21.9912   -9.0275   20.4655 C   0  0  0  0  0  0
  -22.7230  -10.2154   20.3069 C   0  0  0  0  0  0
  -21.6857   -6.0757   22.5266 C   0  0  0  0  0  0
  -21.4016   -6.5641   23.8206 C   0  0  0  0  0  0
  -21.3656   -5.6789   24.9161 C   0  0  0  0  0  0
  -21.6035   -4.3059   24.7204 C   0  0  0  0  0  0
  -21.8823   -3.8152   23.4333 C   0  0  0  0  0  0
  -21.9196   -4.6981   22.3394 C   0  0  0  0  0  0
  -22.7762  -13.5244   21.1872 C   0  0  0  0  0  0
  -22.1658   -4.2180   21.0965 F   0  0  0  0  0  0
  -21.5638   -3.4529   25.7716 F   0  0  0  0  0  0
  -29.9713  -13.5007   20.3957 N   0  0  0  0  0  0
  -26.2857  -12.9443   20.3306 N   0  0  0  0  0  0
  -25.9289  -11.6588   20.5775 N   0  0  0  0  0  0
  -22.0426  -12.8218   22.0441 N   0  0  0  0  0  0
  -25.4186  -15.1958   20.4088 N   0  0  0  0  0  0
  -31.8078  -14.7297   20.1175 O   0  0  0  0  0  0
  -21.6637   -6.8897   21.4244 O   0  0  0  0  0  0
  -22.3448  -14.5550   20.6745 O   0  0  0  0  0  0
  -24.6303  -31.8496   23.1929 C   0  0  0  0  0  0
  -25.9126  -32.4732   23.8264 C   0  0  1  0  0  0
  -27.2350  -27.2543   20.1136 C   0  0  0  0  0  0
  -25.5929  -33.8545   24.2189 N   0  0  0  0  0  0
  -23.4249  -30.4637   21.5386 C   0  0  2  0  0  0
  -24.8738  -28.9086   20.0949 C   0  0  0  0  0  0
  -22.7474  -29.4506   22.4914 C   0  0  0  0  0  0
  -18.0249  -28.1384   22.8442 C   0  0  0  0  0  0
  -24.1487  -36.7304   23.2632 C   0  0  0  0  0  0
  -25.9657  -30.7574   21.3651 C   0  0  0  0  0  0
  -26.0391  -29.3764   20.7164 C   0  0  0  0  0  0
  -27.2083  -28.5542   20.7279 C   0  0  0  0  0  0
  -26.0503  -26.8479   19.4636 C   0  0  0  0  0  0
  -24.8888  -27.6554   19.4572 C   0  0  0  0  0  0
  -23.6366  -29.7905   20.1538 C   0  0  0  0  0  0
  -25.4114  -36.3068   24.0307 C   0  0  1  0  0  0
  -20.5852  -28.3666   23.1317 C   0  0  2  0  0  0
  -20.6755  -26.9380   22.5466 C   0  0  0  0  0  0
  -19.5765  -26.6348   21.5251 C   0  0  0  0  0  0
  -18.1912  -26.7921   22.1583 C   0  0  0  0  0  0
  -19.1512  -28.8839   23.2860 C   0  0  0  0  0  0
  -18.9456  -30.1431   23.8889 C   0  0  0  0  0  0
  -17.6476  -30.6590   24.0538 C   0  0  0  0  0  0
  -25.9064  -34.9436   23.5052 C   0  0  0  0  0  0
  -16.5350  -29.9092   23.6343 C   0  0  0  0  0  0
  -16.7248  -28.6514   23.0345 C   0  0  0  0  0  0
  -26.4491  -31.6592   25.0676 C   0  0  0  0  0  0
  -25.3714  -31.3901   26.1432 C   0  0  0  0  0  0
  -27.0238  -30.2968   24.6157 C   0  0  0  0  0  0
  -27.6087  -32.4283   25.7437 C   0  0  0  0  0  0
  -27.5571  -37.1766   24.8443 C   0  0  0  0  0  0
  -21.4177  -29.2994   22.3703 N   0  0  0  0  0  0
  -26.4275  -37.3784   23.9429 N   0  0  0  0  0  0
  -24.6938  -31.0394   22.0932 N   0  0  0  0  0  0
  -23.4193  -28.8045   23.2999 O   0  0  0  0  0  0
  -28.3624  -26.4068   20.2268 O   0  0  0  0  0  0
  -26.5629  -34.8902   22.4616 O   0  0  0  0  0  0
  -23.5435  -32.1362   23.7173 O   0  0  0  0  0  0
  -29.4383  -18.5046   20.4927 C   0  0  0  0  0  0
  -31.6837  -17.6106   20.5247 C   0  0  0  0  0  0
  -29.9198  -19.8874   20.5903 C   0  0  0  0  0  0
  -32.1922  -18.9089   20.6125 C   0  0  0  0  0  0
  -31.3314  -20.0157   20.7696 C   0  0  0  0  0  0
  -30.3027  -17.3253   20.5165 C   0  0  0  0  0  0
  -29.0177  -21.1618   20.5363 C   0  0  0  0  0  0
  -29.2627  -22.4561   20.0727 C   0  0  0  0  0  0
  -28.3255  -23.6960   20.2050 C   0  0  0  0  0  0
  -33.7059  -19.0694   20.5256 C   0  0  0  0  0  0
  -31.9801  -21.2960   21.2777 C   0  0  0  0  0  0
  -28.5933  -25.1142   19.4868 C   0  0  0  0  0  0
  -29.8680  -15.8923   20.5349 N   0  0  0  0  0  0
  -27.2808  -23.5960   20.8515 O   0  0  0  0  0  0
  -31.4578  -12.5275   19.1830 H   0  0  0  0  0  0
  -30.3329  -11.4529   19.9609 H   0  0  0  0  0  0
  -29.7803  -11.7500   17.5055 H   0  0  0  0  0  0
  -29.6401  -13.4747   17.7376 H   0  0  0  0  0  0
  -27.8533  -11.3019   18.8712 H   0  0  0  0  0  0
  -27.3740  -12.5885   17.7911 H   0  0  0  0  0  0
  -27.6276  -14.2633   19.4850 H   0  0  0  0  0  0
  -28.6973  -12.1686   21.4316 H   0  0  0  0  0  0
  -28.4190  -13.8567   21.7960 H   0  0  0  0  0  0
  -25.2777   -9.5710   22.4751 H   0  0  0  0  0  0
  -24.0015   -7.4653   22.7445 H   0  0  0  0  0  0
  -21.0867   -8.8786   19.8937 H   0  0  0  0  0  0
  -22.3696  -10.9706   19.6173 H   0  0  0  0  0  0
  -21.1997   -7.6155   23.9724 H   0  0  0  0  0  0
  -21.1469   -6.0511   25.9067 H   0  0  0  0  0  0
  -22.0609   -2.7627   23.2802 H   0  0  0  0  0  0
  -22.4015  -11.9847   22.4786 H   0  0  0  0  0  0
  -21.1052  -13.1266   22.2699 H   0  0  0  0  0  0
  -24.6584  -15.8589   20.4994 H   0  0  0  0  0  0
  -26.2623  -15.6197   20.0468 H   0  0  0  0  0  0
  -26.7164  -32.5347   23.0962 H   0  0  0  0  0  0
  -25.0136  -33.9718   25.0362 H   0  0  0  0  0  0
  -22.7179  -31.2863   21.3917 H   0  0  0  0  0  0
  -23.3758  -35.9628   23.3283 H   0  0  0  0  0  0
  -24.3582  -36.8986   22.2066 H   0  0  0  0  0  0
  -23.7254  -37.6488   23.6681 H   0  0  0  0  0  0
  -26.0750  -31.5030   20.5761 H   0  0  0  0  0  0
  -26.8570  -30.8347   21.9777 H   0  0  0  0  0  0
  -28.0885  -28.8980   21.2491 H   0  0  0  0  0  0
  -25.9938  -25.8772   18.9875 H   0  0  0  0  0  0
  -24.0012  -27.2941   18.9575 H   0  0  0  0  0  0
  -23.7282  -30.5694   19.3964 H   0  0  0  0  0  0
  -22.7563  -29.2161   19.8599 H   0  0  0  0  0  0
  -25.1293  -36.1892   25.0800 H   0  0  0  0  0  0
  -20.9891  -28.3245   24.1472 H   0  0  0  0  0  0
  -20.5704  -26.2260   23.3665 H   0  0  0  0  0  0
  -21.6623  -26.7440   22.1250 H   0  0  0  0  0  0
  -19.7006  -25.6286   21.1267 H   0  0  0  0  0  0
  -19.6795  -27.3163   20.6803 H   0  0  0  0  0  0
  -17.4234  -26.6679   21.3937 H   0  0  0  0  0  0
  -18.0244  -26.0079   22.8978 H   0  0  0  0  0  0
  -19.7963  -30.7193   24.2266 H   0  0  0  0  0  0
  -17.5064  -31.6280   24.5128 H   0  0  0  0  0  0
  -15.5365  -30.3015   23.7704 H   0  0  0  0  0  0
  -15.8617  -28.0832   22.7112 H   0  0  0  0  0  0
  -24.5892  -30.7165   25.7897 H   0  0  0  0  0  0
  -24.8856  -32.3130   26.4619 H   0  0  0  0  0  0
  -25.8020  -30.9331   27.0349 H   0  0  0  0  0  0
  -26.2743  -29.6789   24.1165 H   0  0  0  0  0  0
  -27.3921  -29.7174   25.4641 H   0  0  0  0  0  0
  -27.8656  -30.4236   23.9339 H   0  0  0  0  0  0
  -27.2799  -33.3730   26.1772 H   0  0  0  0  0  0
  -28.4031  -32.6576   25.0322 H   0  0  0  0  0  0
  -28.0533  -31.8506   26.5546 H   0  0  0  0  0  0
  -28.2551  -38.0074   24.7445 H   0  0  0  0  0  0
  -28.1072  -36.2603   24.6270 H   0  0  0  0  0  0
  -27.2269  -37.1434   25.8826 H   0  0  0  0  0  0
  -20.9345  -29.8736   21.6944 H   0  0  0  0  0  0
  -26.0152  -38.2842   24.1488 H   0  0  0  0  0  0
  -28.3712  -18.3571   20.4189 H   0  0  0  0  0  0
  -32.4312  -16.8389   20.5038 H   0  0  0  0  0  0
  -28.0528  -21.0130   20.9943 H   0  0  0  0  0  0
  -30.2115  -22.6381   19.5829 H   0  0  0  0  0  0
  -34.2091  -18.1104   20.3877 H   0  0  0  0  0  0
  -34.1319  -19.5296   21.4135 H   0  0  0  0  0  0
  -33.9516  -19.6855   19.6600 H   0  0  0  0  0  0
  -32.5931  -21.0536   22.1504 H   0  0  0  0  0  0
  -31.2686  -22.0304   21.6451 H   0  0  0  0  0  0
  -32.6324  -21.7335   20.5210 H   0  0  0  0  0  0
  -28.0619  -25.1422   18.5348 H   0  0  0  0  0  0
  -29.6529  -25.1211   19.2264 H   0  0  0  0  0  0
  -28.8763  -15.7481   20.6472 H   0  0  0  0  0  0
  1 25  1  0  0  0
  1 30  2  0  0  0
  1 83  1  0  0  0
  2  3  1  0  0  0
  2 25  1  0  0  0
  2 85  1  0  0  0
  2 86  1  0  0  0
  3  4  1  0  0  0
  3 87  1  0  0  0
  3 88  1  0  0  0
  4  5  1  0  0  0
  4 89  1  0  0  0
  4 90  1  0  0  0
  5  6  1  0  0  0
  5 26  1  0  0  0
  5 91  1  0  0  0
  6 25  1  0  0  0
  6 92  1  0  0  0
  6 93  1  0  0  0
  7  8  2  0  0  0
  7 26  1  0  0  0
  7 29  1  0  0  0
  8  9  1  0  0  0
  8 22  1  0  0  0
  9 10  1  0  0  0
  9 27  2  0  0  0
 10 11  2  0  0  0
 10 15  1  0  0  0
 11 12  1  0  0  0
 11 94  1  0  0  0
 12 13  2  0  0  0
 12 95  1  0  0  0
 13 14  1  0  0  0
 13 31  1  0  0  0
 14 15  2  0  0  0
 14 96  1  0  0  0
 15 97  1  0  0  0
 16 17  2  0  0  0
 16 21  1  0  0  0
 16 31  1  0  0  0
 17 18  1  0  0  0
 17 98  1  0  0  0
 18 19  2  0  0  0
 18 99  1  0  0  0
 19 20  1  0  0  0
 19 24  1  0  0  0
 20 21  2  0  0  0
 20100  1  0  0  0
 21 23  1  0  0  0
 22 28  1  0  0  0
 22 32  2  0  0  0
 26 27  1  0  0  0
 28101  1  0  0  0
 28102  1  0  0  0
 29103  1  0  0  0
 29104  1  0  0  0
 33 34  1  0  0  0
 33 66  1  0  0  0
 33 70  2  0  0  0
 34 36  1  0  0  0
 34 59  1  0  0  0
 34105  1  0  0  0
 35 44  2  0  0  0
 35 45  1  0  0  0
 35 68  1  0  0  0
 36 56  1  0  0  0
 36106  1  0  0  0
 37 39  1  0  0  0
 37 47  1  0  0  0
 37 66  1  0  0  0
 37107  1  0  0  0
 38 43  2  0  0  0
 38 46  1  0  0  0
 38 47  1  0  0  0
 39 64  1  0  0  0
 39 67  2  0  0  0
 40 52  1  0  0  0
 40 53  2  0  0  0
 40 58  1  0  0  0
 41108  1  0  0  0
 41109  1  0  0  0
 41110  1  0  0  0
 41 48  1  0  0  0
 42 43  1  0  0  0
 42 66  1  0  0  0
 42111  1  0  0  0
 42112  1  0  0  0
 43 44  1  0  0  0
 44113  1  0  0  0
 45 46  2  0  0  0
 45114  1  0  0  0
 46115  1  0  0  0
 47116  1  0  0  0
 47117  1  0  0  0
 48 56  1  0  0  0
 48 65  1  0  0  0
 48118  1  0  0  0
 49 50  1  0  0  0
 49 53  1  0  0  0
 49 64  1  0  0  0
 49119  1  0  0  0
 50 51  1  0  0  0
 50120  1  0  0  0
 50121  1  0  0  0
 51 52  1  0  0  0
 51122  1  0  0  0
 51123  1  0  0  0
 52124  1  0  0  0
 52125  1  0  0  0
 53 54  1  0  0  0
 54 55  2  0  0  0
 54126  1  0  0  0
 55 57  1  0  0  0
 55127  1  0  0  0
 56 69  2  0  0  0
 57 58  2  0  0  0
 57128  1  0  0  0
 58129  1  0  0  0
 59 60  1  0  0  0
 59 61  1  0  0  0
 59 62  1  0  0  0
 60130  1  0  0  0
 60131  1  0  0  0
 60132  1  0  0  0
 61133  1  0  0  0
 61134  1  0  0  0
 61135  1  0  0  0
 62136  1  0  0  0
 62137  1  0  0  0
 62138  1  0  0  0
 63 65  1  0  0  0
 63139  1  0  0  0
 63140  1  0  0  0
 63141  1  0  0  0
 64142  1  0  0  0
 65143  1  0  0  0
 68 82  1  0  0  0
 71 73  2  0  0  0
 71 76  1  0  0  0
 71144  1  0  0  0
 72 74  1  0  0  0
 72 76  2  0  0  0
 72145  1  0  0  0
 73 75  1  0  0  0
 73 77  1  0  0  0
 74 75  2  0  0  0
 74 80  1  0  0  0
 75 81  1  0  0  0
 76 83  1  0  0  0
 77 78  2  0  0  0
 77146  1  0  0  0
 78 79  1  0  0  0
 78147  1  0  0  0
 79 82  1  0  0  0
 79 84  2  0  0  0
 80148  1  0  0  0
 80149  1  0  0  0
 80150  1  0  0  0
 81151  1  0  0  0
 81152  1  0  0  0
 81153  1  0  0  0
 82154  1  0  0  0
 82155  1  0  0  0
 83156  1  0  0  0
M  ISO  4   1 100  68 101  82 101  83 100
M  END
> <chiral flag>
0

> <version>
0

> <s_m_source_file>
/data/baiqing/PycharmProjects/Reinvent-master-3.2/result/LINK_invent/BTK/process_docking_weight1_custom_product_contain_oxygen_bond_distance_aromatic_linkinvent_7_9_3/rearranged_h_0124.sdf

> <i_m_source_file_index>
43

> <r_mmod_Potential_Energy-OPLS-2005>
218.256011962891

> <r_mmod_Stretch_Energy-OPLS-2005>
140.987899780273

> <r_mmod_Bend_Energy-OPLS-2005>
182.038467407227

> <r_mmod_Torsional_Energy-OPLS-2005>
237.894058227539

> <r_mmod_Improper_Torsional_Energy-OPLS-2005>
7.09622049331665

> <r_mmod_Van_der_Waal_Energy-OPLS-2005>
157.086669921875

> <r_mmod_Electrostatic_Energy-OPLS-2005>
-361.886260986328

> <r_mmod_Solvation_Energy-OPLS-2005>
-225.698257446289

> <b_mmod_Minimization_Converged-OPLS-2005>
0

> <r_mmod_RMS_Derivative-OPLS-2005>
6.35843992233276

$$$$
43
                    3D
 Structure written by MMmdl.
154162  0  0  1  0            999 V2000
  -30.6615  -14.7318   20.4416 C   0  0  0  0  0  0
  -30.4230  -12.4478   19.4741 C   0  0  0  0  0  0
  -29.5032  -12.5099   18.2355 C   0  0  0  0  0  0
  -28.0309  -12.3389   18.6530 C   0  0  0  0  0  0
  -27.6421  -13.2407   19.8542 C   0  0  2  0  0  0
  -28.6927  -13.1915   20.9863 C   0  0  0  0  0  0
  -25.2502  -13.8212   20.5724 C   0  0  0  0  0  0
  -24.1804  -13.0449   20.9210 C   0  0  0  0  0  0
  -24.6409  -11.6928   20.8756 C   0  0  0  0  0  0
  -23.9089  -10.4298   21.0393 C   0  0  0  0  0  0
  -24.3630   -9.4212   21.9174 C   0  0  0  0  0  0
  -23.6297   -8.2244   22.0749 C   0  0  0  0  0  0
  -22.4274   -8.0286   21.3539 C   0  0  0  0  0  0
  -21.9924   -9.0265   20.4637 C   0  0  0  0  0  0
  -22.7258  -10.2136   20.3048 C   0  0  0  0  0  0
  -21.6861   -6.0729   22.5265 C   0  0  0  0  0  0
  -21.4019   -6.5636   23.8198 C   0  0  0  0  0  0
  -21.3668   -5.6791   24.9170 C   0  0  0  0  0  0
  -21.6035   -4.3051   24.7222 C   0  0  0  0  0  0
  -21.8825   -3.8140   23.4344 C   0  0  0  0  0  0
  -21.9195   -4.6952   22.3396 C   0  0  0  0  0  0
  -22.7817  -13.5205   21.1889 C   0  0  0  0  0  0
  -22.1661   -4.2138   21.0970 F   0  0  0  0  0  0
  -21.5638   -3.4538   25.7742 F   0  0  0  0  0  0
  -29.9967  -13.5247   20.3980 N   0  0  0  0  0  0
  -26.2956  -12.9450   20.3331 N   0  0  0  0  0  0
  -25.9354  -11.6580   20.5786 N   0  0  0  0  0  0
  -22.0489  -12.8165   22.0434 N   0  0  0  0  0  0
  -25.4164  -15.1947   20.4144 N   0  0  0  0  0  0
  -31.8580  -14.7600   20.1474 O   0  0  0  0  0  0
  -21.6640   -6.8875   21.4226 O   0  0  0  0  0  0
  -22.3488  -14.5513   20.6738 O   0  0  0  0  0  0
  -24.6298  -31.8567   23.2030 C   0  0  0  0  0  0
  -25.9138  -32.4776   23.8343 C   0  0  1  0  0  0
  -27.2206  -27.2690   20.1332 C   0  0  0  0  0  0
  -25.5960  -33.8570   24.2286 N   0  0  0  0  0  0
  -23.4269  -30.4814   21.5443 C   0  0  2  0  0  0
  -24.8766  -28.9390   20.1031 C   0  0  0  0  0  0
  -22.7512  -29.4583   22.4900 C   0  0  0  0  0  0
  -18.0290  -28.1394   22.8461 C   0  0  0  0  0  0
  -24.1498  -36.7283   23.2639 C   0  0  0  0  0  0
  -25.9728  -30.7724   21.3860 C   0  0  0  0  0  0
  -26.0455  -29.3965   20.7248 C   0  0  0  0  0  0
  -27.2151  -28.5722   20.7338 C   0  0  0  0  0  0
  -26.0371  -26.8934   19.4534 C   0  0  0  0  0  0
  -24.8793  -27.6962   19.4529 C   0  0  0  0  0  0
  -23.6467  -29.8255   20.1550 C   0  0  0  0  0  0
  -25.4123  -36.3079   24.0334 C   0  0  1  0  0  0
  -20.5887  -28.3701   23.1264 C   0  0  2  0  0  0
  -20.6780  -26.9406   22.5409 C   0  0  0  0  0  0
  -19.5762  -26.6378   21.5213 C   0  0  0  0  0  0
  -18.1926  -26.7939   22.1604 C   0  0  0  0  0  0
  -19.1545  -28.8858   23.2851 C   0  0  0  0  0  0
  -18.9469  -30.1445   23.8888 C   0  0  0  0  0  0
  -17.6466  -30.6590   24.0546 C   0  0  0  0  0  0
  -25.9051  -34.9448   23.5099 C   0  0  0  0  0  0
  -16.5349  -29.9085   23.6332 C   0  0  0  0  0  0
  -16.7276  -28.6506   23.0342 C   0  0  0  0  0  0
  -26.4523  -31.6601   25.0730 C   0  0  0  0  0  0
  -25.3748  -31.3708   26.1451 C   0  0  0  0  0  0
  -27.0393  -30.3025   24.6212 C   0  0  0  0  0  0
  -27.6086  -32.4331   25.7487 C   0  0  0  0  0  0
  -27.5584  -37.1787   24.8462 C   0  0  0  0  0  0
  -21.4213  -29.3043   22.3656 N   0  0  0  0  0  0
  -26.4296  -37.3782   23.9406 N   0  0  0  0  0  0
  -24.6944  -31.0549   22.1006 N   0  0  0  0  0  0
  -23.4234  -28.8104   23.2969 O   0  0  0  0  0  0
  -28.3147  -26.3748   20.2423 O   0  0  0  0  0  0
  -26.5611  -34.8924   22.4667 O   0  0  0  0  0  0
  -23.5457  -32.1379   23.7339 O   0  0  0  0  0  0
  -31.3071  -17.5918   19.3324 C   0  0  0  0  0  0
  -30.9363  -20.0222   19.4469 C   0  0  0  0  0  0
  -29.5699  -18.4963   20.7616 C   0  0  0  0  0  0
  -31.6432  -18.9098   18.9445 C   0  0  0  0  0  0
  -30.2760  -17.3217   20.2680 C   0  0  0  0  0  0
  -29.8637  -19.8653   20.3529 C   0  0  0  0  0  0
  -32.7957  -19.1372   17.9813 C   0  0  0  0  0  0
  -28.9260  -23.7242   20.6923 C   0  0  0  0  0  0
  -28.1607  -24.9142   19.9091 C   0  0  0  0  0  0
  -28.9022  -22.2327   20.0553 C   0  0  0  0  0  0
  -29.9467  -15.9101   20.6390 N   0  0  0  0  0  0
  -29.2016  -21.0165   20.8735 O   0  0  0  0  0  0
  -31.4655  -12.5469   19.1680 H   0  0  0  0  0  0
  -30.3472  -11.4761   19.9647 H   0  0  0  0  0  0
  -29.7805  -11.7364   17.5172 H   0  0  0  0  0  0
  -29.6296  -13.4653   17.7234 H   0  0  0  0  0  0
  -27.8852  -11.2911   18.9168 H   0  0  0  0  0  0
  -27.3715  -12.5315   17.8056 H   0  0  0  0  0  0
  -27.6318  -14.2600   19.4689 H   0  0  0  0  0  0
  -28.7255  -12.2034   21.4467 H   0  0  0  0  0  0
  -28.4370  -13.8920   21.7826 H   0  0  0  0  0  0
  -25.2778   -9.5682   22.4754 H   0  0  0  0  0  0
  -24.0004   -7.4636   22.7480 H   0  0  0  0  0  0
  -21.0854   -8.8782   19.8949 H   0  0  0  0  0  0
  -22.3715  -10.9674   19.6160 H   0  0  0  0  0  0
  -21.2009   -7.6148   23.9698 H   0  0  0  0  0  0
  -21.1489   -6.0524   25.9067 H   0  0  0  0  0  0
  -22.0597   -2.7600   23.2847 H   0  0  0  0  0  0
  -22.4136  -11.9809   22.4770 H   0  0  0  0  0  0
  -21.1119  -13.1162   22.2697 H   0  0  0  0  0  0
  -24.6454  -15.8457   20.5212 H   0  0  0  0  0  0
  -26.2635  -15.6372   20.0817 H   0  0  0  0  0  0
  -26.7205  -32.5447   23.1073 H   0  0  0  0  0  0
  -25.0133  -33.9684   25.0455 H   0  0  0  0  0  0
  -22.7218  -31.3029   21.4030 H   0  0  0  0  0  0
  -23.3769  -35.9602   23.3311 H   0  0  0  0  0  0
  -24.3565  -36.8906   22.2045 H   0  0  0  0  0  0
  -23.7232  -37.6477   23.6665 H   0  0  0  0  0  0
  -26.1095  -31.5378   20.6203 H   0  0  0  0  0  0
  -26.8495  -30.8193   22.0209 H   0  0  0  0  0  0
  -28.1026  -28.9057   21.2527 H   0  0  0  0  0  0
  -25.9668  -25.9602   18.9152 H   0  0  0  0  0  0
  -23.9909  -27.3509   18.9404 H   0  0  0  0  0  0
  -23.7750  -30.6096   19.4077 H   0  0  0  0  0  0
  -22.7646  -29.2627   19.8449 H   0  0  0  0  0  0
  -25.1290  -36.1936   25.0827 H   0  0  0  0  0  0
  -20.9941  -28.3320   24.1401 H   0  0  0  0  0  0
  -20.5720  -26.2293   23.3624 H   0  0  0  0  0  0
  -21.6654  -26.7469   22.1175 H   0  0  0  0  0  0
  -19.6936  -25.6290   21.1250 H   0  0  0  0  0  0
  -19.6740  -27.3195   20.6751 H   0  0  0  0  0  0
  -17.4205  -26.6671   21.3992 H   0  0  0  0  0  0
  -18.0296  -26.0088   22.9007 H   0  0  0  0  0  0
  -19.7951  -30.7212   24.2301 H   0  0  0  0  0  0
  -17.5050  -31.6291   24.5127 H   0  0  0  0  0  0
  -15.5358  -30.2984   23.7694 H   0  0  0  0  0  0
  -15.8662  -28.0836   22.7069 H   0  0  0  0  0  0
  -24.5954  -30.7032   25.7768 H   0  0  0  0  0  0
  -24.8888  -32.2850   26.4876 H   0  0  0  0  0  0
  -25.8064  -30.8890   27.0241 H   0  0  0  0  0  0
  -26.2992  -29.6709   24.1286 H   0  0  0  0  0  0
  -27.4147  -29.7337   25.4727 H   0  0  0  0  0  0
  -27.8844  -30.4303   23.9435 H   0  0  0  0  0  0
  -27.2749  -33.3674   26.2013 H   0  0  0  0  0  0
  -28.3927  -32.6810   25.0325 H   0  0  0  0  0  0
  -28.0740  -31.8482   26.5432 H   0  0  0  0  0  0
  -28.2580  -38.0104   24.7524 H   0  0  0  0  0  0
  -28.1091  -36.2616   24.6277 H   0  0  0  0  0  0
  -27.2278  -37.1443   25.8860 H   0  0  0  0  0  0
  -20.9400  -29.8802   21.6885 H   0  0  0  0  0  0
  -26.0184  -38.2851   24.1446 H   0  0  0  0  0  0
  -31.8687  -16.7860   18.8844 H   0  0  0  0  0  0
  -31.2582  -21.0110   19.1486 H   0  0  0  0  0  0
  -28.7765  -18.3470   21.4791 H   0  0  0  0  0  0
  -32.9155  -18.2979   17.2960 H   0  0  0  0  0  0
  -33.7286  -19.2595   18.5319 H   0  0  0  0  0  0
  -32.6370  -20.0367   17.3852 H   0  0  0  0  0  0
  -28.4989  -23.6735   21.6941 H   0  0  0  0  0  0
  -29.9652  -24.0151   20.8399 H   0  0  0  0  0  0
  -27.1169  -24.6263   20.0038 H   0  0  0  0  0  0
  -28.4022  -24.8188   18.8514 H   0  0  0  0  0  0
  -29.5003  -22.2509   19.1464 H   0  0  0  0  0  0
  -27.8835  -22.0648   19.7061 H   0  0  0  0  0  0
  -29.0142  -15.7714   20.9980 H   0  0  0  0  0  0
  1 25  1  0  0  0
  1 30  2  0  0  0
  1 81  1  0  0  0
  2  3  1  0  0  0
  2 25  1  0  0  0
  2 83  1  0  0  0
  2 84  1  0  0  0
  3  4  1  0  0  0
  3 85  1  0  0  0
  3 86  1  0  0  0
  4  5  1  0  0  0
  4 87  1  0  0  0
  4 88  1  0  0  0
  5  6  1  0  0  0
  5 26  1  0  0  0
  5 89  1  0  0  0
  6 25  1  0  0  0
  6 90  1  0  0  0
  6 91  1  0  0  0
  7  8  2  0  0  0
  7 26  1  0  0  0
  7 29  1  0  0  0
  8  9  1  0  0  0
  8 22  1  0  0  0
  9 10  1  0  0  0
  9 27  2  0  0  0
 10 11  2  0  0  0
 10 15  1  0  0  0
 11 12  1  0  0  0
 11 92  1  0  0  0
 12 13  2  0  0  0
 12 93  1  0  0  0
 13 14  1  0  0  0
 13 31  1  0  0  0
 14 15  2  0  0  0
 14 94  1  0  0  0
 15 95  1  0  0  0
 16 17  2  0  0  0
 16 21  1  0  0  0
 16 31  1  0  0  0
 17 18  1  0  0  0
 17 96  1  0  0  0
 18 19  2  0  0  0
 18 97  1  0  0  0
 19 20  1  0  0  0
 19 24  1  0  0  0
 20 21  2  0  0  0
 20 98  1  0  0  0
 21 23  1  0  0  0
 22 28  1  0  0  0
 22 32  2  0  0  0
 26 27  1  0  0  0
 28 99  1  0  0  0
 28100  1  0  0  0
 29101  1  0  0  0
 29102  1  0  0  0
 33 34  1  0  0  0
 33 66  1  0  0  0
 33 70  2  0  0  0
 34 36  1  0  0  0
 34 59  1  0  0  0
 34103  1  0  0  0
 35 44  2  0  0  0
 35 45  1  0  0  0
 35 68  1  0  0  0
 36 56  1  0  0  0
 36104  1  0  0  0
 37 39  1  0  0  0
 37 47  1  0  0  0
 37 66  1  0  0  0
 37105  1  0  0  0
 38 43  2  0  0  0
 38 46  1  0  0  0
 38 47  1  0  0  0
 39 64  1  0  0  0
 39 67  2  0  0  0
 40 52  1  0  0  0
 40 53  2  0  0  0
 40 58  1  0  0  0
 41106  1  0  0  0
 41107  1  0  0  0
 41108  1  0  0  0
 41 48  1  0  0  0
 42 43  1  0  0  0
 42 66  1  0  0  0
 42109  1  0  0  0
 42110  1  0  0  0
 43 44  1  0  0  0
 44111  1  0  0  0
 45 46  2  0  0  0
 45112  1  0  0  0
 46113  1  0  0  0
 47114  1  0  0  0
 47115  1  0  0  0
 48 56  1  0  0  0
 48 65  1  0  0  0
 48116  1  0  0  0
 49 50  1  0  0  0
 49 53  1  0  0  0
 49 64  1  0  0  0
 49117  1  0  0  0
 50 51  1  0  0  0
 50118  1  0  0  0
 50119  1  0  0  0
 51 52  1  0  0  0
 51120  1  0  0  0
 51121  1  0  0  0
 52122  1  0  0  0
 52123  1  0  0  0
 53 54  1  0  0  0
 54 55  2  0  0  0
 54124  1  0  0  0
 55 57  1  0  0  0
 55125  1  0  0  0
 56 69  2  0  0  0
 57 58  2  0  0  0
 57126  1  0  0  0
 58127  1  0  0  0
 59 60  1  0  0  0
 59 61  1  0  0  0
 59 62  1  0  0  0
 60128  1  0  0  0
 60129  1  0  0  0
 60130  1  0  0  0
 61131  1  0  0  0
 61132  1  0  0  0
 61133  1  0  0  0
 62134  1  0  0  0
 62135  1  0  0  0
 62136  1  0  0  0
 63 65  1  0  0  0
 63137  1  0  0  0
 63138  1  0  0  0
 63139  1  0  0  0
 64140  1  0  0  0
 65141  1  0  0  0
 68 79  1  0  0  0
 71 74  2  0  0  0
 71 75  1  0  0  0
 71142  1  0  0  0
 72 74  1  0  0  0
 72 76  2  0  0  0
 72143  1  0  0  0
 73 75  2  0  0  0
 73 76  1  0  0  0
 73144  1  0  0  0
 74 77  1  0  0  0
 75 81  1  0  0  0
 76 82  1  0  0  0
 77145  1  0  0  0
 77146  1  0  0  0
 77147  1  0  0  0
 78 79  1  0  0  0
 78 80  1  0  0  0
 78148  1  0  0  0
 78149  1  0  0  0
 79150  1  0  0  0
 79151  1  0  0  0
 80 82  1  0  0  0
 80152  1  0  0  0
 80153  1  0  0  0
 81154  1  0  0  0
M  ISO  4   1 100  68 101  79 101  81 100
M  END
> <chiral flag>
0

> <version>
0

> <s_m_source_file>
/data/baiqing/PycharmProjects/Reinvent-master-3.2/result/LINK_invent/BTK/process_docking_weight1_custom_product_contain_oxygen_bond_distance_aromatic_linkinvent_7_9_3/rearranged_h_0124.sdf

> <i_m_source_file_index>
44

> <r_mmod_Potential_Energy-OPLS-2005>
198.695709228516

> <r_mmod_Stretch_Energy-OPLS-2005>
125.514579772949

> <r_mmod_Bend_Energy-OPLS-2005>
169.442169189453

> <r_mmod_Torsional_Energy-OPLS-2005>
231.04719543457

> <r_mmod_Improper_Torsional_Energy-OPLS-2005>
4.1432843208313

> <r_mmod_Van_der_Waal_Energy-OPLS-2005>
149.19563293457

> <r_mmod_Electrostatic_Energy-OPLS-2005>
-353.836517333984

> <r_mmod_Solvation_Energy-OPLS-2005>
-211.256118774414

> <b_mmod_Minimization_Converged-OPLS-2005>
0

> <r_mmod_RMS_Derivative-OPLS-2005>
3.17353343963623

$$$$
44
                    3D
 Structure written by MMmdl.
155163  0  0  1  0            999 V2000
  -30.4606  -15.1998   20.3684 C   0  0  0  0  0  0
  -30.4408  -12.7569   19.5292 C   0  0  0  0  0  0
  -29.5356  -12.5615   18.2864 C   0  0  0  0  0  0
  -28.0788  -12.2981   18.7070 C   0  0  0  0  0  0
  -27.6112  -13.2732   19.8151 C   0  0  2  0  0  0
  -28.6418  -13.4252   20.9505 C   0  0  0  0  0  0
  -25.2391  -13.8258   20.5744 C   0  0  0  0  0  0
  -24.1740  -13.0447   20.9256 C   0  0  0  0  0  0
  -24.6398  -11.6948   20.8764 C   0  0  0  0  0  0
  -23.9094  -10.4304   21.0408 C   0  0  0  0  0  0
  -24.3643   -9.4216   21.9186 C   0  0  0  0  0  0
  -23.6306   -8.2251   22.0755 C   0  0  0  0  0  0
  -22.4282   -8.0294   21.3543 C   0  0  0  0  0  0
  -21.9931   -9.0270   20.4646 C   0  0  0  0  0  0
  -22.7270  -10.2143   20.3056 C   0  0  0  0  0  0
  -21.6853   -6.0751   22.5282 C   0  0  0  0  0  0
  -21.4013   -6.5653   23.8219 C   0  0  0  0  0  0
  -21.3652   -5.6798   24.9173 C   0  0  0  0  0  0
  -21.6037   -4.3060   24.7219 C   0  0  0  0  0  0
  -21.8820   -3.8158   23.4340 C   0  0  0  0  0  0
  -21.9197   -4.6979   22.3397 C   0  0  0  0  0  0
  -22.7755  -13.5193   21.1907 C   0  0  0  0  0  0
  -22.1660   -4.2172   21.0974 F   0  0  0  0  0  0
  -21.5623   -3.4536   25.7724 F   0  0  0  0  0  0
  -29.8957  -13.8979   20.3460 N   0  0  0  0  0  0
  -26.2809  -12.9530   20.3169 N   0  0  0  0  0  0
  -25.9328  -11.6636   20.5688 N   0  0  0  0  0  0
  -22.0417  -12.8174   22.0466 N   0  0  0  0  0  0
  -25.4052  -15.1987   20.4210 N   0  0  0  0  0  0
  -31.6852  -15.1859   20.1777 O   0  0  0  0  0  0
  -21.6634   -6.8896   21.4242 O   0  0  0  0  0  0
  -22.3435  -14.5494   20.6753 O   0  0  0  0  0  0
  -24.6598  -31.8278   23.1758 C   0  0  0  0  0  0
  -25.9305  -32.4610   23.8196 C   0  0  1  0  0  0
  -27.2105  -26.9646   20.1808 C   0  0  0  0  0  0
  -25.6006  -33.8421   24.2116 N   0  0  0  0  0  0
  -23.4735  -30.4441   21.5234 C   0  0  2  0  0  0
  -24.9249  -28.8436   20.1132 C   0  0  0  0  0  0
  -22.7645  -29.4479   22.4785 C   0  0  0  0  0  0
  -18.0320  -28.1423   22.8476 C   0  0  0  0  0  0
  -24.1467  -36.7184   23.2650 C   0  0  0  0  0  0
  -26.0415  -30.6473   21.4011 C   0  0  0  0  0  0
  -26.1091  -29.2414   20.7459 C   0  0  0  0  0  0
  -27.2496  -28.3222   20.7582 C   0  0  0  0  0  0
  -25.9980  -26.7191   19.4933 C   0  0  0  0  0  0
  -24.8928  -27.6020   19.4653 C   0  0  0  0  0  0
  -23.7111  -29.7679   20.1469 C   0  0  0  0  0  0
  -25.4107  -36.2974   24.0316 C   0  0  1  0  0  0
  -20.5943  -28.3752   23.1185 C   0  0  2  0  0  0
  -20.6797  -26.9441   22.5390 C   0  0  0  0  0  0
  -19.5771  -26.6393   21.5206 C   0  0  0  0  0  0
  -18.1952  -26.7964   22.1620 C   0  0  0  0  0  0
  -19.1583  -28.8914   23.2818 C   0  0  0  0  0  0
  -18.9499  -30.1497   23.8849 C   0  0  0  0  0  0
  -17.6501  -30.6617   24.0557 C   0  0  0  0  0  0
  -25.9084  -34.9364   23.5026 C   0  0  0  0  0  0
  -16.5382  -29.9101   23.6364 C   0  0  0  0  0  0
  -16.7305  -28.6523   23.0380 C   0  0  0  0  0  0
  -26.4581  -31.6538   25.0700 C   0  0  0  0  0  0
  -25.3732  -31.3776   26.1370 C   0  0  0  0  0  0
  -27.0498  -30.2930   24.6401 C   0  0  0  0  0  0
  -27.6082  -32.4350   25.7498 C   0  0  0  0  0  0
  -27.5555  -37.1726   24.8465 C   0  0  0  0  0  0
  -21.4328  -29.3047   22.3533 N   0  0  0  0  0  0
  -26.4234  -37.3726   23.9455 N   0  0  0  0  0  0
  -24.7458  -30.9983   22.0874 N   0  0  0  0  0  0
  -23.4212  -28.8048   23.3008 O   0  0  0  0  0  0
  -28.1957  -25.8538   20.2589 O   0  0  0  0  0  0
  -26.5669  -34.8901   22.4602 O   0  0  0  0  0  0
  -23.5678  -32.1223   23.6883 O   0  0  0  0  0  0
  -30.0405  -20.7330   21.0078 C   0  0  0  0  0  0
  -27.8480  -21.5402   19.6575 C   0  0  0  0  0  0
  -29.4066  -19.5631   20.3920 C   0  0  0  0  0  0
  -29.6350  -22.1701   20.9668 C   0  0  0  0  0  0
  -28.2390  -20.1077   19.7219 C   0  0  0  0  0  0
  -28.4931  -22.7113   20.2447 C   0  0  0  0  0  0
  -30.0002  -17.9812   20.4677 C   0  0  0  0  0  0
  -29.6137  -16.5745   20.3847 C   0  0  0  0  0  0
  -27.3468  -19.1129   19.0060 C   0  0  0  0  0  0
  -29.7660  -23.5799   23.0684 C   0  0  0  0  0  0
  -30.4657  -23.1528   21.7718 C   0  0  0  0  0  0
  -27.7608  -24.2889   20.1566 C   0  0  0  0  0  0
  -31.4645  -12.9470   19.2042 H   0  0  0  0  0  0
  -30.4882  -11.8440   20.1250 H   0  0  0  0  0  0
  -29.9043  -11.7376   17.6749 H   0  0  0  0  0  0
  -29.5819  -13.4539   17.6605 H   0  0  0  0  0  0
  -28.0240  -11.2745   19.0786 H   0  0  0  0  0  0
  -27.4140  -12.3464   17.8437 H   0  0  0  0  0  0
  -27.5328  -14.2441   19.3237 H   0  0  0  0  0  0
  -28.7837  -12.4849   21.4855 H   0  0  0  0  0  0
  -28.2925  -14.1526   21.6842 H   0  0  0  0  0  0
  -25.2788   -9.5683   22.4767 H   0  0  0  0  0  0
  -24.0014   -7.4632   22.7478 H   0  0  0  0  0  0
  -21.0861   -8.8797   19.8947 H   0  0  0  0  0  0
  -22.3737  -10.9683   19.6164 H   0  0  0  0  0  0
  -21.2005   -7.6163   23.9731 H   0  0  0  0  0  0
  -21.1460   -6.0520   25.9078 H   0  0  0  0  0  0
  -22.0604   -2.7628   23.2825 H   0  0  0  0  0  0
  -22.4020  -11.9829   22.4841 H   0  0  0  0  0  0
  -21.1038  -13.1197   22.2688 H   0  0  0  0  0  0
  -24.6407  -15.8537   20.5417 H   0  0  0  0  0  0
  -26.2591  -15.6410   20.1093 H   0  0  0  0  0  0
  -26.7362  -32.5149   23.0902 H   0  0  0  0  0  0
  -25.0187  -33.9509   25.0296 H   0  0  0  0  0  0
  -22.7861  -31.2748   21.3569 H   0  0  0  0  0  0
  -23.3770  -35.9466   23.3256 H   0  0  0  0  0  0
  -24.3570  -36.8873   22.2077 H   0  0  0  0  0  0
  -23.7153  -37.6333   23.6720 H   0  0  0  0  0  0
  -26.2165  -31.3906   20.6223 H   0  0  0  0  0  0
  -26.9027  -30.7045   22.0543 H   0  0  0  0  0  0
  -28.1447  -28.6239   21.2847 H   0  0  0  0  0  0
  -25.8524  -25.7808   18.9834 H   0  0  0  0  0  0
  -23.9959  -27.2939   18.9471 H   0  0  0  0  0  0
  -23.8669  -30.5378   19.3902 H   0  0  0  0  0  0
  -22.8210  -29.2233   19.8279 H   0  0  0  0  0  0
  -25.1291  -36.1762   25.0802 H   0  0  0  0  0  0
  -21.0020  -28.3342   24.1310 H   0  0  0  0  0  0
  -20.5678  -26.2372   23.3629 H   0  0  0  0  0  0
  -21.6664  -26.7431   22.1193 H   0  0  0  0  0  0
  -19.6925  -25.6288   21.1275 H   0  0  0  0  0  0
  -19.6714  -27.3173   20.6711 H   0  0  0  0  0  0
  -17.4221  -26.6708   21.4021 H   0  0  0  0  0  0
  -18.0339  -26.0110   22.9020 H   0  0  0  0  0  0
  -19.7971  -30.7324   24.2189 H   0  0  0  0  0  0
  -17.5060  -31.6292   24.5162 H   0  0  0  0  0  0
  -15.5383  -30.2994   23.7733 H   0  0  0  0  0  0
  -15.8697  -28.0832   22.7130 H   0  0  0  0  0  0
  -24.5929  -30.7103   25.7690 H   0  0  0  0  0  0
  -24.8902  -32.2973   26.4670 H   0  0  0  0  0  0
  -25.7988  -30.9035   27.0226 H   0  0  0  0  0  0
  -26.3178  -29.6601   24.1372 H   0  0  0  0  0  0
  -27.4031  -29.7286   25.5040 H   0  0  0  0  0  0
  -27.9109  -30.4153   23.9831 H   0  0  0  0  0  0
  -27.2668  -33.3715   26.1918 H   0  0  0  0  0  0
  -28.3974  -32.6798   25.0379 H   0  0  0  0  0  0
  -28.0660  -31.8569   26.5536 H   0  0  0  0  0  0
  -28.2506  -38.0092   24.7614 H   0  0  0  0  0  0
  -28.1106  -36.2622   24.6145 H   0  0  0  0  0  0
  -27.2308  -37.1197   25.8874 H   0  0  0  0  0  0
  -20.9553  -29.8743   21.6689 H   0  0  0  0  0  0
  -26.0073  -38.2755   24.1569 H   0  0  0  0  0  0
  -30.9261  -20.5098   21.5875 H   0  0  0  0  0  0
  -26.9400  -21.7593   19.1135 H   0  0  0  0  0  0
  -31.0735  -18.0364   20.5837 H   0  0  0  0  0  0
  -28.5518  -16.4194   20.2740 H   0  0  0  0  0  0
  -26.6509  -19.6100   18.3297 H   0  0  0  0  0  0
  -26.7673  -18.5400   19.7305 H   0  0  0  0  0  0
  -27.9426  -18.4163   18.4157 H   0  0  0  0  0  0
  -30.3939  -24.2625   23.6408 H   0  0  0  0  0  0
  -29.5473  -22.7196   23.7019 H   0  0  0  0  0  0
  -28.8248  -24.0923   22.8656 H   0  0  0  0  0  0
  -30.6763  -24.0296   21.1583 H   0  0  0  0  0  0
  -31.4344  -22.7120   22.0093 H   0  0  0  0  0  0
  -26.9434  -24.2123   20.8738 H   0  0  0  0  0  0
  -27.2790  -24.2282   19.1830 H   0  0  0  0  0  0
  1 25  1  0  0  0
  1 30  2  0  0  0
  1 78  1  0  0  0
  2  3  1  0  0  0
  2 25  1  0  0  0
  2 83  1  0  0  0
  2 84  1  0  0  0
  3  4  1  0  0  0
  3 85  1  0  0  0
  3 86  1  0  0  0
  4  5  1  0  0  0
  4 87  1  0  0  0
  4 88  1  0  0  0
  5  6  1  0  0  0
  5 26  1  0  0  0
  5 89  1  0  0  0
  6 25  1  0  0  0
  6 90  1  0  0  0
  6 91  1  0  0  0
  7  8  2  0  0  0
  7 26  1  0  0  0
  7 29  1  0  0  0
  8  9  1  0  0  0
  8 22  1  0  0  0
  9 10  1  0  0  0
  9 27  2  0  0  0
 10 11  2  0  0  0
 10 15  1  0  0  0
 11 12  1  0  0  0
 11 92  1  0  0  0
 12 13  2  0  0  0
 12 93  1  0  0  0
 13 14  1  0  0  0
 13 31  1  0  0  0
 14 15  2  0  0  0
 14 94  1  0  0  0
 15 95  1  0  0  0
 16 17  2  0  0  0
 16 21  1  0  0  0
 16 31  1  0  0  0
 17 18  1  0  0  0
 17 96  1  0  0  0
 18 19  2  0  0  0
 18 97  1  0  0  0
 19 20  1  0  0  0
 19 24  1  0  0  0
 20 21  2  0  0  0
 20 98  1  0  0  0
 21 23  1  0  0  0
 22 28  1  0  0  0
 22 32  2  0  0  0
 26 27  1  0  0  0
 28 99  1  0  0  0
 28100  1  0  0  0
 29101  1  0  0  0
 29102  1  0  0  0
 33 34  1  0  0  0
 33 66  1  0  0  0
 33 70  2  0  0  0
 34 36  1  0  0  0
 34 59  1  0  0  0
 34103  1  0  0  0
 35 44  2  0  0  0
 35 45  1  0  0  0
 35 68  1  0  0  0
 36 56  1  0  0  0
 36104  1  0  0  0
 37 39  1  0  0  0
 37 47  1  0  0  0
 37 66  1  0  0  0
 37105  1  0  0  0
 38 43  2  0  0  0
 38 46  1  0  0  0
 38 47  1  0  0  0
 39 64  1  0  0  0
 39 67  2  0  0  0
 40 52  1  0  0  0
 40 53  2  0  0  0
 40 58  1  0  0  0
 41106  1  0  0  0
 41107  1  0  0  0
 41108  1  0  0  0
 41 48  1  0  0  0
 42 43  1  0  0  0
 42 66  1  0  0  0
 42109  1  0  0  0
 42110  1  0  0  0
 43 44  1  0  0  0
 44111  1  0  0  0
 45 46  2  0  0  0
 45112  1  0  0  0
 46113  1  0  0  0
 47114  1  0  0  0
 47115  1  0  0  0
 48 56  1  0  0  0
 48 65  1  0  0  0
 48116  1  0  0  0
 49 50  1  0  0  0
 49 53  1  0  0  0
 49 64  1  0  0  0
 49117  1  0  0  0
 50 51  1  0  0  0
 50118  1  0  0  0
 50119  1  0  0  0
 51 52  1  0  0  0
 51120  1  0  0  0
 51121  1  0  0  0
 52122  1  0  0  0
 52123  1  0  0  0
 53 54  1  0  0  0
 54 55  2  0  0  0
 54124  1  0  0  0
 55 57  1  0  0  0
 55125  1  0  0  0
 56 69  2  0  0  0
 57 58  2  0  0  0
 57126  1  0  0  0
 58127  1  0  0  0
 59 60  1  0  0  0
 59 61  1  0  0  0
 59 62  1  0  0  0
 60128  1  0  0  0
 60129  1  0  0  0
 60130  1  0  0  0
 61131  1  0  0  0
 61132  1  0  0  0
 61133  1  0  0  0
 62134  1  0  0  0
 62135  1  0  0  0
 62136  1  0  0  0
 63 65  1  0  0  0
 63137  1  0  0  0
 63138  1  0  0  0
 63139  1  0  0  0
 64140  1  0  0  0
 65141  1  0  0  0
 68 82  1  0  0  0
 71 73  2  0  0  0
 71 74  1  0  0  0
 71142  1  0  0  0
 72 75  2  0  0  0
 72 76  1  0  0  0
 72143  1  0  0  0
 73 75  1  0  0  0
 73 77  1  0  0  0
 74 76  2  0  0  0
 74 81  1  0  0  0
 75 79  1  0  0  0
 76 82  1  0  0  0
 77 78  2  0  0  0
 77144  1  0  0  0
 78145  1  0  0  0
 79146  1  0  0  0
 79147  1  0  0  0
 79148  1  0  0  0
 80 81  1  0  0  0
 80149  1  0  0  0
 80150  1  0  0  0
 80151  1  0  0  0
 81152  1  0  0  0
 81153  1  0  0  0
 82154  1  0  0  0
 82155  1  0  0  0
M  ISO  4   1 100  68 101  78 100  82 101
M  END
> <chiral flag>
0

> <version>
0

> <s_m_source_file>
/data/baiqing/PycharmProjects/Reinvent-master-3.2/result/LINK_invent/BTK/process_docking_weight1_custom_product_contain_oxygen_bond_distance_aromatic_linkinvent_7_9_3/rearranged_h_0124.sdf

> <i_m_source_file_index>
45

> <r_mmod_Potential_Energy-OPLS-2005>
1071.92370605469

> <r_mmod_Stretch_Energy-OPLS-2005>
450.559417724609

> <r_mmod_Bend_Energy-OPLS-2005>
400.980895996094

> <r_mmod_Torsional_Energy-OPLS-2005>
203.563537597656

> <r_mmod_Improper_Torsional_Energy-OPLS-2005>
5.89348316192627

> <r_mmod_Van_der_Waal_Energy-OPLS-2005>
128.909622192383

> <r_mmod_Electrostatic_Energy-OPLS-2005>
-327.024871826172

> <r_mmod_Solvation_Energy-OPLS-2005>
-192.094131469727

> <b_mmod_Minimization_Converged-OPLS-2005>
0

> <r_mmod_RMS_Derivative-OPLS-2005>
2.02753043174744

$$$$
45
                    3D
 Structure written by MMmdl.
156164  0  0  1  0            999 V2000
  -30.5049  -14.9009   20.4256 C   0  0  0  0  0  0
  -30.4530  -12.5476   19.5003 C   0  0  0  0  0  0
  -29.5258  -12.5329   18.2603 C   0  0  0  0  0  0
  -28.0563  -12.3152   18.6704 C   0  0  0  0  0  0
  -27.6387  -13.2215   19.8551 C   0  0  2  0  0  0
  -28.6845  -13.2039   20.9929 C   0  0  0  0  0  0
  -25.2506  -13.8162   20.5736 C   0  0  0  0  0  0
  -24.1782  -13.0413   20.9224 C   0  0  0  0  0  0
  -24.6362  -11.6873   20.8747 C   0  0  0  0  0  0
  -23.9045  -10.4262   21.0399 C   0  0  0  0  0  0
  -24.3597   -9.4185   21.9177 C   0  0  0  0  0  0
  -23.6268   -8.2231   22.0755 C   0  0  0  0  0  0
  -22.4252   -8.0280   21.3542 C   0  0  0  0  0  0
  -21.9872   -9.0249   20.4658 C   0  0  0  0  0  0
  -22.7210  -10.2114   20.3063 C   0  0  0  0  0  0
  -21.6850   -6.0715   22.5276 C   0  0  0  0  0  0
  -21.4021   -6.5618   23.8213 C   0  0  0  0  0  0
  -21.3654   -5.6777   24.9173 C   0  0  0  0  0  0
  -21.6041   -4.3050   24.7218 C   0  0  0  0  0  0
  -21.8821   -3.8125   23.4339 C   0  0  0  0  0  0
  -21.9194   -4.6940   22.3388 C   0  0  0  0  0  0
  -22.7819  -13.5209   21.1851 C   0  0  0  0  0  0
  -22.1666   -4.2131   21.0960 F   0  0  0  0  0  0
  -21.5601   -3.4526   25.7731 F   0  0  0  0  0  0
  -29.9715  -13.6179   20.4137 N   0  0  0  0  0  0
  -26.2923  -12.9343   20.3319 N   0  0  0  0  0  0
  -25.9303  -11.6496   20.5770 N   0  0  0  0  0  0
  -22.0448  -12.8252   22.0433 N   0  0  0  0  0  0
  -25.4155  -15.1882   20.4141 N   0  0  0  0  0  0
  -31.6826  -15.0478   20.0799 O   0  0  0  0  0  0
  -21.6632   -6.8870   21.4247 O   0  0  0  0  0  0
  -22.3537  -14.5518   20.6676 O   0  0  0  0  0  0
  -24.6407  -31.8427   23.1881 C   0  0  0  0  0  0
  -25.9169  -32.4685   23.8278 C   0  0  1  0  0  0
  -27.2346  -27.1643   20.1319 C   0  0  0  0  0  0
  -25.5919  -33.8487   24.2193 N   0  0  0  0  0  0
  -23.4469  -30.4574   21.5334 C   0  0  2  0  0  0
  -24.8969  -28.8875   20.1014 C   0  0  0  0  0  0
  -22.7560  -29.4507   22.4854 C   0  0  0  0  0  0
  -18.0300  -28.1401   22.8455 C   0  0  0  0  0  0
  -24.1471  -36.7235   23.2632 C   0  0  0  0  0  0
  -25.9985  -30.7217   21.3837 C   0  0  0  0  0  0
  -26.0695  -29.3354   20.7237 C   0  0  0  0  0  0
  -27.2327  -28.4847   20.7286 C   0  0  0  0  0  0
  -26.0379  -26.8037   19.4757 C   0  0  0  0  0  0
  -24.8925  -27.6346   19.4650 C   0  0  0  0  0  0
  -23.6683  -29.7837   20.1517 C   0  0  0  0  0  0
  -25.4097  -36.3017   24.0326 C   0  0  1  0  0  0
  -20.5911  -28.3696   23.1229 C   0  0  2  0  0  0
  -20.6772  -26.9383   22.5413 C   0  0  0  0  0  0
  -19.5749  -26.6362   21.5210 C   0  0  0  0  0  0
  -18.1932  -26.7938   22.1619 C   0  0  0  0  0  0
  -19.1561  -28.8875   23.2838 C   0  0  0  0  0  0
  -18.9466  -30.1464   23.8872 C   0  0  0  0  0  0
  -17.6453  -30.6570   24.0558 C   0  0  0  0  0  0
  -25.9059  -34.9397   23.5080 C   0  0  0  0  0  0
  -16.5352  -29.9062   23.6345 C   0  0  0  0  0  0
  -16.7289  -28.6498   23.0334 C   0  0  0  0  0  0
  -26.4491  -31.6567   25.0729 C   0  0  0  0  0  0
  -25.3686  -31.3747   26.1446 C   0  0  0  0  0  0
  -27.0344  -30.2969   24.6304 C   0  0  0  0  0  0
  -27.6057  -32.4312   25.7480 C   0  0  0  0  0  0
  -27.5590  -37.1714   24.8417 C   0  0  0  0  0  0
  -21.4249  -29.3011   22.3594 N   0  0  0  0  0  0
  -26.4239  -37.3754   23.9458 N   0  0  0  0  0  0
  -24.7148  -31.0299   22.0903 N   0  0  0  0  0  0
  -23.4203  -28.8052   23.2999 O   0  0  0  0  0  0
  -28.3106  -26.2226   20.2609 O   0  0  0  0  0  0
  -26.5671  -34.8888   22.4671 O   0  0  0  0  0  0
  -23.5517  -32.1281   23.7122 O   0  0  0  0  0  0
  -29.8494  -19.9262   20.4474 C   0  0  0  0  0  0
  -27.2955  -18.8778   19.6231 C   0  0  0  0  0  0
  -28.7699  -20.7715   20.1672 C   0  0  0  0  0  0
  -30.1320  -18.5538   20.6477 C   0  0  0  0  0  0
  -27.5515  -20.1850   19.9395 C   0  0  0  0  0  0
  -29.4474  -17.3988   20.2731 C   0  0  0  0  0  0
  -28.1194  -17.6307   19.6377 C   0  0  0  0  0  0
  -28.9690  -22.1625   19.9040 C   0  0  0  0  0  0
  -28.2581  -23.3704   20.1470 C   0  0  0  0  0  0
  -31.4536  -18.2954   21.3632 C   0  0  0  0  0  0
  -26.2829  -21.0460   19.9237 C   0  0  0  0  0  0
  -28.4769  -24.8745   19.5348 C   0  0  0  0  0  0
  -29.6172  -15.9647   20.6691 N   0  0  0  0  0  0
  -27.5976  -16.6604   19.0841 O   0  0  0  0  0  0
  -31.4887  -12.7098   19.1945 H   0  0  0  0  0  0
  -30.4375  -11.5832   20.0108 H   0  0  0  0  0  0
  -29.8349  -11.7562   17.5602 H   0  0  0  0  0  0
  -29.6163  -13.4799   17.7263 H   0  0  0  0  0  0
  -27.9424  -11.2645   18.9453 H   0  0  0  0  0  0
  -27.4015  -12.4813   17.8145 H   0  0  0  0  0  0
  -27.6129  -14.2241   19.4459 H   0  0  0  0  0  0
  -28.7578  -12.2068   21.4286 H   0  0  0  0  0  0
  -28.3894  -13.8699   21.8031 H   0  0  0  0  0  0
  -25.2732   -9.5639   22.4758 H   0  0  0  0  0  0
  -23.9950   -7.4620   22.7475 H   0  0  0  0  0  0
  -21.0782   -8.8773   19.8982 H   0  0  0  0  0  0
  -22.3666  -10.9653   19.6177 H   0  0  0  0  0  0
  -21.2045   -7.6133   23.9707 H   0  0  0  0  0  0
  -21.1463   -6.0512   25.9080 H   0  0  0  0  0  0
  -22.0599   -2.7585   23.2858 H   0  0  0  0  0  0
  -22.4038  -11.9936   22.4879 H   0  0  0  0  0  0
  -21.1110  -13.1387   22.2658 H   0  0  0  0  0  0
  -24.6182  -15.8154   20.4529 H   0  0  0  0  0  0
  -26.2243  -15.6111   19.9629 H   0  0  0  0  0  0
  -26.7245  -32.5293   23.1013 H   0  0  0  0  0  0
  -25.0031  -33.9583   25.0317 H   0  0  0  0  0  0
  -22.7507  -31.2836   21.3812 H   0  0  0  0  0  0
  -23.3778  -35.9510   23.3172 H   0  0  0  0  0  0
  -24.3602  -36.8990   22.2078 H   0  0  0  0  0  0
  -23.7135  -37.6353   23.6751 H   0  0  0  0  0  0
  -26.1558  -31.4750   20.6106 H   0  0  0  0  0  0
  -26.8698  -30.7705   22.0258 H   0  0  0  0  0  0
  -28.1254  -28.8159   21.2425 H   0  0  0  0  0  0
  -25.9554  -25.8367   19.0039 H   0  0  0  0  0  0
  -23.9979  -27.2854   18.9670 H   0  0  0  0  0  0
  -23.7882  -30.5584   19.3943 H   0  0  0  0  0  0
  -22.7847  -29.2175   19.8511 H   0  0  0  0  0  0
  -25.1246  -36.1849   25.0806 H   0  0  0  0  0  0
  -21.0021  -28.3301   24.1347 H   0  0  0  0  0  0
  -20.5639  -26.2282   23.3619 H   0  0  0  0  0  0
  -21.6632  -26.7359   22.1214 H   0  0  0  0  0  0
  -19.6879  -25.6270   21.1231 H   0  0  0  0  0  0
  -19.6704  -27.3167   20.6742 H   0  0  0  0  0  0
  -17.4185  -26.6666   21.4042 H   0  0  0  0  0  0
  -18.0327  -26.0111   22.9038 H   0  0  0  0  0  0
  -19.7929  -30.7299   24.2228 H   0  0  0  0  0  0
  -17.4988  -31.6256   24.5142 H   0  0  0  0  0  0
  -15.5340  -30.2932   23.7694 H   0  0  0  0  0  0
  -15.8692  -28.0809   22.7050 H   0  0  0  0  0  0
  -24.5856  -30.7113   25.7754 H   0  0  0  0  0  0
  -24.8895  -32.2923   26.4869 H   0  0  0  0  0  0
  -25.7971  -30.8910   27.0233 H   0  0  0  0  0  0
  -26.2948  -29.6707   24.1313 H   0  0  0  0  0  0
  -27.3944  -29.7264   25.4869 H   0  0  0  0  0  0
  -27.8853  -30.4208   23.9609 H   0  0  0  0  0  0
  -27.2694  -33.3621   26.2049 H   0  0  0  0  0  0
  -28.3851  -32.6856   25.0288 H   0  0  0  0  0  0
  -28.0745  -31.8457   26.5395 H   0  0  0  0  0  0
  -28.2446  -38.0161   24.7710 H   0  0  0  0  0  0
  -28.1243  -36.2732   24.5921 H   0  0  0  0  0  0
  -27.2365  -37.0949   25.8808 H   0  0  0  0  0  0
  -20.9447  -29.8724   21.6778 H   0  0  0  0  0  0
  -26.0105  -38.2774   24.1647 H   0  0  0  0  0  0
  -30.7522  -20.5125   20.5426 H   0  0  0  0  0  0
  -26.3150  -18.7094   19.2046 H   0  0  0  0  0  0
  -29.8629  -22.3367   19.3201 H   0  0  0  0  0  0
  -27.3752  -23.3196   20.7630 H   0  0  0  0  0  0
  -31.7568  -19.1418   21.9806 H   0  0  0  0  0  0
  -32.2453  -18.1119   20.6378 H   0  0  0  0  0  0
  -31.4017  -17.4301   22.0245 H   0  0  0  0  0  0
  -25.3621  -20.4670   19.8203 H   0  0  0  0  0  0
  -26.2952  -21.7620   19.0994 H   0  0  0  0  0  0
  -26.1671  -21.5764   20.8684 H   0  0  0  0  0  0
  -27.9066  -24.9209   18.6087 H   0  0  0  0  0  0
  -29.5140  -24.8780   19.1965 H   0  0  0  0  0  0
  -28.7072  -15.5615   20.8313 H   0  0  0  0  0  0
  1 25  1  0  0  0
  1 30  2  0  0  0
  1 83  1  0  0  0
  2  3  1  0  0  0
  2 25  1  0  0  0
  2 85  1  0  0  0
  2 86  1  0  0  0
  3  4  1  0  0  0
  3 87  1  0  0  0
  3 88  1  0  0  0
  4  5  1  0  0  0
  4 89  1  0  0  0
  4 90  1  0  0  0
  5  6  1  0  0  0
  5 26  1  0  0  0
  5 91  1  0  0  0
  6 25  1  0  0  0
  6 92  1  0  0  0
  6 93  1  0  0  0
  7  8  2  0  0  0
  7 26  1  0  0  0
  7 29  1  0  0  0
  8  9  1  0  0  0
  8 22  1  0  0  0
  9 10  1  0  0  0
  9 27  2  0  0  0
 10 11  2  0  0  0
 10 15  1  0  0  0
 11 12  1  0  0  0
 11 94  1  0  0  0
 12 13  2  0  0  0
 12 95  1  0  0  0
 13 14  1  0  0  0
 13 31  1  0  0  0
 14 15  2  0  0  0
 14 96  1  0  0  0
 15 97  1  0  0  0
 16 17  2  0  0  0
 16 21  1  0  0  0
 16 31  1  0  0  0
 17 18  1  0  0  0
 17 98  1  0  0  0
 18 19  2  0  0  0
 18 99  1  0  0  0
 19 20  1  0  0  0
 19 24  1  0  0  0
 20 21  2  0  0  0
 20100  1  0  0  0
 21 23  1  0  0  0
 22 28  1  0  0  0
 22 32  2  0  0  0
 26 27  1  0  0  0
 28101  1  0  0  0
 28102  1  0  0  0
 29103  1  0  0  0
 29104  1  0  0  0
 33 34  1  0  0  0
 33 66  1  0  0  0
 33 70  2  0  0  0
 34 36  1  0  0  0
 34 59  1  0  0  0
 34105  1  0  0  0
 35 44  2  0  0  0
 35 45  1  0  0  0
 35 68  1  0  0  0
 36 56  1  0  0  0
 36106  1  0  0  0
 37 39  1  0  0  0
 37 47  1  0  0  0
 37 66  1  0  0  0
 37107  1  0  0  0
 38 43  2  0  0  0
 38 46  1  0  0  0
 38 47  1  0  0  0
 39 64  1  0  0  0
 39 67  2  0  0  0
 40 52  1  0  0  0
 40 53  2  0  0  0
 40 58  1  0  0  0
 41108  1  0  0  0
 41109  1  0  0  0
 41110  1  0  0  0
 41 48  1  0  0  0
 42 43  1  0  0  0
 42 66  1  0  0  0
 42111  1  0  0  0
 42112  1  0  0  0
 43 44  1  0  0  0
 44113  1  0  0  0
 45 46  2  0  0  0
 45114  1  0  0  0
 46115  1  0  0  0
 47116  1  0  0  0
 47117  1  0  0  0
 48 56  1  0  0  0
 48 65  1  0  0  0
 48118  1  0  0  0
 49 50  1  0  0  0
 49 53  1  0  0  0
 49 64  1  0  0  0
 49119  1  0  0  0
 50 51  1  0  0  0
 50120  1  0  0  0
 50121  1  0  0  0
 51 52  1  0  0  0
 51122  1  0  0  0
 51123  1  0  0  0
 52124  1  0  0  0
 52125  1  0  0  0
 53 54  1  0  0  0
 54 55  2  0  0  0
 54126  1  0  0  0
 55 57  1  0  0  0
 55127  1  0  0  0
 56 69  2  0  0  0
 57 58  2  0  0  0
 57128  1  0  0  0
 58129  1  0  0  0
 59 60  1  0  0  0
 59 61  1  0  0  0
 59 62  1  0  0  0
 60130  1  0  0  0
 60131  1  0  0  0
 60132  1  0  0  0
 61133  1  0  0  0
 61134  1  0  0  0
 61135  1  0  0  0
 62136  1  0  0  0
 62137  1  0  0  0
 62138  1  0  0  0
 63 65  1  0  0  0
 63139  1  0  0  0
 63140  1  0  0  0
 63141  1  0  0  0
 64142  1  0  0  0
 65143  1  0  0  0
 68 82  1  0  0  0
 71 73  2  0  0  0
 71 74  1  0  0  0
 71144  1  0  0  0
 72 75  2  0  0  0
 72 77  1  0  0  0
 72145  1  0  0  0
 73 75  1  0  0  0
 73 78  1  0  0  0
 74 76  2  0  0  0
 74 80  1  0  0  0
 75 81  1  0  0  0
 76 77  1  0  0  0
 76 83  1  0  0  0
 77 84  2  0  0  0
 78 79  2  0  0  0
 78146  1  0  0  0
 79 82  1  0  0  0
 79147  1  0  0  0
 80148  1  0  0  0
 80149  1  0  0  0
 80150  1  0  0  0
 81151  1  0  0  0
 81152  1  0  0  0
 81153  1  0  0  0
 82154  1  0  0  0
 82155  1  0  0  0
 83156  1  0  0  0
M  ISO  4   1 100  68 101  82 101  83 100
M  END
> <chiral flag>
0

> <version>
0

> <s_m_source_file>
/data/baiqing/PycharmProjects/Reinvent-master-3.2/result/LINK_invent/BTK/process_docking_weight1_custom_product_contain_oxygen_bond_distance_aromatic_linkinvent_7_9_3/rearranged_h_0124.sdf

> <i_m_source_file_index>
46

> <r_mmod_Potential_Energy-OPLS-2005>
403.478179931641

> <r_mmod_Stretch_Energy-OPLS-2005>
202.737884521484

> <r_mmod_Bend_Energy-OPLS-2005>
322.670349121094

> <r_mmod_Torsional_Energy-OPLS-2005>
214.276489257812

> <r_mmod_Improper_Torsional_Energy-OPLS-2005>
9.84884643554688

> <r_mmod_Van_der_Waal_Energy-OPLS-2005>
147.561950683594

> <r_mmod_Electrostatic_Energy-OPLS-2005>
-463.383544921875

> <r_mmod_Solvation_Energy-OPLS-2005>
-196.814636230469

> <b_mmod_Minimization_Converged-OPLS-2005>
0

> <r_mmod_RMS_Derivative-OPLS-2005>
3.81427717208862

$$$$
46
                    3D
 Structure written by MMmdl.
157165  0  0  1  0            999 V2000
  -30.7500  -14.3966   20.6587 C   0  0  0  0  0  0
  -30.4193  -12.2987   19.3997 C   0  0  0  0  0  0
  -29.4845  -12.5165   18.1944 C   0  0  0  0  0  0
  -28.0094  -12.3695   18.6142 C   0  0  0  0  0  0
  -27.6636  -13.2015   19.8774 C   0  0  2  0  0  0
  -28.7031  -12.9570   20.9934 C   0  0  0  0  0  0
  -25.2594  -13.8150   20.5669 C   0  0  0  0  0  0
  -24.1838  -13.0436   20.9171 C   0  0  0  0  0  0
  -24.6385  -11.6901   20.8734 C   0  0  0  0  0  0
  -23.9052  -10.4291   21.0406 C   0  0  0  0  0  0
  -24.3608   -9.4208   21.9186 C   0  0  0  0  0  0
  -23.6286   -8.2242   22.0756 C   0  0  0  0  0  0
  -22.4269   -8.0279   21.3545 C   0  0  0  0  0  0
  -21.9903   -9.0251   20.4646 C   0  0  0  0  0  0
  -22.7226  -10.2132   20.3056 C   0  0  0  0  0  0
  -21.6850   -6.0737   22.5278 C   0  0  0  0  0  0
  -21.4012   -6.5642   23.8212 C   0  0  0  0  0  0
  -21.3658   -5.6793   24.9174 C   0  0  0  0  0  0
  -21.6041   -4.3055   24.7223 C   0  0  0  0  0  0
  -21.8821   -3.8149   23.4344 C   0  0  0  0  0  0
  -21.9192   -4.6966   22.3401 C   0  0  0  0  0  0
  -22.7862  -13.5241   21.1837 C   0  0  0  0  0  0
  -22.1661   -4.2153   21.0977 F   0  0  0  0  0  0
  -21.5629   -3.4539   25.7736 F   0  0  0  0  0  0
  -30.0392  -13.2579   20.4477 N   0  0  0  0  0  0
  -26.3029  -12.9310   20.3372 N   0  0  0  0  0  0
  -25.9309  -11.6476   20.5766 N   0  0  0  0  0  0
  -22.0496  -12.8239   22.0390 N   0  0  0  0  0  0
  -25.4331  -15.1865   20.4057 N   0  0  0  0  0  0
  -31.8240  -14.6346   20.0968 O   0  0  0  0  0  0
  -21.6635   -6.8877   21.4239 O   0  0  0  0  0  0
  -22.3555  -14.5553   20.6687 O   0  0  0  0  0  0
  -24.6101  -31.8704   23.2126 C   0  0  0  0  0  0
  -25.9010  -32.4839   23.8413 C   0  0  1  0  0  0
  -27.2364  -27.4706   20.0920 C   0  0  0  0  0  0
  -25.5881  -33.8637   24.2344 N   0  0  0  0  0  0
  -23.3975  -30.4933   21.5508 C   0  0  2  0  0  0
  -24.8471  -28.9617   20.1160 C   0  0  0  0  0  0
  -22.7389  -29.4661   22.4991 C   0  0  0  0  0  0
  -18.0265  -28.1369   22.8482 C   0  0  0  0  0  0
  -24.1488  -36.7325   23.2638 C   0  0  0  0  0  0
  -25.9223  -30.8464   21.3612 C   0  0  0  0  0  0
  -26.0027  -29.4805   20.7156 C   0  0  0  0  0  0
  -27.2029  -28.7384   20.7091 C   0  0  0  0  0  0
  -26.0722  -26.9560   19.4896 C   0  0  0  0  0  0
  -24.8737  -27.6954   19.5039 C   0  0  0  0  0  0
  -23.6065  -29.8248   20.1652 C   0  0  0  0  0  0
  -25.4108  -36.3121   24.0340 C   0  0  1  0  0  0
  -20.5853  -28.3642   23.1328 C   0  0  2  0  0  0
  -20.6759  -26.9381   22.5420 C   0  0  0  0  0  0
  -19.5741  -26.6381   21.5205 C   0  0  0  0  0  0
  -18.1914  -26.7916   22.1615 C   0  0  0  0  0  0
  -19.1514  -28.8821   23.2905 C   0  0  0  0  0  0
  -18.9450  -30.1430   23.8913 C   0  0  0  0  0  0
  -17.6455  -30.6577   24.0560 C   0  0  0  0  0  0
  -25.9031  -34.9484   23.5137 C   0  0  0  0  0  0
  -16.5343  -29.9083   23.6323 C   0  0  0  0  0  0
  -16.7256  -28.6500   23.0339 C   0  0  0  0  0  0
  -26.4460  -31.6610   25.0723 C   0  0  0  0  0  0
  -25.3747  -31.3705   26.1488 C   0  0  0  0  0  0
  -27.0292  -30.3060   24.6060 C   0  0  0  0  0  0
  -27.6036  -32.4334   25.7483 C   0  0  0  0  0  0
  -27.5580  -37.1815   24.8463 C   0  0  0  0  0  0
  -21.4118  -29.3022   22.3744 N   0  0  0  0  0  0
  -26.4297  -37.3801   23.9405 N   0  0  0  0  0  0
  -24.6611  -31.0841   22.1005 N   0  0  0  0  0  0
  -23.4181  -28.8192   23.3007 O   0  0  0  0  0  0
  -28.3878  -26.7306   20.0458 O   0  0  0  0  0  0
  -26.5596  -34.8929   22.4697 O   0  0  0  0  0  0
  -23.5303  -32.1436   23.7543 O   0  0  0  0  0  0
  -30.1767  -17.7500   21.7469 C   0  0  0  0  0  0
  -31.9862  -18.8401   22.9673 C   0  0  0  0  0  0
  -31.9827  -16.4176   22.7076 C   0  0  0  0  0  0
  -30.7822  -18.9363   22.2380 C   0  0  0  0  0  0
  -30.7833  -16.4888   21.9644 C   0  0  0  0  0  0
  -32.5795  -17.5897   23.2063 C   0  0  0  0  0  0
  -30.7492  -22.6283   21.6873 C   0  0  0  0  0  0
  -30.2096  -20.2921   21.9706 C   0  0  0  0  0  0
  -29.4192  -23.2767   21.3043 C   0  0  0  0  0  0
  -29.5865  -24.7950   20.9526 C   0  0  0  0  0  0
  -28.6557  -26.0094   21.2496 C   0  0  0  0  0  0
  -31.0208  -21.3961   21.9275 N   0  0  0  0  0  0
  -30.1735  -15.2971   21.4738 N   0  0  0  0  0  0
  -28.9210  -20.3741   21.8218 N   0  3  0  0  0  0
  -33.7318  -17.5097   23.9173 F   0  0  0  0  0  0
  -31.4611  -12.4030   19.0906 H   0  0  0  0  0  0
  -30.3251  -11.2793   19.7774 H   0  0  0  0  0  0
  -29.7199  -11.8053   17.4017 H   0  0  0  0  0  0
  -29.6502  -13.5100   17.7739 H   0  0  0  0  0  0
  -27.8230  -11.3119   18.8061 H   0  0  0  0  0  0
  -27.3533  -12.6481   17.7889 H   0  0  0  0  0  0
  -27.7178  -14.2532   19.5937 H   0  0  0  0  0  0
  -28.6724  -11.9142   21.3140 H   0  0  0  0  0  0
  -28.4547  -13.5357   21.8837 H   0  0  0  0  0  0
  -25.2754   -9.5685   22.4761 H   0  0  0  0  0  0
  -23.9997   -7.4635   22.7477 H   0  0  0  0  0  0
  -21.0838   -8.8765   19.8954 H   0  0  0  0  0  0
  -22.3684  -10.9670   19.6168 H   0  0  0  0  0  0
  -21.2005   -7.6151   23.9716 H   0  0  0  0  0  0
  -21.1478   -6.0525   25.9076 H   0  0  0  0  0  0
  -22.0601   -2.7613   23.2841 H   0  0  0  0  0  0
  -22.4097  -11.9891   22.4771 H   0  0  0  0  0  0
  -21.1118  -13.1273   22.2597 H   0  0  0  0  0  0
  -24.6650  -15.8419   20.5011 H   0  0  0  0  0  0
  -26.2833  -15.6190   20.0669 H   0  0  0  0  0  0
  -26.7085  -32.5574   23.1192 H   0  0  0  0  0  0
  -25.0031  -33.9815   25.0489 H   0  0  0  0  0  0
  -22.6827  -31.3075   21.4126 H   0  0  0  0  0  0
  -23.3741  -35.9666   23.3316 H   0  0  0  0  0  0
  -24.3578  -36.8926   22.2049 H   0  0  0  0  0  0
  -23.7257  -37.6541   23.6645 H   0  0  0  0  0  0
  -26.0296  -31.6114   20.5907 H   0  0  0  0  0  0
  -26.8122  -30.9043   21.9759 H   0  0  0  0  0  0
  -28.0984  -29.1353   21.1667 H   0  0  0  0  0  0
  -26.0961  -25.9851   19.0141 H   0  0  0  0  0  0
  -23.9851  -27.2897   19.0403 H   0  0  0  0  0  0
  -23.7116  -30.6002   19.4051 H   0  0  0  0  0  0
  -22.7326  -29.2415   19.8702 H   0  0  0  0  0  0
  -25.1283  -36.1985   25.0835 H   0  0  0  0  0  0
  -20.9954  -28.3208   24.1448 H   0  0  0  0  0  0
  -20.5663  -26.2240   23.3597 H   0  0  0  0  0  0
  -21.6630  -26.7432   22.1208 H   0  0  0  0  0  0
  -19.6905  -25.6298   21.1214 H   0  0  0  0  0  0
  -19.6697  -27.3212   20.6750 H   0  0  0  0  0  0
  -17.4190  -26.6665   21.4011 H   0  0  0  0  0  0
  -18.0313  -26.0054   22.9012 H   0  0  0  0  0  0
  -19.7928  -30.7233   24.2292 H   0  0  0  0  0  0
  -17.5012  -31.6260   24.5155 H   0  0  0  0  0  0
  -15.5343  -30.2992   23.7636 H   0  0  0  0  0  0
  -15.8652  -28.0831   22.7039 H   0  0  0  0  0  0
  -24.5902  -30.7071   25.7828 H   0  0  0  0  0  0
  -24.8964  -32.2866   26.4965 H   0  0  0  0  0  0
  -25.8122  -30.8853   27.0223 H   0  0  0  0  0  0
  -26.2815  -29.6817   24.1149 H   0  0  0  0  0  0
  -27.4125  -29.7293   25.4486 H   0  0  0  0  0  0
  -27.8623  -30.4394   23.9153 H   0  0  0  0  0  0
  -27.2635  -33.3613   26.2093 H   0  0  0  0  0  0
  -28.3823  -32.6932   25.0301 H   0  0  0  0  0  0
  -28.0723  -31.8442   26.5375 H   0  0  0  0  0  0
  -28.2602  -38.0108   24.7502 H   0  0  0  0  0  0
  -28.1072  -36.2638   24.6293 H   0  0  0  0  0  0
  -27.2295  -37.1470   25.8866 H   0  0  0  0  0  0
  -20.9260  -29.8764   21.6998 H   0  0  0  0  0  0
  -26.0189  -38.2879   24.1415 H   0  0  0  0  0  0
  -29.2682  -17.8088   21.1693 H   0  0  0  0  0  0
  -32.4600  -19.7304   23.3474 H   0  0  0  0  0  0
  -32.4552  -15.4652   22.9012 H   0  0  0  0  0  0
  -31.5624  -23.3578   21.7406 H   0  0  0  0  0  0
  -28.7045  -23.1384   22.1191 H   0  0  0  0  0  0
  -29.0378  -22.6991   20.4561 H   0  0  0  0  0  0
  -29.7518  -24.8843   22.0291 H   0  0  0  0  0  0
  -28.7371  -24.5745   20.3055 H   0  0  0  0  0  0
  -29.1178  -26.7282   21.9351 H   0  0  0  0  0  0
  -27.7275  -25.6837   21.7315 H   0  0  0  0  0  0
  -29.2300  -15.0939   21.7711 H   0  0  0  0  0  0
  -28.3103  -19.5639   21.9062 H   0  0  0  0  0  0
  -28.4319  -21.2480   21.6667 H   0  0  0  0  0  0
  1 25  1  0  0  0
  1 30  2  0  0  0
  1 83  1  0  0  0
  2  3  1  0  0  0
  2 25  1  0  0  0
  2 86  1  0  0  0
  2 87  1  0  0  0
  3  4  1  0  0  0
  3 88  1  0  0  0
  3 89  1  0  0  0
  4  5  1  0  0  0
  4 90  1  0  0  0
  4 91  1  0  0  0
  5  6  1  0  0  0
  5 26  1  0  0  0
  5 92  1  0  0  0
  6 25  1  0  0  0
  6 93  1  0  0  0
  6 94  1  0  0  0
  7  8  2  0  0  0
  7 26  1  0  0  0
  7 29  1  0  0  0
  8  9  1  0  0  0
  8 22  1  0  0  0
  9 10  1  0  0  0
  9 27  2  0  0  0
 10 11  2  0  0  0
 10 15  1  0  0  0
 11 12  1  0  0  0
 11 95  1  0  0  0
 12 13  2  0  0  0
 12 96  1  0  0  0
 13 14  1  0  0  0
 13 31  1  0  0  0
 14 15  2  0  0  0
 14 97  1  0  0  0
 15 98  1  0  0  0
 16 17  2  0  0  0
 16 21  1  0  0  0
 16 31  1  0  0  0
 17 18  1  0  0  0
 17 99  1  0  0  0
 18 19  2  0  0  0
 18100  1  0  0  0
 19 20  1  0  0  0
 19 24  1  0  0  0
 20 21  2  0  0  0
 20101  1  0  0  0
 21 23  1  0  0  0
 22 28  1  0  0  0
 22 32  2  0  0  0
 26 27  1  0  0  0
 28102  1  0  0  0
 28103  1  0  0  0
 29104  1  0  0  0
 29105  1  0  0  0
 33 34  1  0  0  0
 33 66  1  0  0  0
 33 70  2  0  0  0
 34 36  1  0  0  0
 34 59  1  0  0  0
 34106  1  0  0  0
 35 44  2  0  0  0
 35 45  1  0  0  0
 35 68  1  0  0  0
 36 56  1  0  0  0
 36107  1  0  0  0
 37 39  1  0  0  0
 37 47  1  0  0  0
 37 66  1  0  0  0
 37108  1  0  0  0
 38 43  2  0  0  0
 38 46  1  0  0  0
 38 47  1  0  0  0
 39 64  1  0  0  0
 39 67  2  0  0  0
 40 52  1  0  0  0
 40 53  2  0  0  0
 40 58  1  0  0  0
 41109  1  0  0  0
 41110  1  0  0  0
 41111  1  0  0  0
 41 48  1  0  0  0
 42 43  1  0  0  0
 42 66  1  0  0  0
 42112  1  0  0  0
 42113  1  0  0  0
 43 44  1  0  0  0
 44114  1  0  0  0
 45 46  2  0  0  0
 45115  1  0  0  0
 46116  1  0  0  0
 47117  1  0  0  0
 47118  1  0  0  0
 48 56  1  0  0  0
 48 65  1  0  0  0
 48119  1  0  0  0
 49 50  1  0  0  0
 49 53  1  0  0  0
 49 64  1  0  0  0
 49120  1  0  0  0
 50 51  1  0  0  0
 50121  1  0  0  0
 50122  1  0  0  0
 51 52  1  0  0  0
 51123  1  0  0  0
 51124  1  0  0  0
 52125  1  0  0  0
 52126  1  0  0  0
 53 54  1  0  0  0
 54 55  2  0  0  0
 54127  1  0  0  0
 55 57  1  0  0  0
 55128  1  0  0  0
 56 69  2  0  0  0
 57 58  2  0  0  0
 57129  1  0  0  0
 58130  1  0  0  0
 59 60  1  0  0  0
 59 61  1  0  0  0
 59 62  1  0  0  0
 60131  1  0  0  0
 60132  1  0  0  0
 60133  1  0  0  0
 61134  1  0  0  0
 61135  1  0  0  0
 61136  1  0  0  0
 62137  1  0  0  0
 62138  1  0  0  0
 62139  1  0  0  0
 63 65  1  0  0  0
 63140  1  0  0  0
 63141  1  0  0  0
 63142  1  0  0  0
 64143  1  0  0  0
 65144  1  0  0  0
 68 81  1  0  0  0
 71 74  2  0  0  0
 71 75  1  0  0  0
 71145  1  0  0  0
 72 74  1  0  0  0
 72 76  2  0  0  0
 72146  1  0  0  0
 73 75  2  0  0  0
 73 76  1  0  0  0
 73147  1  0  0  0
 74 78  1  0  0  0
 75 83  1  0  0  0
 76 85  1  0  0  0
 77 79  1  0  0  0
 77 82  2  0  0  0
 77148  1  0  0  0
 78 82  1  0  0  0
 78 84  2  0  0  0
 79 80  1  0  0  0
 79149  1  0  0  0
 79150  1  0  0  0
 80 81  1  0  0  0
 80151  1  0  0  0
 80152  1  0  0  0
 81153  1  0  0  0
 81154  1  0  0  0
 83155  1  0  0  0
 84156  1  0  0  0
 84157  1  0  0  0
M  CHG  1  84   1
M  ISO  4   1 100  68 101  81 101  83 100
M  END
> <chiral flag>
0

> <version>
0

> <s_m_source_file>
/data/baiqing/PycharmProjects/Reinvent-master-3.2/result/LINK_invent/BTK/process_docking_weight1_custom_product_contain_oxygen_bond_distance_aromatic_linkinvent_7_9_3/rearranged_h_0124.sdf

> <i_m_source_file_index>
47

> <r_mmod_Potential_Energy-OPLS-2005>
191.63801574707

> <r_mmod_Stretch_Energy-OPLS-2005>
41.2594604492188

> <r_mmod_Bend_Energy-OPLS-2005>
339.557006835938

> <r_mmod_Torsional_Energy-OPLS-2005>
262.161407470703

> <r_mmod_Improper_Torsional_Energy-OPLS-2005>
2.25320935249329

> <r_mmod_Van_der_Waal_Energy-OPLS-2005>
185.672515869141

> <r_mmod_Electrostatic_Energy-OPLS-2005>
-155.429428100586

> <r_mmod_Solvation_Energy-OPLS-2005>
-490.918731689453

> <b_mmod_Minimization_Converged-OPLS-2005>
0

> <r_mmod_RMS_Derivative-OPLS-2005>
0.904815077781677

$$$$
47
                    3D
 Structure written by MMmdl.
155163  0  0  1  0            999 V2000
  -30.7263  -14.5009   20.7174 C   0  0  0  0  0  0
  -30.4351  -12.4141   19.4182 C   0  0  0  0  0  0
  -29.4605  -12.5382   18.2259 C   0  0  0  0  0  0
  -28.0179  -12.2963   18.6962 C   0  0  0  0  0  0
  -27.6482  -13.2011   19.8815 C   0  0  2  0  0  0
  -28.6895  -13.0527   21.0131 C   0  0  0  0  0  0
  -25.2525  -13.8113   20.5685 C   0  0  0  0  0  0
  -24.1688  -13.0476   20.9158 C   0  0  0  0  0  0
  -24.6208  -11.6969   20.8683 C   0  0  0  0  0  0
  -23.8924  -10.4359   21.0386 C   0  0  0  0  0  0
  -24.3601   -9.4322   21.9183 C   0  0  0  0  0  0
  -23.6336   -8.2328   22.0725 C   0  0  0  0  0  0
  -22.4313   -8.0364   21.3536 C   0  0  0  0  0  0
  -21.9892   -9.0263   20.4628 C   0  0  0  0  0  0
  -22.7116  -10.2197   20.3043 C   0  0  0  0  0  0
  -21.6892   -6.0781   22.5292 C   0  0  0  0  0  0
  -21.4038   -6.5649   23.8193 C   0  0  0  0  0  0
  -21.3652   -5.6808   24.9133 C   0  0  0  0  0  0
  -21.5992   -4.3030   24.7219 C   0  0  0  0  0  0
  -21.8822   -3.8170   23.4302 C   0  0  0  0  0  0
  -21.9201   -4.7018   22.3379 C   0  0  0  0  0  0
  -22.7717  -13.5283   21.1863 C   0  0  0  0  0  0
  -22.1684   -4.2178   21.0979 F   0  0  0  0  0  0
  -21.5610   -3.4552   25.7727 F   0  0  0  0  0  0
  -30.0254  -13.3577   20.4819 N   0  0  0  0  0  0
  -26.2884  -12.9259   20.3399 N   0  0  0  0  0  0
  -25.9171  -11.6460   20.5820 N   0  0  0  0  0  0
  -22.0430  -12.8281   22.0476 N   0  0  0  0  0  0
  -25.4271  -15.1857   20.4132 N   0  0  0  0  0  0
  -31.7902  -14.7299   20.1320 O   0  0  0  0  0  0
  -21.6663   -6.9007   21.4293 O   0  0  0  0  0  0
  -22.3493  -14.5606   20.6751 O   0  0  0  0  0  0
  -24.6105  -31.8706   23.2153 C   0  0  0  0  0  0
  -25.9001  -32.4852   23.8430 C   0  0  1  0  0  0
  -27.1768  -27.4072   20.1194 C   0  0  0  0  0  0
  -25.5887  -33.8658   24.2378 N   0  0  0  0  0  0
  -23.3937  -30.5041   21.5505 C   0  0  2  0  0  0
  -24.8414  -28.9991   20.0726 C   0  0  0  0  0  0
  -22.7383  -29.4696   22.4939 C   0  0  0  0  0  0
  -18.0275  -28.1371   22.8487 C   0  0  0  0  0  0
  -24.1515  -36.7343   23.2631 C   0  0  0  0  0  0
  -25.9246  -30.8321   21.3741 C   0  0  0  0  0  0
  -25.9944  -29.4717   20.7113 C   0  0  0  0  0  0
  -27.1720  -28.6852   20.7298 C   0  0  0  0  0  0
  -26.0227  -26.9763   19.4266 C   0  0  0  0  0  0
  -24.8583  -27.7604   19.4128 C   0  0  0  0  0  0
  -23.5960  -29.8566   20.1505 C   0  0  0  0  0  0
  -25.4118  -36.3140   24.0354 C   0  0  1  0  0  0
  -20.5871  -28.3674   23.1298 C   0  0  2  0  0  0
  -20.6770  -26.9418   22.5378 C   0  0  0  0  0  0
  -19.5733  -26.6401   21.5181 C   0  0  0  0  0  0
  -18.1932  -26.7912   22.1622 C   0  0  0  0  0  0
  -19.1528  -28.8830   23.2897 C   0  0  0  0  0  0
  -18.9455  -30.1437   23.8912 C   0  0  0  0  0  0
  -17.6454  -30.6580   24.0570 C   0  0  0  0  0  0
  -25.9028  -34.9501   23.5168 C   0  0  0  0  0  0
  -16.5345  -29.9091   23.6320 C   0  0  0  0  0  0
  -16.7261  -28.6503   23.0350 C   0  0  0  0  0  0
  -26.4448  -31.6602   25.0728 C   0  0  0  0  0  0
  -25.3742  -31.3688   26.1507 C   0  0  0  0  0  0
  -27.0287  -30.3046   24.6093 C   0  0  0  0  0  0
  -27.6073  -32.4295   25.7477 C   0  0  0  0  0  0
  -27.5592  -37.1824   24.8462 C   0  0  0  0  0  0
  -21.4116  -29.3046   22.3700 N   0  0  0  0  0  0
  -26.4301  -37.3803   23.9419 N   0  0  0  0  0  0
  -24.6615  -31.0834   22.1037 N   0  0  0  0  0  0
  -23.4197  -28.8209   23.2926 O   0  0  0  0  0  0
  -28.2293  -26.5254   20.2695 O   0  0  0  0  0  0
  -26.5571  -34.8927   22.4719 O   0  0  0  0  0  0
  -23.5312  -32.1461   23.7564 O   0  0  0  0  0  0
  -28.8254  -19.3619   19.6872 C   0  0  0  0  0  0
  -27.3977  -20.2281   17.9223 C   0  0  0  0  0  0
  -27.5286  -17.8408   18.2994 C   0  0  0  0  0  0
  -28.2725  -20.4838   19.0055 C   0  0  0  0  0  0
  -28.4446  -18.0114   19.3674 C   0  0  0  0  0  0
  -27.0879  -18.9304   17.5348 C   0  0  0  0  0  0
  -27.9673  -22.6915   20.3187 C   0  0  0  0  0  0
  -28.2336  -24.0320   20.5179 C   0  0  0  0  0  0
  -29.4337  -16.7626   21.1644 C   0  0  0  0  0  0
  -28.6733  -21.8953   19.2956 C   0  0  0  0  0  0
  -27.8622  -25.4023   21.1184 C   0  0  0  0  0  0
  -30.2398  -15.5667   21.7506 C   0  0  0  0  0  0
  -29.6209  -22.4498   18.6578 N   0  0  0  0  0  0
  -29.0073  -16.8553   19.9567 N   0  0  0  0  0  0
  -26.3790  -18.7393   16.3985 F   0  0  0  0  0  0
  -31.4616  -12.5855   19.0812 H   0  0  0  0  0  0
  -30.4182  -11.4073   19.8393 H   0  0  0  0  0  0
  -29.7385  -11.8214   17.4542 H   0  0  0  0  0  0
  -29.5218  -13.5334   17.7865 H   0  0  0  0  0  0
  -27.9588  -11.2487   19.0072 H   0  0  0  0  0  0
  -27.2981  -12.4094   17.8797 H   0  0  0  0  0  0
  -27.6684  -14.2230   19.5255 H   0  0  0  0  0  0
  -28.6586  -12.0600   21.4490 H   0  0  0  0  0  0
  -28.4172  -13.6900   21.8370 H   0  0  0  0  0  0
  -25.2836   -9.5825   22.4682 H   0  0  0  0  0  0
  -24.0044   -7.4775   22.7476 H   0  0  0  0  0  0
  -21.0767   -8.8757   19.9041 H   0  0  0  0  0  0
  -22.3507  -10.9726   19.6122 H   0  0  0  0  0  0
  -21.2040   -7.6178   23.9690 H   0  0  0  0  0  0
  -21.1489   -6.0549   25.9025 H   0  0  0  0  0  0
  -22.0623   -2.7673   23.2780 H   0  0  0  0  0  0
  -22.4004  -11.9958   22.4951 H   0  0  0  0  0  0
  -21.1234  -13.1464   22.2943 H   0  0  0  0  0  0
  -24.6675  -15.8619   20.5054 H   0  0  0  0  0  0
  -26.3014  -15.5935   20.1052 H   0  0  0  0  0  0
  -26.7074  -32.5569   23.1205 H   0  0  0  0  0  0
  -25.0101  -33.9845   25.0563 H   0  0  0  0  0  0
  -22.6789  -31.3229   21.4291 H   0  0  0  0  0  0
  -23.3771  -35.9671   23.3267 H   0  0  0  0  0  0
  -24.3609  -36.8959   22.2039 H   0  0  0  0  0  0
  -23.7247  -37.6556   23.6625 H   0  0  0  0  0  0
  -26.0442  -31.6112   20.6202 H   0  0  0  0  0  0
  -26.8072  -30.8754   21.9971 H   0  0  0  0  0  0
  -28.0483  -29.0117   21.2720 H   0  0  0  0  0  0
  -25.9880  -26.0132   18.9318 H   0  0  0  0  0  0
  -23.9886  -27.4121   18.8731 H   0  0  0  0  0  0
  -23.6791  -30.6449   19.4019 H   0  0  0  0  0  0
  -22.7150  -29.2786   19.8592 H   0  0  0  0  0  0
  -25.1285  -36.2048   25.0835 H   0  0  0  0  0  0
  -20.9981  -28.3242   24.1406 H   0  0  0  0  0  0
  -20.5704  -26.2274   23.3564 H   0  0  0  0  0  0
  -21.6649  -26.7485   22.1150 H   0  0  0  0  0  0
  -19.6914  -25.6323   21.1198 H   0  0  0  0  0  0
  -19.6659  -27.3232   20.6729 H   0  0  0  0  0  0
  -17.4187  -26.6636   21.4051 H   0  0  0  0  0  0
  -18.0375  -26.0060   22.9033 H   0  0  0  0  0  0
  -19.7940  -30.7245   24.2303 H   0  0  0  0  0  0
  -17.5020  -31.6268   24.5171 H   0  0  0  0  0  0
  -15.5357  -30.3003   23.7628 H   0  0  0  0  0  0
  -15.8660  -28.0827   22.7055 H   0  0  0  0  0  0
  -24.5862  -30.7113   25.7798 H   0  0  0  0  0  0
  -24.9007  -32.2854   26.5057 H   0  0  0  0  0  0
  -25.8087  -30.8738   27.0211 H   0  0  0  0  0  0
  -26.2828  -29.6823   24.1133 H   0  0  0  0  0  0
  -27.4047  -29.7264   25.4546 H   0  0  0  0  0  0
  -27.8677  -30.4371   23.9254 H   0  0  0  0  0  0
  -27.2734  -33.3581   26.2138 H   0  0  0  0  0  0
  -28.3838  -32.6882   25.0255 H   0  0  0  0  0  0
  -28.0816  -31.8371   26.5328 H   0  0  0  0  0  0
  -28.2627  -38.0113   24.7540 H   0  0  0  0  0  0
  -28.1091  -36.2657   24.6285 H   0  0  0  0  0  0
  -27.2308  -37.1459   25.8859 H   0  0  0  0  0  0
  -20.9246  -29.8805   21.6981 H   0  0  0  0  0  0
  -26.0234  -38.2907   24.1369 H   0  0  0  0  0  0
  -29.5486  -19.5716   20.4655 H   0  0  0  0  0  0
  -26.9636  -21.0166   17.3394 H   0  0  0  0  0  0
  -27.1742  -16.8459   18.0579 H   0  0  0  0  0  0
  -27.2197  -22.0790   20.8246 H   0  0  0  0  0  0
  -27.6727  -23.7852   21.4059 H   0  0  0  0  0  0
  -29.2702  -17.5697   21.8913 H   0  0  0  0  0  0
  -28.3068  -25.5726   22.1048 H   0  0  0  0  0  0
  -26.7783  -25.4300   21.3153 H   0  0  0  0  0  0
  -31.1574  -15.9654   22.1973 H   0  0  0  0  0  0
  -29.7265  -15.1090   22.5994 H   0  0  0  0  0  0
  -30.0988  -21.8208   18.0272 H   0  0  0  0  0  0
  1 25  1  0  0  0
  1 30  2  0  0  0
  1 82  1  0  0  0
  2  3  1  0  0  0
  2 25  1  0  0  0
  2 86  1  0  0  0
  2 87  1  0  0  0
  3  4  1  0  0  0
  3 88  1  0  0  0
  3 89  1  0  0  0
  4  5  1  0  0  0
  4 90  1  0  0  0
  4 91  1  0  0  0
  5  6  1  0  0  0
  5 26  1  0  0  0
  5 92  1  0  0  0
  6 25  1  0  0  0
  6 93  1  0  0  0
  6 94  1  0  0  0
  7  8  2  0  0  0
  7 26  1  0  0  0
  7 29  1  0  0  0
  8  9  1  0  0  0
  8 22  1  0  0  0
  9 10  1  0  0  0
  9 27  2  0  0  0
 10 11  2  0  0  0
 10 15  1  0  0  0
 11 12  1  0  0  0
 11 95  1  0  0  0
 12 13  2  0  0  0
 12 96  1  0  0  0
 13 14  1  0  0  0
 13 31  1  0  0  0
 14 15  2  0  0  0
 14 97  1  0  0  0
 15 98  1  0  0  0
 16 17  2  0  0  0
 16 21  1  0  0  0
 16 31  1  0  0  0
 17 18  1  0  0  0
 17 99  1  0  0  0
 18 19  2  0  0  0
 18100  1  0  0  0
 19 20  1  0  0  0
 19 24  1  0  0  0
 20 21  2  0  0  0
 20101  1  0  0  0
 21 23  1  0  0  0
 22 28  1  0  0  0
 22 32  2  0  0  0
 26 27  1  0  0  0
 28102  1  0  0  0
 28103  1  0  0  0
 29104  1  0  0  0
 29105  1  0  0  0
 33 34  1  0  0  0
 33 66  1  0  0  0
 33 70  2  0  0  0
 34 36  1  0  0  0
 34 59  1  0  0  0
 34106  1  0  0  0
 35 44  2  0  0  0
 35 45  1  0  0  0
 35 68  1  0  0  0
 36 56  1  0  0  0
 36107  1  0  0  0
 37 39  1  0  0  0
 37 47  1  0  0  0
 37 66  1  0  0  0
 37108  1  0  0  0
 38 43  2  0  0  0
 38 46  1  0  0  0
 38 47  1  0  0  0
 39 64  1  0  0  0
 39 67  2  0  0  0
 40 52  1  0  0  0
 40 53  2  0  0  0
 40 58  1  0  0  0
 41109  1  0  0  0
 41110  1  0  0  0
 41111  1  0  0  0
 41 48  1  0  0  0
 42 43  1  0  0  0
 42 66  1  0  0  0
 42112  1  0  0  0
 42113  1  0  0  0
 43 44  1  0  0  0
 44114  1  0  0  0
 45 46  2  0  0  0
 45115  1  0  0  0
 46116  1  0  0  0
 47117  1  0  0  0
 47118  1  0  0  0
 48 56  1  0  0  0
 48 65  1  0  0  0
 48119  1  0  0  0
 49 50  1  0  0  0
 49 53  1  0  0  0
 49 64  1  0  0  0
 49120  1  0  0  0
 50 51  1  0  0  0
 50121  1  0  0  0
 50122  1  0  0  0
 51 52  1  0  0  0
 51123  1  0  0  0
 51124  1  0  0  0
 52125  1  0  0  0
 52126  1  0  0  0
 53 54  1  0  0  0
 54 55  2  0  0  0
 54127  1  0  0  0
 55 57  1  0  0  0
 55128  1  0  0  0
 56 69  2  0  0  0
 57 58  2  0  0  0
 57129  1  0  0  0
 58130  1  0  0  0
 59 60  1  0  0  0
 59 61  1  0  0  0
 59 62  1  0  0  0
 60131  1  0  0  0
 60132  1  0  0  0
 60133  1  0  0  0
 61134  1  0  0  0
 61135  1  0  0  0
 61136  1  0  0  0
 62137  1  0  0  0
 62138  1  0  0  0
 62139  1  0  0  0
 63 65  1  0  0  0
 63140  1  0  0  0
 63141  1  0  0  0
 63142  1  0  0  0
 64143  1  0  0  0
 65144  1  0  0  0
 68 81  1  0  0  0
 71 74  2  0  0  0
 71 75  1  0  0  0
 71145  1  0  0  0
 72 74  1  0  0  0
 72 76  2  0  0  0
 72146  1  0  0  0
 73 75  2  0  0  0
 73 76  1  0  0  0
 73147  1  0  0  0
 74 80  1  0  0  0
 75 84  1  0  0  0
 76 85  1  0  0  0
 77 78  2  0  0  0
 77 80  1  0  0  0
 77148  1  0  0  0
 78 81  1  0  0  0
 78149  1  0  0  0
 79 82  1  0  0  0
 79 84  2  0  0  0
 79150  1  0  0  0
 80 83  2  0  0  0
 81151  1  0  0  0
 81152  1  0  0  0
 82153  1  0  0  0
 82154  1  0  0  0
 83155  1  0  0  0
M  ISO  4   1 100  68 101  81 101  82 100
M  END
> <chiral flag>
0

> <version>
0

> <s_m_source_file>
/data/baiqing/PycharmProjects/Reinvent-master-3.2/result/LINK_invent/BTK/process_docking_weight1_custom_product_contain_oxygen_bond_distance_aromatic_linkinvent_7_9_3/rearranged_h_0124.sdf

> <i_m_source_file_index>
48

> <r_mmod_Potential_Energy-OPLS-2005>
276.157806396484

> <r_mmod_Stretch_Energy-OPLS-2005>
53.2397384643555

> <r_mmod_Bend_Energy-OPLS-2005>
331.11962890625

> <r_mmod_Torsional_Energy-OPLS-2005>
277.759063720703

> <r_mmod_Improper_Torsional_Energy-OPLS-2005>
10.4225444793701

> <r_mmod_Van_der_Waal_Energy-OPLS-2005>
162.326278686523

> <r_mmod_Electrostatic_Energy-OPLS-2005>
-379.440979003906

> <r_mmod_Solvation_Energy-OPLS-2005>
-216.448196411133

> <b_mmod_Minimization_Converged-OPLS-2005>
0

> <r_mmod_RMS_Derivative-OPLS-2005>
22.2915554046631

$$$$
48
                    3D
 Structure written by MMmdl.
156164  0  0  1  0            999 V2000
  -30.6131  -14.7395   20.4591 C   0  0  0  0  0  0
  -30.4327  -12.4522   19.4642 C   0  0  0  0  0  0
  -29.5070  -12.5014   18.2293 C   0  0  0  0  0  0
  -28.0335  -12.3262   18.6467 C   0  0  0  0  0  0
  -27.6391  -13.2296   19.8458 C   0  0  2  0  0  0
  -28.6864  -13.1669   20.9782 C   0  0  0  0  0  0
  -25.2496  -13.8186   20.5684 C   0  0  0  0  0  0
  -24.1792  -13.0433   20.9211 C   0  0  0  0  0  0
  -24.6386  -11.6913   20.8751 C   0  0  0  0  0  0
  -23.9063  -10.4290   21.0410 C   0  0  0  0  0  0
  -24.3615   -9.4204   21.9186 C   0  0  0  0  0  0
  -23.6290   -8.2240   22.0755 C   0  0  0  0  0  0
  -22.4275   -8.0279   21.3544 C   0  0  0  0  0  0
  -21.9909   -9.0250   20.4646 C   0  0  0  0  0  0
  -22.7237  -10.2128   20.3057 C   0  0  0  0  0  0
  -21.6851   -6.0731   22.5278 C   0  0  0  0  0  0
  -21.4014   -6.5636   23.8209 C   0  0  0  0  0  0
  -21.3659   -5.6790   24.9174 C   0  0  0  0  0  0
  -21.6044   -4.3052   24.7224 C   0  0  0  0  0  0
  -21.8820   -3.8144   23.4345 C   0  0  0  0  0  0
  -21.9191   -4.6960   22.3403 C   0  0  0  0  0  0
  -22.7813  -13.5216   21.1868 C   0  0  0  0  0  0
  -22.1662   -4.2145   21.0980 F   0  0  0  0  0  0
  -21.5627   -3.4539   25.7737 F   0  0  0  0  0  0
  -29.9843  -13.5173   20.3885 N   0  0  0  0  0  0
  -26.2923  -12.9394   20.3264 N   0  0  0  0  0  0
  -25.9314  -11.6538   20.5745 N   0  0  0  0  0  0
  -22.0462  -12.8206   22.0427 N   0  0  0  0  0  0
  -25.4161  -15.1910   20.4085 N   0  0  0  0  0  0
  -31.8125  -14.8230   20.1794 O   0  0  0  0  0  0
  -21.6639   -6.8876   21.4241 O   0  0  0  0  0  0
  -22.3501  -14.5524   20.6716 O   0  0  0  0  0  0
  -24.6303  -31.8546   23.1971 C   0  0  0  0  0  0
  -25.9136  -32.4750   23.8317 C   0  0  1  0  0  0
  -27.2235  -27.2694   20.1394 C   0  0  0  0  0  0
  -25.5936  -33.8549   24.2246 N   0  0  0  0  0  0
  -23.4265  -30.4748   21.5402 C   0  0  2  0  0  0
  -24.8750  -28.9147   20.1161 C   0  0  0  0  0  0
  -22.7499  -29.4592   22.4920 C   0  0  0  0  0  0
  -18.0285  -28.1384   22.8479 C   0  0  0  0  0  0
  -24.1488  -36.7281   23.2641 C   0  0  0  0  0  0
  -25.9706  -30.7715   21.3730 C   0  0  0  0  0  0
  -26.0462  -29.3918   20.7207 C   0  0  0  0  0  0
  -27.2271  -28.5833   20.7150 C   0  0  0  0  0  0
  -26.0312  -26.8464   19.5194 C   0  0  0  0  0  0
  -24.8722  -27.6495   19.5041 C   0  0  0  0  0  0
  -23.6455  -29.8027   20.1585 C   0  0  0  0  0  0
  -25.4116  -36.3069   24.0330 C   0  0  1  0  0  0
  -20.5889  -28.3691   23.1277 C   0  0  2  0  0  0
  -20.6774  -26.9409   22.5412 C   0  0  0  0  0  0
  -19.5754  -26.6379   21.5211 C   0  0  0  0  0  0
  -18.1930  -26.7924   22.1618 C   0  0  0  0  0  0
  -19.1541  -28.8855   23.2866 C   0  0  0  0  0  0
  -18.9466  -30.1452   23.8887 C   0  0  0  0  0  0
  -17.6470  -30.6588   24.0560 C   0  0  0  0  0  0
  -25.9062  -34.9438   23.5094 C   0  0  0  0  0  0
  -16.5358  -29.9085   23.6334 C   0  0  0  0  0  0
  -16.7273  -28.6502   23.0354 C   0  0  0  0  0  0
  -26.4499  -31.6575   25.0708 C   0  0  0  0  0  0
  -25.3722  -31.3728   26.1433 C   0  0  0  0  0  0
  -27.0349  -30.2997   24.6185 C   0  0  0  0  0  0
  -27.6050  -32.4315   25.7485 C   0  0  0  0  0  0
  -27.5574  -37.1790   24.8460 C   0  0  0  0  0  0
  -21.4206  -29.3036   22.3672 N   0  0  0  0  0  0
  -26.4285  -37.3773   23.9413 N   0  0  0  0  0  0
  -24.6950  -31.0524   22.0935 N   0  0  0  0  0  0
  -23.4203  -28.8142   23.3024 O   0  0  0  0  0  0
  -28.3283  -26.3971   20.1203 O   0  0  0  0  0  0
  -26.5636  -34.8919   22.4662 O   0  0  0  0  0  0
  -23.5458  -32.1357   23.7282 O   0  0  0  0  0  0
  -30.9348  -20.0348   21.3246 C   0  0  0  0  0  0
  -31.3559  -17.6199   21.4636 C   0  0  0  0  0  0
  -29.7457  -19.8532   20.5848 C   0  0  0  0  0  0
  -31.7307  -18.9489   21.7457 C   0  0  0  0  0  0
  -29.3705  -18.4613   20.3221 C   0  0  0  0  0  0
  -30.1744  -17.3141   20.7537 C   0  0  0  0  0  0
  -29.0036  -21.1393   20.1218 C   0  0  0  0  0  0
  -29.1114  -22.4549   20.5676 C   0  0  0  0  0  0
  -28.4472  -23.7168   19.9654 C   0  0  0  0  0  0
  -33.0195  -19.2118   22.5005 C   0  0  0  0  0  0
  -28.0938  -18.2123   19.5366 C   0  0  0  0  0  0
  -28.2195  -25.0648   20.8042 C   0  0  0  0  0  0
  -29.8209  -15.8776   20.5765 N   0  0  0  0  0  0
  -28.0497  -23.7087   18.7957 O   0  0  0  0  0  0
  -31.4727  -12.5791   19.1585 H   0  0  0  0  0  0
  -30.3792  -11.4772   19.9514 H   0  0  0  0  0  0
  -29.7886  -11.7260   17.5152 H   0  0  0  0  0  0
  -29.6316  -13.4542   17.7120 H   0  0  0  0  0  0
  -27.8918  -11.2782   18.9136 H   0  0  0  0  0  0
  -27.3749  -12.5145   17.7979 H   0  0  0  0  0  0
  -27.6305  -14.2489   19.4603 H   0  0  0  0  0  0
  -28.7223  -12.1707   21.4214 H   0  0  0  0  0  0
  -28.4245  -13.8530   21.7855 H   0  0  0  0  0  0
  -25.2758   -9.5679   22.4760 H   0  0  0  0  0  0
  -23.9995   -7.4632   22.7474 H   0  0  0  0  0  0
  -21.0840   -8.8769   19.8950 H   0  0  0  0  0  0
  -22.3698  -10.9666   19.6165 H   0  0  0  0  0  0
  -21.2011   -7.6144   23.9712 H   0  0  0  0  0  0
  -21.1481   -6.0521   25.9074 H   0  0  0  0  0  0
  -22.0600   -2.7605   23.2848 H   0  0  0  0  0  0
  -22.4085  -11.9869   22.4814 H   0  0  0  0  0  0
  -21.1079  -13.1226   22.2635 H   0  0  0  0  0  0
  -24.6418  -15.8375   20.5142 H   0  0  0  0  0  0
  -26.2511  -15.6320   20.0496 H   0  0  0  0  0  0
  -26.7203  -32.5409   23.1058 H   0  0  0  0  0  0
  -25.0066  -33.9675   25.0379 H   0  0  0  0  0  0
  -22.7228  -31.2965   21.3919 H   0  0  0  0  0  0
  -23.3755  -35.9607   23.3296 H   0  0  0  0  0  0
  -24.3579  -36.8915   22.2056 H   0  0  0  0  0  0
  -23.7235  -37.6476   23.6675 H   0  0  0  0  0  0
  -26.1056  -31.5308   20.6016 H   0  0  0  0  0  0
  -26.8496  -30.8250   22.0033 H   0  0  0  0  0  0
  -28.1297  -28.9490   21.1849 H   0  0  0  0  0  0
  -25.9951  -25.8743   19.0471 H   0  0  0  0  0  0
  -23.9754  -27.2783   19.0260 H   0  0  0  0  0  0
  -23.7699  -30.5762   19.4000 H   0  0  0  0  0  0
  -22.7645  -29.2345   19.8542 H   0  0  0  0  0  0
  -25.1291  -36.1910   25.0820 H   0  0  0  0  0  0
  -20.9966  -28.3273   24.1405 H   0  0  0  0  0  0
  -20.5679  -26.2295   23.3614 H   0  0  0  0  0  0
  -21.6641  -26.7434   22.1204 H   0  0  0  0  0  0
  -19.6922  -25.6290   21.1240 H   0  0  0  0  0  0
  -19.6705  -27.3191   20.6741 H   0  0  0  0  0  0
  -17.4201  -26.6668   21.4024 H   0  0  0  0  0  0
  -18.0331  -26.0067   22.9015 H   0  0  0  0  0  0
  -19.7944  -30.7258   24.2259 H   0  0  0  0  0  0
  -17.5028  -31.6272   24.5155 H   0  0  0  0  0  0
  -15.5359  -30.2988   23.7665 H   0  0  0  0  0  0
  -15.8668  -28.0823   22.7079 H   0  0  0  0  0  0
  -24.5907  -30.7068   25.7760 H   0  0  0  0  0  0
  -24.8904  -32.2897   26.4839 H   0  0  0  0  0  0
  -25.8040  -30.8920   27.0220 H   0  0  0  0  0  0
  -26.2927  -29.6744   24.1215 H   0  0  0  0  0  0
  -27.4042  -29.7269   25.4700 H   0  0  0  0  0  0
  -27.8799  -30.4275   23.9416 H   0  0  0  0  0  0
  -27.2655  -33.3624   26.2039 H   0  0  0  0  0  0
  -28.3872  -32.6861   25.0321 H   0  0  0  0  0  0
  -28.0703  -31.8456   26.5420 H   0  0  0  0  0  0
  -28.2576  -38.0099   24.7526 H   0  0  0  0  0  0
  -28.1087  -36.2634   24.6263 H   0  0  0  0  0  0
  -27.2300  -37.1406   25.8865 H   0  0  0  0  0  0
  -20.9400  -29.8747   21.6862 H   0  0  0  0  0  0
  -26.0166  -38.2843   24.1435 H   0  0  0  0  0  0
  -31.2770  -21.0345   21.5498 H   0  0  0  0  0  0
  -31.9916  -16.8228   21.8222 H   0  0  0  0  0  0
  -28.3350  -20.9845   19.2867 H   0  0  0  0  0  0
  -29.7480  -22.6537   21.4160 H   0  0  0  0  0  0
  -32.9761  -20.1572   23.0419 H   0  0  0  0  0  0
  -33.8608  -19.2542   21.8078 H   0  0  0  0  0  0
  -33.2156  -18.4208   23.2254 H   0  0  0  0  0  0
  -27.2483  -18.6985   20.0234 H   0  0  0  0  0  0
  -27.8570  -17.1544   19.4409 H   0  0  0  0  0  0
  -28.1874  -18.6203   18.5299 H   0  0  0  0  0  0
  -28.9404  -25.0630   21.6216 H   0  0  0  0  0  0
  -27.2405  -24.9887   21.2792 H   0  0  0  0  0  0
  -28.8328  -15.6819   20.5634 H   0  0  0  0  0  0
  1 25  1  0  0  0
  1 30  2  0  0  0
  1 83  1  0  0  0
  2  3  1  0  0  0
  2 25  1  0  0  0
  2 85  1  0  0  0
  2 86  1  0  0  0
  3  4  1  0  0  0
  3 87  1  0  0  0
  3 88  1  0  0  0
  4  5  1  0  0  0
  4 89  1  0  0  0
  4 90  1  0  0  0
  5  6  1  0  0  0
  5 26  1  0  0  0
  5 91  1  0  0  0
  6 25  1  0  0  0
  6 92  1  0  0  0
  6 93  1  0  0  0
  7  8  2  0  0  0
  7 26  1  0  0  0
  7 29  1  0  0  0
  8  9  1  0  0  0
  8 22  1  0  0  0
  9 10  1  0  0  0
  9 27  2  0  0  0
 10 11  2  0  0  0
 10 15  1  0  0  0
 11 12  1  0  0  0
 11 94  1  0  0  0
 12 13  2  0  0  0
 12 95  1  0  0  0
 13 14  1  0  0  0
 13 31  1  0  0  0
 14 15  2  0  0  0
 14 96  1  0  0  0
 15 97  1  0  0  0
 16 17  2  0  0  0
 16 21  1  0  0  0
 16 31  1  0  0  0
 17 18  1  0  0  0
 17 98  1  0  0  0
 18 19  2  0  0  0
 18 99  1  0  0  0
 19 20  1  0  0  0
 19 24  1  0  0  0
 20 21  2  0  0  0
 20100  1  0  0  0
 21 23  1  0  0  0
 22 28  1  0  0  0
 22 32  2  0  0  0
 26 27  1  0  0  0
 28101  1  0  0  0
 28102  1  0  0  0
 29103  1  0  0  0
 29104  1  0  0  0
 33 34  1  0  0  0
 33 66  1  0  0  0
 33 70  2  0  0  0
 34 36  1  0  0  0
 34 59  1  0  0  0
 34105  1  0  0  0
 35 44  2  0  0  0
 35 45  1  0  0  0
 35 68  1  0  0  0
 36 56  1  0  0  0
 36106  1  0  0  0
 37 39  1  0  0  0
 37 47  1  0  0  0
 37 66  1  0  0  0
 37107  1  0  0  0
 38 43  2  0  0  0
 38 46  1  0  0  0
 38 47  1  0  0  0
 39 64  1  0  0  0
 39 67  2  0  0  0
 40 52  1  0  0  0
 40 53  2  0  0  0
 40 58  1  0  0  0
 41108  1  0  0  0
 41109  1  0  0  0
 41110  1  0  0  0
 41 48  1  0  0  0
 42 43  1  0  0  0
 42 66  1  0  0  0
 42111  1  0  0  0
 42112  1  0  0  0
 43 44  1  0  0  0
 44113  1  0  0  0
 45 46  2  0  0  0
 45114  1  0  0  0
 46115  1  0  0  0
 47116  1  0  0  0
 47117  1  0  0  0
 48 56  1  0  0  0
 48 65  1  0  0  0
 48118  1  0  0  0
 49 50  1  0  0  0
 49 53  1  0  0  0
 49 64  1  0  0  0
 49119  1  0  0  0
 50 51  1  0  0  0
 50120  1  0  0  0
 50121  1  0  0  0
 51 52  1  0  0  0
 51122  1  0  0  0
 51123  1  0  0  0
 52124  1  0  0  0
 52125  1  0  0  0
 53 54  1  0  0  0
 54 55  2  0  0  0
 54126  1  0  0  0
 55 57  1  0  0  0
 55127  1  0  0  0
 56 69  2  0  0  0
 57 58  2  0  0  0
 57128  1  0  0  0
 58129  1  0  0  0
 59 60  1  0  0  0
 59 61  1  0  0  0
 59 62  1  0  0  0
 60130  1  0  0  0
 60131  1  0  0  0
 60132  1  0  0  0
 61133  1  0  0  0
 61134  1  0  0  0
 61135  1  0  0  0
 62136  1  0  0  0
 62137  1  0  0  0
 62138  1  0  0  0
 63 65  1  0  0  0
 63139  1  0  0  0
 63140  1  0  0  0
 63141  1  0  0  0
 64142  1  0  0  0
 65143  1  0  0  0
 68 82  1  0  0  0
 71 73  2  0  0  0
 71 74  1  0  0  0
 71144  1  0  0  0
 72 74  2  0  0  0
 72 76  1  0  0  0
 72145  1  0  0  0
 73 75  1  0  0  0
 73 77  1  0  0  0
 74 80  1  0  0  0
 75 76  2  0  0  0
 75 81  1  0  0  0
 76 83  1  0  0  0
 77 78  2  0  0  0
 77146  1  0  0  0
 78 79  1  0  0  0
 78147  1  0  0  0
 79 82  1  0  0  0
 79 84  2  0  0  0
 80148  1  0  0  0
 80149  1  0  0  0
 80150  1  0  0  0
 81151  1  0  0  0
 81152  1  0  0  0
 81153  1  0  0  0
 82154  1  0  0  0
 82155  1  0  0  0
 83156  1  0  0  0
M  ISO  4   1 100  68 101  82 101  83 100
M  END
> <chiral flag>
0

> <version>
0

> <s_m_source_file>
/data/baiqing/PycharmProjects/Reinvent-master-3.2/result/LINK_invent/BTK/process_docking_weight1_custom_product_contain_oxygen_bond_distance_aromatic_linkinvent_7_9_3/rearranged_h_0124.sdf

> <i_m_source_file_index>
49

> <r_mmod_Potential_Energy-OPLS-2005>
154.445907592773

> <r_mmod_Stretch_Energy-OPLS-2005>
125.209999084473

> <r_mmod_Bend_Energy-OPLS-2005>
149.334457397461

> <r_mmod_Torsional_Energy-OPLS-2005>
249.067932128906

> <r_mmod_Improper_Torsional_Energy-OPLS-2005>
6.93977737426758

> <r_mmod_Van_der_Waal_Energy-OPLS-2005>
133.20686340332

> <r_mmod_Electrostatic_Energy-OPLS-2005>
-364.462310791016

> <r_mmod_Solvation_Energy-OPLS-2005>
-225.291564941406

> <b_mmod_Minimization_Converged-OPLS-2005>
0

> <r_mmod_RMS_Derivative-OPLS-2005>
0.944141328334808

$$$$
49
                    3D
 Structure written by MMmdl.
158166  0  0  1  0            999 V2000
  -30.5885  -14.7570   20.4502 C   0  0  0  0  0  0
  -30.4338  -12.4614   19.4581 C   0  0  0  0  0  0
  -29.5059  -12.5022   18.2245 C   0  0  0  0  0  0
  -28.0330  -12.3202   18.6446 C   0  0  0  0  0  0
  -27.6361  -13.2265   19.8412 C   0  0  2  0  0  0
  -28.6840  -13.1655   20.9714 C   0  0  0  0  0  0
  -25.2499  -13.8182   20.5702 C   0  0  0  0  0  0
  -24.1799  -13.0430   20.9229 C   0  0  0  0  0  0
  -24.6386  -11.6908   20.8764 C   0  0  0  0  0  0
  -23.9067  -10.4282   21.0406 C   0  0  0  0  0  0
  -24.3622   -9.4196   21.9174 C   0  0  0  0  0  0
  -23.6302   -8.2230   22.0745 C   0  0  0  0  0  0
  -22.4284   -8.0269   21.3535 C   0  0  0  0  0  0
  -21.9917   -9.0241   20.4635 C   0  0  0  0  0  0
  -22.7242  -10.2118   20.3044 C   0  0  0  0  0  0
  -21.6844   -6.0735   22.5282 C   0  0  0  0  0  0
  -21.4011   -6.5630   23.8216 C   0  0  0  0  0  0
  -21.3668   -5.6785   24.9177 C   0  0  0  0  0  0
  -21.6043   -4.3050   24.7222 C   0  0  0  0  0  0
  -21.8823   -3.8141   23.4346 C   0  0  0  0  0  0
  -21.9193   -4.6963   22.3408 C   0  0  0  0  0  0
  -22.7817  -13.5204   21.1880 C   0  0  0  0  0  0
  -22.1658   -4.2147   21.0987 F   0  0  0  0  0  0
  -21.5634   -3.4540   25.7737 F   0  0  0  0  0  0
  -29.9759  -13.5258   20.3780 N   0  0  0  0  0  0
  -26.2908  -12.9376   20.3247 N   0  0  0  0  0  0
  -25.9309  -11.6523   20.5757 N   0  0  0  0  0  0
  -22.0468  -12.8188   22.0439 N   0  0  0  0  0  0
  -25.4180  -15.1911   20.4121 N   0  0  0  0  0  0
  -31.7954  -14.8534   20.2122 O   0  0  0  0  0  0
  -21.6641   -6.8875   21.4238 O   0  0  0  0  0  0
  -22.3506  -14.5507   20.6722 O   0  0  0  0  0  0
  -24.6292  -31.8549   23.1944 C   0  0  0  0  0  0
  -25.9106  -32.4755   23.8302 C   0  0  1  0  0  0
  -27.2224  -27.2643   20.1391 C   0  0  0  0  0  0
  -25.5907  -33.8562   24.2227 N   0  0  0  0  0  0
  -23.4271  -30.4729   21.5400 C   0  0  2  0  0  0
  -24.8734  -28.9091   20.1171 C   0  0  0  0  0  0
  -22.7512  -29.4597   22.4945 C   0  0  0  0  0  0
  -18.0289  -28.1381   22.8488 C   0  0  0  0  0  0
  -24.1484  -36.7294   23.2636 C   0  0  0  0  0  0
  -25.9702  -30.7703   21.3702 C   0  0  0  0  0  0
  -26.0441  -29.3884   20.7192 C   0  0  0  0  0  0
  -27.2238  -28.5798   20.7124 C   0  0  0  0  0  0
  -26.0332  -26.8432   19.5109 C   0  0  0  0  0  0
  -24.8725  -27.6449   19.5015 C   0  0  0  0  0  0
  -23.6435  -29.7964   20.1598 C   0  0  0  0  0  0
  -25.4114  -36.3087   24.0325 C   0  0  1  0  0  0
  -20.5893  -28.3694   23.1289 C   0  0  2  0  0  0
  -20.6768  -26.9412   22.5423 C   0  0  0  0  0  0
  -19.5742  -26.6378   21.5222 C   0  0  0  0  0  0
  -18.1925  -26.7923   22.1632 C   0  0  0  0  0  0
  -19.1544  -28.8855   23.2875 C   0  0  0  0  0  0
  -18.9464  -30.1461   23.8888 C   0  0  0  0  0  0
  -17.6460  -30.6583   24.0564 C   0  0  0  0  0  0
  -25.9063  -34.9453   23.5090 C   0  0  0  0  0  0
  -16.5352  -29.9085   23.6317 C   0  0  0  0  0  0
  -16.7273  -28.6501   23.0336 C   0  0  0  0  0  0
  -26.4466  -31.6584   25.0698 C   0  0  0  0  0  0
  -25.3682  -31.3744   26.1419 C   0  0  0  0  0  0
  -27.0285  -30.2987   24.6168 C   0  0  0  0  0  0
  -27.6020  -32.4334   25.7483 C   0  0  0  0  0  0
  -27.5586  -37.1805   24.8466 C   0  0  0  0  0  0
  -21.4218  -29.3048   22.3702 N   0  0  0  0  0  0
  -26.4289  -37.3791   23.9419 N   0  0  0  0  0  0
  -24.6949  -31.0515   22.0918 N   0  0  0  0  0  0
  -23.4222  -28.8151   23.3045 O   0  0  0  0  0  0
  -28.3454  -26.4104   20.1379 O   0  0  0  0  0  0
  -26.5664  -34.8936   22.4677 O   0  0  0  0  0  0
  -23.5445  -32.1369   23.7245 O   0  0  0  0  0  0
  -30.5595  -20.0607   21.5223 C   0  0  0  0  0  0
  -31.0591  -17.6556   21.6807 C   0  0  0  0  0  0
  -29.2927  -18.4465   20.2169 C   0  0  0  0  0  0
  -31.3106  -18.9910   22.0740 C   0  0  0  0  0  0
  -29.5356  -19.8422   20.5741 C   0  0  0  0  0  0
  -30.0488  -17.3210   20.7538 C   0  0  0  0  0  0
  -32.4734  -20.3392   23.8481 C   0  0  0  0  0  0
  -32.3259  -19.2216   23.1157 C   0  0  0  0  0  0
  -28.7939  -21.0657   19.9395 C   0  0  0  0  0  0
  -27.2707  -24.8405   21.8013 C   0  0  0  0  0  0
  -28.4451  -23.6776   19.7900 C   0  0  0  0  0  0
  -28.3354  -25.0108   20.7047 C   0  0  1  0  0  0
  -29.7684  -15.8828   20.4861 N   0  0  0  0  0  0
  -28.9263  -22.3617   20.4205 N   0  0  0  0  0  0
  -28.0777  -20.8554   18.9600 O   0  0  0  0  0  0
  -31.4720  -12.5984   19.1506 H   0  0  0  0  0  0
  -30.3883  -11.4880   19.9482 H   0  0  0  0  0  0
  -29.7912  -11.7260   17.5131 H   0  0  0  0  0  0
  -29.6243  -13.4531   17.7032 H   0  0  0  0  0  0
  -27.8991  -11.2734   18.9189 H   0  0  0  0  0  0
  -27.3690  -12.4971   17.7980 H   0  0  0  0  0  0
  -27.6246  -14.2455   19.4549 H   0  0  0  0  0  0
  -28.7299  -12.1671   21.4094 H   0  0  0  0  0  0
  -28.4226  -13.8491   21.7812 H   0  0  0  0  0  0
  -25.2761   -9.5672   22.4755 H   0  0  0  0  0  0
  -24.0010   -7.4625   22.7462 H   0  0  0  0  0  0
  -21.0843   -8.8750   19.8948 H   0  0  0  0  0  0
  -22.3690  -10.9658   19.6159 H   0  0  0  0  0  0
  -21.1995   -7.6141   23.9721 H   0  0  0  0  0  0
  -21.1488   -6.0513   25.9081 H   0  0  0  0  0  0
  -22.0597   -2.7606   23.2845 H   0  0  0  0  0  0
  -22.4083  -11.9855   22.4830 H   0  0  0  0  0  0
  -21.1080  -13.1185   22.2641 H   0  0  0  0  0  0
  -24.6483  -15.8415   20.5316 H   0  0  0  0  0  0
  -26.2568  -15.6355   20.0629 H   0  0  0  0  0  0
  -26.7195  -32.5400   23.1069 H   0  0  0  0  0  0
  -25.0003  -33.9696   25.0335 H   0  0  0  0  0  0
  -22.7206  -31.2926   21.3903 H   0  0  0  0  0  0
  -23.3758  -35.9617   23.3291 H   0  0  0  0  0  0
  -24.3566  -36.8921   22.2053 H   0  0  0  0  0  0
  -23.7229  -37.6484   23.6671 H   0  0  0  0  0  0
  -26.0994  -31.5249   20.5933 H   0  0  0  0  0  0
  -26.8512  -30.8291   21.9982 H   0  0  0  0  0  0
  -28.1264  -28.9446   21.1833 H   0  0  0  0  0  0
  -25.9985  -25.8715   19.0391 H   0  0  0  0  0  0
  -23.9756  -27.2725   19.0256 H   0  0  0  0  0  0
  -23.7671  -30.5662   19.3978 H   0  0  0  0  0  0
  -22.7621  -29.2279   19.8588 H   0  0  0  0  0  0
  -25.1299  -36.1929   25.0821 H   0  0  0  0  0  0
  -20.9969  -28.3245   24.1412 H   0  0  0  0  0  0
  -20.5654  -26.2297   23.3623 H   0  0  0  0  0  0
  -21.6630  -26.7427   22.1216 H   0  0  0  0  0  0
  -19.6898  -25.6287   21.1242 H   0  0  0  0  0  0
  -19.6664  -27.3190   20.6755 H   0  0  0  0  0  0
  -17.4196  -26.6676   21.4035 H   0  0  0  0  0  0
  -18.0325  -26.0063   22.9030 H   0  0  0  0  0  0
  -19.7944  -30.7287   24.2238 H   0  0  0  0  0  0
  -17.5011  -31.6254   24.5187 H   0  0  0  0  0  0
  -15.5350  -30.2988   23.7636 H   0  0  0  0  0  0
  -15.8673  -28.0827   22.7037 H   0  0  0  0  0  0
  -24.5856  -30.7094   25.7742 H   0  0  0  0  0  0
  -24.8865  -32.2918   26.4827 H   0  0  0  0  0  0
  -25.7981  -30.8927   27.0210 H   0  0  0  0  0  0
  -26.2842  -29.6776   24.1162 H   0  0  0  0  0  0
  -27.3922  -29.7217   25.4682 H   0  0  0  0  0  0
  -27.8752  -30.4245   23.9412 H   0  0  0  0  0  0
  -27.2607  -33.3644   26.2040 H   0  0  0  0  0  0
  -28.3839  -32.6889   25.0314 H   0  0  0  0  0  0
  -28.0676  -31.8469   26.5418 H   0  0  0  0  0  0
  -28.2605  -38.0098   24.7527 H   0  0  0  0  0  0
  -28.1081  -36.2639   24.6278 H   0  0  0  0  0  0
  -27.2312  -37.1437   25.8866 H   0  0  0  0  0  0
  -20.9415  -29.8757   21.6886 H   0  0  0  0  0  0
  -26.0168  -38.2867   24.1410 H   0  0  0  0  0  0
  -30.7844  -21.0734   21.8218 H   0  0  0  0  0  0
  -31.6369  -16.8650   22.1387 H   0  0  0  0  0  0
  -28.5090  -18.2423   19.5000 H   0  0  0  0  0  0
  -33.2584  -20.4086   24.5881 H   0  0  0  0  0  0
  -31.8269  -21.1975   23.7405 H   0  0  0  0  0  0
  -33.0190  -18.4107   23.2958 H   0  0  0  0  0  0
  -27.4157  -23.9049   22.3424 H   0  0  0  0  0  0
  -26.2636  -24.8196   21.3853 H   0  0  0  0  0  0
  -27.3169  -25.6531   22.5274 H   0  0  0  0  0  0
  -29.1386  -23.8961   18.9780 H   0  0  0  0  0  0
  -27.4840  -23.5060   19.3022 H   0  0  0  0  0  0
  -29.2819  -25.0110   21.2455 H   0  0  0  0  0  0
  -28.7939  -15.6650   20.3617 H   0  0  0  0  0  0
  -29.4938  -22.4636   21.2505 H   0  0  0  0  0  0
  1 25  1  0  0  0
  1 30  2  0  0  0
  1 83  1  0  0  0
  2  3  1  0  0  0
  2 25  1  0  0  0
  2 86  1  0  0  0
  2 87  1  0  0  0
  3  4  1  0  0  0
  3 88  1  0  0  0
  3 89  1  0  0  0
  4  5  1  0  0  0
  4 90  1  0  0  0
  4 91  1  0  0  0
  5  6  1  0  0  0
  5 26  1  0  0  0
  5 92  1  0  0  0
  6 25  1  0  0  0
  6 93  1  0  0  0
  6 94  1  0  0  0
  7  8  2  0  0  0
  7 26  1  0  0  0
  7 29  1  0  0  0
  8  9  1  0  0  0
  8 22  1  0  0  0
  9 10  1  0  0  0
  9 27  2  0  0  0
 10 11  2  0  0  0
 10 15  1  0  0  0
 11 12  1  0  0  0
 11 95  1  0  0  0
 12 13  2  0  0  0
 12 96  1  0  0  0
 13 14  1  0  0  0
 13 31  1  0  0  0
 14 15  2  0  0  0
 14 97  1  0  0  0
 15 98  1  0  0  0
 16 17  2  0  0  0
 16 21  1  0  0  0
 16 31  1  0  0  0
 17 18  1  0  0  0
 17 99  1  0  0  0
 18 19  2  0  0  0
 18100  1  0  0  0
 19 20  1  0  0  0
 19 24  1  0  0  0
 20 21  2  0  0  0
 20101  1  0  0  0
 21 23  1  0  0  0
 22 28  1  0  0  0
 22 32  2  0  0  0
 26 27  1  0  0  0
 28102  1  0  0  0
 28103  1  0  0  0
 29104  1  0  0  0
 29105  1  0  0  0
 33 34  1  0  0  0
 33 66  1  0  0  0
 33 70  2  0  0  0
 34 36  1  0  0  0
 34 59  1  0  0  0
 34106  1  0  0  0
 35 44  2  0  0  0
 35 45  1  0  0  0
 35 68  1  0  0  0
 36 56  1  0  0  0
 36107  1  0  0  0
 37 39  1  0  0  0
 37 47  1  0  0  0
 37 66  1  0  0  0
 37108  1  0  0  0
 38 43  2  0  0  0
 38 46  1  0  0  0
 38 47  1  0  0  0
 39 64  1  0  0  0
 39 67  2  0  0  0
 40 52  1  0  0  0
 40 53  2  0  0  0
 40 58  1  0  0  0
 41109  1  0  0  0
 41110  1  0  0  0
 41111  1  0  0  0
 41 48  1  0  0  0
 42 43  1  0  0  0
 42 66  1  0  0  0
 42112  1  0  0  0
 42113  1  0  0  0
 43 44  1  0  0  0
 44114  1  0  0  0
 45 46  2  0  0  0
 45115  1  0  0  0
 46116  1  0  0  0
 47117  1  0  0  0
 47118  1  0  0  0
 48 56  1  0  0  0
 48 65  1  0  0  0
 48119  1  0  0  0
 49 50  1  0  0  0
 49 53  1  0  0  0
 49 64  1  0  0  0
 49120  1  0  0  0
 50 51  1  0  0  0
 50121  1  0  0  0
 50122  1  0  0  0
 51 52  1  0  0  0
 51123  1  0  0  0
 51124  1  0  0  0
 52125  1  0  0  0
 52126  1  0  0  0
 53 54  1  0  0  0
 54 55  2  0  0  0
 54127  1  0  0  0
 55 57  1  0  0  0
 55128  1  0  0  0
 56 69  2  0  0  0
 57 58  2  0  0  0
 57129  1  0  0  0
 58130  1  0  0  0
 59 60  1  0  0  0
 59 61  1  0  0  0
 59 62  1  0  0  0
 60131  1  0  0  0
 60132  1  0  0  0
 60133  1  0  0  0
 61134  1  0  0  0
 61135  1  0  0  0
 61136  1  0  0  0
 62137  1  0  0  0
 62138  1  0  0  0
 62139  1  0  0  0
 63 65  1  0  0  0
 63140  1  0  0  0
 63141  1  0  0  0
 63142  1  0  0  0
 64143  1  0  0  0
 65144  1  0  0  0
 68 82  1  0  0  0
 71 74  2  0  0  0
 71 75  1  0  0  0
 71145  1  0  0  0
 72 74  1  0  0  0
 72 76  2  0  0  0
 72146  1  0  0  0
 73 75  2  0  0  0
 73 76  1  0  0  0
 73147  1  0  0  0
 74 78  1  0  0  0
 75 79  1  0  0  0
 76 83  1  0  0  0
 77 78  2  0  0  0
 77148  1  0  0  0
 77149  1  0  0  0
 78150  1  0  0  0
 79 84  1  0  0  0
 79 85  2  0  0  0
 80151  1  0  0  0
 80152  1  0  0  0
 80153  1  0  0  0
 80 82  1  0  0  0
 81 82  1  0  0  0
 81 84  1  0  0  0
 81154  1  0  0  0
 81155  1  0  0  0
 82156  1  0  0  0
 83157  1  0  0  0
 84158  1  0  0  0
M  ISO  4   1 100  68 101  82 101  83 100
M  END
> <chiral flag>
0

> <version>
0

> <s_m_source_file>
/data/baiqing/PycharmProjects/Reinvent-master-3.2/result/LINK_invent/BTK/process_docking_weight1_custom_product_contain_oxygen_bond_distance_aromatic_linkinvent_7_9_3/rearranged_h_0124.sdf

> <i_m_source_file_index>
50

> <r_mmod_Potential_Energy-OPLS-2005>
81.1428298950195

> <r_mmod_Stretch_Energy-OPLS-2005>
124.272491455078

> <r_mmod_Bend_Energy-OPLS-2005>
169.910018920898

> <r_mmod_Torsional_Energy-OPLS-2005>
259.799682617188

> <r_mmod_Improper_Torsional_Energy-OPLS-2005>
8.06961536407471

> <r_mmod_Van_der_Waal_Energy-OPLS-2005>
134.585662841797

> <r_mmod_Electrostatic_Energy-OPLS-2005>
-470.036865234375

> <r_mmod_Solvation_Energy-OPLS-2005>
-231.410049438477

> <b_mmod_Minimization_Converged-OPLS-2005>
0

> <r_mmod_RMS_Derivative-OPLS-2005>
2.03894758224487

$$$$
50
                    3D
 Structure written by MMmdl.
145153  0  0  1  0            999 V2000
  -30.4934  -14.9951   20.4029 C   0  0  0  0  0  0
  -30.4526  -12.6120   19.5070 C   0  0  0  0  0  0
  -29.5315  -12.5404   18.2631 C   0  0  0  0  0  0
  -28.0628  -12.3151   18.6740 C   0  0  0  0  0  0
  -27.6320  -13.2437   19.8377 C   0  0  2  0  0  0
  -28.6731  -13.2600   20.9761 C   0  0  0  0  0  0
  -25.2486  -13.8200   20.5702 C   0  0  0  0  0  0
  -24.1789  -13.0436   20.9218 C   0  0  0  0  0  0
  -24.6395  -11.6918   20.8743 C   0  0  0  0  0  0
  -23.9074  -10.4293   21.0402 C   0  0  0  0  0  0
  -24.3622   -9.4212   21.9184 C   0  0  0  0  0  0
  -23.6296   -8.2249   22.0757 C   0  0  0  0  0  0
  -22.4279   -8.0284   21.3546 C   0  0  0  0  0  0
  -21.9914   -9.0257   20.4650 C   0  0  0  0  0  0
  -22.7244  -10.2135   20.3056 C   0  0  0  0  0  0
  -21.6856   -6.0735   22.5277 C   0  0  0  0  0  0
  -21.4017   -6.5638   23.8211 C   0  0  0  0  0  0
  -21.3658   -5.6791   24.9172 C   0  0  0  0  0  0
  -21.6043   -4.3053   24.7224 C   0  0  0  0  0  0
  -21.8819   -3.8146   23.4345 C   0  0  0  0  0  0
  -21.9194   -4.6964   22.3401 C   0  0  0  0  0  0
  -22.7811  -13.5220   21.1877 C   0  0  0  0  0  0
  -22.1665   -4.2147   21.0979 F   0  0  0  0  0  0
  -21.5627   -3.4537   25.7737 F   0  0  0  0  0  0
  -29.9500  -13.7028   20.3947 N   0  0  0  0  0  0
  -26.2898  -12.9418   20.3218 N   0  0  0  0  0  0
  -25.9325  -11.6554   20.5714 N   0  0  0  0  0  0
  -22.0456  -12.8213   22.0432 N   0  0  0  0  0  0
  -25.4169  -15.1930   20.4140 N   0  0  0  0  0  0
  -31.6979  -15.0716   20.1312 O   0  0  0  0  0  0
  -21.6645   -6.8880   21.4240 O   0  0  0  0  0  0
  -22.3499  -14.5527   20.6725 O   0  0  0  0  0  0
  -24.6470  -31.8410   23.1856 C   0  0  0  0  0  0
  -25.9227  -32.4682   23.8259 C   0  0  1  0  0  0
  -27.2202  -27.1077   20.1563 C   0  0  0  0  0  0
  -25.5960  -33.8488   24.2177 N   0  0  0  0  0  0
  -23.4521  -30.4593   21.5318 C   0  0  2  0  0  0
  -24.9019  -28.8794   20.1132 C   0  0  0  0  0  0
  -22.7587  -29.4533   22.4854 C   0  0  0  0  0  0
  -18.0311  -28.1397   22.8479 C   0  0  0  0  0  0
  -24.1489  -36.7249   23.2642 C   0  0  0  0  0  0
  -26.0099  -30.7068   21.3871 C   0  0  0  0  0  0
  -26.0813  -29.3141   20.7310 C   0  0  0  0  0  0
  -27.2412  -28.4465   20.7312 C   0  0  0  0  0  0
  -26.0112  -26.7804   19.5031 C   0  0  0  0  0  0
  -24.8816  -27.6269   19.4830 C   0  0  0  0  0  0
  -23.6806  -29.7857   20.1529 C   0  0  0  0  0  0
  -25.4121  -36.3023   24.0314 C   0  0  1  0  0  0
  -20.5925  -28.3727   23.1231 C   0  0  2  0  0  0
  -20.6794  -26.9427   22.5407 C   0  0  0  0  0  0
  -19.5766  -26.6379   21.5218 C   0  0  0  0  0  0
  -18.1948  -26.7934   22.1628 C   0  0  0  0  0  0
  -19.1567  -28.8880   23.2845 C   0  0  0  0  0  0
  -18.9481  -30.1475   23.8872 C   0  0  0  0  0  0
  -17.6476  -30.6591   24.0560 C   0  0  0  0  0  0
  -25.9075  -34.9400   23.5055 C   0  0  0  0  0  0
  -16.5368  -29.9082   23.6338 C   0  0  0  0  0  0
  -16.7294  -28.6502   23.0357 C   0  0  0  0  0  0
  -26.4535  -31.6560   25.0714 C   0  0  0  0  0  0
  -25.3712  -31.3760   26.1407 C   0  0  0  0  0  0
  -27.0407  -30.2953   24.6311 C   0  0  0  0  0  0
  -27.6052  -32.4333   25.7512 C   0  0  0  0  0  0
  -27.5572  -37.1784   24.8466 C   0  0  0  0  0  0
  -21.4276  -29.3047   22.3601 N   0  0  0  0  0  0
  -26.4284  -37.3739   23.9407 N   0  0  0  0  0  0
  -24.7232  -31.0240   22.0902 N   0  0  0  0  0  0
  -23.4215  -28.8086   23.3021 O   0  0  0  0  0  0
  -28.2768  -26.1157   20.2054 O   0  0  0  0  0  0
  -26.5660  -34.8904   22.4634 O   0  0  0  0  0  0
  -23.5580  -32.1299   23.7058 O   0  0  0  0  0  0
  -28.0637  -19.4201   21.4412 C   0  0  0  0  0  0
  -29.1555  -19.1802   20.6296 C   0  0  0  0  0  0
  -28.8474  -21.6684   20.4847 C   0  0  0  0  0  0
  -29.7252  -17.6674   20.4106 C   0  0  0  0  0  0
  -29.5573  -16.2394   20.5481 C   0  0  0  0  0  0
  -29.1235  -23.2819   20.2395 C   0  0  0  0  0  0
  -28.0050  -24.5640   20.2286 C   0  0  0  0  0  0
  -29.5818  -20.5104   20.1204 N   0  0  0  0  0  0
  -27.5521  -21.1174   21.5494 S   0  0  0  0  0  0
  -31.4830  -12.7855   19.1938 H   0  0  0  0  0  0
  -30.4624  -11.6587   20.0377 H   0  0  0  0  0  0
  -29.8601  -11.7445   17.5938 H   0  0  0  0  0  0
  -29.6128  -13.4694   17.6966 H   0  0  0  0  0  0
  -27.9626  -11.2733   18.9808 H   0  0  0  0  0  0
  -27.4023  -12.4457   17.8159 H   0  0  0  0  0  0
  -27.5959  -14.2455   19.4099 H   0  0  0  0  0  0
  -28.7706  -12.2721   21.4288 H   0  0  0  0  0  0
  -28.3614  -13.9257   21.7817 H   0  0  0  0  0  0
  -25.2764   -9.5691   22.4761 H   0  0  0  0  0  0
  -24.0001   -7.4642   22.7481 H   0  0  0  0  0  0
  -21.0842   -8.8778   19.8960 H   0  0  0  0  0  0
  -22.3698  -10.9675   19.6169 H   0  0  0  0  0  0
  -21.2012   -7.6145   23.9713 H   0  0  0  0  0  0
  -21.1480   -6.0521   25.9074 H   0  0  0  0  0  0
  -22.0599   -2.7608   23.2845 H   0  0  0  0  0  0
  -22.4074  -11.9873   22.4818 H   0  0  0  0  0  0
  -21.1076  -13.1245   22.2641 H   0  0  0  0  0  0
  -24.6468  -15.8434   20.5243 H   0  0  0  0  0  0
  -26.2561  -15.6318   20.0593 H   0  0  0  0  0  0
  -26.7298  -32.5283   23.0990 H   0  0  0  0  0  0
  -25.0095  -33.9595   25.0318 H   0  0  0  0  0  0
  -22.7561  -31.2857   21.3741 H   0  0  0  0  0  0
  -23.3754  -35.9578   23.3293 H   0  0  0  0  0  0
  -24.3573  -36.8893   22.2058 H   0  0  0  0  0  0
  -23.7243  -37.6442   23.6686 H   0  0  0  0  0  0
  -26.1649  -31.4582   20.6117 H   0  0  0  0  0  0
  -26.8806  -30.7607   22.0293 H   0  0  0  0  0  0
  -28.1408  -28.7770   21.2310 H   0  0  0  0  0  0
  -25.9033  -25.8284   19.0080 H   0  0  0  0  0  0
  -23.9825  -27.2890   18.9858 H   0  0  0  0  0  0
  -23.8206  -30.5579   19.3955 H   0  0  0  0  0  0
  -22.7949  -29.2291   19.8421 H   0  0  0  0  0  0
  -25.1311  -36.1846   25.0806 H   0  0  0  0  0  0
  -21.0016  -28.3317   24.1353 H   0  0  0  0  0  0
  -20.5689  -26.2342   23.3629 H   0  0  0  0  0  0
  -21.6659  -26.7427   22.1205 H   0  0  0  0  0  0
  -19.6926  -25.6282   21.1265 H   0  0  0  0  0  0
  -19.6702  -27.3176   20.6736 H   0  0  0  0  0  0
  -17.4218  -26.6679   21.4030 H   0  0  0  0  0  0
  -18.0343  -26.0082   22.9030 H   0  0  0  0  0  0
  -19.7953  -30.7302   24.2226 H   0  0  0  0  0  0
  -17.5025  -31.6268   24.5166 H   0  0  0  0  0  0
  -15.5365  -30.2974   23.7671 H   0  0  0  0  0  0
  -15.8696  -28.0810   22.7082 H   0  0  0  0  0  0
  -24.5905  -30.7086   25.7738 H   0  0  0  0  0  0
  -24.8888  -32.2946   26.4754 H   0  0  0  0  0  0
  -25.7998  -30.8997   27.0234 H   0  0  0  0  0  0
  -26.3040  -29.6672   24.1292 H   0  0  0  0  0  0
  -27.3986  -29.7254   25.4896 H   0  0  0  0  0  0
  -27.8957  -30.4186   23.9661 H   0  0  0  0  0  0
  -27.2630  -33.3645   26.2036 H   0  0  0  0  0  0
  -28.3901  -32.6873   25.0376 H   0  0  0  0  0  0
  -28.0680  -31.8496   26.5480 H   0  0  0  0  0  0
  -28.2583  -38.0085   24.7505 H   0  0  0  0  0  0
  -28.1073  -36.2613   24.6302 H   0  0  0  0  0  0
  -27.2290  -37.1445   25.8870 H   0  0  0  0  0  0
  -20.9493  -29.8753   21.6771 H   0  0  0  0  0  0
  -26.0146  -38.2805   24.1407 H   0  0  0  0  0  0
  -27.5008  -18.6804   21.9958 H   0  0  0  0  0  0
  -28.6665  -17.5861   20.2323 H   0  0  0  0  0  0
  -28.5590  -15.8946   20.7991 H   0  0  0  0  0  0
  -29.8618  -23.5513   20.9938 H   0  0  0  0  0  0
  -29.6687  -23.3457   19.2984 H   0  0  0  0  0  0
  -27.3762  -24.4160   21.1070 H   0  0  0  0  0  0
  -27.3592  -24.3443   19.3811 H   0  0  0  0  0  0
  1 25  1  0  0  0
  1 30  2  0  0  0
  1 75  1  0  0  0
  2  3  1  0  0  0
  2 25  1  0  0  0
  2 80  1  0  0  0
  2 81  1  0  0  0
  3  4  1  0  0  0
  3 82  1  0  0  0
  3 83  1  0  0  0
  4  5  1  0  0  0
  4 84  1  0  0  0
  4 85  1  0  0  0
  5  6  1  0  0  0
  5 26  1  0  0  0
  5 86  1  0  0  0
  6 25  1  0  0  0
  6 87  1  0  0  0
  6 88  1  0  0  0
  7  8  2  0  0  0
  7 26  1  0  0  0
  7 29  1  0  0  0
  8  9  1  0  0  0
  8 22  1  0  0  0
  9 10  1  0  0  0
  9 27  2  0  0  0
 10 11  2  0  0  0
 10 15  1  0  0  0
 11 12  1  0  0  0
 11 89  1  0  0  0
 12 13  2  0  0  0
 12 90  1  0  0  0
 13 14  1  0  0  0
 13 31  1  0  0  0
 14 15  2  0  0  0
 14 91  1  0  0  0
 15 92  1  0  0  0
 16 17  2  0  0  0
 16 21  1  0  0  0
 16 31  1  0  0  0
 17 18  1  0  0  0
 17 93  1  0  0  0
 18 19  2  0  0  0
 18 94  1  0  0  0
 19 20  1  0  0  0
 19 24  1  0  0  0
 20 21  2  0  0  0
 20 95  1  0  0  0
 21 23  1  0  0  0
 22 28  1  0  0  0
 22 32  2  0  0  0
 26 27  1  0  0  0
 28 96  1  0  0  0
 28 97  1  0  0  0
 29 98  1  0  0  0
 29 99  1  0  0  0
 33 34  1  0  0  0
 33 66  1  0  0  0
 33 70  2  0  0  0
 34 36  1  0  0  0
 34 59  1  0  0  0
 34100  1  0  0  0
 35 44  2  0  0  0
 35 45  1  0  0  0
 35 68  1  0  0  0
 36 56  1  0  0  0
 36101  1  0  0  0
 37 39  1  0  0  0
 37 47  1  0  0  0
 37 66  1  0  0  0
 37102  1  0  0  0
 38 43  2  0  0  0
 38 46  1  0  0  0
 38 47  1  0  0  0
 39 64  1  0  0  0
 39 67  2  0  0  0
 40 52  1  0  0  0
 40 53  2  0  0  0
 40 58  1  0  0  0
 41103  1  0  0  0
 41104  1  0  0  0
 41105  1  0  0  0
 41 48  1  0  0  0
 42 43  1  0  0  0
 42 66  1  0  0  0
 42106  1  0  0  0
 42107  1  0  0  0
 43 44  1  0  0  0
 44108  1  0  0  0
 45 46  2  0  0  0
 45109  1  0  0  0
 46110  1  0  0  0
 47111  1  0  0  0
 47112  1  0  0  0
 48 56  1  0  0  0
 48 65  1  0  0  0
 48113  1  0  0  0
 49 50  1  0  0  0
 49 53  1  0  0  0
 49 64  1  0  0  0
 49114  1  0  0  0
 50 51  1  0  0  0
 50115  1  0  0  0
 50116  1  0  0  0
 51 52  1  0  0  0
 51117  1  0  0  0
 51118  1  0  0  0
 52119  1  0  0  0
 52120  1  0  0  0
 53 54  1  0  0  0
 54 55  2  0  0  0
 54121  1  0  0  0
 55 57  1  0  0  0
 55122  1  0  0  0
 56 69  2  0  0  0
 57 58  2  0  0  0
 57123  1  0  0  0
 58124  1  0  0  0
 59 60  1  0  0  0
 59 61  1  0  0  0
 59 62  1  0  0  0
 60125  1  0  0  0
 60126  1  0  0  0
 60127  1  0  0  0
 61128  1  0  0  0
 61129  1  0  0  0
 61130  1  0  0  0
 62131  1  0  0  0
 62132  1  0  0  0
 62133  1  0  0  0
 63 65  1  0  0  0
 63134  1  0  0  0
 63135  1  0  0  0
 63136  1  0  0  0
 64137  1  0  0  0
 65138  1  0  0  0
 68 77  1  0  0  0
 71 72  2  0  0  0
 71 79  1  0  0  0
 71139  1  0  0  0
 72 74  1  0  0  0
 72 78  1  0  0  0
 73 76  1  0  0  0
 73 78  2  0  0  0
 73 79  1  0  0  0
 74 75  2  0  0  0
 74140  1  0  0  0
 75141  1  0  0  0
 76 77  1  0  0  0
 76142  1  0  0  0
 76143  1  0  0  0
 77144  1  0  0  0
 77145  1  0  0  0
M  ISO  4   1 100  68 101  75 100  77 101
M  END
> <chiral flag>
0

> <version>
0

> <s_m_source_file>
/data/baiqing/PycharmProjects/Reinvent-master-3.2/result/LINK_invent/BTK/process_docking_weight1_custom_product_contain_oxygen_bond_distance_aromatic_linkinvent_7_9_3/rearranged_h_0124.sdf

> <i_m_source_file_index>
51

> <r_mmod_Potential_Energy-OPLS-2005>
738.605590820312

> <r_mmod_Stretch_Energy-OPLS-2005>
292.287139892578

> <r_mmod_Bend_Energy-OPLS-2005>
469.171752929688

> <r_mmod_Torsional_Energy-OPLS-2005>
201.517807006836

> <r_mmod_Improper_Torsional_Energy-OPLS-2005>
16.4964160919189

> <r_mmod_Van_der_Waal_Energy-OPLS-2005>
126.781494140625

> <r_mmod_Electrostatic_Energy-OPLS-2005>
-366.810485839844

> <r_mmod_Solvation_Energy-OPLS-2005>
-219.285614013672

> <b_mmod_Minimization_Converged-OPLS-2005>
0

> <r_mmod_RMS_Derivative-OPLS-2005>
0.509658932685852

$$$$
51
                    3D
 Structure written by MMmdl.
156164  0  0  1  0            999 V2000
  -30.6131  -14.7395   20.4591 C   0  0  0  0  0  0
  -30.4327  -12.4522   19.4642 C   0  0  0  0  0  0
  -29.5070  -12.5014   18.2293 C   0  0  0  0  0  0
  -28.0335  -12.3262   18.6467 C   0  0  0  0  0  0
  -27.6391  -13.2296   19.8458 C   0  0  2  0  0  0
  -28.6864  -13.1669   20.9782 C   0  0  0  0  0  0
  -25.2496  -13.8186   20.5684 C   0  0  0  0  0  0
  -24.1792  -13.0433   20.9211 C   0  0  0  0  0  0
  -24.6386  -11.6913   20.8751 C   0  0  0  0  0  0
  -23.9063  -10.4290   21.0410 C   0  0  0  0  0  0
  -24.3615   -9.4204   21.9186 C   0  0  0  0  0  0
  -23.6290   -8.2240   22.0755 C   0  0  0  0  0  0
  -22.4275   -8.0279   21.3544 C   0  0  0  0  0  0
  -21.9909   -9.0250   20.4646 C   0  0  0  0  0  0
  -22.7237  -10.2128   20.3057 C   0  0  0  0  0  0
  -21.6851   -6.0731   22.5278 C   0  0  0  0  0  0
  -21.4014   -6.5636   23.8209 C   0  0  0  0  0  0
  -21.3659   -5.6790   24.9174 C   0  0  0  0  0  0
  -21.6044   -4.3052   24.7224 C   0  0  0  0  0  0
  -21.8820   -3.8144   23.4345 C   0  0  0  0  0  0
  -21.9191   -4.6960   22.3403 C   0  0  0  0  0  0
  -22.7813  -13.5216   21.1868 C   0  0  0  0  0  0
  -22.1662   -4.2145   21.0980 F   0  0  0  0  0  0
  -21.5627   -3.4539   25.7737 F   0  0  0  0  0  0
  -29.9843  -13.5173   20.3885 N   0  0  0  0  0  0
  -26.2923  -12.9394   20.3264 N   0  0  0  0  0  0
  -25.9314  -11.6538   20.5745 N   0  0  0  0  0  0
  -22.0462  -12.8206   22.0427 N   0  0  0  0  0  0
  -25.4161  -15.1910   20.4085 N   0  0  0  0  0  0
  -31.8125  -14.8230   20.1794 O   0  0  0  0  0  0
  -21.6639   -6.8876   21.4241 O   0  0  0  0  0  0
  -22.3501  -14.5524   20.6716 O   0  0  0  0  0  0
  -24.6303  -31.8546   23.1971 C   0  0  0  0  0  0
  -25.9136  -32.4750   23.8317 C   0  0  1  0  0  0
  -27.2235  -27.2694   20.1394 C   0  0  0  0  0  0
  -25.5936  -33.8549   24.2246 N   0  0  0  0  0  0
  -23.4265  -30.4748   21.5402 C   0  0  2  0  0  0
  -24.8750  -28.9147   20.1161 C   0  0  0  0  0  0
  -22.7499  -29.4592   22.4920 C   0  0  0  0  0  0
  -18.0285  -28.1384   22.8479 C   0  0  0  0  0  0
  -24.1488  -36.7281   23.2641 C   0  0  0  0  0  0
  -25.9706  -30.7715   21.3730 C   0  0  0  0  0  0
  -26.0462  -29.3918   20.7207 C   0  0  0  0  0  0
  -27.2271  -28.5833   20.7150 C   0  0  0  0  0  0
  -26.0312  -26.8464   19.5194 C   0  0  0  0  0  0
  -24.8722  -27.6495   19.5041 C   0  0  0  0  0  0
  -23.6455  -29.8027   20.1585 C   0  0  0  0  0  0
  -25.4116  -36.3069   24.0330 C   0  0  1  0  0  0
  -20.5889  -28.3691   23.1277 C   0  0  2  0  0  0
  -20.6774  -26.9409   22.5412 C   0  0  0  0  0  0
  -19.5754  -26.6379   21.5211 C   0  0  0  0  0  0
  -18.1930  -26.7924   22.1618 C   0  0  0  0  0  0
  -19.1541  -28.8855   23.2866 C   0  0  0  0  0  0
  -18.9466  -30.1452   23.8887 C   0  0  0  0  0  0
  -17.6470  -30.6588   24.0560 C   0  0  0  0  0  0
  -25.9062  -34.9438   23.5094 C   0  0  0  0  0  0
  -16.5358  -29.9085   23.6334 C   0  0  0  0  0  0
  -16.7273  -28.6502   23.0354 C   0  0  0  0  0  0
  -26.4499  -31.6575   25.0708 C   0  0  0  0  0  0
  -25.3722  -31.3728   26.1433 C   0  0  0  0  0  0
  -27.0349  -30.2997   24.6185 C   0  0  0  0  0  0
  -27.6050  -32.4315   25.7485 C   0  0  0  0  0  0
  -27.5574  -37.1790   24.8460 C   0  0  0  0  0  0
  -21.4206  -29.3036   22.3672 N   0  0  0  0  0  0
  -26.4285  -37.3773   23.9413 N   0  0  0  0  0  0
  -24.6950  -31.0524   22.0935 N   0  0  0  0  0  0
  -23.4203  -28.8142   23.3024 O   0  0  0  0  0  0
  -28.3283  -26.3971   20.1203 O   0  0  0  0  0  0
  -26.5636  -34.8919   22.4662 O   0  0  0  0  0  0
  -23.5458  -32.1357   23.7282 O   0  0  0  0  0  0
  -30.9348  -20.0348   21.3246 C   0  0  0  0  0  0
  -31.3559  -17.6199   21.4636 C   0  0  0  0  0  0
  -29.7457  -19.8532   20.5848 C   0  0  0  0  0  0
  -31.7307  -18.9489   21.7457 C   0  0  0  0  0  0
  -29.3705  -18.4613   20.3221 C   0  0  0  0  0  0
  -30.1744  -17.3141   20.7537 C   0  0  0  0  0  0
  -29.0036  -21.1393   20.1218 C   0  0  0  0  0  0
  -29.1114  -22.4549   20.5676 C   0  0  0  0  0  0
  -28.4472  -23.7168   19.9654 C   0  0  0  0  0  0
  -33.0195  -19.2118   22.5005 C   0  0  0  0  0  0
  -28.0938  -18.2123   19.5366 C   0  0  0  0  0  0
  -28.2195  -25.0648   20.8042 C   0  0  0  0  0  0
  -29.8209  -15.8776   20.5765 N   0  0  0  0  0  0
  -28.0497  -23.7087   18.7957 O   0  0  0  0  0  0
  -31.4727  -12.5791   19.1585 H   0  0  0  0  0  0
  -30.3792  -11.4772   19.9514 H   0  0  0  0  0  0
  -29.7886  -11.7260   17.5152 H   0  0  0  0  0  0
  -29.6316  -13.4542   17.7120 H   0  0  0  0  0  0
  -27.8918  -11.2782   18.9136 H   0  0  0  0  0  0
  -27.3749  -12.5145   17.7979 H   0  0  0  0  0  0
  -27.6305  -14.2489   19.4603 H   0  0  0  0  0  0
  -28.7223  -12.1707   21.4214 H   0  0  0  0  0  0
  -28.4245  -13.8530   21.7855 H   0  0  0  0  0  0
  -25.2758   -9.5679   22.4760 H   0  0  0  0  0  0
  -23.9995   -7.4632   22.7474 H   0  0  0  0  0  0
  -21.0840   -8.8769   19.8950 H   0  0  0  0  0  0
  -22.3698  -10.9666   19.6165 H   0  0  0  0  0  0
  -21.2011   -7.6144   23.9712 H   0  0  0  0  0  0
  -21.1481   -6.0521   25.9074 H   0  0  0  0  0  0
  -22.0600   -2.7605   23.2848 H   0  0  0  0  0  0
  -22.4085  -11.9869   22.4814 H   0  0  0  0  0  0
  -21.1079  -13.1226   22.2635 H   0  0  0  0  0  0
  -24.6418  -15.8375   20.5142 H   0  0  0  0  0  0
  -26.2511  -15.6320   20.0496 H   0  0  0  0  0  0
  -26.7203  -32.5409   23.1058 H   0  0  0  0  0  0
  -25.0066  -33.9675   25.0379 H   0  0  0  0  0  0
  -22.7228  -31.2965   21.3919 H   0  0  0  0  0  0
  -23.3755  -35.9607   23.3296 H   0  0  0  0  0  0
  -24.3579  -36.8915   22.2056 H   0  0  0  0  0  0
  -23.7235  -37.6476   23.6675 H   0  0  0  0  0  0
  -26.1056  -31.5308   20.6016 H   0  0  0  0  0  0
  -26.8496  -30.8250   22.0033 H   0  0  0  0  0  0
  -28.1297  -28.9490   21.1849 H   0  0  0  0  0  0
  -25.9951  -25.8743   19.0471 H   0  0  0  0  0  0
  -23.9754  -27.2783   19.0260 H   0  0  0  0  0  0
  -23.7699  -30.5762   19.4000 H   0  0  0  0  0  0
  -22.7645  -29.2345   19.8542 H   0  0  0  0  0  0
  -25.1291  -36.1910   25.0820 H   0  0  0  0  0  0
  -20.9966  -28.3273   24.1405 H   0  0  0  0  0  0
  -20.5679  -26.2295   23.3614 H   0  0  0  0  0  0
  -21.6641  -26.7434   22.1204 H   0  0  0  0  0  0
  -19.6922  -25.6290   21.1240 H   0  0  0  0  0  0
  -19.6705  -27.3191   20.6741 H   0  0  0  0  0  0
  -17.4201  -26.6668   21.4024 H   0  0  0  0  0  0
  -18.0331  -26.0067   22.9015 H   0  0  0  0  0  0
  -19.7944  -30.7258   24.2259 H   0  0  0  0  0  0
  -17.5028  -31.6272   24.5155 H   0  0  0  0  0  0
  -15.5359  -30.2988   23.7665 H   0  0  0  0  0  0
  -15.8668  -28.0823   22.7079 H   0  0  0  0  0  0
  -24.5907  -30.7068   25.7760 H   0  0  0  0  0  0
  -24.8904  -32.2897   26.4839 H   0  0  0  0  0  0
  -25.8040  -30.8920   27.0220 H   0  0  0  0  0  0
  -26.2927  -29.6744   24.1215 H   0  0  0  0  0  0
  -27.4042  -29.7269   25.4700 H   0  0  0  0  0  0
  -27.8799  -30.4275   23.9416 H   0  0  0  0  0  0
  -27.2655  -33.3624   26.2039 H   0  0  0  0  0  0
  -28.3872  -32.6861   25.0321 H   0  0  0  0  0  0
  -28.0703  -31.8456   26.5420 H   0  0  0  0  0  0
  -28.2576  -38.0099   24.7526 H   0  0  0  0  0  0
  -28.1087  -36.2634   24.6263 H   0  0  0  0  0  0
  -27.2300  -37.1406   25.8865 H   0  0  0  0  0  0
  -20.9400  -29.8747   21.6862 H   0  0  0  0  0  0
  -26.0166  -38.2843   24.1435 H   0  0  0  0  0  0
  -31.2770  -21.0345   21.5498 H   0  0  0  0  0  0
  -31.9916  -16.8228   21.8222 H   0  0  0  0  0  0
  -28.3350  -20.9845   19.2867 H   0  0  0  0  0  0
  -29.7480  -22.6537   21.4160 H   0  0  0  0  0  0
  -32.9761  -20.1572   23.0419 H   0  0  0  0  0  0
  -33.8608  -19.2542   21.8078 H   0  0  0  0  0  0
  -33.2156  -18.4208   23.2254 H   0  0  0  0  0  0
  -27.2483  -18.6985   20.0234 H   0  0  0  0  0  0
  -27.8570  -17.1544   19.4409 H   0  0  0  0  0  0
  -28.1874  -18.6203   18.5299 H   0  0  0  0  0  0
  -28.9404  -25.0630   21.6216 H   0  0  0  0  0  0
  -27.2405  -24.9887   21.2792 H   0  0  0  0  0  0
  -28.8328  -15.6819   20.5634 H   0  0  0  0  0  0
  1 25  1  0  0  0
  1 30  2  0  0  0
  1 83  1  0  0  0
  2  3  1  0  0  0
  2 25  1  0  0  0
  2 85  1  0  0  0
  2 86  1  0  0  0
  3  4  1  0  0  0
  3 87  1  0  0  0
  3 88  1  0  0  0
  4  5  1  0  0  0
  4 89  1  0  0  0
  4 90  1  0  0  0
  5  6  1  0  0  0
  5 26  1  0  0  0
  5 91  1  0  0  0
  6 25  1  0  0  0
  6 92  1  0  0  0
  6 93  1  0  0  0
  7  8  2  0  0  0
  7 26  1  0  0  0
  7 29  1  0  0  0
  8  9  1  0  0  0
  8 22  1  0  0  0
  9 10  1  0  0  0
  9 27  2  0  0  0
 10 11  2  0  0  0
 10 15  1  0  0  0
 11 12  1  0  0  0
 11 94  1  0  0  0
 12 13  2  0  0  0
 12 95  1  0  0  0
 13 14  1  0  0  0
 13 31  1  0  0  0
 14 15  2  0  0  0
 14 96  1  0  0  0
 15 97  1  0  0  0
 16 17  2  0  0  0
 16 21  1  0  0  0
 16 31  1  0  0  0
 17 18  1  0  0  0
 17 98  1  0  0  0
 18 19  2  0  0  0
 18 99  1  0  0  0
 19 20  1  0  0  0
 19 24  1  0  0  0
 20 21  2  0  0  0
 20100  1  0  0  0
 21 23  1  0  0  0
 22 28  1  0  0  0
 22 32  2  0  0  0
 26 27  1  0  0  0
 28101  1  0  0  0
 28102  1  0  0  0
 29103  1  0  0  0
 29104  1  0  0  0
 33 34  1  0  0  0
 33 66  1  0  0  0
 33 70  2  0  0  0
 34 36  1  0  0  0
 34 59  1  0  0  0
 34105  1  0  0  0
 35 44  2  0  0  0
 35 45  1  0  0  0
 35 68  1  0  0  0
 36 56  1  0  0  0
 36106  1  0  0  0
 37 39  1  0  0  0
 37 47  1  0  0  0
 37 66  1  0  0  0
 37107  1  0  0  0
 38 43  2  0  0  0
 38 46  1  0  0  0
 38 47  1  0  0  0
 39 64  1  0  0  0
 39 67  2  0  0  0
 40 52  1  0  0  0
 40 53  2  0  0  0
 40 58  1  0  0  0
 41108  1  0  0  0
 41109  1  0  0  0
 41110  1  0  0  0
 41 48  1  0  0  0
 42 43  1  0  0  0
 42 66  1  0  0  0
 42111  1  0  0  0
 42112  1  0  0  0
 43 44  1  0  0  0
 44113  1  0  0  0
 45 46  2  0  0  0
 45114  1  0  0  0
 46115  1  0  0  0
 47116  1  0  0  0
 47117  1  0  0  0
 48 56  1  0  0  0
 48 65  1  0  0  0
 48118  1  0  0  0
 49 50  1  0  0  0
 49 53  1  0  0  0
 49 64  1  0  0  0
 49119  1  0  0  0
 50 51  1  0  0  0
 50120  1  0  0  0
 50121  1  0  0  0
 51 52  1  0  0  0
 51122  1  0  0  0
 51123  1  0  0  0
 52124  1  0  0  0
 52125  1  0  0  0
 53 54  1  0  0  0
 54 55  2  0  0  0
 54126  1  0  0  0
 55 57  1  0  0  0
 55127  1  0  0  0
 56 69  2  0  0  0
 57 58  2  0  0  0
 57128  1  0  0  0
 58129  1  0  0  0
 59 60  1  0  0  0
 59 61  1  0  0  0
 59 62  1  0  0  0
 60130  1  0  0  0
 60131  1  0  0  0
 60132  1  0  0  0
 61133  1  0  0  0
 61134  1  0  0  0
 61135  1  0  0  0
 62136  1  0  0  0
 62137  1  0  0  0
 62138  1  0  0  0
 63 65  1  0  0  0
 63139  1  0  0  0
 63140  1  0  0  0
 63141  1  0  0  0
 64142  1  0  0  0
 65143  1  0  0  0
 68 82  1  0  0  0
 71 73  2  0  0  0
 71 74  1  0  0  0
 71144  1  0  0  0
 72 74  2  0  0  0
 72 76  1  0  0  0
 72145  1  0  0  0
 73 75  1  0  0  0
 73 77  1  0  0  0
 74 80  1  0  0  0
 75 76  2  0  0  0
 75 81  1  0  0  0
 76 83  1  0  0  0
 77 78  2  0  0  0
 77146  1  0  0  0
 78 79  1  0  0  0
 78147  1  0  0  0
 79 82  1  0  0  0
 79 84  2  0  0  0
 80148  1  0  0  0
 80149  1  0  0  0
 80150  1  0  0  0
 81151  1  0  0  0
 81152  1  0  0  0
 81153  1  0  0  0
 82154  1  0  0  0
 82155  1  0  0  0
 83156  1  0  0  0
M  ISO  4   1 100  68 101  82 101  83 100
M  END
> <chiral flag>
0

> <version>
0

> <s_m_source_file>
/data/baiqing/PycharmProjects/Reinvent-master-3.2/result/LINK_invent/BTK/process_docking_weight1_custom_product_contain_oxygen_bond_distance_aromatic_linkinvent_7_9_3/rearranged_h_0124.sdf

> <i_m_source_file_index>
52

> <r_mmod_Potential_Energy-OPLS-2005>
154.445907592773

> <r_mmod_Stretch_Energy-OPLS-2005>
125.209999084473

> <r_mmod_Bend_Energy-OPLS-2005>
149.334457397461

> <r_mmod_Torsional_Energy-OPLS-2005>
249.067932128906

> <r_mmod_Improper_Torsional_Energy-OPLS-2005>
6.93977737426758

> <r_mmod_Van_der_Waal_Energy-OPLS-2005>
133.20686340332

> <r_mmod_Electrostatic_Energy-OPLS-2005>
-364.462310791016

> <r_mmod_Solvation_Energy-OPLS-2005>
-225.291564941406

> <b_mmod_Minimization_Converged-OPLS-2005>
0

> <r_mmod_RMS_Derivative-OPLS-2005>
0.944141328334808

$$$$
52
                    3D
 Structure written by MMmdl.
155163  0  0  1  0            999 V2000
  -30.5705  -14.7445   20.4906 C   0  0  0  0  0  0
  -30.4479  -12.4582   19.4662 C   0  0  0  0  0  0
  -29.5149  -12.5230   18.2306 C   0  0  0  0  0  0
  -28.0374  -12.3277   18.6343 C   0  0  0  0  0  0
  -27.6475  -13.1966   19.8566 C   0  0  2  0  0  0
  -28.6944  -13.0483   20.9836 C   0  0  0  0  0  0
  -25.2603  -13.8103   20.5702 C   0  0  0  0  0  0
  -24.1808  -13.0408   20.9116 C   0  0  0  0  0  0
  -24.6347  -11.6870   20.8678 C   0  0  0  0  0  0
  -23.9007  -10.4276   21.0389 C   0  0  0  0  0  0
  -24.3594   -9.4210   21.9172 C   0  0  0  0  0  0
  -23.6289   -8.2237   22.0753 C   0  0  0  0  0  0
  -22.4268   -8.0265   21.3547 C   0  0  0  0  0  0
  -21.9883   -9.0220   20.4643 C   0  0  0  0  0  0
  -22.7191  -10.2104   20.3037 C   0  0  0  0  0  0
  -21.6856   -6.0723   22.5285 C   0  0  0  0  0  0
  -21.4008   -6.5633   23.8214 C   0  0  0  0  0  0
  -21.3655   -5.6790   24.9181 C   0  0  0  0  0  0
  -21.6049   -4.3052   24.7239 C   0  0  0  0  0  0
  -21.8832   -3.8140   23.4368 C   0  0  0  0  0  0
  -21.9203   -4.6955   22.3420 C   0  0  0  0  0  0
  -22.7864  -13.5248   21.1856 C   0  0  0  0  0  0
  -22.1680   -4.2147   21.0993 F   0  0  0  0  0  0
  -21.5630   -3.4539   25.7744 F   0  0  0  0  0  0
  -29.9875  -13.4865   20.4331 N   0  0  0  0  0  0
  -26.2960  -12.9214   20.3278 N   0  0  0  0  0  0
  -25.9260  -11.6398   20.5676 N   0  0  0  0  0  0
  -22.0534  -12.8190   22.0398 N   0  0  0  0  0  0
  -25.4500  -15.1800   20.4315 N   0  0  0  0  0  0
  -31.7426  -14.8739   20.1162 O   0  0  0  0  0  0
  -21.6643   -6.8859   21.4242 O   0  0  0  0  0  0
  -22.3552  -14.5594   20.6786 O   0  0  0  0  0  0
  -24.6319  -31.8576   23.1984 C   0  0  0  0  0  0
  -25.9162  -32.4764   23.8331 C   0  0  1  0  0  0
  -27.2263  -27.2743   20.1170 C   0  0  0  0  0  0
  -25.5973  -33.8568   24.2250 N   0  0  0  0  0  0
  -23.4270  -30.4793   21.5432 C   0  0  2  0  0  0
  -24.8716  -28.9288   20.1099 C   0  0  0  0  0  0
  -22.7516  -29.4602   22.4922 C   0  0  0  0  0  0
  -18.0295  -28.1388   22.8483 C   0  0  0  0  0  0
  -24.1508  -36.7290   23.2633 C   0  0  0  0  0  0
  -25.9719  -30.7714   21.3771 C   0  0  0  0  0  0
  -26.0431  -29.3959   20.7163 C   0  0  0  0  0  0
  -27.2200  -28.5820   20.7092 C   0  0  0  0  0  0
  -26.0255  -26.8735   19.4840 C   0  0  0  0  0  0
  -24.8663  -27.6721   19.4869 C   0  0  0  0  0  0
  -23.6431  -29.8152   20.1584 C   0  0  0  0  0  0
  -25.4134  -36.3071   24.0315 C   0  0  1  0  0  0
  -20.5904  -28.3701   23.1269 C   0  0  2  0  0  0
  -20.6790  -26.9421   22.5407 C   0  0  0  0  0  0
  -19.5761  -26.6381   21.5215 C   0  0  0  0  0  0
  -18.1936  -26.7933   22.1620 C   0  0  0  0  0  0
  -19.1550  -28.8865   23.2866 C   0  0  0  0  0  0
  -18.9469  -30.1468   23.8877 C   0  0  0  0  0  0
  -17.6469  -30.6594   24.0553 C   0  0  0  0  0  0
  -25.9077  -34.9449   23.5080 C   0  0  0  0  0  0
  -16.5363  -29.9082   23.6334 C   0  0  0  0  0  0
  -16.7282  -28.6504   23.0351 C   0  0  0  0  0  0
  -26.4511  -31.6594   25.0731 C   0  0  0  0  0  0
  -25.3717  -31.3766   26.1435 C   0  0  0  0  0  0
  -27.0364  -30.3010   24.6242 C   0  0  0  0  0  0
  -27.6051  -32.4338   25.7527 C   0  0  0  0  0  0
  -27.5587  -37.1808   24.8456 C   0  0  0  0  0  0
  -21.4223  -29.3046   22.3662 N   0  0  0  0  0  0
  -26.4299  -37.3777   23.9396 N   0  0  0  0  0  0
  -24.6952  -31.0556   22.0950 N   0  0  0  0  0  0
  -23.4211  -28.8135   23.3024 O   0  0  0  0  0  0
  -28.3436  -26.4067   20.1906 O   0  0  0  0  0  0
  -26.5643  -34.8924   22.4643 O   0  0  0  0  0  0
  -23.5477  -32.1394   23.7304 O   0  0  0  0  0  0
  -29.3436  -18.6993   20.4412 C   0  0  0  0  0  0
  -30.1619  -17.5182   20.7259 C   0  0  0  0  0  0
  -30.0991  -19.8587   20.6001 C   0  0  0  0  0  0
  -31.3854  -18.0403   21.0525 C   0  0  0  0  0  0
  -29.9598  -21.3496   20.5858 C   0  0  0  0  0  0
  -28.9802  -22.3131   20.4350 C   0  0  0  0  0  0
  -29.6703  -16.0495   20.8452 C   0  0  0  0  0  0
  -32.6637  -17.4616   21.5673 C   0  0  0  0  0  0
  -28.6233  -24.9088   18.3086 C   0  0  0  0  0  0
  -29.1595  -23.8879   20.6136 C   0  0  0  0  0  0
  -28.2654  -24.9570   19.8025 C   0  0  1  0  0  0
  -28.4645  -15.9736   21.2235 N   0  0  0  0  0  0
  -31.3545  -19.4178   20.9552 O   0  0  0  0  0  0
  -31.4861  -12.6070   19.1652 H   0  0  0  0  0  0
  -30.4183  -11.4631   19.9146 H   0  0  0  0  0  0
  -29.8043  -11.7711   17.4951 H   0  0  0  0  0  0
  -29.6311  -13.4894   17.7405 H   0  0  0  0  0  0
  -27.8930  -11.2719   18.8672 H   0  0  0  0  0  0
  -27.3797  -12.5432   17.7931 H   0  0  0  0  0  0
  -27.6549  -14.2223   19.4927 H   0  0  0  0  0  0
  -28.7507  -12.0071   21.3047 H   0  0  0  0  0  0
  -28.4183  -13.5936   21.8842 H   0  0  0  0  0  0
  -25.2758   -9.5707   22.4705 H   0  0  0  0  0  0
  -24.0038   -7.4636   22.7455 H   0  0  0  0  0  0
  -21.0830   -8.8713   19.8938 H   0  0  0  0  0  0
  -22.3665  -10.9627   19.6124 H   0  0  0  0  0  0
  -21.1984   -7.6137   23.9715 H   0  0  0  0  0  0
  -21.1466   -6.0516   25.9080 H   0  0  0  0  0  0
  -22.0615   -2.7598   23.2864 H   0  0  0  0  0  0
  -22.4206  -11.9831   22.4701 H   0  0  0  0  0  0
  -21.1149  -13.1168   22.2660 H   0  0  0  0  0  0
  -24.7382  -15.8593   20.6734 H   0  0  0  0  0  0
  -26.3918  -15.5643   20.4363 H   0  0  0  0  0  0
  -26.7229  -32.5409   23.1075 H   0  0  0  0  0  0
  -25.0129  -33.9696   25.0402 H   0  0  0  0  0  0
  -22.7216  -31.2989   21.3992 H   0  0  0  0  0  0
  -23.3776  -35.9617   23.3293 H   0  0  0  0  0  0
  -24.3580  -36.8922   22.2044 H   0  0  0  0  0  0
  -23.7266  -37.6490   23.6672 H   0  0  0  0  0  0
  -26.1139  -31.5328   20.6086 H   0  0  0  0  0  0
  -26.8487  -30.8156   22.0118 H   0  0  0  0  0  0
  -28.1174  -28.9397   21.1942 H   0  0  0  0  0  0
  -25.9406  -25.9195   18.9879 H   0  0  0  0  0  0
  -23.9661  -27.3040   19.0123 H   0  0  0  0  0  0
  -23.7676  -30.5925   19.4029 H   0  0  0  0  0  0
  -22.7608  -29.2487   19.8540 H   0  0  0  0  0  0
  -25.1312  -36.1908   25.0808 H   0  0  0  0  0  0
  -20.9983  -28.3292   24.1396 H   0  0  0  0  0  0
  -20.5707  -26.2313   23.3616 H   0  0  0  0  0  0
  -21.6651  -26.7443   22.1189 H   0  0  0  0  0  0
  -19.6917  -25.6286   21.1256 H   0  0  0  0  0  0
  -19.6703  -27.3184   20.6744 H   0  0  0  0  0  0
  -17.4211  -26.6695   21.4020 H   0  0  0  0  0  0
  -18.0315  -26.0077   22.9016 H   0  0  0  0  0  0
  -19.7943  -30.7285   24.2243 H   0  0  0  0  0  0
  -17.5022  -31.6267   24.5165 H   0  0  0  0  0  0
  -15.5362  -30.2967   23.7682 H   0  0  0  0  0  0
  -15.8685  -28.0815   22.7068 H   0  0  0  0  0  0
  -24.5870  -30.7147   25.7746 H   0  0  0  0  0  0
  -24.8941  -32.2959   26.4847 H   0  0  0  0  0  0
  -25.8002  -30.8929   27.0224 H   0  0  0  0  0  0
  -26.2960  -29.6761   24.1233 H   0  0  0  0  0  0
  -27.3997  -29.7268   25.4777 H   0  0  0  0  0  0
  -27.8856  -30.4273   23.9519 H   0  0  0  0  0  0
  -27.2630  -33.3621   26.2121 H   0  0  0  0  0  0
  -28.3873  -32.6935   25.0379 H   0  0  0  0  0  0
  -28.0725  -31.8467   26.5449 H   0  0  0  0  0  0
  -28.2589  -38.0120   24.7510 H   0  0  0  0  0  0
  -28.1108  -36.2651   24.6282 H   0  0  0  0  0  0
  -27.2300  -37.1432   25.8858 H   0  0  0  0  0  0
  -20.9427  -29.8769   21.6852 H   0  0  0  0  0  0
  -26.0181  -38.2851   24.1405 H   0  0  0  0  0  0
  -28.2929  -18.6938   20.1881 H   0  0  0  0  0  0
  -30.9234  -21.8024   20.7718 H   0  0  0  0  0  0
  -27.9693  -21.9850   20.2344 H   0  0  0  0  0  0
  -32.4674  -16.6540   22.2733 H   0  0  0  0  0  0
  -33.2595  -18.2124   22.0863 H   0  0  0  0  0  0
  -33.2679  -17.0574   20.7558 H   0  0  0  0  0  0
  -28.6127  -23.8899   17.9214 H   0  0  0  0  0  0
  -29.6223  -25.3109   18.1398 H   0  0  0  0  0  0
  -27.9305  -25.4978   17.7077 H   0  0  0  0  0  0
  -30.2142  -24.1280   20.4811 H   0  0  0  0  0  0
  -28.9581  -24.0708   21.6695 H   0  0  0  0  0  0
  -27.2455  -24.6022   19.9414 H   0  0  0  0  0  0
  -28.1015  -16.9007   21.4030 H   0  0  0  0  0  0
  1 25  1  0  0  0
  1 30  2  0  0  0
  1 77  1  0  0  0
  2  3  1  0  0  0
  2 25  1  0  0  0
  2 84  1  0  0  0
  2 85  1  0  0  0
  3  4  1  0  0  0
  3 86  1  0  0  0
  3 87  1  0  0  0
  4  5  1  0  0  0
  4 88  1  0  0  0
  4 89  1  0  0  0
  5  6  1  0  0  0
  5 26  1  0  0  0
  5 90  1  0  0  0
  6 25  1  0  0  0
  6 91  1  0  0  0
  6 92  1  0  0  0
  7  8  2  0  0  0
  7 26  1  0  0  0
  7 29  1  0  0  0
  8  9  1  0  0  0
  8 22  1  0  0  0
  9 10  1  0  0  0
  9 27  2  0  0  0
 10 11  2  0  0  0
 10 15  1  0  0  0
 11 12  1  0  0  0
 11 93  1  0  0  0
 12 13  2  0  0  0
 12 94  1  0  0  0
 13 14  1  0  0  0
 13 31  1  0  0  0
 14 15  2  0  0  0
 14 95  1  0  0  0
 15 96  1  0  0  0
 16 17  2  0  0  0
 16 21  1  0  0  0
 16 31  1  0  0  0
 17 18  1  0  0  0
 17 97  1  0  0  0
 18 19  2  0  0  0
 18 98  1  0  0  0
 19 20  1  0  0  0
 19 24  1  0  0  0
 20 21  2  0  0  0
 20 99  1  0  0  0
 21 23  1  0  0  0
 22 28  1  0  0  0
 22 32  2  0  0  0
 26 27  1  0  0  0
 28100  1  0  0  0
 28101  1  0  0  0
 29102  1  0  0  0
 29103  1  0  0  0
 33 34  1  0  0  0
 33 66  1  0  0  0
 33 70  2  0  0  0
 34 36  1  0  0  0
 34 59  1  0  0  0
 34104  1  0  0  0
 35 44  2  0  0  0
 35 45  1  0  0  0
 35 68  1  0  0  0
 36 56  1  0  0  0
 36105  1  0  0  0
 37 39  1  0  0  0
 37 47  1  0  0  0
 37 66  1  0  0  0
 37106  1  0  0  0
 38 43  2  0  0  0
 38 46  1  0  0  0
 38 47  1  0  0  0
 39 64  1  0  0  0
 39 67  2  0  0  0
 40 52  1  0  0  0
 40 53  2  0  0  0
 40 58  1  0  0  0
 41107  1  0  0  0
 41108  1  0  0  0
 41109  1  0  0  0
 41 48  1  0  0  0
 42 43  1  0  0  0
 42 66  1  0  0  0
 42110  1  0  0  0
 42111  1  0  0  0
 43 44  1  0  0  0
 44112  1  0  0  0
 45 46  2  0  0  0
 45113  1  0  0  0
 46114  1  0  0  0
 47115  1  0  0  0
 47116  1  0  0  0
 48 56  1  0  0  0
 48 65  1  0  0  0
 48117  1  0  0  0
 49 50  1  0  0  0
 49 53  1  0  0  0
 49 64  1  0  0  0
 49118  1  0  0  0
 50 51  1  0  0  0
 50119  1  0  0  0
 50120  1  0  0  0
 51 52  1  0  0  0
 51121  1  0  0  0
 51122  1  0  0  0
 52123  1  0  0  0
 52124  1  0  0  0
 53 54  1  0  0  0
 54 55  2  0  0  0
 54125  1  0  0  0
 55 57  1  0  0  0
 55126  1  0  0  0
 56 69  2  0  0  0
 57 58  2  0  0  0
 57127  1  0  0  0
 58128  1  0  0  0
 59 60  1  0  0  0
 59 61  1  0  0  0
 59 62  1  0  0  0
 60129  1  0  0  0
 60130  1  0  0  0
 60131  1  0  0  0
 61132  1  0  0  0
 61133  1  0  0  0
 61134  1  0  0  0
 62135  1  0  0  0
 62136  1  0  0  0
 62137  1  0  0  0
 63 65  1  0  0  0
 63138  1  0  0  0
 63139  1  0  0  0
 63140  1  0  0  0
 64141  1  0  0  0
 65142  1  0  0  0
 68 81  1  0  0  0
 71 72  1  0  0  0
 71 73  2  0  0  0
 71143  1  0  0  0
 72 74  2  0  0  0
 72 77  1  0  0  0
 73 75  1  0  0  0
 73 83  1  0  0  0
 74 78  1  0  0  0
 74 83  1  0  0  0
 75 76  2  0  0  0
 75144  1  0  0  0
 76 80  1  0  0  0
 76145  1  0  0  0
 77 82  2  0  0  0
 78146  1  0  0  0
 78147  1  0  0  0
 78148  1  0  0  0
 79149  1  0  0  0
 79150  1  0  0  0
 79151  1  0  0  0
 79 81  1  0  0  0
 80 81  1  0  0  0
 80152  1  0  0  0
 80153  1  0  0  0
 81154  1  0  0  0
 82155  1  0  0  0
M  ISO  4   1 100  68 101  77 100  81 101
M  END
> <chiral flag>
0

> <version>
0

> <s_m_source_file>
/data/baiqing/PycharmProjects/Reinvent-master-3.2/result/LINK_invent/BTK/process_docking_weight1_custom_product_contain_oxygen_bond_distance_aromatic_linkinvent_7_9_3/rearranged_h_0124.sdf

> <i_m_source_file_index>
53

> <r_mmod_Potential_Energy-OPLS-2005>
264.962005615234

> <r_mmod_Stretch_Energy-OPLS-2005>
124.56413269043

> <r_mmod_Bend_Energy-OPLS-2005>
188.0751953125

> <r_mmod_Torsional_Energy-OPLS-2005>
185.3134765625

> <r_mmod_Improper_Torsional_Energy-OPLS-2005>
7.1249213218689

> <r_mmod_Van_der_Waal_Energy-OPLS-2005>
131.019760131836

> <r_mmod_Electrostatic_Energy-OPLS-2005>
-261.184539794922

> <r_mmod_Solvation_Energy-OPLS-2005>
-186.620025634766

> <b_mmod_Minimization_Converged-OPLS-2005>
0

> <r_mmod_RMS_Derivative-OPLS-2005>
2.33915257453918

$$$$
53
                    3D
 Structure written by MMmdl.
167176  0  0  1  0            999 V2000
  -30.7277  -14.4314   20.5837 C   0  0  0  0  0  0
  -30.4130  -12.2853   19.4088 C   0  0  0  0  0  0
  -29.4872  -12.5078   18.1963 C   0  0  0  0  0  0
  -28.0080  -12.3765   18.6089 C   0  0  0  0  0  0
  -27.6634  -13.2067   19.8746 C   0  0  2  0  0  0
  -28.7085  -12.9762   20.9904 C   0  0  0  0  0  0
  -25.2622  -13.8167   20.5698 C   0  0  0  0  0  0
  -24.1870  -13.0444   20.9177 C   0  0  0  0  0  0
  -24.6406  -11.6904   20.8733 C   0  0  0  0  0  0
  -23.9062  -10.4295   21.0415 C   0  0  0  0  0  0
  -24.3614   -9.4208   21.9192 C   0  0  0  0  0  0
  -23.6294   -8.2237   22.0762 C   0  0  0  0  0  0
  -22.4277   -8.0280   21.3548 C   0  0  0  0  0  0
  -21.9913   -9.0262   20.4650 C   0  0  0  0  0  0
  -22.7235  -10.2145   20.3060 C   0  0  0  0  0  0
  -21.6861   -6.0738   22.5274 C   0  0  0  0  0  0
  -21.4015   -6.5641   23.8205 C   0  0  0  0  0  0
  -21.3653   -5.6794   24.9171 C   0  0  0  0  0  0
  -21.6048   -4.3056   24.7226 C   0  0  0  0  0  0
  -21.8822   -3.8147   23.4342 C   0  0  0  0  0  0
  -21.9201   -4.6965   22.3399 C   0  0  0  0  0  0
  -22.7892  -13.5241   21.1846 C   0  0  0  0  0  0
  -22.1675   -4.2150   21.0980 F   0  0  0  0  0  0
  -21.5623   -3.4537   25.7735 F   0  0  0  0  0  0
  -30.0362  -13.2698   20.4344 N   0  0  0  0  0  0
  -26.3052  -12.9333   20.3378 N   0  0  0  0  0  0
  -25.9335  -11.6491   20.5758 N   0  0  0  0  0  0
  -22.0531  -12.8222   22.0389 N   0  0  0  0  0  0
  -25.4364  -15.1884   20.4123 N   0  0  0  0  0  0
  -31.8631  -14.5602   20.1130 O   0  0  0  0  0  0
  -21.6641   -6.8881   21.4235 O   0  0  0  0  0  0
  -22.3574  -14.5557   20.6706 O   0  0  0  0  0  0
  -24.6125  -31.8695   23.2109 C   0  0  0  0  0  0
  -25.9030  -32.4828   23.8398 C   0  0  1  0  0  0
  -27.2339  -27.4493   20.0864 C   0  0  0  0  0  0
  -25.5901  -33.8625   24.2333 N   0  0  0  0  0  0
  -23.3977  -30.4936   21.5525 C   0  0  2  0  0  0
  -24.8412  -28.9593   20.1179 C   0  0  0  0  0  0
  -22.7390  -29.4665   22.5005 C   0  0  0  0  0  0
  -18.0269  -28.1372   22.8488 C   0  0  0  0  0  0
  -24.1489  -36.7319   23.2639 C   0  0  0  0  0  0
  -25.9247  -30.8397   21.3600 C   0  0  0  0  0  0
  -26.0007  -29.4742   20.7088 C   0  0  0  0  0  0
  -27.1975  -28.7260   20.6895 C   0  0  0  0  0  0
  -26.0490  -26.9387   19.5050 C   0  0  0  0  0  0
  -24.8590  -27.6895   19.5168 C   0  0  0  0  0  0
  -23.6038  -29.8251   20.1670 C   0  0  0  0  0  0
  -25.4110  -36.3115   24.0337 C   0  0  1  0  0  0
  -20.5856  -28.3657   23.1329 C   0  0  2  0  0  0
  -20.6761  -26.9395   22.5425 C   0  0  0  0  0  0
  -19.5749  -26.6383   21.5209 C   0  0  0  0  0  0
  -18.1919  -26.7925   22.1608 C   0  0  0  0  0  0
  -19.1515  -28.8829   23.2909 C   0  0  0  0  0  0
  -18.9446  -30.1438   23.8913 C   0  0  0  0  0  0
  -17.6450  -30.6584   24.0563 C   0  0  0  0  0  0
  -25.9035  -34.9479   23.5131 C   0  0  0  0  0  0
  -16.5342  -29.9083   23.6325 C   0  0  0  0  0  0
  -16.7259  -28.6501   23.0341 C   0  0  0  0  0  0
  -26.4466  -31.6597   25.0715 C   0  0  0  0  0  0
  -25.3744  -31.3678   26.1467 C   0  0  0  0  0  0
  -27.0301  -30.3052   24.6060 C   0  0  0  0  0  0
  -27.6042  -32.4311   25.7486 C   0  0  0  0  0  0
  -27.5579  -37.1819   24.8462 C   0  0  0  0  0  0
  -21.4121  -29.3033   22.3743 N   0  0  0  0  0  0
  -26.4297  -37.3796   23.9401 N   0  0  0  0  0  0
  -24.6634  -31.0810   22.1001 N   0  0  0  0  0  0
  -23.4174  -28.8206   23.3038 O   0  0  0  0  0  0
  -28.4325  -26.7683   20.0778 O   0  0  0  0  0  0
  -26.5589  -34.8925   22.4688 O   0  0  0  0  0  0
  -23.5325  -32.1437   23.7524 O   0  0  0  0  0  0
  -32.3382  -21.0589   18.2639 C   0  0  0  0  0  0
  -30.9422  -20.3824   20.1449 C   0  0  0  0  0  0
  -32.6433  -19.7113   18.0014 C   0  0  0  0  0  0
  -31.2450  -19.0176   19.9077 C   0  0  0  0  0  0
  -31.4961  -21.4067   19.3371 C   0  0  0  0  0  0
  -32.1133  -18.6983   18.8234 C   0  0  0  0  0  0
  -30.9300  -25.5584   19.6439 C   0  0  0  0  0  0
  -29.8366  -24.7856   19.8083 C   0  0  0  0  0  0
  -30.3785  -16.9041   20.3804 C   0  0  0  0  0  0
  -32.3460  -25.0133   19.5883 C   0  0  0  0  0  0
  -29.9455  -23.2653   19.9356 C   0  0  0  0  0  0
  -32.4398  -23.5412   20.0277 C   0  0  0  0  0  0
  -33.5622  -19.3467   16.8520 C   0  0  0  0  0  0
  -30.5748  -15.8206   22.6995 C   0  0  0  0  0  0
  -28.4269  -25.3617   19.8176 C   0  0  0  0  0  0
  -30.0731  -15.6734   21.2487 C   0  0  2  0  0  0
  -30.7569  -18.0479   20.8103 N   0  0  0  0  0  0
  -31.2781  -22.7740   19.5810 N   0  0  0  0  0  0
  -32.4761  -17.4164   18.5716 F   0  0  0  0  0  0
  -31.4584  -12.3630   19.1053 H   0  0  0  0  0  0
  -30.2941  -11.2730   19.7972 H   0  0  0  0  0  0
  -29.7174  -11.7916   17.4065 H   0  0  0  0  0  0
  -29.6642  -13.4980   17.7741 H   0  0  0  0  0  0
  -27.8069  -11.3204   18.7916 H   0  0  0  0  0  0
  -27.3602  -12.6700   17.7816 H   0  0  0  0  0  0
  -27.7111  -14.2558   19.5853 H   0  0  0  0  0  0
  -28.6792  -11.9379   21.3242 H   0  0  0  0  0  0
  -28.4845  -13.5667   21.8787 H   0  0  0  0  0  0
  -25.2769   -9.5685   22.4756 H   0  0  0  0  0  0
  -24.0016   -7.4634   22.7475 H   0  0  0  0  0  0
  -21.0850   -8.8778   19.8953 H   0  0  0  0  0  0
  -22.3699  -10.9690   19.6162 H   0  0  0  0  0  0
  -21.1996   -7.6148   23.9706 H   0  0  0  0  0  0
  -21.1475   -6.0527   25.9078 H   0  0  0  0  0  0
  -22.0602   -2.7605   23.2839 H   0  0  0  0  0  0
  -22.4153  -11.9867   22.4747 H   0  0  0  0  0  0
  -21.1150  -13.1243   22.2612 H   0  0  0  0  0  0
  -24.6702  -15.8442   20.5211 H   0  0  0  0  0  0
  -26.2909  -15.6278   20.0939 H   0  0  0  0  0  0
  -26.7096  -32.5543   23.1160 H   0  0  0  0  0  0
  -25.0069  -33.9793   25.0488 H   0  0  0  0  0  0
  -22.6855  -31.3100   21.4145 H   0  0  0  0  0  0
  -23.3743  -35.9661   23.3313 H   0  0  0  0  0  0
  -24.3579  -36.8924   22.2050 H   0  0  0  0  0  0
  -23.7251  -37.6532   23.6646 H   0  0  0  0  0  0
  -26.0309  -31.6048   20.5897 H   0  0  0  0  0  0
  -26.8154  -30.8951   21.9740 H   0  0  0  0  0  0
  -28.0957  -29.1251   21.1400 H   0  0  0  0  0  0
  -26.0178  -25.9715   19.0272 H   0  0  0  0  0  0
  -23.9648  -27.2848   19.0626 H   0  0  0  0  0  0
  -23.7117  -30.5995   19.4068 H   0  0  0  0  0  0
  -22.7275  -29.2453   19.8717 H   0  0  0  0  0  0
  -25.1288  -36.1982   25.0831 H   0  0  0  0  0  0
  -20.9945  -28.3217   24.1452 H   0  0  0  0  0  0
  -20.5659  -26.2259   23.3602 H   0  0  0  0  0  0
  -21.6635  -26.7440   22.1226 H   0  0  0  0  0  0
  -19.6912  -25.6296   21.1231 H   0  0  0  0  0  0
  -19.6704  -27.3200   20.6746 H   0  0  0  0  0  0
  -17.4201  -26.6689   21.3995 H   0  0  0  0  0  0
  -18.0307  -26.0057   22.8990 H   0  0  0  0  0  0
  -19.7920  -30.7248   24.2292 H   0  0  0  0  0  0
  -17.5006  -31.6264   24.5164 H   0  0  0  0  0  0
  -15.5343  -30.2990   23.7642 H   0  0  0  0  0  0
  -15.8659  -28.0832   22.7038 H   0  0  0  0  0  0
  -24.5955  -30.6973   25.7812 H   0  0  0  0  0  0
  -24.8885  -32.2819   26.4893 H   0  0  0  0  0  0
  -25.8125  -30.8885   27.0232 H   0  0  0  0  0  0
  -26.2837  -29.6815   24.1123 H   0  0  0  0  0  0
  -27.4102  -29.7276   25.4495 H   0  0  0  0  0  0
  -27.8654  -30.4388   23.9181 H   0  0  0  0  0  0
  -27.2651  -33.3579   26.2126 H   0  0  0  0  0  0
  -28.3828  -32.6923   25.0307 H   0  0  0  0  0  0
  -28.0741  -31.8398   26.5356 H   0  0  0  0  0  0
  -28.2610  -38.0102   24.7490 H   0  0  0  0  0  0
  -28.1064  -36.2633   24.6315 H   0  0  0  0  0  0
  -27.2296  -37.1505   25.8866 H   0  0  0  0  0  0
  -20.9265  -29.8764   21.6981 H   0  0  0  0  0  0
  -26.0186  -38.2878   24.1392 H   0  0  0  0  0  0
  -32.7587  -21.8354   17.6399 H   0  0  0  0  0  0
  -30.3106  -20.6415   20.9823 H   0  0  0  0  0  0
  -30.8287  -26.6267   19.5144 H   0  0  0  0  0  0
  -30.2654  -16.7103   19.3088 H   0  0  0  0  0  0
  -33.0002  -25.6300   20.2058 H   0  0  0  0  0  0
  -32.7001  -25.1180   18.5617 H   0  0  0  0  0  0
  -29.2103  -22.8057   19.2729 H   0  0  0  0  0  0
  -29.6903  -22.9735   20.9556 H   0  0  0  0  0  0
  -32.4752  -23.4936   21.1171 H   0  0  0  0  0  0
  -33.3771  -23.1067   19.6752 H   0  0  0  0  0  0
  -33.8693  -20.2269   16.2869 H   0  0  0  0  0  0
  -33.0596  -18.6634   16.1674 H   0  0  0  0  0  0
  -34.4584  -18.8529   17.2277 H   0  0  0  0  0  0
  -30.1108  -16.6727   23.1958 H   0  0  0  0  0  0
  -31.6561  -15.9620   22.7367 H   0  0  0  0  0  0
  -30.3383  -14.9329   23.2867 H   0  0  0  0  0  0
  -27.8419  -24.8557   20.5879 H   0  0  0  0  0  0
  -27.9861  -25.1346   18.8468 H   0  0  0  0  0  0
  -28.9890  -15.5817   21.2555 H   0  0  0  0  0  0
  1 25  1  0  0  0
  1 30  2  0  0  0
  1 86  1  0  0  0
  2  3  1  0  0  0
  2 25  1  0  0  0
  2 90  1  0  0  0
  2 91  1  0  0  0
  3  4  1  0  0  0
  3 92  1  0  0  0
  3 93  1  0  0  0
  4  5  1  0  0  0
  4 94  1  0  0  0
  4 95  1  0  0  0
  5  6  1  0  0  0
  5 26  1  0  0  0
  5 96  1  0  0  0
  6 25  1  0  0  0
  6 97  1  0  0  0
  6 98  1  0  0  0
  7  8  2  0  0  0
  7 26  1  0  0  0
  7 29  1  0  0  0
  8  9  1  0  0  0
  8 22  1  0  0  0
  9 10  1  0  0  0
  9 27  2  0  0  0
 10 11  2  0  0  0
 10 15  1  0  0  0
 11 12  1  0  0  0
 11 99  1  0  0  0
 12 13  2  0  0  0
 12100  1  0  0  0
 13 14  1  0  0  0
 13 31  1  0  0  0
 14 15  2  0  0  0
 14101  1  0  0  0
 15102  1  0  0  0
 16 17  2  0  0  0
 16 21  1  0  0  0
 16 31  1  0  0  0
 17 18  1  0  0  0
 17103  1  0  0  0
 18 19  2  0  0  0
 18104  1  0  0  0
 19 20  1  0  0  0
 19 24  1  0  0  0
 20 21  2  0  0  0
 20105  1  0  0  0
 21 23  1  0  0  0
 22 28  1  0  0  0
 22 32  2  0  0  0
 26 27  1  0  0  0
 28106  1  0  0  0
 28107  1  0  0  0
 29108  1  0  0  0
 29109  1  0  0  0
 33 34  1  0  0  0
 33 66  1  0  0  0
 33 70  2  0  0  0
 34 36  1  0  0  0
 34 59  1  0  0  0
 34110  1  0  0  0
 35 44  2  0  0  0
 35 45  1  0  0  0
 35 68  1  0  0  0
 36 56  1  0  0  0
 36111  1  0  0  0
 37 39  1  0  0  0
 37 47  1  0  0  0
 37 66  1  0  0  0
 37112  1  0  0  0
 38 43  2  0  0  0
 38 46  1  0  0  0
 38 47  1  0  0  0
 39 64  1  0  0  0
 39 67  2  0  0  0
 40 52  1  0  0  0
 40 53  2  0  0  0
 40 58  1  0  0  0
 41113  1  0  0  0
 41114  1  0  0  0
 41115  1  0  0  0
 41 48  1  0  0  0
 42 43  1  0  0  0
 42 66  1  0  0  0
 42116  1  0  0  0
 42117  1  0  0  0
 43 44  1  0  0  0
 44118  1  0  0  0
 45 46  2  0  0  0
 45119  1  0  0  0
 46120  1  0  0  0
 47121  1  0  0  0
 47122  1  0  0  0
 48 56  1  0  0  0
 48 65  1  0  0  0
 48123  1  0  0  0
 49 50  1  0  0  0
 49 53  1  0  0  0
 49 64  1  0  0  0
 49124  1  0  0  0
 50 51  1  0  0  0
 50125  1  0  0  0
 50126  1  0  0  0
 51 52  1  0  0  0
 51127  1  0  0  0
 51128  1  0  0  0
 52129  1  0  0  0
 52130  1  0  0  0
 53 54  1  0  0  0
 54 55  2  0  0  0
 54131  1  0  0  0
 55 57  1  0  0  0
 55132  1  0  0  0
 56 69  2  0  0  0
 57 58  2  0  0  0
 57133  1  0  0  0
 58134  1  0  0  0
 59 60  1  0  0  0
 59 61  1  0  0  0
 59 62  1  0  0  0
 60135  1  0  0  0
 60136  1  0  0  0
 60137  1  0  0  0
 61138  1  0  0  0
 61139  1  0  0  0
 61140  1  0  0  0
 62141  1  0  0  0
 62142  1  0  0  0
 62143  1  0  0  0
 63 65  1  0  0  0
 63144  1  0  0  0
 63145  1  0  0  0
 63146  1  0  0  0
 64147  1  0  0  0
 65148  1  0  0  0
 68 85  1  0  0  0
 71 73  2  0  0  0
 71 75  1  0  0  0
 71149  1  0  0  0
 72 74  1  0  0  0
 72 75  2  0  0  0
 72150  1  0  0  0
 73 76  1  0  0  0
 73 83  1  0  0  0
 74 76  2  0  0  0
 74 87  1  0  0  0
 75 88  1  0  0  0
 76 89  1  0  0  0
 77 78  2  0  0  0
 77 80  1  0  0  0
 77151  1  0  0  0
 78 81  1  0  0  0
 78 85  1  0  0  0
 79 86  1  0  0  0
 79 87  2  0  0  0
 79152  1  0  0  0
 80 82  1  0  0  0
 80153  1  0  0  0
 80154  1  0  0  0
 81 88  1  0  0  0
 81155  1  0  0  0
 81156  1  0  0  0
 82 88  1  0  0  0
 82157  1  0  0  0
 82158  1  0  0  0
 83159  1  0  0  0
 83160  1  0  0  0
 83161  1  0  0  0
 84162  1  0  0  0
 84163  1  0  0  0
 84164  1  0  0  0
 84 86  1  0  0  0
 85165  1  0  0  0
 85166  1  0  0  0
 86167  1  0  0  0
M  ISO  4   1 100  68 101  85 101  86 100
M  END
> <chiral flag>
0

> <version>
0

> <s_m_source_file>
/data/baiqing/PycharmProjects/Reinvent-master-3.2/result/LINK_invent/BTK/process_docking_weight1_custom_product_contain_oxygen_bond_distance_aromatic_linkinvent_7_9_3/rearranged_h_0124.sdf

> <i_m_source_file_index>
54

> <r_mmod_Potential_Energy-OPLS-2005>
38.4231262207031

> <r_mmod_Stretch_Energy-OPLS-2005>
38.9957733154297

> <r_mmod_Bend_Energy-OPLS-2005>
107.489196777344

> <r_mmod_Torsional_Energy-OPLS-2005>
200.027008056641

> <r_mmod_Improper_Torsional_Energy-OPLS-2005>
4.35681295394897

> <r_mmod_Van_der_Waal_Energy-OPLS-2005>
178.858596801758

> <r_mmod_Electrostatic_Energy-OPLS-2005>
-294.464111328125

> <r_mmod_Solvation_Energy-OPLS-2005>
-208.380828857422

> <b_mmod_Minimization_Converged-OPLS-2005>
0

> <r_mmod_RMS_Derivative-OPLS-2005>
1.25546371936798

$$$$
54
                    3D
 Structure written by MMmdl.
151159  0  0  1  0            999 V2000
  -30.5842  -14.7110   20.4719 C   0  0  0  0  0  0
  -30.4378  -12.4323   19.4829 C   0  0  0  0  0  0
  -29.5146  -12.5133   18.2445 C   0  0  0  0  0  0
  -28.0372  -12.3432   18.6483 C   0  0  0  0  0  0
  -27.6495  -13.2247   19.8652 C   0  0  2  0  0  0
  -28.6877  -13.1154   21.0049 C   0  0  0  0  0  0
  -25.2516  -13.8191   20.5669 C   0  0  0  0  0  0
  -24.1801  -13.0436   20.9184 C   0  0  0  0  0  0
  -24.6390  -11.6920   20.8746 C   0  0  0  0  0  0
  -23.9056  -10.4310   21.0437 C   0  0  0  0  0  0
  -24.3616   -9.4223   21.9201 C   0  0  0  0  0  0
  -23.6310   -8.2242   22.0746 C   0  0  0  0  0  0
  -22.4286   -8.0277   21.3530 C   0  0  0  0  0  0
  -21.9914   -9.0257   20.4639 C   0  0  0  0  0  0
  -22.7232  -10.2148   20.3078 C   0  0  0  0  0  0
  -21.6851   -6.0757   22.5288 C   0  0  0  0  0  0
  -21.4007   -6.5663   23.8224 C   0  0  0  0  0  0
  -21.3640   -5.6802   24.9181 C   0  0  0  0  0  0
  -21.6043   -4.3067   24.7216 C   0  0  0  0  0  0
  -21.8822   -3.8166   23.4339 C   0  0  0  0  0  0
  -21.9199   -4.6991   22.3406 C   0  0  0  0  0  0
  -22.7816  -13.5223   21.1834 C   0  0  0  0  0  0
  -22.1677   -4.2181   21.0981 F   0  0  0  0  0  0
  -21.5625   -3.4536   25.7720 F   0  0  0  0  0  0
  -29.9962  -13.4696   20.4430 N   0  0  0  0  0  0
  -26.2965  -12.9395   20.3331 N   0  0  0  0  0  0
  -25.9323  -11.6547   20.5774 N   0  0  0  0  0  0
  -22.0461  -12.8216   22.0416 N   0  0  0  0  0  0
  -25.4214  -15.1921   20.4100 N   0  0  0  0  0  0
  -31.7488  -14.8535   20.0831 O   0  0  0  0  0  0
  -21.6636   -6.8875   21.4239 O   0  0  0  0  0  0
  -22.3493  -14.5507   20.6663 O   0  0  0  0  0  0
  -24.6306  -31.8533   23.2046 C   0  0  0  0  0  0
  -25.9106  -32.4746   23.8361 C   0  0  1  0  0  0
  -27.1873  -27.2511   20.1057 C   0  0  0  0  0  0
  -25.5892  -33.8553   24.2246 N   0  0  0  0  0  0
  -23.4221  -30.4845   21.5504 C   0  0  2  0  0  0
  -24.8566  -28.9362   20.1113 C   0  0  0  0  0  0
  -22.7485  -29.4596   22.4933 C   0  0  0  0  0  0
  -18.0314  -28.1369   22.8503 C   0  0  0  0  0  0
  -24.1469  -36.7308   23.2649 C   0  0  0  0  0  0
  -25.9710  -30.7618   21.3846 C   0  0  0  0  0  0
  -26.0327  -29.3855   20.7243 C   0  0  0  0  0  0
  -27.1975  -28.5509   20.7196 C   0  0  0  0  0  0
  -25.9879  -26.8849   19.4516 C   0  0  0  0  0  0
  -24.8365  -27.6901   19.4742 C   0  0  0  0  0  0
  -23.6365  -29.8317   20.1614 C   0  0  0  0  0  0
  -25.4105  -36.3090   24.0329 C   0  0  1  0  0  0
  -20.5911  -28.3718   23.1297 C   0  0  2  0  0  0
  -20.6810  -26.9403   22.5464 C   0  0  0  0  0  0
  -19.5766  -26.6336   21.5291 C   0  0  0  0  0  0
  -18.1965  -26.7863   22.1741 C   0  0  0  0  0  0
  -19.1555  -28.8887   23.2860 C   0  0  0  0  0  0
  -18.9468  -30.1501   23.8852 C   0  0  0  0  0  0
  -17.6441  -30.6597   24.0504 C   0  0  0  0  0  0
  -25.9041  -34.9445   23.5096 C   0  0  0  0  0  0
  -16.5353  -29.9082   23.6257 C   0  0  0  0  0  0
  -16.7298  -28.6466   23.0348 C   0  0  0  0  0  0
  -26.4472  -31.6602   25.0770 C   0  0  0  0  0  0
  -25.3700  -31.3763   26.1506 C   0  0  0  0  0  0
  -27.0312  -30.3026   24.6245 C   0  0  0  0  0  0
  -27.6009  -32.4356   25.7547 C   0  0  0  0  0  0
  -27.5556  -37.1843   24.8476 C   0  0  0  0  0  0
  -21.4211  -29.3036   22.3669 N   0  0  0  0  0  0
  -26.4282  -37.3784   23.9405 N   0  0  0  0  0  0
  -24.6949  -31.0498   22.1032 N   0  0  0  0  0  0
  -23.4183  -28.8131   23.3027 O   0  0  0  0  0  0
  -28.2847  -26.3606   20.1777 O   0  0  0  0  0  0
  -26.5641  -34.8929   22.4679 O   0  0  0  0  0  0
  -23.5464  -32.1364   23.7342 O   0  0  0  0  0  0
  -29.3314  -18.3799   20.7518 C   0  0  0  0  0  0
  -29.3640  -19.5506   18.6224 C   0  0  0  0  0  0
  -29.8639  -17.1496   18.7196 C   0  0  0  0  0  0
  -29.1840  -19.6350   20.0221 C   0  0  0  0  0  0
  -29.6939  -17.1159   20.1234 C   0  0  0  0  0  0
  -29.6899  -18.3379   17.9844 C   0  0  0  0  0  0
  -28.8934  -21.0244   20.6352 C   0  0  0  0  0  0
  -28.9623  -22.2786   20.0415 C   0  0  0  0  0  0
  -28.7368  -23.7237   20.6599 C   0  0  0  0  0  0
  -28.2061  -24.9233   19.7265 C   0  0  0  0  0  0
  -29.7968  -15.8025   20.8032 N   0  0  0  0  0  0
  -29.8337  -18.3126   16.6374 F   0  0  0  0  0  0
  -31.4798  -12.5622   19.1836 H   0  0  0  0  0  0
  -30.3825  -11.4456   19.9450 H   0  0  0  0  0  0
  -29.7938  -11.7558   17.5109 H   0  0  0  0  0  0
  -29.6495  -13.4791   17.7562 H   0  0  0  0  0  0
  -27.8802  -11.2888   18.8849 H   0  0  0  0  0  0
  -27.3873  -12.5675   17.8023 H   0  0  0  0  0  0
  -27.6567  -14.2572   19.5117 H   0  0  0  0  0  0
  -28.7170  -12.1032   21.4137 H   0  0  0  0  0  0
  -28.4209  -13.7691   21.8385 H   0  0  0  0  0  0
  -25.2769   -9.5689   22.4772 H   0  0  0  0  0  0
  -24.0031   -7.4627   22.7458 H   0  0  0  0  0  0
  -21.0844   -8.8783   19.8940 H   0  0  0  0  0  0
  -22.3703  -10.9695   19.6195 H   0  0  0  0  0  0
  -21.1994   -7.6171   23.9719 H   0  0  0  0  0  0
  -21.1451   -6.0540   25.9074 H   0  0  0  0  0  0
  -22.0612   -2.7627   23.2831 H   0  0  0  0  0  0
  -22.4100  -11.9891   22.4803 H   0  0  0  0  0  0
  -21.1087  -13.1247   22.2637 H   0  0  0  0  0  0
  -24.6452  -15.8400   20.4936 H   0  0  0  0  0  0
  -26.2675  -15.6340   20.0722 H   0  0  0  0  0  0
  -26.7151  -32.5404   23.1085 H   0  0  0  0  0  0
  -24.9980  -33.9654   25.0358 H   0  0  0  0  0  0
  -22.7194  -31.3102   21.4126 H   0  0  0  0  0  0
  -23.3702  -35.9660   23.3349 H   0  0  0  0  0  0
  -24.3563  -36.8901   22.2054 H   0  0  0  0  0  0
  -23.7238  -37.6535   23.6645 H   0  0  0  0  0  0
  -26.1084  -31.5175   20.6094 H   0  0  0  0  0  0
  -26.8525  -30.8101   22.0132 H   0  0  0  0  0  0
  -28.0938  -28.8822   21.2250 H   0  0  0  0  0  0
  -25.8710  -25.9613   18.9126 H   0  0  0  0  0  0
  -23.9335  -27.3411   18.9945 H   0  0  0  0  0  0
  -23.7812  -30.6164   19.4181 H   0  0  0  0  0  0
  -22.7477  -29.2797   19.8411 H   0  0  0  0  0  0
  -25.1280  -36.1962   25.0819 H   0  0  0  0  0  0
  -20.9970  -28.3398   24.1438 H   0  0  0  0  0  0
  -20.5741  -26.2308   23.3693 H   0  0  0  0  0  0
  -21.6661  -26.7389   22.1232 H   0  0  0  0  0  0
  -19.6907  -25.6229   21.1347 H   0  0  0  0  0  0
  -19.6668  -27.3138   20.6817 H   0  0  0  0  0  0
  -17.4183  -26.6512   21.4218 H   0  0  0  0  0  0
  -18.0463  -26.0032   22.9182 H   0  0  0  0  0  0
  -19.7958  -30.7336   24.2169 H   0  0  0  0  0  0
  -17.4961  -31.6287   24.5069 H   0  0  0  0  0  0
  -15.5347  -30.2971   23.7528 H   0  0  0  0  0  0
  -15.8718  -28.0721   22.7120 H   0  0  0  0  0  0
  -24.5864  -30.7087   25.7882 H   0  0  0  0  0  0
  -24.8898  -32.2939   26.4918 H   0  0  0  0  0  0
  -25.8054  -30.8995   27.0299 H   0  0  0  0  0  0
  -26.2893  -29.6807   24.1214 H   0  0  0  0  0  0
  -27.3926  -29.7246   25.4755 H   0  0  0  0  0  0
  -27.8790  -30.4294   23.9511 H   0  0  0  0  0  0
  -27.2568  -33.3640   26.2105 H   0  0  0  0  0  0
  -28.3840  -32.6952   25.0408 H   0  0  0  0  0  0
  -28.0631  -31.8514   26.5511 H   0  0  0  0  0  0
  -28.2639  -38.0079   24.7465 H   0  0  0  0  0  0
  -28.1003  -36.2630   24.6379 H   0  0  0  0  0  0
  -27.2294  -37.1575   25.8887 H   0  0  0  0  0  0
  -20.9426  -29.8767   21.6870 H   0  0  0  0  0  0
  -26.0176  -38.2866   24.1388 H   0  0  0  0  0  0
  -29.1721  -18.3894   21.8223 H   0  0  0  0  0  0
  -29.2442  -20.4208   17.9951 H   0  0  0  0  0  0
  -30.0989  -16.2461   18.1727 H   0  0  0  0  0  0
  -28.5973  -21.0011   21.6770 H   0  0  0  0  0  0
  -29.2629  -22.3217   19.0048 H   0  0  0  0  0  0
  -28.0874  -23.6357   21.5306 H   0  0  0  0  0  0
  -29.7038  -24.0336   21.0517 H   0  0  0  0  0  0
  -27.2056  -24.6120   19.4578 H   0  0  0  0  0  0
  -28.7598  -24.8845   18.7862 H   0  0  0  0  0  0
  -29.0033  -15.5664   21.3791 H   0  0  0  0  0  0
  1 25  1  0  0  0
  1 30  2  0  0  0
  1 81  1  0  0  0
  2  3  1  0  0  0
  2 25  1  0  0  0
  2 83  1  0  0  0
  2 84  1  0  0  0
  3  4  1  0  0  0
  3 85  1  0  0  0
  3 86  1  0  0  0
  4  5  1  0  0  0
  4 87  1  0  0  0
  4 88  1  0  0  0
  5  6  1  0  0  0
  5 26  1  0  0  0
  5 89  1  0  0  0
  6 25  1  0  0  0
  6 90  1  0  0  0
  6 91  1  0  0  0
  7  8  2  0  0  0
  7 26  1  0  0  0
  7 29  1  0  0  0
  8  9  1  0  0  0
  8 22  1  0  0  0
  9 10  1  0  0  0
  9 27  2  0  0  0
 10 11  2  0  0  0
 10 15  1  0  0  0
 11 12  1  0  0  0
 11 92  1  0  0  0
 12 13  2  0  0  0
 12 93  1  0  0  0
 13 14  1  0  0  0
 13 31  1  0  0  0
 14 15  2  0  0  0
 14 94  1  0  0  0
 15 95  1  0  0  0
 16 17  2  0  0  0
 16 21  1  0  0  0
 16 31  1  0  0  0
 17 18  1  0  0  0
 17 96  1  0  0  0
 18 19  2  0  0  0
 18 97  1  0  0  0
 19 20  1  0  0  0
 19 24  1  0  0  0
 20 21  2  0  0  0
 20 98  1  0  0  0
 21 23  1  0  0  0
 22 28  1  0  0  0
 22 32  2  0  0  0
 26 27  1  0  0  0
 28 99  1  0  0  0
 28100  1  0  0  0
 29101  1  0  0  0
 29102  1  0  0  0
 33 34  1  0  0  0
 33 66  1  0  0  0
 33 70  2  0  0  0
 34 36  1  0  0  0
 34 59  1  0  0  0
 34103  1  0  0  0
 35 44  2  0  0  0
 35 45  1  0  0  0
 35 68  1  0  0  0
 36 56  1  0  0  0
 36104  1  0  0  0
 37 39  1  0  0  0
 37 47  1  0  0  0
 37 66  1  0  0  0
 37105  1  0  0  0
 38 43  2  0  0  0
 38 46  1  0  0  0
 38 47  1  0  0  0
 39 64  1  0  0  0
 39 67  2  0  0  0
 40 52  1  0  0  0
 40 53  2  0  0  0
 40 58  1  0  0  0
 41106  1  0  0  0
 41107  1  0  0  0
 41108  1  0  0  0
 41 48  1  0  0  0
 42 43  1  0  0  0
 42 66  1  0  0  0
 42109  1  0  0  0
 42110  1  0  0  0
 43 44  1  0  0  0
 44111  1  0  0  0
 45 46  2  0  0  0
 45112  1  0  0  0
 46113  1  0  0  0
 47114  1  0  0  0
 47115  1  0  0  0
 48 56  1  0  0  0
 48 65  1  0  0  0
 48116  1  0  0  0
 49 50  1  0  0  0
 49 53  1  0  0  0
 49 64  1  0  0  0
 49117  1  0  0  0
 50 51  1  0  0  0
 50118  1  0  0  0
 50119  1  0  0  0
 51 52  1  0  0  0
 51120  1  0  0  0
 51121  1  0  0  0
 52122  1  0  0  0
 52123  1  0  0  0
 53 54  1  0  0  0
 54 55  2  0  0  0
 54124  1  0  0  0
 55 57  1  0  0  0
 55125  1  0  0  0
 56 69  2  0  0  0
 57 58  2  0  0  0
 57126  1  0  0  0
 58127  1  0  0  0
 59 60  1  0  0  0
 59 61  1  0  0  0
 59 62  1  0  0  0
 60128  1  0  0  0
 60129  1  0  0  0
 60130  1  0  0  0
 61131  1  0  0  0
 61132  1  0  0  0
 61133  1  0  0  0
 62134  1  0  0  0
 62135  1  0  0  0
 62136  1  0  0  0
 63 65  1  0  0  0
 63137  1  0  0  0
 63138  1  0  0  0
 63139  1  0  0  0
 64140  1  0  0  0
 65141  1  0  0  0
 68 80  1  0  0  0
 71 74  2  0  0  0
 71 75  1  0  0  0
 71142  1  0  0  0
 72 74  1  0  0  0
 72 76  2  0  0  0
 72143  1  0  0  0
 73 75  2  0  0  0
 73 76  1  0  0  0
 73144  1  0  0  0
 74 77  1  0  0  0
 75 81  1  0  0  0
 76 82  1  0  0  0
 77 78  2  0  0  0
 77145  1  0  0  0
 78 79  1  0  0  0
 78146  1  0  0  0
 79 80  1  0  0  0
 79147  1  0  0  0
 79148  1  0  0  0
 80149  1  0  0  0
 80150  1  0  0  0
 81151  1  0  0  0
M  ISO  4   1 100  68 101  80 101  81 100
M  END
> <chiral flag>
0

> <version>
0

> <s_m_source_file>
/data/baiqing/PycharmProjects/Reinvent-master-3.2/result/LINK_invent/BTK/process_docking_weight1_custom_product_contain_oxygen_bond_distance_aromatic_linkinvent_7_9_3/rearranged_h_0124.sdf

> <i_m_source_file_index>
55

> <r_mmod_Potential_Energy-OPLS-2005>
186.428451538086

> <r_mmod_Stretch_Energy-OPLS-2005>
115.064445495605

> <r_mmod_Bend_Energy-OPLS-2005>
149.301940917969

> <r_mmod_Torsional_Energy-OPLS-2005>
235.855743408203

> <r_mmod_Improper_Torsional_Energy-OPLS-2005>
5.27149391174316

> <r_mmod_Van_der_Waal_Energy-OPLS-2005>
144.076583862305

> <r_mmod_Electrostatic_Energy-OPLS-2005>
-336.356079101562

> <r_mmod_Solvation_Energy-OPLS-2005>
-207.247741699219

> <b_mmod_Minimization_Converged-OPLS-2005>
0

> <r_mmod_RMS_Derivative-OPLS-2005>
4.28715562820435

$$$$
55
                    3D
 Structure written by MMmdl.
157165  0  0  1  0            999 V2000
  -30.6743  -14.6206   20.5953 C   0  0  0  0  0  0
  -30.4348  -12.4079   19.4647 C   0  0  0  0  0  0
  -29.5106  -12.5393   18.2334 C   0  0  0  0  0  0
  -28.0323  -12.3669   18.6323 C   0  0  0  0  0  0
  -27.6562  -13.2184   19.8716 C   0  0  2  0  0  0
  -28.6917  -13.0371   21.0010 C   0  0  0  0  0  0
  -25.2509  -13.8136   20.5578 C   0  0  0  0  0  0
  -24.1812  -13.0413   20.9178 C   0  0  0  0  0  0
  -24.6396  -11.6891   20.8748 C   0  0  0  0  0  0
  -23.9064  -10.4278   21.0412 C   0  0  0  0  0  0
  -24.3616   -9.4195   21.9189 C   0  0  0  0  0  0
  -23.6289   -8.2233   22.0756 C   0  0  0  0  0  0
  -22.4272   -8.0276   21.3544 C   0  0  0  0  0  0
  -21.9906   -9.0248   20.4644 C   0  0  0  0  0  0
  -22.7236  -10.2125   20.3056 C   0  0  0  0  0  0
  -21.6848   -6.0729   22.5275 C   0  0  0  0  0  0
  -21.4011   -6.5632   23.8210 C   0  0  0  0  0  0
  -21.3663   -5.6788   24.9174 C   0  0  0  0  0  0
  -21.6043   -4.3052   24.7225 C   0  0  0  0  0  0
  -21.8823   -3.8140   23.4347 C   0  0  0  0  0  0
  -21.9193   -4.6956   22.3401 C   0  0  0  0  0  0
  -22.7837  -13.5211   21.1848 C   0  0  0  0  0  0
  -22.1662   -4.2139   21.0981 F   0  0  0  0  0  0
  -21.5632   -3.4538   25.7742 F   0  0  0  0  0  0
  -30.0185  -13.4107   20.4737 N   0  0  0  0  0  0
  -26.2982  -12.9349   20.3307 N   0  0  0  0  0  0
  -25.9329  -11.6499   20.5761 N   0  0  0  0  0  0
  -22.0492  -12.8208   22.0418 N   0  0  0  0  0  0
  -25.4095  -15.1828   20.3779 N   0  0  0  0  0  0
  -31.7486  -14.8137   20.0149 O   0  0  0  0  0  0
  -21.6635   -6.8872   21.4239 O   0  0  0  0  0  0
  -22.3517  -14.5517   20.6696 O   0  0  0  0  0  0
  -24.6266  -31.8601   23.2043 C   0  0  0  0  0  0
  -25.9113  -32.4778   23.8369 C   0  0  1  0  0  0
  -27.2219  -27.3183   20.1133 C   0  0  0  0  0  0
  -25.5921  -33.8577   24.2289 N   0  0  0  0  0  0
  -23.4201  -30.4857   21.5484 C   0  0  2  0  0  0
  -24.8654  -28.9440   20.1122 C   0  0  0  0  0  0
  -22.7471  -29.4630   22.4950 C   0  0  0  0  0  0
  -18.0282  -28.1385   22.8486 C   0  0  0  0  0  0
  -24.1484  -36.7298   23.2640 C   0  0  0  0  0  0
  -25.9621  -30.7911   21.3755 C   0  0  0  0  0  0
  -26.0365  -29.4194   20.7159 C   0  0  0  0  0  0
  -27.2185  -28.6187   20.7072 C   0  0  0  0  0  0
  -26.0253  -26.9016   19.4814 C   0  0  0  0  0  0
  -24.8621  -27.6900   19.4867 C   0  0  0  0  0  0
  -23.6330  -29.8229   20.1637 C   0  0  0  0  0  0
  -25.4109  -36.3085   24.0328 C   0  0  1  0  0  0
  -20.5881  -28.3690   23.1285 C   0  0  2  0  0  0
  -20.6774  -26.9415   22.5413 C   0  0  0  0  0  0
  -19.5750  -26.6387   21.5216 C   0  0  0  0  0  0
  -18.1928  -26.7930   22.1625 C   0  0  0  0  0  0
  -19.1533  -28.8857   23.2876 C   0  0  0  0  0  0
  -18.9454  -30.1461   23.8889 C   0  0  0  0  0  0
  -17.6455  -30.6592   24.0565 C   0  0  0  0  0  0
  -25.9042  -34.9450   23.5109 C   0  0  0  0  0  0
  -16.5343  -29.9086   23.6342 C   0  0  0  0  0  0
  -16.7269  -28.6507   23.0353 C   0  0  0  0  0  0
  -26.4496  -31.6585   25.0738 C   0  0  0  0  0  0
  -25.3726  -31.3714   26.1461 C   0  0  0  0  0  0
  -27.0354  -30.3011   24.6203 C   0  0  0  0  0  0
  -27.6059  -32.4325   25.7495 C   0  0  0  0  0  0
  -27.5579  -37.1793   24.8463 C   0  0  0  0  0  0
  -21.4183  -29.3045   22.3685 N   0  0  0  0  0  0
  -26.4288  -37.3780   23.9413 N   0  0  0  0  0  0
  -24.6890  -31.0613   22.0999 N   0  0  0  0  0  0
  -23.4194  -28.8158   23.3022 O   0  0  0  0  0  0
  -28.3297  -26.4543   20.1675 O   0  0  0  0  0  0
  -26.5614  -34.8917   22.4676 O   0  0  0  0  0  0
  -23.5430  -32.1400   23.7373 O   0  0  0  0  0  0
  -31.0803  -17.9432   20.5453 C   0  0  0  0  0  0
  -31.0498  -19.3475   20.2968 C   0  0  0  0  0  0
  -28.7677  -19.4431   21.0010 C   0  0  0  0  0  0
  -29.9647  -17.2272   21.0582 C   0  0  0  0  0  0
  -28.7874  -18.0341   21.2641 C   0  0  0  0  0  0
  -29.9037  -20.1487   20.5334 C   0  0  0  0  0  0
  -30.0832  -15.7507   21.5223 C   0  0  0  0  0  0
  -29.1910  -23.9794   20.3486 C   0  0  0  0  0  0
  -27.2187  -17.8009   23.2600 C   0  0  0  0  0  0
  -27.4835  -17.4424   21.7916 C   0  0  0  0  0  0
  -28.0377  -25.0040   20.0313 C   0  0  0  0  0  0
  -28.8381  -22.4405   20.4905 C   0  0  0  0  0  0
  -29.7439  -15.4784   22.7142 N   0  0  0  0  0  0
  -30.3563  -24.3718   20.4832 O   0  0  0  0  0  0
  -29.9820  -21.5405   20.3114 O   0  0  0  0  0  0
  -31.4767  -12.5275   19.1639 H   0  0  0  0  0  0
  -30.3707  -11.4027   19.8846 H   0  0  0  0  0  0
  -29.7822  -11.8034   17.4753 H   0  0  0  0  0  0
  -29.6534  -13.5190   17.7748 H   0  0  0  0  0  0
  -27.8654  -11.3103   18.8454 H   0  0  0  0  0  0
  -27.3821  -12.6143   17.7925 H   0  0  0  0  0  0
  -27.6875  -14.2627   19.5608 H   0  0  0  0  0  0
  -28.7071  -11.9984   21.3341 H   0  0  0  0  0  0
  -28.3827  -13.6021   21.8755 H   0  0  0  0  0  0
  -25.2761   -9.5670   22.4761 H   0  0  0  0  0  0
  -23.9994   -7.4625   22.7477 H   0  0  0  0  0  0
  -21.0836   -8.8767   19.8951 H   0  0  0  0  0  0
  -22.3697  -10.9664   19.6164 H   0  0  0  0  0  0
  -21.1999   -7.6141   23.9707 H   0  0  0  0  0  0
  -21.1484   -6.0520   25.9076 H   0  0  0  0  0  0
  -22.0600   -2.7600   23.2850 H   0  0  0  0  0  0
  -22.4115  -11.9875   22.4802 H   0  0  0  0  0  0
  -21.1110  -13.1230   22.2638 H   0  0  0  0  0  0
  -24.6270  -15.8233   20.4525 H   0  0  0  0  0  0
  -26.2369  -15.6089   19.9828 H   0  0  0  0  0  0
  -26.7175  -32.5448   23.1112 H   0  0  0  0  0  0
  -25.0051  -33.9719   25.0424 H   0  0  0  0  0  0
  -22.7141  -31.3067   21.4080 H   0  0  0  0  0  0
  -23.3751  -35.9622   23.3286 H   0  0  0  0  0  0
  -24.3575  -36.8947   22.2059 H   0  0  0  0  0  0
  -23.7227  -37.6487   23.6678 H   0  0  0  0  0  0
  -26.0925  -31.5542   20.6072 H   0  0  0  0  0  0
  -26.8423  -30.8397   22.0049 H   0  0  0  0  0  0
  -28.1154  -28.9781   21.1924 H   0  0  0  0  0  0
  -25.9507  -25.9485   18.9806 H   0  0  0  0  0  0
  -23.9653  -27.3212   19.0080 H   0  0  0  0  0  0
  -23.7483  -30.5996   19.4072 H   0  0  0  0  0  0
  -22.7532  -29.2504   19.8655 H   0  0  0  0  0  0
  -25.1288  -36.1934   25.0821 H   0  0  0  0  0  0
  -20.9962  -28.3266   24.1410 H   0  0  0  0  0  0
  -20.5691  -26.2291   23.3609 H   0  0  0  0  0  0
  -21.6638  -26.7460   22.1195 H   0  0  0  0  0  0
  -19.6910  -25.6301   21.1242 H   0  0  0  0  0  0
  -19.6684  -27.3196   20.6745 H   0  0  0  0  0  0
  -17.4199  -26.6674   21.4028 H   0  0  0  0  0  0
  -18.0320  -26.0076   22.9021 H   0  0  0  0  0  0
  -19.7930  -30.7280   24.2244 H   0  0  0  0  0  0
  -17.5013  -31.6273   24.5172 H   0  0  0  0  0  0
  -15.5340  -30.2984   23.7687 H   0  0  0  0  0  0
  -15.8664  -28.0835   22.7066 H   0  0  0  0  0  0
  -24.5898  -30.7073   25.7780 H   0  0  0  0  0  0
  -24.8914  -32.2874   26.4898 H   0  0  0  0  0  0
  -25.8045  -30.8875   27.0230 H   0  0  0  0  0  0
  -26.2940  -29.6727   24.1253 H   0  0  0  0  0  0
  -27.4087  -29.7300   25.4713 H   0  0  0  0  0  0
  -27.8788  -30.4311   23.9415 H   0  0  0  0  0  0
  -27.2700  -33.3659   26.2022 H   0  0  0  0  0  0
  -28.3881  -32.6824   25.0316 H   0  0  0  0  0  0
  -28.0703  -31.8476   26.5445 H   0  0  0  0  0  0
  -28.2580  -38.0107   24.7543 H   0  0  0  0  0  0
  -28.1096  -36.2642   24.6257 H   0  0  0  0  0  0
  -27.2299  -37.1405   25.8865 H   0  0  0  0  0  0
  -20.9355  -29.8766   21.6895 H   0  0  0  0  0  0
  -26.0171  -38.2851   24.1434 H   0  0  0  0  0  0
  -32.0114  -17.4192   20.3823 H   0  0  0  0  0  0
  -31.9493  -19.8254   19.9359 H   0  0  0  0  0  0
  -27.8544  -19.9882   21.1933 H   0  0  0  0  0  0
  -26.2825  -17.3569   23.5995 H   0  0  0  0  0  0
  -27.1401  -18.8796   23.4000 H   0  0  0  0  0  0
  -28.0119  -17.4376   23.9129 H   0  0  0  0  0  0
  -27.4565  -16.3619   21.6667 H   0  0  0  0  0  0
  -26.6635  -17.8190   21.1791 H   0  0  0  0  0  0
  -27.1905  -24.7478   20.6692 H   0  0  0  0  0  0
  -27.7348  -24.8051   19.0032 H   0  0  0  0  0  0
  -28.0626  -22.1877   19.7668 H   0  0  0  0  0  0
  -28.4144  -22.2849   21.4824 H   0  0  0  0  0  0
  -29.4078  -16.3101   23.1837 H   0  0  0  0  0  0
  1 25  1  0  0  0
  1 30  2  0  0  0
  1 77  1  0  0  0
  2  3  1  0  0  0
  2 25  1  0  0  0
  2 86  1  0  0  0
  2 87  1  0  0  0
  3  4  1  0  0  0
  3 88  1  0  0  0
  3 89  1  0  0  0
  4  5  1  0  0  0
  4 90  1  0  0  0
  4 91  1  0  0  0
  5  6  1  0  0  0
  5 26  1  0  0  0
  5 92  1  0  0  0
  6 25  1  0  0  0
  6 93  1  0  0  0
  6 94  1  0  0  0
  7  8  2  0  0  0
  7 26  1  0  0  0
  7 29  1  0  0  0
  8  9  1  0  0  0
  8 22  1  0  0  0
  9 10  1  0  0  0
  9 27  2  0  0  0
 10 11  2  0  0  0
 10 15  1  0  0  0
 11 12  1  0  0  0
 11 95  1  0  0  0
 12 13  2  0  0  0
 12 96  1  0  0  0
 13 14  1  0  0  0
 13 31  1  0  0  0
 14 15  2  0  0  0
 14 97  1  0  0  0
 15 98  1  0  0  0
 16 17  2  0  0  0
 16 21  1  0  0  0
 16 31  1  0  0  0
 17 18  1  0  0  0
 17 99  1  0  0  0
 18 19  2  0  0  0
 18100  1  0  0  0
 19 20  1  0  0  0
 19 24  1  0  0  0
 20 21  2  0  0  0
 20101  1  0  0  0
 21 23  1  0  0  0
 22 28  1  0  0  0
 22 32  2  0  0  0
 26 27  1  0  0  0
 28102  1  0  0  0
 28103  1  0  0  0
 29104  1  0  0  0
 29105  1  0  0  0
 33 34  1  0  0  0
 33 66  1  0  0  0
 33 70  2  0  0  0
 34 36  1  0  0  0
 34 59  1  0  0  0
 34106  1  0  0  0
 35 44  2  0  0  0
 35 45  1  0  0  0
 35 68  1  0  0  0
 36 56  1  0  0  0
 36107  1  0  0  0
 37 39  1  0  0  0
 37 47  1  0  0  0
 37 66  1  0  0  0
 37108  1  0  0  0
 38 43  2  0  0  0
 38 46  1  0  0  0
 38 47  1  0  0  0
 39 64  1  0  0  0
 39 67  2  0  0  0
 40 52  1  0  0  0
 40 53  2  0  0  0
 40 58  1  0  0  0
 41109  1  0  0  0
 41110  1  0  0  0
 41111  1  0  0  0
 41 48  1  0  0  0
 42 43  1  0  0  0
 42 66  1  0  0  0
 42112  1  0  0  0
 42113  1  0  0  0
 43 44  1  0  0  0
 44114  1  0  0  0
 45 46  2  0  0  0
 45115  1  0  0  0
 46116  1  0  0  0
 47117  1  0  0  0
 47118  1  0  0  0
 48 56  1  0  0  0
 48 65  1  0  0  0
 48119  1  0  0  0
 49 50  1  0  0  0
 49 53  1  0  0  0
 49 64  1  0  0  0
 49120  1  0  0  0
 50 51  1  0  0  0
 50121  1  0  0  0
 50122  1  0  0  0
 51 52  1  0  0  0
 51123  1  0  0  0
 51124  1  0  0  0
 52125  1  0  0  0
 52126  1  0  0  0
 53 54  1  0  0  0
 54 55  2  0  0  0
 54127  1  0  0  0
 55 57  1  0  0  0
 55128  1  0  0  0
 56 69  2  0  0  0
 57 58  2  0  0  0
 57129  1  0  0  0
 58130  1  0  0  0
 59 60  1  0  0  0
 59 61  1  0  0  0
 59 62  1  0  0  0
 60131  1  0  0  0
 60132  1  0  0  0
 60133  1  0  0  0
 61134  1  0  0  0
 61135  1  0  0  0
 61136  1  0  0  0
 62137  1  0  0  0
 62138  1  0  0  0
 62139  1  0  0  0
 63 65  1  0  0  0
 63140  1  0  0  0
 63141  1  0  0  0
 63142  1  0  0  0
 64143  1  0  0  0
 65144  1  0  0  0
 68 81  1  0  0  0
 71 72  2  0  0  0
 71 74  1  0  0  0
 71145  1  0  0  0
 72 76  1  0  0  0
 72146  1  0  0  0
 73 75  1  0  0  0
 73 76  2  0  0  0
 73147  1  0  0  0
 74 75  2  0  0  0
 74 77  1  0  0  0
 75 80  1  0  0  0
 76 85  1  0  0  0
 77 83  2  0  0  0
 78 81  1  0  0  0
 78 82  1  0  0  0
 78 84  2  0  0  0
 79 80  1  0  0  0
 79148  1  0  0  0
 79149  1  0  0  0
 79150  1  0  0  0
 80151  1  0  0  0
 80152  1  0  0  0
 81153  1  0  0  0
 81154  1  0  0  0
 82 85  1  0  0  0
 82155  1  0  0  0
 82156  1  0  0  0
 83157  1  0  0  0
M  ISO  4   1 100  68 101  77 100  81 101
M  END
> <chiral flag>
0

> <version>
0

> <s_m_source_file>
/data/baiqing/PycharmProjects/Reinvent-master-3.2/result/LINK_invent/BTK/process_docking_weight1_custom_product_contain_oxygen_bond_distance_aromatic_linkinvent_7_9_3/rearranged_h_0124.sdf

> <i_m_source_file_index>
56

> <r_mmod_Potential_Energy-OPLS-2005>
244.023254394531

> <r_mmod_Stretch_Energy-OPLS-2005>
94.0038452148438

> <r_mmod_Bend_Energy-OPLS-2005>
148.892669677734

> <r_mmod_Torsional_Energy-OPLS-2005>
206.775039672852

> <r_mmod_Improper_Torsional_Energy-OPLS-2005>
3.46957778930664

> <r_mmod_Van_der_Waal_Energy-OPLS-2005>
149.595687866211

> <r_mmod_Electrostatic_Energy-OPLS-2005>
-175.764907836914

> <r_mmod_Solvation_Energy-OPLS-2005>
-228.199920654297

> <b_mmod_Minimization_Converged-OPLS-2005>
0

> <r_mmod_RMS_Derivative-OPLS-2005>
0.999885261058807

$$$$
56
                    3D
 Structure written by MMmdl.
161169  0  0  1  0            999 V2000
  -30.5843  -14.7647   20.4087 C   0  0  0  0  0  0
  -30.4521  -12.4623   19.4427 C   0  0  0  0  0  0
  -29.5125  -12.4860   18.2161 C   0  0  0  0  0  0
  -28.0374  -12.3122   18.6399 C   0  0  0  0  0  0
  -27.6403  -13.2199   19.8345 C   0  0  2  0  0  0
  -28.6976  -13.1606   20.9575 C   0  0  0  0  0  0
  -25.2539  -13.8148   20.5679 C   0  0  0  0  0  0
  -24.1825  -13.0423   20.9213 C   0  0  0  0  0  0
  -24.6400  -11.6895   20.8747 C   0  0  0  0  0  0
  -23.9052  -10.4286   21.0402 C   0  0  0  0  0  0
  -24.3592   -9.4197   21.9181 C   0  0  0  0  0  0
  -23.6277   -8.2231   22.0741 C   0  0  0  0  0  0
  -22.4254   -8.0263   21.3541 C   0  0  0  0  0  0
  -21.9900   -9.0235   20.4646 C   0  0  0  0  0  0
  -22.7222  -10.2124   20.3062 C   0  0  0  0  0  0
  -21.6864   -6.0727   22.5275 C   0  0  0  0  0  0
  -21.4009   -6.5624   23.8205 C   0  0  0  0  0  0
  -21.3665   -5.6772   24.9156 C   0  0  0  0  0  0
  -21.6048   -4.3034   24.7209 C   0  0  0  0  0  0
  -21.8817   -3.8140   23.4320 C   0  0  0  0  0  0
  -21.9195   -4.6962   22.3384 C   0  0  0  0  0  0
  -22.7854  -13.5240   21.1854 C   0  0  0  0  0  0
  -22.1670   -4.2164   21.0964 F   0  0  0  0  0  0
  -21.5636   -3.4513   25.7712 F   0  0  0  0  0  0
  -29.9878  -13.5273   20.3529 N   0  0  0  0  0  0
  -26.2950  -12.9344   20.3237 N   0  0  0  0  0  0
  -25.9324  -11.6498   20.5715 N   0  0  0  0  0  0
  -22.0471  -12.8242   22.0412 N   0  0  0  0  0  0
  -25.4159  -15.1868   20.4013 N   0  0  0  0  0  0
  -31.8062  -14.8784   20.2812 O   0  0  0  0  0  0
  -21.6619   -6.8862   21.4235 O   0  0  0  0  0  0
  -22.3539  -14.5529   20.6671 O   0  0  0  0  0  0
  -24.6308  -31.8563   23.1992 C   0  0  0  0  0  0
  -25.9143  -32.4764   23.8308 C   0  0  1  0  0  0
  -27.2232  -27.2837   20.1371 C   0  0  0  0  0  0
  -25.5947  -33.8568   24.2249 N   0  0  0  0  0  0
  -23.4252  -30.4840   21.5381 C   0  0  2  0  0  0
  -24.8705  -28.9360   20.1051 C   0  0  0  0  0  0
  -22.7513  -29.4618   22.4856 C   0  0  0  0  0  0
  -18.0318  -28.1423   22.8491 C   0  0  0  0  0  0
  -24.1487  -36.7268   23.2638 C   0  0  0  0  0  0
  -25.9697  -30.7841   21.3700 C   0  0  0  0  0  0
  -26.0419  -29.4097   20.7084 C   0  0  0  0  0  0
  -27.2221  -28.6004   20.7041 C   0  0  0  0  0  0
  -26.0237  -26.8696   19.5113 C   0  0  0  0  0  0
  -24.8684  -27.6771   19.4868 C   0  0  0  0  0  0
  -23.6423  -29.8240   20.1504 C   0  0  0  0  0  0
  -25.4112  -36.3078   24.0327 C   0  0  1  0  0  0
  -20.5922  -28.3710   23.1262 C   0  0  2  0  0  0
  -20.6799  -26.9426   22.5417 C   0  0  0  0  0  0
  -19.5772  -26.6416   21.5217 C   0  0  0  0  0  0
  -18.1948  -26.7971   22.1622 C   0  0  0  0  0  0
  -19.1568  -28.8875   23.2884 C   0  0  0  0  0  0
  -18.9489  -30.1478   23.8908 C   0  0  0  0  0  0
  -17.6488  -30.6614   24.0578 C   0  0  0  0  0  0
  -25.9052  -34.9458   23.5085 C   0  0  0  0  0  0
  -16.5385  -29.9114   23.6344 C   0  0  0  0  0  0
  -16.7297  -28.6534   23.0354 C   0  0  0  0  0  0
  -26.4500  -31.6601   25.0704 C   0  0  0  0  0  0
  -25.3727  -31.3795   26.1433 C   0  0  0  0  0  0
  -27.0317  -30.3016   24.6203 C   0  0  0  0  0  0
  -27.6027  -32.4361   25.7493 C   0  0  0  0  0  0
  -27.5588  -37.1788   24.8456 C   0  0  0  0  0  0
  -21.4205  -29.3057   22.3622 N   0  0  0  0  0  0
  -26.4276  -37.3790   23.9438 N   0  0  0  0  0  0
  -24.6946  -31.0592   22.0922 N   0  0  0  0  0  0
  -23.4222  -28.8164   23.2932 O   0  0  0  0  0  0
  -28.3281  -26.4041   20.2089 O   0  0  0  0  0  0
  -26.5603  -34.8924   22.4649 O   0  0  0  0  0  0
  -23.5466  -32.1345   23.7334 O   0  0  0  0  0  0
  -28.4533  -19.5561   21.9080 C   0  0  0  0  0  0
  -28.5935  -17.1179   21.7918 C   0  0  0  0  0  0
  -29.8811  -18.4907   20.2511 C   0  0  0  0  0  0
  -28.0715  -18.2860   22.3818 C   0  0  0  0  0  0
  -29.3586  -19.7299   20.8353 C   0  0  0  0  0  0
  -29.5186  -17.1589   20.7347 C   0  0  0  0  0  0
  -26.1606  -17.2110   23.5628 C   0  0  0  0  0  0
  -27.0589  -18.2041   23.4415 C   0  0  0  0  0  0
  -28.9275  -22.3298   20.7238 C   0  0  0  0  0  0
  -29.7006  -21.2022   20.4596 C   0  0  0  0  0  0
  -30.9861  -21.6087   18.3186 C   0  0  0  0  0  0
  -29.2538  -23.8807   20.5455 C   0  0  0  0  0  0
  -31.0734  -21.3885   19.8337 C   0  0  0  0  0  0
  -28.0772  -24.9271   20.2164 C   0  0  0  0  0  0
  -29.7600  -15.8399   20.1110 N   0  0  0  0  0  0
  -31.4883  -12.6155   19.1315 H   0  0  0  0  0  0
  -30.4266  -11.4930   19.9426 H   0  0  0  0  0  0
  -29.7968  -11.7014   17.5129 H   0  0  0  0  0  0
  -29.6320  -13.4320   17.6847 H   0  0  0  0  0  0
  -27.8937  -11.2652   18.9133 H   0  0  0  0  0  0
  -27.3794  -12.4981   17.7910 H   0  0  0  0  0  0
  -27.6236  -14.2369   19.4440 H   0  0  0  0  0  0
  -28.7440  -12.1605   21.3950 H   0  0  0  0  0  0
  -28.4385  -13.8394   21.7713 H   0  0  0  0  0  0
  -25.2741   -9.5683   22.4742 H   0  0  0  0  0  0
  -24.0007   -7.4619   22.7448 H   0  0  0  0  0  0
  -21.0853   -8.8754   19.8937 H   0  0  0  0  0  0
  -22.3692  -10.9651   19.6163 H   0  0  0  0  0  0
  -21.1991   -7.6128   23.9710 H   0  0  0  0  0  0
  -21.1506   -6.0488   25.9062 H   0  0  0  0  0  0
  -22.0601   -2.7614   23.2793 H   0  0  0  0  0  0
  -22.4103  -11.9936   22.4839 H   0  0  0  0  0  0
  -21.1078  -13.1269   22.2569 H   0  0  0  0  0  0
  -24.6255  -15.8148   20.4834 H   0  0  0  0  0  0
  -26.2356  -15.6344   20.0155 H   0  0  0  0  0  0
  -26.7218  -32.5407   23.1049 H   0  0  0  0  0  0
  -25.0138  -33.9691   25.0426 H   0  0  0  0  0  0
  -22.7221  -31.3067   21.3981 H   0  0  0  0  0  0
  -23.3754  -35.9592   23.3276 H   0  0  0  0  0  0
  -24.3588  -36.8934   22.2068 H   0  0  0  0  0  0
  -23.7229  -37.6458   23.6651 H   0  0  0  0  0  0
  -26.1133  -31.5501   20.6052 H   0  0  0  0  0  0
  -26.8479  -30.8247   22.0050 H   0  0  0  0  0  0
  -28.1194  -28.9674   21.1818 H   0  0  0  0  0  0
  -25.9447  -25.8991   19.0494 H   0  0  0  0  0  0
  -23.9723  -27.3117   19.0029 H   0  0  0  0  0  0
  -23.7726  -30.6041   19.3978 H   0  0  0  0  0  0
  -22.7592  -29.2623   19.8387 H   0  0  0  0  0  0
  -25.1311  -36.1891   25.0815 H   0  0  0  0  0  0
  -21.0059  -28.3311   24.1356 H   0  0  0  0  0  0
  -20.5712  -26.2326   23.3638 H   0  0  0  0  0  0
  -21.6675  -26.7463   22.1205 H   0  0  0  0  0  0
  -19.6918  -25.6319   21.1268 H   0  0  0  0  0  0
  -19.6722  -27.3210   20.6732 H   0  0  0  0  0  0
  -17.4244  -26.6742   21.4006 H   0  0  0  0  0  0
  -18.0313  -26.0127   22.9024 H   0  0  0  0  0  0
  -19.7954  -30.7289   24.2301 H   0  0  0  0  0  0
  -17.5037  -31.6284   24.5198 H   0  0  0  0  0  0
  -15.5378  -30.3021   23.7647 H   0  0  0  0  0  0
  -15.8705  -28.0858   22.7056 H   0  0  0  0  0  0
  -24.5874  -30.7173   25.7777 H   0  0  0  0  0  0
  -24.8932  -32.2990   26.4807 H   0  0  0  0  0  0
  -25.8048  -30.9011   27.0235 H   0  0  0  0  0  0
  -26.2886  -29.6801   24.1205 H   0  0  0  0  0  0
  -27.3950  -29.7282   25.4731 H   0  0  0  0  0  0
  -27.8785  -30.4281   23.9468 H   0  0  0  0  0  0
  -27.2591  -33.3666   26.2033 H   0  0  0  0  0  0
  -28.3844  -32.6953   25.0337 H   0  0  0  0  0  0
  -28.0657  -31.8523   26.5463 H   0  0  0  0  0  0
  -28.2572  -38.0114   24.7556 H   0  0  0  0  0  0
  -28.1127  -36.2656   24.6206 H   0  0  0  0  0  0
  -27.2324  -37.1388   25.8861 H   0  0  0  0  0  0
  -20.9381  -29.8768   21.6843 H   0  0  0  0  0  0
  -26.0141  -38.2857   24.1466 H   0  0  0  0  0  0
  -28.0247  -20.4182   22.3950 H   0  0  0  0  0  0
  -28.2523  -16.1539   22.1392 H   0  0  0  0  0  0
  -30.5516  -18.5666   19.4067 H   0  0  0  0  0  0
  -25.4547  -17.2034   24.3813 H   0  0  0  0  0  0
  -26.1009  -16.3997   22.8515 H   0  0  0  0  0  0
  -27.0686  -18.9971   24.1774 H   0  0  0  0  0  0
  -27.9539  -22.1722   21.1642 H   0  0  0  0  0  0
  -31.9666  -21.5469   17.8465 H   0  0  0  0  0  0
  -30.5763  -22.5934   18.0920 H   0  0  0  0  0  0
  -30.3363  -20.8711   17.8470 H   0  0  0  0  0  0
  -30.0512  -24.0106   19.8151 H   0  0  0  0  0  0
  -29.6845  -24.1938   21.4973 H   0  0  0  0  0  0
  -31.7219  -20.5458   20.0805 H   0  0  0  0  0  0
  -31.5522  -22.2556   20.2928 H   0  0  0  0  0  0
  -27.2810  -24.7462   20.9416 H   0  0  0  0  0  0
  -27.6806  -24.6422   19.2438 H   0  0  0  0  0  0
  -28.8950  -15.4591   19.7634 H   0  0  0  0  0  0
  1 25  1  0  0  0
  1 30  2  0  0  0
  1 85  1  0  0  0
  2  3  1  0  0  0
  2 25  1  0  0  0
  2 86  1  0  0  0
  2 87  1  0  0  0
  3  4  1  0  0  0
  3 88  1  0  0  0
  3 89  1  0  0  0
  4  5  1  0  0  0
  4 90  1  0  0  0
  4 91  1  0  0  0
  5  6  1  0  0  0
  5 26  1  0  0  0
  5 92  1  0  0  0
  6 25  1  0  0  0
  6 93  1  0  0  0
  6 94  1  0  0  0
  7  8  2  0  0  0
  7 26  1  0  0  0
  7 29  1  0  0  0
  8  9  1  0  0  0
  8 22  1  0  0  0
  9 10  1  0  0  0
  9 27  2  0  0  0
 10 11  2  0  0  0
 10 15  1  0  0  0
 11 12  1  0  0  0
 11 95  1  0  0  0
 12 13  2  0  0  0
 12 96  1  0  0  0
 13 14  1  0  0  0
 13 31  1  0  0  0
 14 15  2  0  0  0
 14 97  1  0  0  0
 15 98  1  0  0  0
 16 17  2  0  0  0
 16 21  1  0  0  0
 16 31  1  0  0  0
 17 18  1  0  0  0
 17 99  1  0  0  0
 18 19  2  0  0  0
 18100  1  0  0  0
 19 20  1  0  0  0
 19 24  1  0  0  0
 20 21  2  0  0  0
 20101  1  0  0  0
 21 23  1  0  0  0
 22 28  1  0  0  0
 22 32  2  0  0  0
 26 27  1  0  0  0
 28102  1  0  0  0
 28103  1  0  0  0
 29104  1  0  0  0
 29105  1  0  0  0
 33 34  1  0  0  0
 33 66  1  0  0  0
 33 70  2  0  0  0
 34 36  1  0  0  0
 34 59  1  0  0  0
 34106  1  0  0  0
 35 44  2  0  0  0
 35 45  1  0  0  0
 35 68  1  0  0  0
 36 56  1  0  0  0
 36107  1  0  0  0
 37 39  1  0  0  0
 37 47  1  0  0  0
 37 66  1  0  0  0
 37108  1  0  0  0
 38 43  2  0  0  0
 38 46  1  0  0  0
 38 47  1  0  0  0
 39 64  1  0  0  0
 39 67  2  0  0  0
 40 52  1  0  0  0
 40 53  2  0  0  0
 40 58  1  0  0  0
 41109  1  0  0  0
 41110  1  0  0  0
 41111  1  0  0  0
 41 48  1  0  0  0
 42 43  1  0  0  0
 42 66  1  0  0  0
 42112  1  0  0  0
 42113  1  0  0  0
 43 44  1  0  0  0
 44114  1  0  0  0
 45 46  2  0  0  0
 45115  1  0  0  0
 46116  1  0  0  0
 47117  1  0  0  0
 47118  1  0  0  0
 48 56  1  0  0  0
 48 65  1  0  0  0
 48119  1  0  0  0
 49 50  1  0  0  0
 49 53  1  0  0  0
 49 64  1  0  0  0
 49120  1  0  0  0
 50 51  1  0  0  0
 50121  1  0  0  0
 50122  1  0  0  0
 51 52  1  0  0  0
 51123  1  0  0  0
 51124  1  0  0  0
 52125  1  0  0  0
 52126  1  0  0  0
 53 54  1  0  0  0
 54 55  2  0  0  0
 54127  1  0  0  0
 55 57  1  0  0  0
 55128  1  0  0  0
 56 69  2  0  0  0
 57 58  2  0  0  0
 57129  1  0  0  0
 58130  1  0  0  0
 59 60  1  0  0  0
 59 61  1  0  0  0
 59 62  1  0  0  0
 60131  1  0  0  0
 60132  1  0  0  0
 60133  1  0  0  0
 61134  1  0  0  0
 61135  1  0  0  0
 61136  1  0  0  0
 62137  1  0  0  0
 62138  1  0  0  0
 62139  1  0  0  0
 63 65  1  0  0  0
 63140  1  0  0  0
 63141  1  0  0  0
 63142  1  0  0  0
 64143  1  0  0  0
 65144  1  0  0  0
 68 84  1  0  0  0
 71 74  2  0  0  0
 71 75  1  0  0  0
 71145  1  0  0  0
 72 74  1  0  0  0
 72 76  2  0  0  0
 72146  1  0  0  0
 73 75  2  0  0  0
 73 76  1  0  0  0
 73147  1  0  0  0
 74 78  1  0  0  0
 75 80  1  0  0  0
 76 85  1  0  0  0
 77 78  2  0  0  0
 77148  1  0  0  0
 77149  1  0  0  0
 78150  1  0  0  0
 79 80  2  0  0  0
 79 82  1  0  0  0
 79151  1  0  0  0
 80 83  1  0  0  0
 81 83  1  0  0  0
 81152  1  0  0  0
 81153  1  0  0  0
 81154  1  0  0  0
 82 84  1  0  0  0
 82155  1  0  0  0
 82156  1  0  0  0
 83157  1  0  0  0
 83158  1  0  0  0
 84159  1  0  0  0
 84160  1  0  0  0
 85161  1  0  0  0
M  ISO  4   1 100  68 101  84 101  85 100
M  END
> <chiral flag>
0

> <version>
0

> <s_m_source_file>
/data/baiqing/PycharmProjects/Reinvent-master-3.2/result/LINK_invent/BTK/process_docking_weight1_custom_product_contain_oxygen_bond_distance_aromatic_linkinvent_7_9_3/rearranged_h_0124.sdf

> <i_m_source_file_index>
57

> <r_mmod_Potential_Energy-OPLS-2005>
252.169219970703

> <r_mmod_Stretch_Energy-OPLS-2005>
118.672828674316

> <r_mmod_Bend_Energy-OPLS-2005>
167.164840698242

> <r_mmod_Torsional_Energy-OPLS-2005>
281.466705322266

> <r_mmod_Improper_Torsional_Energy-OPLS-2005>
21.5775966644287

> <r_mmod_Van_der_Waal_Energy-OPLS-2005>
134.546630859375

> <r_mmod_Electrostatic_Energy-OPLS-2005>
-363.498809814453

> <r_mmod_Solvation_Energy-OPLS-2005>
-200.608871459961

> <b_mmod_Minimization_Converged-OPLS-2005>
0

> <r_mmod_RMS_Derivative-OPLS-2005>
4.36578178405762

$$$$
57
                    3D
 Structure written by MMmdl.
160168  0  0  1  0            999 V2000
  -30.6900  -14.5286   20.5514 C   0  0  0  0  0  0
  -30.4246  -12.3276   19.4447 C   0  0  0  0  0  0
  -29.5030  -12.5029   18.2197 C   0  0  0  0  0  0
  -28.0226  -12.3599   18.6262 C   0  0  0  0  0  0
  -27.6591  -13.2145   19.8699 C   0  0  2  0  0  0
  -28.7000  -13.0312   20.9953 C   0  0  0  0  0  0
  -25.2583  -13.8179   20.5691 C   0  0  0  0  0  0
  -24.1837  -13.0446   20.9171 C   0  0  0  0  0  0
  -24.6397  -11.6915   20.8729 C   0  0  0  0  0  0
  -23.9061  -10.4300   21.0402 C   0  0  0  0  0  0
  -24.3611   -9.4214   21.9182 C   0  0  0  0  0  0
  -23.6290   -8.2247   22.0757 C   0  0  0  0  0  0
  -22.4272   -8.0282   21.3547 C   0  0  0  0  0  0
  -21.9911   -9.0254   20.4646 C   0  0  0  0  0  0
  -22.7235  -10.2136   20.3053 C   0  0  0  0  0  0
  -21.6856   -6.0734   22.5278 C   0  0  0  0  0  0
  -21.4011   -6.5638   23.8210 C   0  0  0  0  0  0
  -21.3661   -5.6791   24.9172 C   0  0  0  0  0  0
  -21.6048   -4.3056   24.7224 C   0  0  0  0  0  0
  -21.8821   -3.8145   23.4346 C   0  0  0  0  0  0
  -21.9193   -4.6961   22.3401 C   0  0  0  0  0  0
  -22.7858  -13.5234   21.1841 C   0  0  0  0  0  0
  -22.1662   -4.2146   21.0980 F   0  0  0  0  0  0
  -21.5636   -3.4541   25.7738 F   0  0  0  0  0  0
  -30.0299  -13.3372   20.4432 N   0  0  0  0  0  0
  -26.3019  -12.9359   20.3352 N   0  0  0  0  0  0
  -25.9325  -11.6509   20.5756 N   0  0  0  0  0  0
  -22.0508  -12.8215   22.0395 N   0  0  0  0  0  0
  -25.4317  -15.1897   20.4126 N   0  0  0  0  0  0
  -31.8310  -14.6453   20.0940 O   0  0  0  0  0  0
  -21.6642   -6.8876   21.4239 O   0  0  0  0  0  0
  -22.3533  -14.5541   20.6699 O   0  0  0  0  0  0
  -24.6197  -31.8664   23.2103 C   0  0  0  0  0  0
  -25.9078  -32.4811   23.8400 C   0  0  1  0  0  0
  -27.2217  -27.3879   20.0939 C   0  0  0  0  0  0
  -25.5926  -33.8612   24.2324 N   0  0  0  0  0  0
  -23.4083  -30.4937   21.5525 C   0  0  2  0  0  0
  -24.8514  -28.9627   20.1120 C   0  0  0  0  0  0
  -22.7433  -29.4661   22.4977 C   0  0  0  0  0  0
  -18.0275  -28.1381   22.8493 C   0  0  0  0  0  0
  -24.1488  -36.7301   23.2639 C   0  0  0  0  0  0
  -25.9450  -30.8159   21.3742 C   0  0  0  0  0  0
  -26.0178  -29.4503   20.7144 C   0  0  0  0  0  0
  -27.2049  -28.6712   20.7037 C   0  0  0  0  0  0
  -26.0329  -26.9447   19.4620 C   0  0  0  0  0  0
  -24.8567  -27.7109   19.4820 C   0  0  0  0  0  0
  -23.6172  -29.8344   20.1652 C   0  0  0  0  0  0
  -25.4112  -36.3103   24.0334 C   0  0  1  0  0  0
  -20.5871  -28.3679   23.1298 C   0  0  2  0  0  0
  -20.6768  -26.9412   22.5406 C   0  0  0  0  0  0
  -19.5740  -26.6386   21.5211 C   0  0  0  0  0  0
  -18.1919  -26.7927   22.1622 C   0  0  0  0  0  0
  -19.1527  -28.8846   23.2891 C   0  0  0  0  0  0
  -18.9456  -30.1451   23.8903 C   0  0  0  0  0  0
  -17.6458  -30.6588   24.0564 C   0  0  0  0  0  0
  -25.9045  -34.9468   23.5123 C   0  0  0  0  0  0
  -16.5348  -29.9088   23.6334 C   0  0  0  0  0  0
  -16.7265  -28.6501   23.0361 C   0  0  0  0  0  0
  -26.4492  -31.6599   25.0743 C   0  0  0  0  0  0
  -25.3745  -31.3703   26.1478 C   0  0  0  0  0  0
  -27.0340  -30.3038   24.6155 C   0  0  0  0  0  0
  -27.6058  -32.4329   25.7508 C   0  0  0  0  0  0
  -27.5581  -37.1803   24.8467 C   0  0  0  0  0  0
  -21.4156  -29.3044   22.3704 N   0  0  0  0  0  0
  -26.4295  -37.3791   23.9411 N   0  0  0  0  0  0
  -24.6761  -31.0732   22.1027 N   0  0  0  0  0  0
  -23.4187  -28.8193   23.3027 O   0  0  0  0  0  0
  -28.3597  -26.5859   20.1401 O   0  0  0  0  0  0
  -26.5599  -34.8922   22.4681 O   0  0  0  0  0  0
  -23.5377  -32.1439   23.7468 O   0  0  0  0  0  0
  -28.3253  -17.9636   21.8270 C   0  0  0  0  0  0
  -29.5310  -18.0695   21.1026 C   0  0  0  0  0  0
  -27.6227  -19.1012   22.2689 C   0  0  0  0  0  0
  -30.0051  -19.3878   20.7862 C   0  0  0  0  0  0
  -28.1227  -20.3983   21.9990 C   0  0  0  0  0  0
  -29.2955  -20.5550   21.2131 C   0  0  0  0  0  0
  -30.2394  -16.7953   20.7022 C   0  0  0  0  0  0
  -29.2104  -24.2035   20.4145 C   0  0  0  0  0  0
  -26.3366  -18.8962   23.0536 C   0  0  0  0  0  0
  -31.2943  -19.5646   19.9900 C   0  0  0  0  0  0
  -27.4219  -21.6111   22.6028 C   0  0  0  0  0  0
  -28.1606  -25.1770   19.8238 C   0  0  0  0  0  0
  -28.9954  -22.6921   20.1099 C   0  0  0  0  0  0
  -29.9224  -15.5916   21.0559 N   0  0  0  0  0  0
  -30.1619  -24.6055   21.0947 O   0  0  0  0  0  0
  -29.7984  -21.8238   20.9425 O   0  0  0  0  0  0
  -31.4710  -12.4099   19.1453 H   0  0  0  0  0  0
  -30.3170  -11.3260   19.8643 H   0  0  0  0  0  0
  -29.7514  -11.7675   17.4533 H   0  0  0  0  0  0
  -29.6697  -13.4833   17.7702 H   0  0  0  0  0  0
  -27.8390  -11.3059   18.8374 H   0  0  0  0  0  0
  -27.3737  -12.6183   17.7889 H   0  0  0  0  0  0
  -27.6944  -14.2581   19.5559 H   0  0  0  0  0  0
  -28.6828  -12.0065   21.3694 H   0  0  0  0  0  0
  -28.4552  -13.6613   21.8514 H   0  0  0  0  0  0
  -25.2760   -9.5689   22.4751 H   0  0  0  0  0  0
  -24.0005   -7.4640   22.7478 H   0  0  0  0  0  0
  -21.0847   -8.8767   19.8948 H   0  0  0  0  0  0
  -22.3696  -10.9669   19.6155 H   0  0  0  0  0  0
  -21.1996   -7.6143   23.9713 H   0  0  0  0  0  0
  -21.1486   -6.0521   25.9076 H   0  0  0  0  0  0
  -22.0598   -2.7607   23.2852 H   0  0  0  0  0  0
  -22.4129  -11.9872   22.4773 H   0  0  0  0  0  0
  -21.1131  -13.1241   22.2615 H   0  0  0  0  0  0
  -24.6746  -15.8534   20.5301 H   0  0  0  0  0  0
  -26.3029  -15.6234   20.1330 H   0  0  0  0  0  0
  -26.7145  -32.5505   23.1153 H   0  0  0  0  0  0
  -25.0103  -33.9772   25.0488 H   0  0  0  0  0  0
  -22.6990  -31.3128   21.4164 H   0  0  0  0  0  0
  -23.3754  -35.9630   23.3307 H   0  0  0  0  0  0
  -24.3578  -36.8915   22.2052 H   0  0  0  0  0  0
  -23.7236  -37.6503   23.6656 H   0  0  0  0  0  0
  -26.0718  -31.5842   20.6102 H   0  0  0  0  0  0
  -26.8272  -30.8595   22.0008 H   0  0  0  0  0  0
  -28.1000  -29.0403   21.1850 H   0  0  0  0  0  0
  -25.9761  -26.0004   18.9414 H   0  0  0  0  0  0
  -23.9636  -27.3331   19.0032 H   0  0  0  0  0  0
  -23.7298  -30.6132   19.4102 H   0  0  0  0  0  0
  -22.7382  -29.2606   19.8655 H   0  0  0  0  0  0
  -25.1289  -36.1965   25.0827 H   0  0  0  0  0  0
  -20.9961  -28.3251   24.1419 H   0  0  0  0  0  0
  -20.5685  -26.2289   23.3599 H   0  0  0  0  0  0
  -21.6638  -26.7456   22.1194 H   0  0  0  0  0  0
  -19.6905  -25.6299   21.1240 H   0  0  0  0  0  0
  -19.6676  -27.3198   20.6743 H   0  0  0  0  0  0
  -17.4191  -26.6682   21.4021 H   0  0  0  0  0  0
  -18.0313  -26.0064   22.9011 H   0  0  0  0  0  0
  -19.7933  -30.7266   24.2272 H   0  0  0  0  0  0
  -17.5016  -31.6272   24.5162 H   0  0  0  0  0  0
  -15.5350  -30.2996   23.7656 H   0  0  0  0  0  0
  -15.8660  -28.0823   22.7084 H   0  0  0  0  0  0
  -24.5920  -30.7054   25.7804 H   0  0  0  0  0  0
  -24.8937  -32.2856   26.4937 H   0  0  0  0  0  0
  -25.8090  -30.8858   27.0231 H   0  0  0  0  0  0
  -26.2902  -29.6780   24.1209 H   0  0  0  0  0  0
  -27.4098  -29.7295   25.4634 H   0  0  0  0  0  0
  -27.8744  -30.4349   23.9334 H   0  0  0  0  0  0
  -27.2674  -33.3623   26.2101 H   0  0  0  0  0  0
  -28.3859  -32.6900   25.0330 H   0  0  0  0  0  0
  -28.0739  -31.8450   26.5414 H   0  0  0  0  0  0
  -28.2598  -38.0101   24.7529 H   0  0  0  0  0  0
  -28.1078  -36.2634   24.6286 H   0  0  0  0  0  0
  -27.2293  -37.1440   25.8868 H   0  0  0  0  0  0
  -20.9322  -29.8778   21.6931 H   0  0  0  0  0  0
  -26.0182  -38.2867   24.1421 H   0  0  0  0  0  0
  -27.9333  -16.9832   22.0639 H   0  0  0  0  0  0
  -31.0951  -16.9610   20.0411 H   0  0  0  0  0  0
  -25.9626  -17.8774   22.9469 H   0  0  0  0  0  0
  -25.5518  -19.5665   22.7014 H   0  0  0  0  0  0
  -26.5016  -19.0821   24.1152 H   0  0  0  0  0  0
  -31.2027  -19.0974   19.0091 H   0  0  0  0  0  0
  -32.1352  -19.1098   20.5145 H   0  0  0  0  0  0
  -31.5508  -20.6103   19.8242 H   0  0  0  0  0  0
  -27.0577  -21.4009   23.6080 H   0  0  0  0  0  0
  -26.5707  -21.9089   21.9904 H   0  0  0  0  0  0
  -28.0948  -22.4622   22.7015 H   0  0  0  0  0  0
  -27.2059  -24.8349   20.2234 H   0  0  0  0  0  0
  -28.1300  -25.0486   18.7414 H   0  0  0  0  0  0
  -29.2639  -22.5121   19.0690 H   0  0  0  0  0  0
  -27.9347  -22.4611   20.1952 H   0  0  0  0  0  0
  1 25  1  0  0  0
  1 30  2  0  0  0
  1 84  1  0  0  0
  2  3  1  0  0  0
  2 25  1  0  0  0
  2 87  1  0  0  0
  2 88  1  0  0  0
  3  4  1  0  0  0
  3 89  1  0  0  0
  3 90  1  0  0  0
  4  5  1  0  0  0
  4 91  1  0  0  0
  4 92  1  0  0  0
  5  6  1  0  0  0
  5 26  1  0  0  0
  5 93  1  0  0  0
  6 25  1  0  0  0
  6 94  1  0  0  0
  6 95  1  0  0  0
  7  8  2  0  0  0
  7 26  1  0  0  0
  7 29  1  0  0  0
  8  9  1  0  0  0
  8 22  1  0  0  0
  9 10  1  0  0  0
  9 27  2  0  0  0
 10 11  2  0  0  0
 10 15  1  0  0  0
 11 12  1  0  0  0
 11 96  1  0  0  0
 12 13  2  0  0  0
 12 97  1  0  0  0
 13 14  1  0  0  0
 13 31  1  0  0  0
 14 15  2  0  0  0
 14 98  1  0  0  0
 15 99  1  0  0  0
 16 17  2  0  0  0
 16 21  1  0  0  0
 16 31  1  0  0  0
 17 18  1  0  0  0
 17100  1  0  0  0
 18 19  2  0  0  0
 18101  1  0  0  0
 19 20  1  0  0  0
 19 24  1  0  0  0
 20 21  2  0  0  0
 20102  1  0  0  0
 21 23  1  0  0  0
 22 28  1  0  0  0
 22 32  2  0  0  0
 26 27  1  0  0  0
 28103  1  0  0  0
 28104  1  0  0  0
 29105  1  0  0  0
 29106  1  0  0  0
 33 34  1  0  0  0
 33 66  1  0  0  0
 33 70  2  0  0  0
 34 36  1  0  0  0
 34 59  1  0  0  0
 34107  1  0  0  0
 35 44  2  0  0  0
 35 45  1  0  0  0
 35 68  1  0  0  0
 36 56  1  0  0  0
 36108  1  0  0  0
 37 39  1  0  0  0
 37 47  1  0  0  0
 37 66  1  0  0  0
 37109  1  0  0  0
 38 43  2  0  0  0
 38 46  1  0  0  0
 38 47  1  0  0  0
 39 64  1  0  0  0
 39 67  2  0  0  0
 40 52  1  0  0  0
 40 53  2  0  0  0
 40 58  1  0  0  0
 41110  1  0  0  0
 41111  1  0  0  0
 41112  1  0  0  0
 41 48  1  0  0  0
 42 43  1  0  0  0
 42 66  1  0  0  0
 42113  1  0  0  0
 42114  1  0  0  0
 43 44  1  0  0  0
 44115  1  0  0  0
 45 46  2  0  0  0
 45116  1  0  0  0
 46117  1  0  0  0
 47118  1  0  0  0
 47119  1  0  0  0
 48 56  1  0  0  0
 48 65  1  0  0  0
 48120  1  0  0  0
 49 50  1  0  0  0
 49 53  1  0  0  0
 49 64  1  0  0  0
 49121  1  0  0  0
 50 51  1  0  0  0
 50122  1  0  0  0
 50123  1  0  0  0
 51 52  1  0  0  0
 51124  1  0  0  0
 51125  1  0  0  0
 52126  1  0  0  0
 52127  1  0  0  0
 53 54  1  0  0  0
 54 55  2  0  0  0
 54128  1  0  0  0
 55 57  1  0  0  0
 55129  1  0  0  0
 56 69  2  0  0  0
 57 58  2  0  0  0
 57130  1  0  0  0
 58131  1  0  0  0
 59 60  1  0  0  0
 59 61  1  0  0  0
 59 62  1  0  0  0
 60132  1  0  0  0
 60133  1  0  0  0
 60134  1  0  0  0
 61135  1  0  0  0
 61136  1  0  0  0
 61137  1  0  0  0
 62138  1  0  0  0
 62139  1  0  0  0
 62140  1  0  0  0
 63 65  1  0  0  0
 63141  1  0  0  0
 63142  1  0  0  0
 63143  1  0  0  0
 64144  1  0  0  0
 65145  1  0  0  0
 68 82  1  0  0  0
 71 72  2  0  0  0
 71 73  1  0  0  0
 71146  1  0  0  0
 72 74  1  0  0  0
 72 77  1  0  0  0
 73 75  2  0  0  0
 73 79  1  0  0  0
 74 76  2  0  0  0
 74 80  1  0  0  0
 75 76  1  0  0  0
 75 81  1  0  0  0
 76 86  1  0  0  0
 77 84  2  0  0  0
 77147  1  0  0  0
 78 82  1  0  0  0
 78 83  1  0  0  0
 78 85  2  0  0  0
 79148  1  0  0  0
 79149  1  0  0  0
 79150  1  0  0  0
 80151  1  0  0  0
 80152  1  0  0  0
 80153  1  0  0  0
 81154  1  0  0  0
 81155  1  0  0  0
 81156  1  0  0  0
 82157  1  0  0  0
 82158  1  0  0  0
 83 86  1  0  0  0
 83159  1  0  0  0
 83160  1  0  0  0
M  ISO  4   1 100  68 101  82 101  84 100
M  END
> <chiral flag>
0

> <version>
0

> <s_m_source_file>
/data/baiqing/PycharmProjects/Reinvent-master-3.2/result/LINK_invent/BTK/process_docking_weight1_custom_product_contain_oxygen_bond_distance_aromatic_linkinvent_7_9_3/rearranged_h_0124.sdf

> <i_m_source_file_index>
58

> <r_mmod_Potential_Energy-OPLS-2005>
2.89546632766724

> <r_mmod_Stretch_Energy-OPLS-2005>
55.9437675476074

> <r_mmod_Bend_Energy-OPLS-2005>
104.923065185547

> <r_mmod_Torsional_Energy-OPLS-2005>
185.247940063477

> <r_mmod_Improper_Torsional_Energy-OPLS-2005>
3.61489295959473

> <r_mmod_Van_der_Waal_Energy-OPLS-2005>
174.288681030273

> <r_mmod_Electrostatic_Energy-OPLS-2005>
-329.977600097656

> <r_mmod_Solvation_Energy-OPLS-2005>
-214.040313720703

> <b_mmod_Minimization_Converged-OPLS-2005>
0

> <r_mmod_RMS_Derivative-OPLS-2005>
0.564958691596985

$$$$
58
                    3D
 Structure written by MMmdl.
157165  0  0  1  0            999 V2000
  -30.6648  -14.4675   20.5772 C   0  0  0  0  0  0
  -30.4390  -12.3051   19.4105 C   0  0  0  0  0  0
  -29.5006  -12.4901   18.1986 C   0  0  0  0  0  0
  -28.0166  -12.3772   18.6085 C   0  0  0  0  0  0
  -27.6686  -13.1964   19.8810 C   0  0  2  0  0  0
  -28.7102  -12.9388   20.9926 C   0  0  0  0  0  0
  -25.2636  -13.8154   20.5682 C   0  0  0  0  0  0
  -24.1865  -13.0452   20.9162 C   0  0  0  0  0  0
  -24.6398  -11.6913   20.8728 C   0  0  0  0  0  0
  -23.9055  -10.4307   21.0404 C   0  0  0  0  0  0
  -24.3602   -9.4217   21.9184 C   0  0  0  0  0  0
  -23.6273   -8.2262   22.0755 C   0  0  0  0  0  0
  -22.4255   -8.0295   21.3554 C   0  0  0  0  0  0
  -21.9885   -9.0283   20.4661 C   0  0  0  0  0  0
  -22.7231  -10.2152   20.3064 C   0  0  0  0  0  0
  -21.6866   -6.0723   22.5270 C   0  0  0  0  0  0
  -21.4031   -6.5621   23.8205 C   0  0  0  0  0  0
  -21.3653   -5.6776   24.9169 C   0  0  0  0  0  0
  -21.6039   -4.3041   24.7225 C   0  0  0  0  0  0
  -21.8825   -3.8135   23.4352 C   0  0  0  0  0  0
  -21.9200   -4.6950   22.3404 C   0  0  0  0  0  0
  -22.7886  -13.5262   21.1818 C   0  0  0  0  0  0
  -22.1665   -4.2138   21.0979 F   0  0  0  0  0  0
  -21.5613   -3.4522   25.7738 F   0  0  0  0  0  0
  -30.0399  -13.2674   20.4482 N   0  0  0  0  0  0
  -26.3059  -12.9296   20.3378 N   0  0  0  0  0  0
  -25.9322  -11.6465   20.5760 N   0  0  0  0  0  0
  -22.0501  -12.8285   22.0386 N   0  0  0  0  0  0
  -25.4396  -15.1870   20.4114 N   0  0  0  0  0  0
  -31.7890  -14.6965   20.1178 O   0  0  0  0  0  0
  -21.6650   -6.8873   21.4232 O   0  0  0  0  0  0
  -22.3581  -14.5569   20.6663 O   0  0  0  0  0  0
  -24.6132  -31.8687   23.2108 C   0  0  0  0  0  0
  -25.9029  -32.4820   23.8403 C   0  0  1  0  0  0
  -27.2334  -27.4427   20.1079 C   0  0  0  0  0  0
  -25.5876  -33.8617   24.2325 N   0  0  0  0  0  0
  -23.4019  -30.4911   21.5499 C   0  0  2  0  0  0
  -24.8513  -28.9550   20.1180 C   0  0  0  0  0  0
  -22.7403  -29.4666   22.4986 C   0  0  0  0  0  0
  -18.0274  -28.1385   22.8490 C   0  0  0  0  0  0
  -24.1472  -36.7308   23.2629 C   0  0  0  0  0  0
  -25.9298  -30.8358   21.3660 C   0  0  0  0  0  0
  -26.0090  -29.4694   20.7171 C   0  0  0  0  0  0
  -27.2057  -28.7183   20.7136 C   0  0  0  0  0  0
  -26.0657  -26.9369   19.5049 C   0  0  0  0  0  0
  -24.8728  -27.6862   19.5107 C   0  0  0  0  0  0
  -23.6120  -29.8204   20.1656 C   0  0  0  0  0  0
  -25.4078  -36.3095   24.0340 C   0  0  1  0  0  0
  -20.5862  -28.3675   23.1305 C   0  0  2  0  0  0
  -20.6771  -26.9404   22.5419 C   0  0  0  0  0  0
  -19.5749  -26.6380   21.5209 C   0  0  0  0  0  0
  -18.1924  -26.7933   22.1612 C   0  0  0  0  0  0
  -19.1523  -28.8843   23.2900 C   0  0  0  0  0  0
  -18.9453  -30.1446   23.8921 C   0  0  0  0  0  0
  -17.6458  -30.6588   24.0568 C   0  0  0  0  0  0
  -25.9021  -34.9464   23.5129 C   0  0  0  0  0  0
  -16.5347  -29.9097   23.6319 C   0  0  0  0  0  0
  -16.7266  -28.6507   23.0351 C   0  0  0  0  0  0
  -26.4457  -31.6601   25.0737 C   0  0  0  0  0  0
  -25.3723  -31.3723   26.1491 C   0  0  0  0  0  0
  -27.0290  -30.3040   24.6127 C   0  0  0  0  0  0
  -27.6039  -32.4328   25.7486 C   0  0  0  0  0  0
  -27.5587  -37.1756   24.8417 C   0  0  0  0  0  0
  -21.4129  -29.3038   22.3710 N   0  0  0  0  0  0
  -26.4238  -37.3803   23.9454 N   0  0  0  0  0  0
  -24.6660  -31.0796   22.1004 N   0  0  0  0  0  0
  -23.4173  -28.8208   23.3036 O   0  0  0  0  0  0
  -28.3829  -26.6934   20.0757 O   0  0  0  0  0  0
  -26.5596  -34.8925   22.4703 O   0  0  0  0  0  0
  -23.5326  -32.1441   23.7500 O   0  0  0  0  0  0
  -30.2014  -19.1094   21.7392 C   0  0  0  0  0  0
  -30.2390  -17.7092   21.9163 C   0  0  0  0  0  0
  -29.5307  -18.7861   19.4350 C   0  0  0  0  0  0
  -29.8704  -19.6673   20.4851 C   0  0  0  0  0  0
  -29.5537  -17.3776   19.5950 C   0  0  0  0  0  0
  -29.9420  -16.8310   20.8512 C   0  0  0  0  0  0
  -28.2287  -16.8731   17.5161 C   0  0  0  0  0  0
  -29.8532  -21.1297   20.2343 C   0  0  0  0  0  0
  -29.0868  -16.5186   18.4873 C   0  0  0  0  0  0
  -29.8686  -22.1202   21.1509 C   0  0  0  0  0  0
  -28.6000  -24.3308   20.7118 C   0  0  0  0  0  0
  -29.9557  -23.6124   20.8213 C   0  0  0  0  0  0
  -28.5340  -25.7963   21.1847 C   0  0  0  0  0  0
  -29.8988  -15.4302   21.1229 N   0  0  0  0  0  0
  -27.6042  -23.7618   20.2527 O   0  0  0  0  0  0
  -31.4790  -12.4322   19.1022 H   0  0  0  0  0  0
  -30.3659  -11.2890   19.7984 H   0  0  0  0  0  0
  -29.7259  -11.7437   17.4352 H   0  0  0  0  0  0
  -29.6876  -13.4539   17.7301 H   0  0  0  0  0  0
  -27.8036  -11.3218   18.7793 H   0  0  0  0  0  0
  -27.3775  -12.6842   17.7799 H   0  0  0  0  0  0
  -27.7184  -14.2499   19.6090 H   0  0  0  0  0  0
  -28.6931  -11.8898   21.2928 H   0  0  0  0  0  0
  -28.4717  -13.4950   21.8999 H   0  0  0  0  0  0
  -25.2746   -9.5685   22.4763 H   0  0  0  0  0  0
  -23.9985   -7.4647   22.7472 H   0  0  0  0  0  0
  -21.0814   -8.8826   19.8970 H   0  0  0  0  0  0
  -22.3705  -10.9699   19.6174 H   0  0  0  0  0  0
  -21.2041   -7.6136   23.9701 H   0  0  0  0  0  0
  -21.1452   -6.0511   25.9065 H   0  0  0  0  0  0
  -22.0612   -2.7597   23.2871 H   0  0  0  0  0  0
  -22.4061  -11.9929   22.4770 H   0  0  0  0  0  0
  -21.1137  -13.1371   22.2571 H   0  0  0  0  0  0
  -24.6804  -15.8479   20.5388 H   0  0  0  0  0  0
  -26.2917  -15.6266   20.0850 H   0  0  0  0  0  0
  -26.7110  -32.5548   23.1182 H   0  0  0  0  0  0
  -24.9996  -33.9780   25.0449 H   0  0  0  0  0  0
  -22.6895  -31.3065   21.4078 H   0  0  0  0  0  0
  -23.3754  -35.9614   23.3207 H   0  0  0  0  0  0
  -24.3610  -36.9020   22.2068 H   0  0  0  0  0  0
  -23.7189  -37.6465   23.6717 H   0  0  0  0  0  0
  -26.0439  -31.6019   20.5982 H   0  0  0  0  0  0
  -26.8166  -30.8896   21.9856 H   0  0  0  0  0  0
  -28.1010  -29.1095   21.1769 H   0  0  0  0  0  0
  -26.0814  -25.9623   19.0375 H   0  0  0  0  0  0
  -23.9829  -27.2819   19.0480 H   0  0  0  0  0  0
  -23.7183  -30.5926   19.4030 H   0  0  0  0  0  0
  -22.7378  -29.2368   19.8712 H   0  0  0  0  0  0
  -25.1234  -36.1932   25.0821 H   0  0  0  0  0  0
  -20.9957  -28.3262   24.1423 H   0  0  0  0  0  0
  -20.5663  -26.2280   23.3613 H   0  0  0  0  0  0
  -21.6647  -26.7449   22.1221 H   0  0  0  0  0  0
  -19.6916  -25.6288   21.1241 H   0  0  0  0  0  0
  -19.6691  -27.3178   20.6730 H   0  0  0  0  0  0
  -17.4197  -26.6695   21.4010 H   0  0  0  0  0  0
  -18.0307  -26.0067   22.8992 H   0  0  0  0  0  0
  -19.7932  -30.7251   24.2303 H   0  0  0  0  0  0
  -17.5017  -31.6271   24.5171 H   0  0  0  0  0  0
  -15.5351  -30.3012   23.7624 H   0  0  0  0  0  0
  -15.8664  -28.0822   22.7076 H   0  0  0  0  0  0
  -24.5856  -30.7114   25.7830 H   0  0  0  0  0  0
  -24.8963  -32.2888   26.4986 H   0  0  0  0  0  0
  -25.8064  -30.8841   27.0226 H   0  0  0  0  0  0
  -26.2845  -29.6805   24.1162 H   0  0  0  0  0  0
  -27.4028  -29.7274   25.4604 H   0  0  0  0  0  0
  -27.8694  -30.4352   23.9307 H   0  0  0  0  0  0
  -27.2652  -33.3598   26.2127 H   0  0  0  0  0  0
  -28.3803  -32.6941   25.0282 H   0  0  0  0  0  0
  -28.0765  -31.8426   26.5352 H   0  0  0  0  0  0
  -28.2458  -38.0194   24.7680 H   0  0  0  0  0  0
  -28.1222  -36.2752   24.5929 H   0  0  0  0  0  0
  -27.2366  -37.1029   25.8818 H   0  0  0  0  0  0
  -20.9296  -29.8733   21.6903 H   0  0  0  0  0  0
  -26.0109  -38.2836   24.1614 H   0  0  0  0  0  0
  -30.4465  -19.7448   22.5775 H   0  0  0  0  0  0
  -30.4917  -17.3137   22.8899 H   0  0  0  0  0  0
  -29.2502  -19.2070   18.4808 H   0  0  0  0  0  0
  -27.9599  -16.1714   16.7394 H   0  0  0  0  0  0
  -27.7724  -17.8513   17.4720 H   0  0  0  0  0  0
  -29.8621  -21.4202   19.1925 H   0  0  0  0  0  0
  -29.4913  -15.5229   18.4391 H   0  0  0  0  0  0
  -29.8321  -21.8831   22.2045 H   0  0  0  0  0  0
  -30.4629  -23.7301   19.8641 H   0  0  0  0  0  0
  -30.5781  -24.1071   21.5674 H   0  0  0  0  0  0
  -29.4432  -26.0513   21.7291 H   0  0  0  0  0  0
  -27.7060  -25.8962   21.8894 H   0  0  0  0  0  0
  -29.0342  -15.0955   21.5220 H   0  0  0  0  0  0
  1 25  1  0  0  0
  1 30  2  0  0  0
  1 84  1  0  0  0
  2  3  1  0  0  0
  2 25  1  0  0  0
  2 86  1  0  0  0
  2 87  1  0  0  0
  3  4  1  0  0  0
  3 88  1  0  0  0
  3 89  1  0  0  0
  4  5  1  0  0  0
  4 90  1  0  0  0
  4 91  1  0  0  0
  5  6  1  0  0  0
  5 26  1  0  0  0
  5 92  1  0  0  0
  6 25  1  0  0  0
  6 93  1  0  0  0
  6 94  1  0  0  0
  7  8  2  0  0  0
  7 26  1  0  0  0
  7 29  1  0  0  0
  8  9  1  0  0  0
  8 22  1  0  0  0
  9 10  1  0  0  0
  9 27  2  0  0  0
 10 11  2  0  0  0
 10 15  1  0  0  0
 11 12  1  0  0  0
 11 95  1  0  0  0
 12 13  2  0  0  0
 12 96  1  0  0  0
 13 14  1  0  0  0
 13 31  1  0  0  0
 14 15  2  0  0  0
 14 97  1  0  0  0
 15 98  1  0  0  0
 16 17  2  0  0  0
 16 21  1  0  0  0
 16 31  1  0  0  0
 17 18  1  0  0  0
 17 99  1  0  0  0
 18 19  2  0  0  0
 18100  1  0  0  0
 19 20  1  0  0  0
 19 24  1  0  0  0
 20 21  2  0  0  0
 20101  1  0  0  0
 21 23  1  0  0  0
 22 28  1  0  0  0
 22 32  2  0  0  0
 26 27  1  0  0  0
 28102  1  0  0  0
 28103  1  0  0  0
 29104  1  0  0  0
 29105  1  0  0  0
 33 34  1  0  0  0
 33 66  1  0  0  0
 33 70  2  0  0  0
 34 36  1  0  0  0
 34 59  1  0  0  0
 34106  1  0  0  0
 35 44  2  0  0  0
 35 45  1  0  0  0
 35 68  1  0  0  0
 36 56  1  0  0  0
 36107  1  0  0  0
 37 39  1  0  0  0
 37 47  1  0  0  0
 37 66  1  0  0  0
 37108  1  0  0  0
 38 43  2  0  0  0
 38 46  1  0  0  0
 38 47  1  0  0  0
 39 64  1  0  0  0
 39 67  2  0  0  0
 40 52  1  0  0  0
 40 53  2  0  0  0
 40 58  1  0  0  0
 41109  1  0  0  0
 41110  1  0  0  0
 41111  1  0  0  0
 41 48  1  0  0  0
 42 43  1  0  0  0
 42 66  1  0  0  0
 42112  1  0  0  0
 42113  1  0  0  0
 43 44  1  0  0  0
 44114  1  0  0  0
 45 46  2  0  0  0
 45115  1  0  0  0
 46116  1  0  0  0
 47117  1  0  0  0
 47118  1  0  0  0
 48 56  1  0  0  0
 48 65  1  0  0  0
 48119  1  0  0  0
 49 50  1  0  0  0
 49 53  1  0  0  0
 49 64  1  0  0  0
 49120  1  0  0  0
 50 51  1  0  0  0
 50121  1  0  0  0
 50122  1  0  0  0
 51 52  1  0  0  0
 51123  1  0  0  0
 51124  1  0  0  0
 52125  1  0  0  0
 52126  1  0  0  0
 53 54  1  0  0  0
 54 55  2  0  0  0
 54127  1  0  0  0
 55 57  1  0  0  0
 55128  1  0  0  0
 56 69  2  0  0  0
 57 58  2  0  0  0
 57129  1  0  0  0
 58130  1  0  0  0
 59 60  1  0  0  0
 59 61  1  0  0  0
 59 62  1  0  0  0
 60131  1  0  0  0
 60132  1  0  0  0
 60133  1  0  0  0
 61134  1  0  0  0
 61135  1  0  0  0
 61136  1  0  0  0
 62137  1  0  0  0
 62138  1  0  0  0
 62139  1  0  0  0
 63 65  1  0  0  0
 63140  1  0  0  0
 63141  1  0  0  0
 63142  1  0  0  0
 64143  1  0  0  0
 65144  1  0  0  0
 68 83  1  0  0  0
 71 72  2  0  0  0
 71 74  1  0  0  0
 71145  1  0  0  0
 72 76  1  0  0  0
 72146  1  0  0  0
 73 74  2  0  0  0
 73 75  1  0  0  0
 73147  1  0  0  0
 74 78  1  0  0  0
 75 76  2  0  0  0
 75 79  1  0  0  0
 76 84  1  0  0  0
 77 79  2  0  0  0
 77148  1  0  0  0
 77149  1  0  0  0
 78 80  2  0  0  0
 78150  1  0  0  0
 79151  1  0  0  0
 80 82  1  0  0  0
 80152  1  0  0  0
 81 82  1  0  0  0
 81 83  1  0  0  0
 81 85  2  0  0  0
 82153  1  0  0  0
 82154  1  0  0  0
 83155  1  0  0  0
 83156  1  0  0  0
 84157  1  0  0  0
M  ISO  4   1 100  68 101  83 101  84 100
M  END
> <chiral flag>
0

> <version>
0

> <s_m_source_file>
/data/baiqing/PycharmProjects/Reinvent-master-3.2/result/LINK_invent/BTK/process_docking_weight1_custom_product_contain_oxygen_bond_distance_aromatic_linkinvent_7_9_3/rearranged_h_0124.sdf

> <i_m_source_file_index>
59

> <r_mmod_Potential_Energy-OPLS-2005>
-13.4561290740967

> <r_mmod_Stretch_Energy-OPLS-2005>
36.567985534668

> <r_mmod_Bend_Energy-OPLS-2005>
91.6455307006836

> <r_mmod_Torsional_Energy-OPLS-2005>
281.868835449219

> <r_mmod_Improper_Torsional_Energy-OPLS-2005>
5.33105087280273

> <r_mmod_Van_der_Waal_Energy-OPLS-2005>
144.765350341797

> <r_mmod_Electrostatic_Energy-OPLS-2005>
-366.167388916016

> <r_mmod_Solvation_Energy-OPLS-2005>
-219.284759521484

> <b_mmod_Minimization_Converged-OPLS-2005>
0

> <r_mmod_RMS_Derivative-OPLS-2005>
2.08646893501282

$$$$
59
                    3D
 Structure written by MMmdl.
158166  0  0  1  0            999 V2000
  -30.7015  -14.4729   20.5892 C   0  0  0  0  0  0
  -30.4246  -12.3105   19.4267 C   0  0  0  0  0  0
  -29.4965  -12.5116   18.2104 C   0  0  0  0  0  0
  -28.0173  -12.3708   18.6202 C   0  0  0  0  0  0
  -27.6630  -13.2076   19.8786 C   0  0  2  0  0  0
  -28.7031  -12.9808   20.9998 C   0  0  0  0  0  0
  -25.2558  -13.8147   20.5620 C   0  0  0  0  0  0
  -24.1830  -13.0428   20.9174 C   0  0  0  0  0  0
  -24.6395  -11.6901   20.8746 C   0  0  0  0  0  0
  -23.9060  -10.4288   21.0409 C   0  0  0  0  0  0
  -24.3612   -9.4203   21.9186 C   0  0  0  0  0  0
  -23.6288   -8.2239   22.0756 C   0  0  0  0  0  0
  -22.4272   -8.0277   21.3543 C   0  0  0  0  0  0
  -21.9906   -9.0251   20.4648 C   0  0  0  0  0  0
  -22.7233  -10.2130   20.3057 C   0  0  0  0  0  0
  -21.6851   -6.0731   22.5277 C   0  0  0  0  0  0
  -21.4014   -6.5636   23.8210 C   0  0  0  0  0  0
  -21.3659   -5.6791   24.9173 C   0  0  0  0  0  0
  -21.6044   -4.3054   24.7226 C   0  0  0  0  0  0
  -21.8819   -3.8143   23.4349 C   0  0  0  0  0  0
  -21.9194   -4.6959   22.3402 C   0  0  0  0  0  0
  -22.7853  -13.5228   21.1837 C   0  0  0  0  0  0
  -22.1661   -4.2144   21.0980 F   0  0  0  0  0  0
  -21.5629   -3.4538   25.7739 F   0  0  0  0  0  0
  -30.0377  -13.2904   20.4555 N   0  0  0  0  0  0
  -26.3025  -12.9333   20.3370 N   0  0  0  0  0  0
  -25.9327  -11.6493   20.5788 N   0  0  0  0  0  0
  -22.0498  -12.8227   22.0405 N   0  0  0  0  0  0
  -25.4209  -15.1849   20.3884 N   0  0  0  0  0  0
  -31.8141  -14.6590   20.0894 O   0  0  0  0  0  0
  -21.6636   -6.8873   21.4238 O   0  0  0  0  0  0
  -22.3537  -14.5534   20.6688 O   0  0  0  0  0  0
  -24.6133  -31.8682   23.2102 C   0  0  0  0  0  0
  -25.9028  -32.4825   23.8401 C   0  0  1  0  0  0
  -27.2375  -27.4347   20.1066 C   0  0  0  0  0  0
  -25.5886  -33.8625   24.2330 N   0  0  0  0  0  0
  -23.4035  -30.4894   21.5498 C   0  0  2  0  0  0
  -24.8540  -28.9520   20.1193 C   0  0  0  0  0  0
  -22.7408  -29.4654   22.4993 C   0  0  0  0  0  0
  -18.0271  -28.1383   22.8497 C   0  0  0  0  0  0
  -24.1485  -36.7321   23.2639 C   0  0  0  0  0  0
  -25.9314  -30.8317   21.3663 C   0  0  0  0  0  0
  -26.0112  -29.4626   20.7227 C   0  0  0  0  0  0
  -27.2076  -28.7082   20.7215 C   0  0  0  0  0  0
  -26.0708  -26.9397   19.4930 C   0  0  0  0  0  0
  -24.8775  -27.6877   19.5038 C   0  0  0  0  0  0
  -23.6147  -29.8184   20.1658 C   0  0  0  0  0  0
  -25.4106  -36.3116   24.0338 C   0  0  1  0  0  0
  -20.5859  -28.3664   23.1322 C   0  0  2  0  0  0
  -20.6755  -26.9400   22.5423 C   0  0  0  0  0  0
  -19.5734  -26.6391   21.5217 C   0  0  0  0  0  0
  -18.1915  -26.7927   22.1631 C   0  0  0  0  0  0
  -19.1519  -28.8840   23.2905 C   0  0  0  0  0  0
  -18.9448  -30.1450   23.8912 C   0  0  0  0  0  0
  -17.6450  -30.6587   24.0572 C   0  0  0  0  0  0
  -25.9031  -34.9477   23.5132 C   0  0  0  0  0  0
  -16.5342  -29.9091   23.6331 C   0  0  0  0  0  0
  -16.7260  -28.6509   23.0349 C   0  0  0  0  0  0
  -26.4458  -31.6601   25.0725 C   0  0  0  0  0  0
  -25.3726  -31.3712   26.1477 C   0  0  0  0  0  0
  -27.0283  -30.3038   24.6100 C   0  0  0  0  0  0
  -27.6039  -32.4318   25.7482 C   0  0  0  0  0  0
  -27.5582  -37.1814   24.8463 C   0  0  0  0  0  0
  -21.4135  -29.3030   22.3728 N   0  0  0  0  0  0
  -26.4295  -37.3797   23.9408 N   0  0  0  0  0  0
  -24.6673  -31.0782   22.1006 N   0  0  0  0  0  0
  -23.4174  -28.8201   23.3045 O   0  0  0  0  0  0
  -28.3813  -26.6722   20.0472 O   0  0  0  0  0  0
  -26.5601  -34.8925   22.4699 O   0  0  0  0  0  0
  -23.5323  -32.1438   23.7490 O   0  0  0  0  0  0
  -29.1814  -19.0890   21.7053 C   0  0  0  0  0  0
  -31.2686  -17.5511   20.6393 C   0  0  0  0  0  0
  -30.3061  -19.7541   21.1672 C   0  0  0  0  0  0
  -29.1077  -17.6732   21.7384 C   0  0  0  0  0  0
  -30.1516  -16.8771   21.1942 C   0  0  0  0  0  0
  -31.3441  -18.9604   20.6271 C   0  0  0  0  0  0
  -30.4432  -21.2352   21.1544 C   0  0  0  0  0  0
  -29.4818  -22.1785   21.3060 C   0  0  0  0  0  0
  -28.7242  -24.5007   21.1756 C   0  0  0  0  0  0
  -29.7396  -23.6242   21.3855 C   0  0  0  0  0  0
  -27.8959  -17.0259   22.3885 C   0  0  0  0  0  0
  -31.1298  -24.1299   21.7549 C   0  0  0  0  0  0
  -28.7702  -26.0341   21.2688 C   0  0  0  0  0  0
  -30.0162  -15.4433   21.2341 N   0  0  0  0  0  0
  -32.4389  -19.5528   20.0896 F   0  0  0  0  0  0
  -31.4695  -12.4079   19.1261 H   0  0  0  0  0  0
  -30.3253  -11.2976   19.8206 H   0  0  0  0  0  0
  -29.7377  -11.7896   17.4291 H   0  0  0  0  0  0
  -29.6655  -13.4989   17.7770 H   0  0  0  0  0  0
  -27.8267  -11.3145   18.8138 H   0  0  0  0  0  0
  -27.3681  -12.6481   17.7890 H   0  0  0  0  0  0
  -27.7099  -14.2573   19.5871 H   0  0  0  0  0  0
  -28.6794  -11.9413   21.3302 H   0  0  0  0  0  0
  -28.4571  -13.5672   21.8859 H   0  0  0  0  0  0
  -25.2757   -9.5677   22.4761 H   0  0  0  0  0  0
  -23.9997   -7.4628   22.7473 H   0  0  0  0  0  0
  -21.0837   -8.8768   19.8953 H   0  0  0  0  0  0
  -22.3691  -10.9668   19.6165 H   0  0  0  0  0  0
  -21.2005   -7.6144   23.9710 H   0  0  0  0  0  0
  -21.1482   -6.0523   25.9076 H   0  0  0  0  0  0
  -22.0600   -2.7607   23.2850 H   0  0  0  0  0  0
  -22.4114  -11.9887   22.4791 H   0  0  0  0  0  0
  -21.1120  -13.1256   22.2615 H   0  0  0  0  0  0
  -24.6432  -15.8311   20.4682 H   0  0  0  0  0  0
  -26.2553  -15.6153   20.0110 H   0  0  0  0  0  0
  -26.7100  -32.5548   23.1173 H   0  0  0  0  0  0
  -25.0016  -33.9785   25.0458 H   0  0  0  0  0  0
  -22.6926  -31.3059   21.4087 H   0  0  0  0  0  0
  -23.3737  -35.9664   23.3315 H   0  0  0  0  0  0
  -24.3578  -36.8921   22.2051 H   0  0  0  0  0  0
  -23.7243  -37.6533   23.6642 H   0  0  0  0  0  0
  -26.0422  -31.5931   20.5928 H   0  0  0  0  0  0
  -26.8199  -30.8908   21.9831 H   0  0  0  0  0  0
  -28.1035  -29.1022   21.1809 H   0  0  0  0  0  0
  -26.0879  -25.9724   19.0110 H   0  0  0  0  0  0
  -23.9897  -27.2898   19.0326 H   0  0  0  0  0  0
  -23.7219  -30.5914   19.4040 H   0  0  0  0  0  0
  -22.7396  -29.2359   19.8720 H   0  0  0  0  0  0
  -25.1279  -36.1988   25.0830 H   0  0  0  0  0  0
  -20.9958  -28.3229   24.1441 H   0  0  0  0  0  0
  -20.5663  -26.2270   23.3609 H   0  0  0  0  0  0
  -21.6627  -26.7443   22.1216 H   0  0  0  0  0  0
  -19.6892  -25.6308   21.1233 H   0  0  0  0  0  0
  -19.6673  -27.3214   20.6757 H   0  0  0  0  0  0
  -17.4187  -26.6683   21.4031 H   0  0  0  0  0  0
  -18.0314  -26.0065   22.9024 H   0  0  0  0  0  0
  -19.7923  -30.7265   24.2284 H   0  0  0  0  0  0
  -17.5005  -31.6268   24.5173 H   0  0  0  0  0  0
  -15.5343  -30.3000   23.7643 H   0  0  0  0  0  0
  -15.8660  -28.0837   22.7052 H   0  0  0  0  0  0
  -24.5882  -30.7079   25.7814 H   0  0  0  0  0  0
  -24.8937  -32.2872   26.4948 H   0  0  0  0  0  0
  -25.8078  -30.8858   27.0221 H   0  0  0  0  0  0
  -26.2827  -29.6813   24.1138 H   0  0  0  0  0  0
  -27.4026  -29.7260   25.4562 H   0  0  0  0  0  0
  -27.8676  -30.4351   23.9265 H   0  0  0  0  0  0
  -27.2663  -33.3607   26.2091 H   0  0  0  0  0  0
  -28.3830  -32.6898   25.0297 H   0  0  0  0  0  0
  -28.0728  -31.8423   26.5371 H   0  0  0  0  0  0
  -28.2610  -38.0101   24.7509 H   0  0  0  0  0  0
  -28.1067  -36.2635   24.6290 H   0  0  0  0  0  0
  -27.2303  -37.1470   25.8867 H   0  0  0  0  0  0
  -20.9298  -29.8752   21.6948 H   0  0  0  0  0  0
  -26.0185  -38.2878   24.1402 H   0  0  0  0  0  0
  -28.3768  -19.6696   22.1329 H   0  0  0  0  0  0
  -32.1020  -17.0152   20.2150 H   0  0  0  0  0  0
  -31.4615  -21.5723   21.0287 H   0  0  0  0  0  0
  -28.4574  -21.8462   21.4049 H   0  0  0  0  0  0
  -27.7485  -24.1084   20.9251 H   0  0  0  0  0  0
  -27.0823  -17.7406   22.5161 H   0  0  0  0  0  0
  -28.1591  -16.6374   23.3726 H   0  0  0  0  0  0
  -27.5139  -16.2032   21.7874 H   0  0  0  0  0  0
  -31.7363  -23.3594   22.2296 H   0  0  0  0  0  0
  -31.0813  -24.9442   22.4775 H   0  0  0  0  0  0
  -31.6574  -24.4814   20.8679 H   0  0  0  0  0  0
  -29.7686  -26.3933   21.5108 H   0  0  0  0  0  0
  -28.1318  -26.3362   22.1017 H   0  0  0  0  0  0
  -29.1636  -15.1101   21.6557 H   0  0  0  0  0  0
  1 25  1  0  0  0
  1 30  2  0  0  0
  1 84  1  0  0  0
  2  3  1  0  0  0
  2 25  1  0  0  0
  2 86  1  0  0  0
  2 87  1  0  0  0
  3  4  1  0  0  0
  3 88  1  0  0  0
  3 89  1  0  0  0
  4  5  1  0  0  0
  4 90  1  0  0  0
  4 91  1  0  0  0
  5  6  1  0  0  0
  5 26  1  0  0  0
  5 92  1  0  0  0
  6 25  1  0  0  0
  6 93  1  0  0  0
  6 94  1  0  0  0
  7  8  2  0  0  0
  7 26  1  0  0  0
  7 29  1  0  0  0
  8  9  1  0  0  0
  8 22  1  0  0  0
  9 10  1  0  0  0
  9 27  2  0  0  0
 10 11  2  0  0  0
 10 15  1  0  0  0
 11 12  1  0  0  0
 11 95  1  0  0  0
 12 13  2  0  0  0
 12 96  1  0  0  0
 13 14  1  0  0  0
 13 31  1  0  0  0
 14 15  2  0  0  0
 14 97  1  0  0  0
 15 98  1  0  0  0
 16 17  2  0  0  0
 16 21  1  0  0  0
 16 31  1  0  0  0
 17 18  1  0  0  0
 17 99  1  0  0  0
 18 19  2  0  0  0
 18100  1  0  0  0
 19 20  1  0  0  0
 19 24  1  0  0  0
 20 21  2  0  0  0
 20101  1  0  0  0
 21 23  1  0  0  0
 22 28  1  0  0  0
 22 32  2  0  0  0
 26 27  1  0  0  0
 28102  1  0  0  0
 28103  1  0  0  0
 29104  1  0  0  0
 29105  1  0  0  0
 33 34  1  0  0  0
 33 66  1  0  0  0
 33 70  2  0  0  0
 34 36  1  0  0  0
 34 59  1  0  0  0
 34106  1  0  0  0
 35 44  2  0  0  0
 35 45  1  0  0  0
 35 68  1  0  0  0
 36 56  1  0  0  0
 36107  1  0  0  0
 37 39  1  0  0  0
 37 47  1  0  0  0
 37 66  1  0  0  0
 37108  1  0  0  0
 38 43  2  0  0  0
 38 46  1  0  0  0
 38 47  1  0  0  0
 39 64  1  0  0  0
 39 67  2  0  0  0
 40 52  1  0  0  0
 40 53  2  0  0  0
 40 58  1  0  0  0
 41109  1  0  0  0
 41110  1  0  0  0
 41111  1  0  0  0
 41 48  1  0  0  0
 42 43  1  0  0  0
 42 66  1  0  0  0
 42112  1  0  0  0
 42113  1  0  0  0
 43 44  1  0  0  0
 44114  1  0  0  0
 45 46  2  0  0  0
 45115  1  0  0  0
 46116  1  0  0  0
 47117  1  0  0  0
 47118  1  0  0  0
 48 56  1  0  0  0
 48 65  1  0  0  0
 48119  1  0  0  0
 49 50  1  0  0  0
 49 53  1  0  0  0
 49 64  1  0  0  0
 49120  1  0  0  0
 50 51  1  0  0  0
 50121  1  0  0  0
 50122  1  0  0  0
 51 52  1  0  0  0
 51123  1  0  0  0
 51124  1  0  0  0
 52125  1  0  0  0
 52126  1  0  0  0
 53 54  1  0  0  0
 54 55  2  0  0  0
 54127  1  0  0  0
 55 57  1  0  0  0
 55128  1  0  0  0
 56 69  2  0  0  0
 57 58  2  0  0  0
 57129  1  0  0  0
 58130  1  0  0  0
 59 60  1  0  0  0
 59 61  1  0  0  0
 59 62  1  0  0  0
 60131  1  0  0  0
 60132  1  0  0  0
 60133  1  0  0  0
 61134  1  0  0  0
 61135  1  0  0  0
 61136  1  0  0  0
 62137  1  0  0  0
 62138  1  0  0  0
 62139  1  0  0  0
 63 65  1  0  0  0
 63140  1  0  0  0
 63141  1  0  0  0
 63142  1  0  0  0
 64143  1  0  0  0
 65144  1  0  0  0
 68 83  1  0  0  0
 71 73  2  0  0  0
 71 74  1  0  0  0
 71145  1  0  0  0
 72 75  1  0  0  0
 72 76  2  0  0  0
 72146  1  0  0  0
 73 76  1  0  0  0
 73 77  1  0  0  0
 74 75  2  0  0  0
 74 81  1  0  0  0
 75 84  1  0  0  0
 76 85  1  0  0  0
 77 78  2  0  0  0
 77147  1  0  0  0
 78 80  1  0  0  0
 78148  1  0  0  0
 79 80  2  0  0  0
 79 83  1  0  0  0
 79149  1  0  0  0
 80 82  1  0  0  0
 81150  1  0  0  0
 81151  1  0  0  0
 81152  1  0  0  0
 82153  1  0  0  0
 82154  1  0  0  0
 82155  1  0  0  0
 83156  1  0  0  0
 83157  1  0  0  0
 84158  1  0  0  0
M  ISO  4   1 100  68 101  83 101  84 100
M  END
> <chiral flag>
0

> <version>
0

> <s_m_source_file>
/data/baiqing/PycharmProjects/Reinvent-master-3.2/result/LINK_invent/BTK/process_docking_weight1_custom_product_contain_oxygen_bond_distance_aromatic_linkinvent_7_9_3/rearranged_h_0124.sdf

> <i_m_source_file_index>
60

> <r_mmod_Potential_Energy-OPLS-2005>
-18.545618057251

> <r_mmod_Stretch_Energy-OPLS-2005>
40.9066162109375

> <r_mmod_Bend_Energy-OPLS-2005>
104.404426574707

> <r_mmod_Torsional_Energy-OPLS-2005>
230.548309326172

> <r_mmod_Improper_Torsional_Energy-OPLS-2005>
3.64932107925415

> <r_mmod_Van_der_Waal_Energy-OPLS-2005>
159.354156494141

> <r_mmod_Electrostatic_Energy-OPLS-2005>
-374.611114501953

> <r_mmod_Solvation_Energy-OPLS-2005>
-194.103622436523

> <b_mmod_Minimization_Converged-OPLS-2005>
0

> <r_mmod_RMS_Derivative-OPLS-2005>
0.575642704963684

$$$$
60
                    3D
 Structure written by MMmdl.
159167  0  0  1  0            999 V2000
  -30.6887  -14.5082   20.6570 C   0  0  0  0  0  0
  -30.4325  -12.3701   19.4086 C   0  0  0  0  0  0
  -29.4945  -12.5491   18.1965 C   0  0  0  0  0  0
  -28.0173  -12.3806   18.6062 C   0  0  0  0  0  0
  -27.6596  -13.2067   19.8700 C   0  0  2  0  0  0
  -28.6979  -12.9648   20.9859 C   0  0  0  0  0  0
  -25.2577  -13.8154   20.5666 C   0  0  0  0  0  0
  -24.1840  -13.0435   20.9168 C   0  0  0  0  0  0
  -24.6392  -11.6896   20.8722 C   0  0  0  0  0  0
  -23.9064  -10.4287   21.0396 C   0  0  0  0  0  0
  -24.3613   -9.4207   21.9177 C   0  0  0  0  0  0
  -23.6289   -8.2240   22.0748 C   0  0  0  0  0  0
  -22.4275   -8.0284   21.3544 C   0  0  0  0  0  0
  -21.9905   -9.0252   20.4644 C   0  0  0  0  0  0
  -22.7229  -10.2129   20.3046 C   0  0  0  0  0  0
  -21.6837   -6.0744   22.5276 C   0  0  0  0  0  0
  -21.4010   -6.5642   23.8208 C   0  0  0  0  0  0
  -21.3665   -5.6790   24.9165 C   0  0  0  0  0  0
  -21.6034   -4.3060   24.7220 C   0  0  0  0  0  0
  -21.8824   -3.8155   23.4332 C   0  0  0  0  0  0
  -21.9194   -4.6968   22.3396 C   0  0  0  0  0  0
  -22.7860  -13.5231   21.1849 C   0  0  0  0  0  0
  -22.1660   -4.2162   21.0974 F   0  0  0  0  0  0
  -21.5627   -3.4537   25.7725 F   0  0  0  0  0  0
  -30.0254  -13.3266   20.4547 N   0  0  0  0  0  0
  -26.3010  -12.9327   20.3315 N   0  0  0  0  0  0
  -25.9315  -11.6484   20.5710 N   0  0  0  0  0  0
  -22.0515  -12.8209   22.0408 N   0  0  0  0  0  0
  -25.4308  -15.1878   20.4092 N   0  0  0  0  0  0
  -31.7099  -14.8145   20.0277 O   0  0  0  0  0  0
  -21.6633   -6.8885   21.4240 O   0  0  0  0  0  0
  -22.3544  -14.5554   20.6716 O   0  0  0  0  0  0
  -24.6198  -31.8680   23.2129 C   0  0  0  0  0  0
  -25.9090  -32.4801   23.8431 C   0  0  1  0  0  0
  -27.2122  -27.3675   20.1073 C   0  0  0  0  0  0
  -25.5962  -33.8603   24.2368 N   0  0  0  0  0  0
  -23.4117  -30.4964   21.5520 C   0  0  2  0  0  0
  -24.8553  -28.9675   20.1063 C   0  0  0  0  0  0
  -22.7444  -29.4653   22.4934 C   0  0  0  0  0  0
  -18.0298  -28.1382   22.8476 C   0  0  0  0  0  0
  -24.1493  -36.7286   23.2639 C   0  0  0  0  0  0
  -25.9507  -30.8135   21.3799 C   0  0  0  0  0  0
  -26.0227  -29.4490   20.7114 C   0  0  0  0  0  0
  -27.2053  -28.6598   20.7044 C   0  0  0  0  0  0
  -26.0254  -26.9314   19.4756 C   0  0  0  0  0  0
  -24.8557  -27.7124   19.4815 C   0  0  0  0  0  0
  -23.6244  -29.8476   20.1609 C   0  0  0  0  0  0
  -25.4109  -36.3099   24.0363 C   0  0  1  0  0  0
  -20.5888  -28.3675   23.1299 C   0  0  2  0  0  0
  -20.6796  -26.9406   22.5407 C   0  0  0  0  0  0
  -19.5767  -26.6388   21.5222 C   0  0  0  0  0  0
  -18.1941  -26.7931   22.1618 C   0  0  0  0  0  0
  -19.1544  -28.8847   23.2885 C   0  0  0  0  0  0
  -18.9470  -30.1455   23.8890 C   0  0  0  0  0  0
  -17.6464  -30.6588   24.0569 C   0  0  0  0  0  0
  -25.9053  -34.9466   23.5153 C   0  0  0  0  0  0
  -16.5363  -29.9082   23.6342 C   0  0  0  0  0  0
  -16.7292  -28.6504   23.0334 C   0  0  0  0  0  0
  -26.4502  -31.6573   25.0766 C   0  0  0  0  0  0
  -25.3740  -31.3664   26.1495 C   0  0  0  0  0  0
  -27.0359  -30.3020   24.6176 C   0  0  0  0  0  0
  -27.6126  -32.4275   25.7470 C   0  0  0  0  0  0
  -27.5590  -37.1780   24.8464 C   0  0  0  0  0  0
  -21.4163  -29.3043   22.3696 N   0  0  0  0  0  0
  -26.4302  -37.3772   23.9425 N   0  0  0  0  0  0
  -24.6787  -31.0730   22.1055 N   0  0  0  0  0  0
  -23.4170  -28.8136   23.2982 O   0  0  0  0  0  0
  -28.3404  -26.5483   20.1664 O   0  0  0  0  0  0
  -26.5577  -34.8900   22.4687 O   0  0  0  0  0  0
  -23.5374  -32.1483   23.7474 O   0  0  0  0  0  0
  -28.2182  -16.6298   22.4819 C   0  0  0  0  0  0
  -27.4758  -17.8058   22.6607 C   0  0  0  0  0  0
  -29.7770  -17.8497   21.0763 C   0  0  0  0  0  0
  -29.4120  -16.6224   21.7285 C   0  0  0  0  0  0
  -27.8859  -19.0258   22.0879 C   0  0  0  0  0  0
  -29.0224  -19.0734   21.2258 C   0  0  0  0  0  0
  -30.2365  -15.3485   21.8676 C   0  0  0  0  0  0
  -27.3301  -20.5761   23.7483 C   0  0  0  0  0  0
  -29.3397  -24.2161   20.4295 C   0  0  0  0  0  0
  -29.4801  -22.7248   19.9148 C   0  0  0  0  0  0
  -28.1696  -25.1162   19.9104 C   0  0  0  0  0  0
  -28.7976  -21.5511   20.7130 C   0  0  0  0  0  0
  -30.4784  -14.9066   23.0327 N   0  0  0  0  0  0
  -27.1512  -20.1392   22.4018 O   0  0  0  0  0  0
  -29.4445  -20.2402   20.5515 O   0  0  0  0  0  0
  -31.4724  -12.5054   19.1051 H   0  0  0  0  0  0
  -30.3709  -11.3504   19.7927 H   0  0  0  0  0  0
  -29.7492  -11.8367   17.4110 H   0  0  0  0  0  0
  -29.6412  -13.5426   17.7680 H   0  0  0  0  0  0
  -27.8376  -11.3220   18.7944 H   0  0  0  0  0  0
  -27.3638  -12.6583   17.7778 H   0  0  0  0  0  0
  -27.7074  -14.2603   19.5908 H   0  0  0  0  0  0
  -28.6979  -11.9130   21.2741 H   0  0  0  0  0  0
  -28.4090  -13.5020   21.8878 H   0  0  0  0  0  0
  -25.2761   -9.5673   22.4749 H   0  0  0  0  0  0
  -23.9990   -7.4631   22.7468 H   0  0  0  0  0  0
  -21.0829   -8.8777   19.8948 H   0  0  0  0  0  0
  -22.3701  -10.9667   19.6156 H   0  0  0  0  0  0
  -21.2007   -7.6149   23.9714 H   0  0  0  0  0  0
  -21.1474   -6.0522   25.9070 H   0  0  0  0  0  0
  -22.0603   -2.7616   23.2824 H   0  0  0  0  0  0
  -22.4116  -11.9837   22.4744 H   0  0  0  0  0  0
  -21.1146  -13.1238   22.2660 H   0  0  0  0  0  0
  -24.6657  -15.8433   20.5257 H   0  0  0  0  0  0
  -26.2910  -15.6291   20.1111 H   0  0  0  0  0  0
  -26.7146  -32.5492   23.1172 H   0  0  0  0  0  0
  -25.0198  -33.9796   25.0568 H   0  0  0  0  0  0
  -22.7056  -31.3184   21.4150 H   0  0  0  0  0  0
  -23.3789  -35.9587   23.3302 H   0  0  0  0  0  0
  -24.3597  -36.8874   22.2058 H   0  0  0  0  0  0
  -23.7200  -37.6476   23.6628 H   0  0  0  0  0  0
  -26.0952  -31.5889   20.6249 H   0  0  0  0  0  0
  -26.8272  -30.8459   22.0157 H   0  0  0  0  0  0
  -28.0998  -29.0217   21.1875 H   0  0  0  0  0  0
  -25.9700  -25.9767   18.9746 H   0  0  0  0  0  0
  -23.9608  -27.3420   19.0016 H   0  0  0  0  0  0
  -23.7447  -30.6385   19.4190 H   0  0  0  0  0  0
  -22.7426  -29.2857   19.8471 H   0  0  0  0  0  0
  -25.1245  -36.2010   25.0855 H   0  0  0  0  0  0
  -21.0024  -28.3264   24.1408 H   0  0  0  0  0  0
  -20.5750  -26.2273   23.3592 H   0  0  0  0  0  0
  -21.6649  -26.7471   22.1146 H   0  0  0  0  0  0
  -19.6933  -25.6308   21.1237 H   0  0  0  0  0  0
  -19.6727  -27.3225   20.6775 H   0  0  0  0  0  0
  -17.4214  -26.6722   21.4010 H   0  0  0  0  0  0
  -18.0316  -26.0060   22.9001 H   0  0  0  0  0  0
  -19.7940  -30.7289   24.2240 H   0  0  0  0  0  0
  -17.5012  -31.6256   24.5181 H   0  0  0  0  0  0
  -15.5355  -30.2964   23.7679 H   0  0  0  0  0  0
  -15.8690  -28.0847   22.7016 H   0  0  0  0  0  0
  -24.6005  -30.6895   25.7823 H   0  0  0  0  0  0
  -24.8816  -32.2780   26.4891 H   0  0  0  0  0  0
  -25.8089  -30.8895   27.0285 H   0  0  0  0  0  0
  -26.2923  -29.6731   24.1263 H   0  0  0  0  0  0
  -27.4157  -29.7307   25.4656 H   0  0  0  0  0  0
  -27.8718  -30.4338   23.9303 H   0  0  0  0  0  0
  -27.2851  -33.3631   26.1993 H   0  0  0  0  0  0
  -28.3913  -32.6727   25.0234 H   0  0  0  0  0  0
  -28.0778  -31.8399   26.5385 H   0  0  0  0  0  0
  -28.2567  -38.0120   24.7586 H   0  0  0  0  0  0
  -28.1127  -36.2661   24.6189 H   0  0  0  0  0  0
  -27.2314  -37.1295   25.8862 H   0  0  0  0  0  0
  -20.9332  -29.8815   21.6953 H   0  0  0  0  0  0
  -26.0212  -38.2839   24.1484 H   0  0  0  0  0  0
  -27.8789  -15.7296   22.9815 H   0  0  0  0  0  0
  -26.5877  -17.7659   23.2776 H   0  0  0  0  0  0
  -30.6861  -17.8634   20.4914 H   0  0  0  0  0  0
  -26.6844  -21.4311   23.9556 H   0  0  0  0  0  0
  -28.3605  -20.8981   23.9087 H   0  0  0  0  0  0
  -27.1046  -19.7993   24.4804 H   0  0  0  0  0  0
  -30.2561  -24.7257   20.1298 H   0  0  0  0  0  0
  -29.3527  -24.2312   21.5198 H   0  0  0  0  0  0
  -30.5474  -22.5084   19.9535 H   0  0  0  0  0  0
  -29.2257  -22.6705   18.8559 H   0  0  0  0  0  0
  -27.2509  -24.7523   20.3739 H   0  0  0  0  0  0
  -28.0625  -24.9799   18.8345 H   0  0  0  0  0  0
  -27.7475  -21.4999   20.4141 H   0  0  0  0  0  0
  -28.8231  -21.8261   21.7647 H   0  0  0  0  0  0
  -30.0612  -15.5091   23.7326 H   0  0  0  0  0  0
  1 25  1  0  0  0
  1 30  2  0  0  0
  1 77  1  0  0  0
  2  3  1  0  0  0
  2 25  1  0  0  0
  2 86  1  0  0  0
  2 87  1  0  0  0
  3  4  1  0  0  0
  3 88  1  0  0  0
  3 89  1  0  0  0
  4  5  1  0  0  0
  4 90  1  0  0  0
  4 91  1  0  0  0
  5  6  1  0  0  0
  5 26  1  0  0  0
  5 92  1  0  0  0
  6 25  1  0  0  0
  6 93  1  0  0  0
  6 94  1  0  0  0
  7  8  2  0  0  0
  7 26  1  0  0  0
  7 29  1  0  0  0
  8  9  1  0  0  0
  8 22  1  0  0  0
  9 10  1  0  0  0
  9 27  2  0  0  0
 10 11  2  0  0  0
 10 15  1  0  0  0
 11 12  1  0  0  0
 11 95  1  0  0  0
 12 13  2  0  0  0
 12 96  1  0  0  0
 13 14  1  0  0  0
 13 31  1  0  0  0
 14 15  2  0  0  0
 14 97  1  0  0  0
 15 98  1  0  0  0
 16 17  2  0  0  0
 16 21  1  0  0  0
 16 31  1  0  0  0
 17 18  1  0  0  0
 17 99  1  0  0  0
 18 19  2  0  0  0
 18100  1  0  0  0
 19 20  1  0  0  0
 19 24  1  0  0  0
 20 21  2  0  0  0
 20101  1  0  0  0
 21 23  1  0  0  0
 22 28  1  0  0  0
 22 32  2  0  0  0
 26 27  1  0  0  0
 28102  1  0  0  0
 28103  1  0  0  0
 29104  1  0  0  0
 29105  1  0  0  0
 33 34  1  0  0  0
 33 66  1  0  0  0
 33 70  2  0  0  0
 34 36  1  0  0  0
 34 59  1  0  0  0
 34106  1  0  0  0
 35 44  2  0  0  0
 35 45  1  0  0  0
 35 68  1  0  0  0
 36 56  1  0  0  0
 36107  1  0  0  0
 37 39  1  0  0  0
 37 47  1  0  0  0
 37 66  1  0  0  0
 37108  1  0  0  0
 38 43  2  0  0  0
 38 46  1  0  0  0
 38 47  1  0  0  0
 39 64  1  0  0  0
 39 67  2  0  0  0
 40 52  1  0  0  0
 40 53  2  0  0  0
 40 58  1  0  0  0
 41109  1  0  0  0
 41110  1  0  0  0
 41111  1  0  0  0
 41 48  1  0  0  0
 42 43  1  0  0  0
 42 66  1  0  0  0
 42112  1  0  0  0
 42113  1  0  0  0
 43 44  1  0  0  0
 44114  1  0  0  0
 45 46  2  0  0  0
 45115  1  0  0  0
 46116  1  0  0  0
 47117  1  0  0  0
 47118  1  0  0  0
 48 56  1  0  0  0
 48 65  1  0  0  0
 48119  1  0  0  0
 49 50  1  0  0  0
 49 53  1  0  0  0
 49 64  1  0  0  0
 49120  1  0  0  0
 50 51  1  0  0  0
 50121  1  0  0  0
 50122  1  0  0  0
 51 52  1  0  0  0
 51123  1  0  0  0
 51124  1  0  0  0
 52125  1  0  0  0
 52126  1  0  0  0
 53 54  1  0  0  0
 54 55  2  0  0  0
 54127  1  0  0  0
 55 57  1  0  0  0
 55128  1  0  0  0
 56 69  2  0  0  0
 57 58  2  0  0  0
 57129  1  0  0  0
 58130  1  0  0  0
 59 60  1  0  0  0
 59 61  1  0  0  0
 59 62  1  0  0  0
 60131  1  0  0  0
 60132  1  0  0  0
 60133  1  0  0  0
 61134  1  0  0  0
 61135  1  0  0  0
 61136  1  0  0  0
 62137  1  0  0  0
 62138  1  0  0  0
 62139  1  0  0  0
 63 65  1  0  0  0
 63140  1  0  0  0
 63141  1  0  0  0
 63142  1  0  0  0
 64143  1  0  0  0
 65144  1  0  0  0
 68 81  1  0  0  0
 71 72  2  0  0  0
 71 74  1  0  0  0
 71145  1  0  0  0
 72 75  1  0  0  0
 72146  1  0  0  0
 73 74  2  0  0  0
 73 76  1  0  0  0
 73147  1  0  0  0
 74 77  1  0  0  0
 75 76  2  0  0  0
 75 84  1  0  0  0
 76 85  1  0  0  0
 77 83  2  0  0  0
 78 84  1  0  0  0
 78148  1  0  0  0
 78149  1  0  0  0
 78150  1  0  0  0
 79 80  1  0  0  0
 79 81  1  0  0  0
 79151  1  0  0  0
 79152  1  0  0  0
 80 82  1  0  0  0
 80153  1  0  0  0
 80154  1  0  0  0
 81155  1  0  0  0
 81156  1  0  0  0
 82 85  1  0  0  0
 82157  1  0  0  0
 82158  1  0  0  0
 83159  1  0  0  0
M  ISO  4   1 100  68 101  77 100  81 101
M  END
> <chiral flag>
0

> <version>
0

> <s_m_source_file>
/data/baiqing/PycharmProjects/Reinvent-master-3.2/result/LINK_invent/BTK/process_docking_weight1_custom_product_contain_oxygen_bond_distance_aromatic_linkinvent_7_9_3/rearranged_h_0124.sdf

> <i_m_source_file_index>
61

> <r_mmod_Potential_Energy-OPLS-2005>
219.235946655273

> <r_mmod_Stretch_Energy-OPLS-2005>
71.9534683227539

> <r_mmod_Bend_Energy-OPLS-2005>
147.049545288086

> <r_mmod_Torsional_Energy-OPLS-2005>
262.641998291016

> <r_mmod_Improper_Torsional_Energy-OPLS-2005>
5.51924324035645

> <r_mmod_Van_der_Waal_Energy-OPLS-2005>
154.43034362793

> <r_mmod_Electrostatic_Energy-OPLS-2005>
-245.56916809082

> <r_mmod_Solvation_Energy-OPLS-2005>
-203.055038452148

> <b_mmod_Minimization_Converged-OPLS-2005>
0

> <r_mmod_RMS_Derivative-OPLS-2005>
4.21676015853882

$$$$
61
                    3D
 Structure written by MMmdl.
158166  0  0  1  0            999 V2000
  -30.6505  -14.6895   20.4553 C   0  0  0  0  0  0
  -30.4362  -12.4173   19.4579 C   0  0  0  0  0  0
  -29.5053  -12.5046   18.2281 C   0  0  0  0  0  0
  -28.0302  -12.3425   18.6457 C   0  0  0  0  0  0
  -27.6447  -13.2307   19.8595 C   0  0  2  0  0  0
  -28.7028  -13.1388   20.9859 C   0  0  0  0  0  0
  -25.2382  -13.8002   20.5727 C   0  0  0  0  0  0
  -24.1735  -13.0254   20.9266 C   0  0  0  0  0  0
  -24.6406  -11.6784   20.8785 C   0  0  0  0  0  0
  -23.9085  -10.4188   21.0411 C   0  0  0  0  0  0
  -24.3626   -9.4111   21.9198 C   0  0  0  0  0  0
  -23.6273   -8.2168   22.0758 C   0  0  0  0  0  0
  -22.4257   -8.0230   21.3539 C   0  0  0  0  0  0
  -21.9900   -9.0208   20.4639 C   0  0  0  0  0  0
  -22.7251  -10.2073   20.3049 C   0  0  0  0  0  0
  -21.6833   -6.0704   22.5274 C   0  0  0  0  0  0
  -21.3996   -6.5620   23.8204 C   0  0  0  0  0  0
  -21.3651   -5.6780   24.9172 C   0  0  0  0  0  0
  -21.6048   -4.3039   24.7235 C   0  0  0  0  0  0
  -21.8823   -3.8121   23.4355 C   0  0  0  0  0  0
  -21.9181   -4.6933   22.3403 C   0  0  0  0  0  0
  -22.7757  -13.5058   21.1899 C   0  0  0  0  0  0
  -22.1653   -4.2116   21.0987 F   0  0  0  0  0  0
  -21.5637   -3.4531   25.7746 F   0  0  0  0  0  0
  -30.0171  -13.4696   20.4048 N   0  0  0  0  0  0
  -26.2940  -12.9338   20.3352 N   0  0  0  0  0  0
  -25.9354  -11.6469   20.5811 N   0  0  0  0  0  0
  -22.0414  -12.8068   22.0473 N   0  0  0  0  0  0
  -25.3658  -15.1673   20.4106 N   0  0  0  0  0  0
  -31.8340  -14.8039   20.1267 O   0  0  0  0  0  0
  -21.6615   -6.8839   21.4233 O   0  0  0  0  0  0
  -22.3445  -14.5362   20.6725 O   0  0  0  0  0  0
  -24.6255  -31.8573   23.2024 C   0  0  0  0  0  0
  -25.9101  -32.4762   23.8360 C   0  0  1  0  0  0
  -27.2420  -27.3242   20.1158 C   0  0  0  0  0  0
  -25.5907  -33.8560   24.2281 N   0  0  0  0  0  0
  -23.4210  -30.4777   21.5451 C   0  0  2  0  0  0
  -24.8719  -28.9325   20.1137 C   0  0  0  0  0  0
  -22.7483  -29.4591   22.4957 C   0  0  0  0  0  0
  -18.0292  -28.1371   22.8486 C   0  0  0  0  0  0
  -24.1469  -36.7283   23.2639 C   0  0  0  0  0  0
  -25.9611  -30.7908   21.3724 C   0  0  0  0  0  0
  -26.0397  -29.4182   20.7144 C   0  0  0  0  0  0
  -27.2265  -28.6275   20.7035 C   0  0  0  0  0  0
  -26.0457  -26.8857   19.4998 C   0  0  0  0  0  0
  -24.8769  -27.6717   19.4969 C   0  0  0  0  0  0
  -23.6353  -29.8065   20.1630 C   0  0  0  0  0  0
  -25.4093  -36.3063   24.0329 C   0  0  1  0  0  0
  -20.5891  -28.3656   23.1292 C   0  0  2  0  0  0
  -20.6770  -26.9375   22.5417 C   0  0  0  0  0  0
  -19.5754  -26.6366   21.5209 C   0  0  0  0  0  0
  -18.1935  -26.7914   22.1619 C   0  0  0  0  0  0
  -19.1549  -28.8837   23.2875 C   0  0  0  0  0  0
  -18.9468  -30.1444   23.8890 C   0  0  0  0  0  0
  -17.6462  -30.6564   24.0567 C   0  0  0  0  0  0
  -25.9036  -34.9434   23.5103 C   0  0  0  0  0  0
  -16.5350  -29.9057   23.6339 C   0  0  0  0  0  0
  -16.7280  -28.6478   23.0352 C   0  0  0  0  0  0
  -26.4489  -31.6583   25.0737 C   0  0  0  0  0  0
  -25.3729  -31.3763   26.1476 C   0  0  0  0  0  0
  -27.0322  -30.2998   24.6210 C   0  0  0  0  0  0
  -27.6047  -32.4333   25.7490 C   0  0  0  0  0  0
  -27.5570  -37.1782   24.8457 C   0  0  0  0  0  0
  -21.4204  -29.2993   22.3680 N   0  0  0  0  0  0
  -26.4271  -37.3758   23.9417 N   0  0  0  0  0  0
  -24.6878  -31.0589   22.0966 N   0  0  0  0  0  0
  -23.4207  -28.8150   23.3054 O   0  0  0  0  0  0
  -28.3767  -26.4957   20.1567 O   0  0  0  0  0  0
  -26.5614  -34.8901   22.4676 O   0  0  0  0  0  0
  -23.5420  -32.1366   23.7358 O   0  0  0  0  0  0
  -28.9216  -19.5043   20.4019 C   0  0  0  0  0  0
  -31.2432  -17.9494   20.5200 C   0  0  0  0  0  0
  -28.8514  -18.0814   20.4496 C   0  0  0  0  0  0
  -31.3119  -19.3831   20.4450 C   0  0  0  0  0  0
  -30.1462  -20.2132   20.4074 C   0  0  0  0  0  0
  -30.0074  -17.2447   20.5409 C   0  0  0  0  0  0
  -29.3181  -22.5490   20.2424 C   0  0  0  0  0  0
  -29.4380  -24.1195   20.2901 C   0  0  0  0  0  0
  -32.6839  -20.0369   20.3873 C   0  0  0  0  0  0
  -27.0439  -17.4177   18.8476 C   0  0  0  0  0  0
  -27.4664  -17.4910   20.3260 C   0  0  0  0  0  0
  -28.1835  -25.0308   19.9930 C   0  0  0  0  0  0
  -30.2634  -21.6553   20.4003 N   0  0  0  0  0  0
  -29.8471  -15.7816   20.6786 N   0  0  0  0  0  0
  -30.5188  -24.6643   20.5530 O   0  0  0  0  0  0
  -31.4760  -12.5335   19.1476 H   0  0  0  0  0  0
  -30.3673  -11.4349   19.9295 H   0  0  0  0  0  0
  -29.7686  -11.7372   17.4987 H   0  0  0  0  0  0
  -29.6430  -13.4640   17.7259 H   0  0  0  0  0  0
  -27.8765  -11.2922   18.8951 H   0  0  0  0  0  0
  -27.3720  -12.5522   17.8015 H   0  0  0  0  0  0
  -27.6358  -14.2574   19.4946 H   0  0  0  0  0  0
  -28.7241  -12.1372   21.4172 H   0  0  0  0  0  0
  -28.4523  -13.8125   21.8056 H   0  0  0  0  0  0
  -25.2779   -9.5567   22.4762 H   0  0  0  0  0  0
  -23.9953   -7.4554   22.7488 H   0  0  0  0  0  0
  -21.0817   -8.8748   19.8959 H   0  0  0  0  0  0
  -22.3734  -10.9616   19.6155 H   0  0  0  0  0  0
  -21.1987   -7.6128   23.9685 H   0  0  0  0  0  0
  -21.1473   -6.0525   25.9070 H   0  0  0  0  0  0
  -22.0613   -2.7579   23.2881 H   0  0  0  0  0  0
  -22.4069  -11.9767   22.4893 H   0  0  0  0  0  0
  -21.1017  -13.1077   22.2668 H   0  0  0  0  0  0
  -24.5609  -15.7760   20.5041 H   0  0  0  0  0  0
  -26.1580  -15.6196   19.9767 H   0  0  0  0  0  0
  -26.7168  -32.5442   23.1115 H   0  0  0  0  0  0
  -25.0030  -33.9702   25.0409 H   0  0  0  0  0  0
  -22.7131  -31.2966   21.4001 H   0  0  0  0  0  0
  -23.3713  -35.9635   23.3303 H   0  0  0  0  0  0
  -24.3556  -36.8908   22.2054 H   0  0  0  0  0  0
  -23.7235  -37.6489   23.6663 H   0  0  0  0  0  0
  -26.0924  -31.5559   20.6064 H   0  0  0  0  0  0
  -26.8404  -30.8400   22.0028 H   0  0  0  0  0  0
  -28.1239  -29.0001   21.1784 H   0  0  0  0  0  0
  -25.9857  -25.9212   19.0173 H   0  0  0  0  0  0
  -23.9814  -27.2938   19.0230 H   0  0  0  0  0  0
  -23.7420  -30.5779   19.3997 H   0  0  0  0  0  0
  -22.7588  -29.2259   19.8696 H   0  0  0  0  0  0
  -25.1262  -36.1913   25.0821 H   0  0  0  0  0  0
  -20.9984  -28.3218   24.1411 H   0  0  0  0  0  0
  -20.5651  -26.2256   23.3607 H   0  0  0  0  0  0
  -21.6638  -26.7382   22.1224 H   0  0  0  0  0  0
  -19.6906  -25.6284   21.1215 H   0  0  0  0  0  0
  -19.6700  -27.3194   20.6756 H   0  0  0  0  0  0
  -17.4203  -26.6671   21.4018 H   0  0  0  0  0  0
  -18.0326  -26.0051   22.9009 H   0  0  0  0  0  0
  -19.7939  -30.7270   24.2241 H   0  0  0  0  0  0
  -17.5005  -31.6239   24.5169 H   0  0  0  0  0  0
  -15.5351  -30.2946   23.7663 H   0  0  0  0  0  0
  -15.8684  -28.0789   22.7066 H   0  0  0  0  0  0
  -24.5864  -30.7145   25.7830 H   0  0  0  0  0  0
  -24.8968  -32.2954   26.4905 H   0  0  0  0  0  0
  -25.8050  -30.8936   27.0252 H   0  0  0  0  0  0
  -26.2901  -29.6750   24.1221 H   0  0  0  0  0  0
  -27.3985  -29.7259   25.4735 H   0  0  0  0  0  0
  -27.8787  -30.4267   23.9457 H   0  0  0  0  0  0
  -27.2642  -33.3620   26.2082 H   0  0  0  0  0  0
  -28.3833  -32.6925   25.0303 H   0  0  0  0  0  0
  -28.0736  -31.8460   26.5395 H   0  0  0  0  0  0
  -28.2579  -38.0085   24.7490 H   0  0  0  0  0  0
  -28.1065  -36.2612   24.6270 H   0  0  0  0  0  0
  -27.2297  -37.1420   25.8864 H   0  0  0  0  0  0
  -20.9397  -29.8670   21.6842 H   0  0  0  0  0  0
  -26.0143  -38.2824   24.1443 H   0  0  0  0  0  0
  -27.9904  -20.0493   20.3497 H   0  0  0  0  0  0
  -32.1650  -17.3872   20.5626 H   0  0  0  0  0  0
  -28.3007  -22.2048   20.0466 H   0  0  0  0  0  0
  -33.4891  -19.3128   20.5125 H   0  0  0  0  0  0
  -32.7908  -20.7902   21.1680 H   0  0  0  0  0  0
  -32.8213  -20.5276   19.4226 H   0  0  0  0  0  0
  -26.0110  -17.0936   18.7282 H   0  0  0  0  0  0
  -27.6800  -16.7349   18.2809 H   0  0  0  0  0  0
  -27.1136  -18.3979   18.3744 H   0  0  0  0  0  0
  -26.7602  -18.1085   20.8834 H   0  0  0  0  0  0
  -27.4425  -16.5205   20.8130 H   0  0  0  0  0  0
  -27.3710  -24.7027   20.6414 H   0  0  0  0  0  0
  -27.8756  -24.8277   18.9679 H   0  0  0  0  0  0
  -28.9015  -15.4991   20.8790 H   0  0  0  0  0  0
  1 25  1  0  0  0
  1 30  2  0  0  0
  1 84  1  0  0  0
  2  3  1  0  0  0
  2 25  1  0  0  0
  2 86  1  0  0  0
  2 87  1  0  0  0
  3  4  1  0  0  0
  3 88  1  0  0  0
  3 89  1  0  0  0
  4  5  1  0  0  0
  4 90  1  0  0  0
  4 91  1  0  0  0
  5  6  1  0  0  0
  5 26  1  0  0  0
  5 92  1  0  0  0
  6 25  1  0  0  0
  6 93  1  0  0  0
  6 94  1  0  0  0
  7  8  2  0  0  0
  7 26  1  0  0  0
  7 29  1  0  0  0
  8  9  1  0  0  0
  8 22  1  0  0  0
  9 10  1  0  0  0
  9 27  2  0  0  0
 10 11  2  0  0  0
 10 15  1  0  0  0
 11 12  1  0  0  0
 11 95  1  0  0  0
 12 13  2  0  0  0
 12 96  1  0  0  0
 13 14  1  0  0  0
 13 31  1  0  0  0
 14 15  2  0  0  0
 14 97  1  0  0  0
 15 98  1  0  0  0
 16 17  2  0  0  0
 16 21  1  0  0  0
 16 31  1  0  0  0
 17 18  1  0  0  0
 17 99  1  0  0  0
 18 19  2  0  0  0
 18100  1  0  0  0
 19 20  1  0  0  0
 19 24  1  0  0  0
 20 21  2  0  0  0
 20101  1  0  0  0
 21 23  1  0  0  0
 22 28  1  0  0  0
 22 32  2  0  0  0
 26 27  1  0  0  0
 28102  1  0  0  0
 28103  1  0  0  0
 29104  1  0  0  0
 29105  1  0  0  0
 33 34  1  0  0  0
 33 66  1  0  0  0
 33 70  2  0  0  0
 34 36  1  0  0  0
 34 59  1  0  0  0
 34106  1  0  0  0
 35 44  2  0  0  0
 35 45  1  0  0  0
 35 68  1  0  0  0
 36 56  1  0  0  0
 36107  1  0  0  0
 37 39  1  0  0  0
 37 47  1  0  0  0
 37 66  1  0  0  0
 37108  1  0  0  0
 38 43  2  0  0  0
 38 46  1  0  0  0
 38 47  1  0  0  0
 39 64  1  0  0  0
 39 67  2  0  0  0
 40 52  1  0  0  0
 40 53  2  0  0  0
 40 58  1  0  0  0
 41109  1  0  0  0
 41110  1  0  0  0
 41111  1  0  0  0
 41 48  1  0  0  0
 42 43  1  0  0  0
 42 66  1  0  0  0
 42112  1  0  0  0
 42113  1  0  0  0
 43 44  1  0  0  0
 44114  1  0  0  0
 45 46  2  0  0  0
 45115  1  0  0  0
 46116  1  0  0  0
 47117  1  0  0  0
 47118  1  0  0  0
 48 56  1  0  0  0
 48 65  1  0  0  0
 48119  1  0  0  0
 49 50  1  0  0  0
 49 53  1  0  0  0
 49 64  1  0  0  0
 49120  1  0  0  0
 50 51  1  0  0  0
 50121  1  0  0  0
 50122  1  0  0  0
 51 52  1  0  0  0
 51123  1  0  0  0
 51124  1  0  0  0
 52125  1  0  0  0
 52126  1  0  0  0
 53 54  1  0  0  0
 54 55  2  0  0  0
 54127  1  0  0  0
 55 57  1  0  0  0
 55128  1  0  0  0
 56 69  2  0  0  0
 57 58  2  0  0  0
 57129  1  0  0  0
 58130  1  0  0  0
 59 60  1  0  0  0
 59 61  1  0  0  0
 59 62  1  0  0  0
 60131  1  0  0  0
 60132  1  0  0  0
 60133  1  0  0  0
 61134  1  0  0  0
 61135  1  0  0  0
 61136  1  0  0  0
 62137  1  0  0  0
 62138  1  0  0  0
 62139  1  0  0  0
 63 65  1  0  0  0
 63140  1  0  0  0
 63141  1  0  0  0
 63142  1  0  0  0
 64143  1  0  0  0
 65144  1  0  0  0
 68 82  1  0  0  0
 71 73  2  0  0  0
 71 75  1  0  0  0
 71145  1  0  0  0
 72 74  1  0  0  0
 72 76  2  0  0  0
 72146  1  0  0  0
 73 76  1  0  0  0
 73 81  1  0  0  0
 74 75  2  0  0  0
 74 79  1  0  0  0
 75 83  1  0  0  0
 76 84  1  0  0  0
 77 78  1  0  0  0
 77 83  2  0  0  0
 77147  1  0  0  0
 78 82  1  0  0  0
 78 85  2  0  0  0
 79148  1  0  0  0
 79149  1  0  0  0
 79150  1  0  0  0
 80 81  1  0  0  0
 80151  1  0  0  0
 80152  1  0  0  0
 80153  1  0  0  0
 81154  1  0  0  0
 81155  1  0  0  0
 82156  1  0  0  0
 82157  1  0  0  0
 84158  1  0  0  0
M  ISO  4   1 100  68 101  82 101  84 100
M  END
> <chiral flag>
0

> <version>
0

> <s_m_source_file>
/data/baiqing/PycharmProjects/Reinvent-master-3.2/result/LINK_invent/BTK/process_docking_weight1_custom_product_contain_oxygen_bond_distance_aromatic_linkinvent_7_9_3/rearranged_h_0124.sdf

> <i_m_source_file_index>
62

> <r_mmod_Potential_Energy-OPLS-2005>
76.9151000976562

> <r_mmod_Stretch_Energy-OPLS-2005>
91.3584747314453

> <r_mmod_Bend_Energy-OPLS-2005>
150.789413452148

> <r_mmod_Torsional_Energy-OPLS-2005>
212.488265991211

> <r_mmod_Improper_Torsional_Energy-OPLS-2005>
5.52476024627686

> <r_mmod_Van_der_Waal_Energy-OPLS-2005>
148.296112060547

> <r_mmod_Electrostatic_Energy-OPLS-2005>
-345.337554931641

> <r_mmod_Solvation_Energy-OPLS-2005>
-243.66487121582

> <b_mmod_Minimization_Converged-OPLS-2005>
0

> <r_mmod_RMS_Derivative-OPLS-2005>
2.00685596466064

$$$$
62
                    3D
 Structure written by MMmdl.
154162  0  0  1  0            999 V2000
  -30.6257  -14.7209   20.4382 C   0  0  0  0  0  0
  -30.4280  -12.4184   19.4833 C   0  0  0  0  0  0
  -29.4868  -12.3833   18.2549 C   0  0  0  0  0  0
  -28.0161  -12.2740   18.6802 C   0  0  0  0  0  0
  -27.6383  -13.2233   19.8447 C   0  0  2  0  0  0
  -28.6787  -13.1813   20.9841 C   0  0  0  0  0  0
  -25.2556  -13.8183   20.5714 C   0  0  0  0  0  0
  -24.1817  -13.0438   20.9214 C   0  0  0  0  0  0
  -24.6394  -11.6923   20.8816 C   0  0  0  0  0  0
  -23.9064  -10.4312   21.0462 C   0  0  0  0  0  0
  -24.3625   -9.4238   21.9230 C   0  0  0  0  0  0
  -23.6301   -8.2280   22.0794 C   0  0  0  0  0  0
  -22.4305   -8.0309   21.3546 C   0  0  0  0  0  0
  -21.9919   -9.0290   20.4662 C   0  0  0  0  0  0
  -22.7246  -10.2174   20.3091 C   0  0  0  0  0  0
  -21.6866   -6.0755   22.5272 C   0  0  0  0  0  0
  -21.4010   -6.5649   23.8207 C   0  0  0  0  0  0
  -21.3681   -5.6814   24.9169 C   0  0  0  0  0  0
  -21.6031   -4.3072   24.7226 C   0  0  0  0  0  0
  -21.8803   -3.8161   23.4343 C   0  0  0  0  0  0
  -21.9205   -4.6976   22.3407 C   0  0  0  0  0  0
  -22.7870  -13.5282   21.1797 C   0  0  0  0  0  0
  -22.1691   -4.2158   21.0988 F   0  0  0  0  0  0
  -21.5609   -3.4567   25.7748 F   0  0  0  0  0  0
  -29.9908  -13.5006   20.4013 N   0  0  0  0  0  0
  -26.2945  -12.9364   20.3327 N   0  0  0  0  0  0
  -25.9333  -11.6518   20.5900 N   0  0  0  0  0  0
  -22.0478  -12.8289   22.0324 N   0  0  0  0  0  0
  -25.4265  -15.1882   20.4117 N   0  0  0  0  0  0
  -31.8099  -14.8088   20.0961 O   0  0  0  0  0  0
  -21.6648   -6.8916   21.4256 O   0  0  0  0  0  0
  -22.3603  -14.5622   20.6669 O   0  0  0  0  0  0
  -24.6324  -31.8538   23.1976 C   0  0  0  0  0  0
  -25.9128  -32.4746   23.8350 C   0  0  1  0  0  0
  -27.2302  -27.2812   20.1193 C   0  0  0  0  0  0
  -25.5946  -33.8546   24.2294 N   0  0  0  0  0  0
  -23.4318  -30.4799   21.5390 C   0  0  2  0  0  0
  -24.8834  -28.9345   20.0991 C   0  0  0  0  0  0
  -22.7530  -29.4579   22.4866 C   0  0  0  0  0  0
  -18.0289  -28.1340   22.8511 C   0  0  0  0  0  0
  -24.1496  -36.7290   23.2646 C   0  0  0  0  0  0
  -25.9794  -30.7679   21.3812 C   0  0  0  0  0  0
  -26.0501  -29.3955   20.7228 C   0  0  0  0  0  0
  -27.2244  -28.5805   20.7253 C   0  0  0  0  0  0
  -26.0498  -26.8970   19.4418 C   0  0  0  0  0  0
  -24.8903  -27.6960   19.4409 C   0  0  0  0  0  0
  -23.6548  -29.8218   20.1517 C   0  0  0  0  0  0
  -25.4120  -36.3068   24.0353 C   0  0  1  0  0  0
  -20.5891  -28.3683   23.1176 C   0  0  2  0  0  0
  -20.6842  -26.9432   22.5212 C   0  0  0  0  0  0
  -19.5674  -26.6228   21.5231 C   0  0  0  0  0  0
  -18.1934  -26.7802   22.1820 C   0  0  0  0  0  0
  -19.1533  -28.8837   23.2830 C   0  0  0  0  0  0
  -18.9444  -30.1454   23.8823 C   0  0  0  0  0  0
  -17.6449  -30.6592   24.0470 C   0  0  0  0  0  0
  -25.9058  -34.9448   23.5129 C   0  0  0  0  0  0
  -16.5343  -29.9089   23.6270 C   0  0  0  0  0  0
  -16.7280  -28.6476   23.0369 C   0  0  0  0  0  0
  -26.4526  -31.6555   25.0730 C   0  0  0  0  0  0
  -25.3757  -31.3683   26.1470 C   0  0  0  0  0  0
  -27.0381  -30.2986   24.6165 C   0  0  0  0  0  0
  -27.6103  -32.4287   25.7477 C   0  0  0  0  0  0
  -27.5584  -37.1801   24.8477 C   0  0  0  0  0  0
  -21.4219  -29.3111   22.3674 N   0  0  0  0  0  0
  -26.4283  -37.3772   23.9415 N   0  0  0  0  0  0
  -24.7016  -31.0517   22.0949 N   0  0  0  0  0  0
  -23.4231  -28.8017   23.2882 O   0  0  0  0  0  0
  -28.3407  -26.4112   20.2088 O   0  0  0  0  0  0
  -26.5617  -34.8919   22.4685 O   0  0  0  0  0  0
  -23.5457  -32.1345   23.7249 O   0  0  0  0  0  0
  -29.5625  -19.7202   18.6352 C   0  0  0  0  0  0
  -29.7091  -18.5252   17.9228 C   0  0  0  0  0  0
  -29.6815  -18.4552   20.6946 C   0  0  0  0  0  0
  -29.5362  -19.7537   20.0408 C   0  0  0  0  0  0
  -29.8450  -17.2766   18.5580 C   0  0  0  0  0  0
  -29.8497  -17.1836   19.9850 C   0  0  0  0  0  0
  -29.3652  -21.1473   20.6961 C   0  0  0  0  0  0
  -29.1431  -22.3763   20.0858 C   0  0  0  0  0  0
  -29.9023  -16.0982   17.5963 C   0  0  0  0  0  0
  -29.0628  -23.8439   20.6786 C   0  0  0  0  0  0
  -28.2245  -24.9570   19.8728 C   0  0  0  0  0  0
  -29.8609  -15.8558   20.6614 N   0  0  0  0  0  0
  -31.4584  -12.5434   19.1451 H   0  0  0  0  0  0
  -30.3968  -11.4621   20.0099 H   0  0  0  0  0  0
  -29.7399  -11.5198   17.6360 H   0  0  0  0  0  0
  -29.6212  -13.2413   17.6069 H   0  0  0  0  0  0
  -27.8650  -11.2417   18.9972 H   0  0  0  0  0  0
  -27.3523  -12.4201   17.8280 H   0  0  0  0  0  0
  -27.6334  -14.2325   19.4305 H   0  0  0  0  0  0
  -28.6950  -12.2014   21.4635 H   0  0  0  0  0  0
  -28.4079  -13.8972   21.7616 H   0  0  0  0  0  0
  -25.2770   -9.5722   22.4792 H   0  0  0  0  0  0
  -23.9980   -7.4710   22.7559 H   0  0  0  0  0  0
  -21.0820   -8.8818   19.9018 H   0  0  0  0  0  0
  -22.3682  -10.9720   19.6208 H   0  0  0  0  0  0
  -21.1976   -7.6158   23.9691 H   0  0  0  0  0  0
  -21.1537   -6.0559   25.9069 H   0  0  0  0  0  0
  -22.0549   -2.7622   23.2828 H   0  0  0  0  0  0
  -22.4096  -11.9958   22.4712 H   0  0  0  0  0  0
  -21.1131  -13.1393   22.2609 H   0  0  0  0  0  0
  -24.6594  -15.8386   20.5421 H   0  0  0  0  0  0
  -26.2708  -15.6341   20.0726 H   0  0  0  0  0  0
  -26.7184  -32.5406   23.1097 H   0  0  0  0  0  0
  -25.0181  -33.9705   25.0504 H   0  0  0  0  0  0
  -22.7270  -31.3020   21.3947 H   0  0  0  0  0  0
  -23.3754  -35.9618   23.3301 H   0  0  0  0  0  0
  -24.3597  -36.8886   22.2049 H   0  0  0  0  0  0
  -23.7243  -37.6505   23.6648 H   0  0  0  0  0  0
  -26.1284  -31.5259   20.6117 H   0  0  0  0  0  0
  -26.8556  -30.8140   22.0156 H   0  0  0  0  0  0
  -28.1204  -28.9273   21.2237 H   0  0  0  0  0  0
  -25.9928  -25.9707   18.8899 H   0  0  0  0  0  0
  -24.0098  -27.3557   18.9121 H   0  0  0  0  0  0
  -23.7823  -30.6021   19.4021 H   0  0  0  0  0  0
  -22.7722  -29.2609   19.8382 H   0  0  0  0  0  0
  -25.1271  -36.1950   25.0834 H   0  0  0  0  0  0
  -20.9965  -28.3238   24.1307 H   0  0  0  0  0  0
  -20.6023  -26.2291   23.3411 H   0  0  0  0  0  0
  -21.6612  -26.7590   22.0765 H   0  0  0  0  0  0
  -19.6773  -25.6033   21.1501 H   0  0  0  0  0  0
  -19.6412  -27.2816   20.6574 H   0  0  0  0  0  0
  -17.4076  -26.6290   21.4418 H   0  0  0  0  0  0
  -18.0584  -26.0080   22.9405 H   0  0  0  0  0  0
  -19.7943  -30.7256   24.2179 H   0  0  0  0  0  0
  -17.5013  -31.6284   24.5040 H   0  0  0  0  0  0
  -15.5341  -30.2994   23.7579 H   0  0  0  0  0  0
  -15.8681  -28.0769   22.7132 H   0  0  0  0  0  0
  -24.5947  -30.7018   25.7787 H   0  0  0  0  0  0
  -24.8957  -32.2838   26.4906 H   0  0  0  0  0  0
  -25.8101  -30.8848   27.0222 H   0  0  0  0  0  0
  -26.2935  -29.6724   24.1239 H   0  0  0  0  0  0
  -27.4161  -29.7255   25.4628 H   0  0  0  0  0  0
  -27.8770  -30.4312   23.9346 H   0  0  0  0  0  0
  -27.2746  -33.3583   26.2092 H   0  0  0  0  0  0
  -28.3898  -32.6840   25.0283 H   0  0  0  0  0  0
  -28.0823  -31.8397   26.5353 H   0  0  0  0  0  0
  -28.2608  -38.0091   24.7500 H   0  0  0  0  0  0
  -28.1075  -36.2618   24.6319 H   0  0  0  0  0  0
  -27.2320  -37.1479   25.8889 H   0  0  0  0  0  0
  -20.9428  -29.9045   21.7048 H   0  0  0  0  0  0
  -26.0184  -38.2848   24.1389 H   0  0  0  0  0  0
  -29.4691  -20.6226   18.0571 H   0  0  0  0  0  0
  -29.6904  -18.5752   16.8419 H   0  0  0  0  0  0
  -29.6612  -18.4340   21.7754 H   0  0  0  0  0  0
  -29.4636  -21.1527   21.7716 H   0  0  0  0  0  0
  -29.0404  -22.3935   19.0150 H   0  0  0  0  0  0
  -28.9096  -15.8735   17.2013 H   0  0  0  0  0  0
  -30.3157  -15.1897   17.9974 H   0  0  0  0  0  0
  -30.5417  -16.3521   16.7501 H   0  0  0  0  0  0
  -30.0942  -24.1921   20.7387 H   0  0  0  0  0  0
  -28.7050  -23.7974   21.7067 H   0  0  0  0  0  0
  -27.1896  -24.6315   19.9450 H   0  0  0  0  0  0
  -28.4863  -24.8778   18.8167 H   0  0  0  0  0  0
  -29.0219  -15.6595   21.1851 H   0  0  0  0  0  0
  1 25  1  0  0  0
  1 30  2  0  0  0
  1 82  1  0  0  0
  2  3  1  0  0  0
  2 25  1  0  0  0
  2 83  1  0  0  0
  2 84  1  0  0  0
  3  4  1  0  0  0
  3 85  1  0  0  0
  3 86  1  0  0  0
  4  5  1  0  0  0
  4 87  1  0  0  0
  4 88  1  0  0  0
  5  6  1  0  0  0
  5 26  1  0  0  0
  5 89  1  0  0  0
  6 25  1  0  0  0
  6 90  1  0  0  0
  6 91  1  0  0  0
  7  8  2  0  0  0
  7 26  1  0  0  0
  7 29  1  0  0  0
  8  9  1  0  0  0
  8 22  1  0  0  0
  9 10  1  0  0  0
  9 27  2  0  0  0
 10 11  2  0  0  0
 10 15  1  0  0  0
 11 12  1  0  0  0
 11 92  1  0  0  0
 12 13  2  0  0  0
 12 93  1  0  0  0
 13 14  1  0  0  0
 13 31  1  0  0  0
 14 15  2  0  0  0
 14 94  1  0  0  0
 15 95  1  0  0  0
 16 17  2  0  0  0
 16 21  1  0  0  0
 16 31  1  0  0  0
 17 18  1  0  0  0
 17 96  1  0  0  0
 18 19  2  0  0  0
 18 97  1  0  0  0
 19 20  1  0  0  0
 19 24  1  0  0  0
 20 21  2  0  0  0
 20 98  1  0  0  0
 21 23  1  0  0  0
 22 28  1  0  0  0
 22 32  2  0  0  0
 26 27  1  0  0  0
 28 99  1  0  0  0
 28100  1  0  0  0
 29101  1  0  0  0
 29102  1  0  0  0
 33 34  1  0  0  0
 33 66  1  0  0  0
 33 70  2  0  0  0
 34 36  1  0  0  0
 34 59  1  0  0  0
 34103  1  0  0  0
 35 44  2  0  0  0
 35 45  1  0  0  0
 35 68  1  0  0  0
 36 56  1  0  0  0
 36104  1  0  0  0
 37 39  1  0  0  0
 37 47  1  0  0  0
 37 66  1  0  0  0
 37105  1  0  0  0
 38 43  2  0  0  0
 38 46  1  0  0  0
 38 47  1  0  0  0
 39 64  1  0  0  0
 39 67  2  0  0  0
 40 52  1  0  0  0
 40 53  2  0  0  0
 40 58  1  0  0  0
 41106  1  0  0  0
 41107  1  0  0  0
 41108  1  0  0  0
 41 48  1  0  0  0
 42 43  1  0  0  0
 42 66  1  0  0  0
 42109  1  0  0  0
 42110  1  0  0  0
 43 44  1  0  0  0
 44111  1  0  0  0
 45 46  2  0  0  0
 45112  1  0  0  0
 46113  1  0  0  0
 47114  1  0  0  0
 47115  1  0  0  0
 48 56  1  0  0  0
 48 65  1  0  0  0
 48116  1  0  0  0
 49 50  1  0  0  0
 49 53  1  0  0  0
 49 64  1  0  0  0
 49117  1  0  0  0
 50 51  1  0  0  0
 50118  1  0  0  0
 50119  1  0  0  0
 51 52  1  0  0  0
 51120  1  0  0  0
 51121  1  0  0  0
 52122  1  0  0  0
 52123  1  0  0  0
 53 54  1  0  0  0
 54 55  2  0  0  0
 54124  1  0  0  0
 55 57  1  0  0  0
 55125  1  0  0  0
 56 69  2  0  0  0
 57 58  2  0  0  0
 57126  1  0  0  0
 58127  1  0  0  0
 59 60  1  0  0  0
 59 61  1  0  0  0
 59 62  1  0  0  0
 60128  1  0  0  0
 60129  1  0  0  0
 60130  1  0  0  0
 61131  1  0  0  0
 61132  1  0  0  0
 61133  1  0  0  0
 62134  1  0  0  0
 62135  1  0  0  0
 62136  1  0  0  0
 63 65  1  0  0  0
 63137  1  0  0  0
 63138  1  0  0  0
 63139  1  0  0  0
 64140  1  0  0  0
 65141  1  0  0  0
 68 81  1  0  0  0
 71 72  2  0  0  0
 71 74  1  0  0  0
 71142  1  0  0  0
 72 75  1  0  0  0
 72143  1  0  0  0
 73 74  2  0  0  0
 73 76  1  0  0  0
 73144  1  0  0  0
 74 77  1  0  0  0
 75 76  2  0  0  0
 75 79  1  0  0  0
 76 82  1  0  0  0
 77 78  2  0  0  0
 77145  1  0  0  0
 78 80  1  0  0  0
 78146  1  0  0  0
 79147  1  0  0  0
 79148  1  0  0  0
 79149  1  0  0  0
 80 81  1  0  0  0
 80150  1  0  0  0
 80151  1  0  0  0
 81152  1  0  0  0
 81153  1  0  0  0
 82154  1  0  0  0
M  ISO  4   1 100  68 101  81 101  82 100
M  END
> <chiral flag>
0

> <version>
0

> <s_m_source_file>
/data/baiqing/PycharmProjects/Reinvent-master-3.2/result/LINK_invent/BTK/process_docking_weight1_custom_product_contain_oxygen_bond_distance_aromatic_linkinvent_7_9_3/rearranged_h_0124.sdf

> <i_m_source_file_index>
63

> <r_mmod_Potential_Energy-OPLS-2005>
181.869201660156

> <r_mmod_Stretch_Energy-OPLS-2005>
118.174728393555

> <r_mmod_Bend_Energy-OPLS-2005>
156.911224365234

> <r_mmod_Torsional_Energy-OPLS-2005>
246.07502746582

> <r_mmod_Improper_Torsional_Energy-OPLS-2005>
6.28940200805664

> <r_mmod_Van_der_Waal_Energy-OPLS-2005>
151.774963378906

> <r_mmod_Electrostatic_Energy-OPLS-2005>
-370.474914550781

> <r_mmod_Solvation_Energy-OPLS-2005>
-207.688140869141

> <b_mmod_Minimization_Converged-OPLS-2005>
0

> <r_mmod_RMS_Derivative-OPLS-2005>
5.55993223190308

$$$$
63
                    3D
 Structure written by MMmdl.
156164  0  0  1  0            999 V2000
  -30.7111  -14.5660   20.5675 C   0  0  0  0  0  0
  -30.4193  -12.3798   19.4280 C   0  0  0  0  0  0
  -29.4860  -12.4935   18.2073 C   0  0  0  0  0  0
  -28.0146  -12.3292   18.6356 C   0  0  0  0  0  0
  -27.6434  -13.2168   19.8523 C   0  0  2  0  0  0
  -28.6936  -13.1021   20.9785 C   0  0  0  0  0  0
  -25.2539  -13.8181   20.5680 C   0  0  0  0  0  0
  -24.1825  -13.0441   20.9216 C   0  0  0  0  0  0
  -24.6405  -11.6904   20.8780 C   0  0  0  0  0  0
  -23.9076  -10.4289   21.0435 C   0  0  0  0  0  0
  -24.3625   -9.4202   21.9211 C   0  0  0  0  0  0
  -23.6293   -8.2249   22.0780 C   0  0  0  0  0  0
  -22.4280   -8.0286   21.3573 C   0  0  0  0  0  0
  -21.9920   -9.0258   20.4677 C   0  0  0  0  0  0
  -22.7251  -10.2137   20.3082 C   0  0  0  0  0  0
  -21.6847   -6.0740   22.5281 C   0  0  0  0  0  0
  -21.3997   -6.5650   23.8207 C   0  0  0  0  0  0
  -21.3660   -5.6817   24.9186 C   0  0  0  0  0  0
  -21.6049   -4.3079   24.7245 C   0  0  0  0  0  0
  -21.8809   -3.8158   23.4368 C   0  0  0  0  0  0
  -21.9184   -4.6967   22.3417 C   0  0  0  0  0  0
  -22.7849  -13.5239   21.1837 C   0  0  0  0  0  0
  -22.1653   -4.2146   21.0994 F   0  0  0  0  0  0
  -21.5632   -3.4558   25.7761 F   0  0  0  0  0  0
  -30.0017  -13.4141   20.3903 N   0  0  0  0  0  0
  -26.2951  -12.9358   20.3326 N   0  0  0  0  0  0
  -25.9332  -11.6515   20.5822 N   0  0  0  0  0  0
  -22.0475  -12.8262   22.0390 N   0  0  0  0  0  0
  -25.4207  -15.1904   20.3998 N   0  0  0  0  0  0
  -31.9010  -14.6333   20.2432 O   0  0  0  0  0  0
  -21.6640   -6.8889   21.4247 O   0  0  0  0  0  0
  -22.3544  -14.5540   20.6657 O   0  0  0  0  0  0
  -24.6184  -31.8643   23.2063 C   0  0  0  0  0  0
  -25.9054  -32.4808   23.8391 C   0  0  1  0  0  0
  -27.2376  -27.3865   20.1242 C   0  0  0  0  0  0
  -25.5898  -33.8609   24.2324 N   0  0  0  0  0  0
  -23.4112  -30.4853   21.5450 C   0  0  2  0  0  0
  -24.8617  -28.9382   20.1229 C   0  0  0  0  0  0
  -22.7424  -29.4656   22.4957 C   0  0  0  0  0  0
  -18.0271  -28.1368   22.8484 C   0  0  0  0  0  0
  -24.1486  -36.7318   23.2646 C   0  0  0  0  0  0
  -25.9428  -30.8174   21.3655 C   0  0  0  0  0  0
  -26.0229  -29.4429   20.7209 C   0  0  0  0  0  0
  -27.2165  -28.6766   20.7175 C   0  0  0  0  0  0
  -26.0619  -26.9062   19.5159 C   0  0  0  0  0  0
  -24.8772  -27.6692   19.5174 C   0  0  0  0  0  0
  -23.6261  -29.8125   20.1642 C   0  0  0  0  0  0
  -25.4109  -36.3104   24.0339 C   0  0  1  0  0  0
  -20.5870  -28.3679   23.1285 C   0  0  2  0  0  0
  -20.6753  -26.9404   22.5405 C   0  0  0  0  0  0
  -19.5734  -26.6379   21.5198 C   0  0  0  0  0  0
  -18.1916  -26.7911   22.1618 C   0  0  0  0  0  0
  -19.1519  -28.8831   23.2887 C   0  0  0  0  0  0
  -18.9460  -30.1432   23.8907 C   0  0  0  0  0  0
  -17.6467  -30.6579   24.0560 C   0  0  0  0  0  0
  -25.9027  -34.9470   23.5125 C   0  0  0  0  0  0
  -16.5356  -29.9088   23.6321 C   0  0  0  0  0  0
  -16.7259  -28.6498   23.0347 C   0  0  0  0  0  0
  -26.4475  -31.6590   25.0726 C   0  0  0  0  0  0
  -25.3748  -31.3707   26.1481 C   0  0  0  0  0  0
  -27.0324  -30.3035   24.6125 C   0  0  0  0  0  0
  -27.6042  -32.4320   25.7500 C   0  0  0  0  0  0
  -27.5567  -37.1824   24.8473 C   0  0  0  0  0  0
  -21.4149  -29.3050   22.3694 N   0  0  0  0  0  0
  -26.4294  -37.3787   23.9395 N   0  0  0  0  0  0
  -24.6753  -31.0712   22.0982 N   0  0  0  0  0  0
  -23.4161  -28.8192   23.3020 O   0  0  0  0  0  0
  -28.3817  -26.6085   20.0766 O   0  0  0  0  0  0
  -26.5598  -34.8926   22.4701 O   0  0  0  0  0  0
  -23.5360  -32.1420   23.7431 O   0  0  0  0  0  0
  -31.6600  -18.5657   20.0964 C   0  0  0  0  0  0
  -30.8067  -20.8341   19.8334 C   0  0  0  0  0  0
  -30.4970  -18.1665   20.7900 C   0  0  0  0  0  0
  -31.8206  -19.8811   19.6243 C   0  0  0  0  0  0
  -29.6173  -20.4887   20.5131 C   0  0  0  0  0  0
  -29.4630  -19.1385   20.9855 C   0  0  0  0  0  0
  -30.5576  -16.7974   21.4570 C   0  0  0  0  0  0
  -28.3583  -24.0697   20.3493 C   0  0  0  0  0  0
  -33.1085  -20.2689   18.9226 C   0  0  0  0  0  0
  -28.9858  -22.8638   21.1300 C   0  0  0  0  0  0
  -28.4498  -25.4877   21.0024 C   0  0  0  0  0  0
  -28.6194  -21.4787   20.7138 N   0  0  0  0  0  0
  -30.0141  -15.6989   20.8690 N   0  0  0  0  0  0
  -31.2548  -16.6993   22.4746 O   0  0  0  0  0  0
  -27.8067  -23.8948   19.2556 O   0  0  0  0  0  0
  -28.3398  -18.8071   21.6692 F   0  0  0  0  0  0
  -31.4573  -12.4920   19.1107 H   0  0  0  0  0  0
  -30.3494  -11.3897   19.8822 H   0  0  0  0  0  0
  -29.7441  -11.7387   17.4658 H   0  0  0  0  0  0
  -29.6239  -13.4613   17.7232 H   0  0  0  0  0  0
  -27.8606  -11.2797   18.8873 H   0  0  0  0  0  0
  -27.3488  -12.5364   17.7960 H   0  0  0  0  0  0
  -27.6549  -14.2460   19.4925 H   0  0  0  0  0  0
  -28.7040  -12.0964   21.4058 H   0  0  0  0  0  0
  -28.4519  -13.7765   21.8019 H   0  0  0  0  0  0
  -25.2752   -9.5681   22.4807 H   0  0  0  0  0  0
  -23.9973   -7.4656   22.7529 H   0  0  0  0  0  0
  -21.0833   -8.8814   19.8999 H   0  0  0  0  0  0
  -22.3712  -10.9701   19.6211 H   0  0  0  0  0  0
  -21.1982   -7.6152   23.9717 H   0  0  0  0  0  0
  -21.1489   -6.0549   25.9094 H   0  0  0  0  0  0
  -22.0587   -2.7607   23.2880 H   0  0  0  0  0  0
  -22.4045  -11.9894   22.4761 H   0  0  0  0  0  0
  -21.1121  -13.1362   22.2623 H   0  0  0  0  0  0
  -24.6447  -15.8363   20.4964 H   0  0  0  0  0  0
  -26.2577  -15.6311   20.0384 H   0  0  0  0  0  0
  -26.7131  -32.5516   23.1163 H   0  0  0  0  0  0
  -25.0037  -33.9773   25.0456 H   0  0  0  0  0  0
  -22.7025  -31.3039   21.3986 H   0  0  0  0  0  0
  -23.3724  -35.9674   23.3339 H   0  0  0  0  0  0
  -24.3569  -36.8903   22.2050 H   0  0  0  0  0  0
  -23.7262  -37.6547   23.6639 H   0  0  0  0  0  0
  -26.0547  -31.5768   20.5911 H   0  0  0  0  0  0
  -26.8296  -30.8794   21.9843 H   0  0  0  0  0  0
  -28.1138  -29.0664   21.1779 H   0  0  0  0  0  0
  -26.0639  -25.9363   19.0381 H   0  0  0  0  0  0
  -23.9843  -27.2710   19.0543 H   0  0  0  0  0  0
  -23.7449  -30.5840   19.4023 H   0  0  0  0  0  0
  -22.7500  -29.2352   19.8627 H   0  0  0  0  0  0
  -25.1284  -36.1982   25.0830 H   0  0  0  0  0  0
  -20.9961  -28.3243   24.1406 H   0  0  0  0  0  0
  -20.5614  -26.2296   23.3605 H   0  0  0  0  0  0
  -21.6630  -26.7408   22.1230 H   0  0  0  0  0  0
  -19.6905  -25.6290   21.1223 H   0  0  0  0  0  0
  -19.6671  -27.3187   20.6725 H   0  0  0  0  0  0
  -17.4183  -26.6646   21.4026 H   0  0  0  0  0  0
  -18.0338  -26.0046   22.9009 H   0  0  0  0  0  0
  -19.7940  -30.7232   24.2284 H   0  0  0  0  0  0
  -17.5030  -31.6257   24.5164 H   0  0  0  0  0  0
  -15.5354  -30.3001   23.7631 H   0  0  0  0  0  0
  -15.8659  -28.0820   22.7065 H   0  0  0  0  0  0
  -24.5903  -30.7072   25.7825 H   0  0  0  0  0  0
  -24.8965  -32.2867   26.4956 H   0  0  0  0  0  0
  -25.8104  -30.8857   27.0226 H   0  0  0  0  0  0
  -26.2887  -29.6787   24.1166 H   0  0  0  0  0  0
  -27.4073  -29.7277   25.4594 H   0  0  0  0  0  0
  -27.8719  -30.4351   23.9303 H   0  0  0  0  0  0
  -27.2641  -33.3593   26.2130 H   0  0  0  0  0  0
  -28.3830  -32.6933   25.0322 H   0  0  0  0  0  0
  -28.0742  -31.8422   26.5381 H   0  0  0  0  0  0
  -28.2628  -38.0076   24.7449 H   0  0  0  0  0  0
  -28.1017  -36.2604   24.6383 H   0  0  0  0  0  0
  -27.2278  -37.1582   25.8877 H   0  0  0  0  0  0
  -20.9302  -29.8812   21.6960 H   0  0  0  0  0  0
  -26.0183  -38.2876   24.1357 H   0  0  0  0  0  0
  -32.4647  -17.8567   19.9645 H   0  0  0  0  0  0
  -30.9586  -21.8411   19.4700 H   0  0  0  0  0  0
  -33.0581  -21.2820   18.5239 H   0  0  0  0  0  0
  -33.3132  -19.5898   18.0948 H   0  0  0  0  0  0
  -33.9457  -20.2189   19.6190 H   0  0  0  0  0  0
  -28.6786  -22.9778   22.1728 H   0  0  0  0  0  0
  -30.0661  -22.9994   21.1335 H   0  0  0  0  0  0
  -29.4021  -25.5569   21.5294 H   0  0  0  0  0  0
  -27.6757  -25.5747   21.7634 H   0  0  0  0  0  0
  -27.7676  -21.1237   21.1430 H   0  0  0  0  0  0
  -29.0586  -15.7581   20.5605 H   0  0  0  0  0  0
  1 25  1  0  0  0
  1 30  2  0  0  0
  1 83  1  0  0  0
  2  3  1  0  0  0
  2 25  1  0  0  0
  2 87  1  0  0  0
  2 88  1  0  0  0
  3  4  1  0  0  0
  3 89  1  0  0  0
  3 90  1  0  0  0
  4  5  1  0  0  0
  4 91  1  0  0  0
  4 92  1  0  0  0
  5  6  1  0  0  0
  5 26  1  0  0  0
  5 93  1  0  0  0
  6 25  1  0  0  0
  6 94  1  0  0  0
  6 95  1  0  0  0
  7  8  2  0  0  0
  7 26  1  0  0  0
  7 29  1  0  0  0
  8  9  1  0  0  0
  8 22  1  0  0  0
  9 10  1  0  0  0
  9 27  2  0  0  0
 10 11  2  0  0  0
 10 15  1  0  0  0
 11 12  1  0  0  0
 11 96  1  0  0  0
 12 13  2  0  0  0
 12 97  1  0  0  0
 13 14  1  0  0  0
 13 31  1  0  0  0
 14 15  2  0  0  0
 14 98  1  0  0  0
 15 99  1  0  0  0
 16 17  2  0  0  0
 16 21  1  0  0  0
 16 31  1  0  0  0
 17 18  1  0  0  0
 17100  1  0  0  0
 18 19  2  0  0  0
 18101  1  0  0  0
 19 20  1  0  0  0
 19 24  1  0  0  0
 20 21  2  0  0  0
 20102  1  0  0  0
 21 23  1  0  0  0
 22 28  1  0  0  0
 22 32  2  0  0  0
 26 27  1  0  0  0
 28103  1  0  0  0
 28104  1  0  0  0
 29105  1  0  0  0
 29106  1  0  0  0
 33 34  1  0  0  0
 33 66  1  0  0  0
 33 70  2  0  0  0
 34 36  1  0  0  0
 34 59  1  0  0  0
 34107  1  0  0  0
 35 44  2  0  0  0
 35 45  1  0  0  0
 35 68  1  0  0  0
 36 56  1  0  0  0
 36108  1  0  0  0
 37 39  1  0  0  0
 37 47  1  0  0  0
 37 66  1  0  0  0
 37109  1  0  0  0
 38 43  2  0  0  0
 38 46  1  0  0  0
 38 47  1  0  0  0
 39 64  1  0  0  0
 39 67  2  0  0  0
 40 52  1  0  0  0
 40 53  2  0  0  0
 40 58  1  0  0  0
 41110  1  0  0  0
 41111  1  0  0  0
 41112  1  0  0  0
 41 48  1  0  0  0
 42 43  1  0  0  0
 42 66  1  0  0  0
 42113  1  0  0  0
 42114  1  0  0  0
 43 44  1  0  0  0
 44115  1  0  0  0
 45 46  2  0  0  0
 45116  1  0  0  0
 46117  1  0  0  0
 47118  1  0  0  0
 47119  1  0  0  0
 48 56  1  0  0  0
 48 65  1  0  0  0
 48120  1  0  0  0
 49 50  1  0  0  0
 49 53  1  0  0  0
 49 64  1  0  0  0
 49121  1  0  0  0
 50 51  1  0  0  0
 50122  1  0  0  0
 50123  1  0  0  0
 51 52  1  0  0  0
 51124  1  0  0  0
 51125  1  0  0  0
 52126  1  0  0  0
 52127  1  0  0  0
 53 54  1  0  0  0
 54 55  2  0  0  0
 54128  1  0  0  0
 55 57  1  0  0  0
 55129  1  0  0  0
 56 69  2  0  0  0
 57 58  2  0  0  0
 57130  1  0  0  0
 58131  1  0  0  0
 59 60  1  0  0  0
 59 61  1  0  0  0
 59 62  1  0  0  0
 60132  1  0  0  0
 60133  1  0  0  0
 60134  1  0  0  0
 61135  1  0  0  0
 61136  1  0  0  0
 61137  1  0  0  0
 62138  1  0  0  0
 62139  1  0  0  0
 62140  1  0  0  0
 63 65  1  0  0  0
 63141  1  0  0  0
 63142  1  0  0  0
 63143  1  0  0  0
 64144  1  0  0  0
 65145  1  0  0  0
 68 81  1  0  0  0
 71 73  2  0  0  0
 71 74  1  0  0  0
 71146  1  0  0  0
 72 74  2  0  0  0
 72 75  1  0  0  0
 72147  1  0  0  0
 73 76  1  0  0  0
 73 77  1  0  0  0
 74 79  1  0  0  0
 75 76  2  0  0  0
 75 82  1  0  0  0
 76 86  1  0  0  0
 77 83  1  0  0  0
 77 84  2  0  0  0
 78 80  1  0  0  0
 78 81  1  0  0  0
 78 85  2  0  0  0
 79148  1  0  0  0
 79149  1  0  0  0
 79150  1  0  0  0
 80 82  1  0  0  0
 80151  1  0  0  0
 80152  1  0  0  0
 81153  1  0  0  0
 81154  1  0  0  0
 82155  1  0  0  0
 83156  1  0  0  0
M  ISO  4   1 100  68 101  81 101  83 100
M  END
> <chiral flag>
0

> <version>
0

> <s_m_source_file>
/data/baiqing/PycharmProjects/Reinvent-master-3.2/result/LINK_invent/BTK/process_docking_weight1_custom_product_contain_oxygen_bond_distance_aromatic_linkinvent_7_9_3/rearranged_h_0124.sdf

> <i_m_source_file_index>
64

> <r_mmod_Potential_Energy-OPLS-2005>
63.1335296630859

> <r_mmod_Stretch_Energy-OPLS-2005>
54.6081771850586

> <r_mmod_Bend_Energy-OPLS-2005>
118.252563476562

> <r_mmod_Torsional_Energy-OPLS-2005>
327.701202392578

> <r_mmod_Improper_Torsional_Energy-OPLS-2005>
11.8689470291138

> <r_mmod_Van_der_Waal_Energy-OPLS-2005>
140.936813354492

> <r_mmod_Electrostatic_Energy-OPLS-2005>
-382.121704101562

> <r_mmod_Solvation_Energy-OPLS-2005>
-239.842269897461

> <b_mmod_Minimization_Converged-OPLS-2005>
0

> <r_mmod_RMS_Derivative-OPLS-2005>
4.01771306991577

$$$$
64
                    3D
 Structure written by MMmdl.
152160  0  0  1  0            999 V2000
  -30.6088  -14.6599   20.5004 C   0  0  0  0  0  0
  -30.4418  -12.4044   19.4576 C   0  0  0  0  0  0
  -29.5107  -12.5117   18.2286 C   0  0  0  0  0  0
  -28.0336  -12.3455   18.6392 C   0  0  0  0  0  0
  -27.6540  -13.2169   19.8657 C   0  0  2  0  0  0
  -28.6980  -13.0730   20.9962 C   0  0  0  0  0  0
  -25.2556  -13.8161   20.5665 C   0  0  0  0  0  0
  -24.1829  -13.0432   20.9195 C   0  0  0  0  0  0
  -24.6400  -11.6904   20.8748 C   0  0  0  0  0  0
  -23.9066  -10.4290   21.0411 C   0  0  0  0  0  0
  -24.3616   -9.4203   21.9188 C   0  0  0  0  0  0
  -23.6290   -8.2240   22.0754 C   0  0  0  0  0  0
  -22.4273   -8.0280   21.3543 C   0  0  0  0  0  0
  -21.9909   -9.0256   20.4647 C   0  0  0  0  0  0
  -22.7238  -10.2135   20.3059 C   0  0  0  0  0  0
  -21.6852   -6.0736   22.5279 C   0  0  0  0  0  0
  -21.4015   -6.5640   23.8212 C   0  0  0  0  0  0
  -21.3658   -5.6792   24.9174 C   0  0  0  0  0  0
  -21.6044   -4.3055   24.7225 C   0  0  0  0  0  0
  -21.8819   -3.8146   23.4346 C   0  0  0  0  0  0
  -21.9192   -4.6963   22.3402 C   0  0  0  0  0  0
  -22.7852  -13.5230   21.1854 C   0  0  0  0  0  0
  -22.1661   -4.2149   21.0980 F   0  0  0  0  0  0
  -21.5626   -3.4539   25.7737 F   0  0  0  0  0  0
  -30.0129  -13.4250   20.4360 N   0  0  0  0  0  0
  -26.2992  -12.9347   20.3324 N   0  0  0  0  0  0
  -25.9330  -11.6504   20.5770 N   0  0  0  0  0  0
  -22.0491  -12.8227   22.0412 N   0  0  0  0  0  0
  -25.4246  -15.1871   20.4016 N   0  0  0  0  0  0
  -31.7659  -14.8291   20.1036 O   0  0  0  0  0  0
  -21.6636   -6.8878   21.4241 O   0  0  0  0  0  0
  -22.3539  -14.5535   20.6698 O   0  0  0  0  0  0
  -24.6256  -31.8593   23.2022 C   0  0  0  0  0  0
  -25.9103  -32.4776   23.8353 C   0  0  1  0  0  0
  -27.2284  -27.3186   20.1244 C   0  0  0  0  0  0
  -25.5917  -33.8577   24.2279 N   0  0  0  0  0  0
  -23.4205  -30.4813   21.5440 C   0  0  2  0  0  0
  -24.8696  -28.9331   20.1131 C   0  0  0  0  0  0
  -22.7475  -29.4616   22.4934 C   0  0  0  0  0  0
  -18.0287  -28.1383   22.8486 C   0  0  0  0  0  0
  -24.1489  -36.7296   23.2640 C   0  0  0  0  0  0
  -25.9608  -30.7890   21.3745 C   0  0  0  0  0  0
  -26.0366  -29.4143   20.7211 C   0  0  0  0  0  0
  -27.2198  -28.6172   20.7198 C   0  0  0  0  0  0
  -26.0427  -26.8899   19.4889 C   0  0  0  0  0  0
  -24.8735  -27.6752   19.4887 C   0  0  0  0  0  0
  -23.6370  -29.8136   20.1601 C   0  0  0  0  0  0
  -25.4113  -36.3083   24.0330 C   0  0  1  0  0  0
  -20.5886  -28.3687   23.1283 C   0  0  2  0  0  0
  -20.6775  -26.9409   22.5411 C   0  0  0  0  0  0
  -19.5751  -26.6383   21.5212 C   0  0  0  0  0  0
  -18.1932  -26.7926   22.1625 C   0  0  0  0  0  0
  -19.1539  -28.8852   23.2880 C   0  0  0  0  0  0
  -18.9462  -30.1454   23.8897 C   0  0  0  0  0  0
  -17.6462  -30.6585   24.0563 C   0  0  0  0  0  0
  -25.9048  -34.9450   23.5105 C   0  0  0  0  0  0
  -16.5353  -29.9084   23.6328 C   0  0  0  0  0  0
  -16.7274  -28.6501   23.0350 C   0  0  0  0  0  0
  -26.4490  -31.6587   25.0722 C   0  0  0  0  0  0
  -25.3726  -31.3723   26.1451 C   0  0  0  0  0  0
  -27.0335  -30.3012   24.6174 C   0  0  0  0  0  0
  -27.6050  -32.4322   25.7491 C   0  0  0  0  0  0
  -27.5578  -37.1805   24.8466 C   0  0  0  0  0  0
  -21.4188  -29.3039   22.3677 N   0  0  0  0  0  0
  -26.4294  -37.3775   23.9404 N   0  0  0  0  0  0
  -24.6876  -31.0601   22.0973 N   0  0  0  0  0  0
  -23.4196  -28.8160   23.3018 O   0  0  0  0  0  0
  -28.3412  -26.4650   20.1356 O   0  0  0  0  0  0
  -26.5618  -34.8917   22.4674 O   0  0  0  0  0  0
  -23.5419  -32.1391   23.7347 O   0  0  0  0  0  0
  -28.7492  -19.3922   21.0885 C   0  0  0  0  0  0
  -30.8221  -17.8668   19.9952 C   0  0  0  0  0  0
  -29.7362  -20.0993   20.3557 C   0  0  0  0  0  0
  -28.7884  -17.9726   21.2755 C   0  0  0  0  0  0
  -29.8295  -17.1581   20.7237 C   0  0  0  0  0  0
  -30.7762  -19.2842   19.8186 C   0  0  0  0  0  0
  -29.7360  -21.6143   20.1213 C   0  0  0  0  0  0
  -28.8503  -22.6128   20.4534 C   0  0  0  0  0  0
  -29.0255  -24.0696   20.1394 C   0  0  0  0  0  0
  -28.1573  -25.0947   20.4289 C   0  0  0  0  0  0
  -27.6605  -17.3630   22.0948 C   0  0  0  0  0  0
  -29.7959  -15.6949   20.8953 N   0  0  0  0  0  0
  -31.7663  -19.8698   19.1013 F   0  0  0  0  0  0
  -31.4822  -12.5358   19.1552 H   0  0  0  0  0  0
  -30.3835  -11.4087   19.9001 H   0  0  0  0  0  0
  -29.7783  -11.7595   17.4853 H   0  0  0  0  0  0
  -29.6495  -13.4806   17.7461 H   0  0  0  0  0  0
  -27.8732  -11.2921   18.8722 H   0  0  0  0  0  0
  -27.3791  -12.5726   17.7970 H   0  0  0  0  0  0
  -27.6715  -14.2522   19.5248 H   0  0  0  0  0  0
  -28.7138  -12.0498   21.3744 H   0  0  0  0  0  0
  -28.4380  -13.6985   21.8514 H   0  0  0  0  0  0
  -25.2762   -9.5677   22.4763 H   0  0  0  0  0  0
  -23.9998   -7.4630   22.7473 H   0  0  0  0  0  0
  -21.0838   -8.8778   19.8954 H   0  0  0  0  0  0
  -22.3698  -10.9676   19.6170 H   0  0  0  0  0  0
  -21.2010   -7.6149   23.9717 H   0  0  0  0  0  0
  -21.1479   -6.0522   25.9077 H   0  0  0  0  0  0
  -22.0599   -2.7608   23.2848 H   0  0  0  0  0  0
  -22.4103  -11.9889   22.4805 H   0  0  0  0  0  0
  -21.1112  -13.1261   22.2616 H   0  0  0  0  0  0
  -24.6491  -15.8340   20.4906 H   0  0  0  0  0  0
  -26.2586  -15.6186   20.0253 H   0  0  0  0  0  0
  -26.7171  -32.5451   23.1103 H   0  0  0  0  0  0
  -25.0059  -33.9722   25.0419 H   0  0  0  0  0  0
  -22.7144  -31.3015   21.3992 H   0  0  0  0  0  0
  -23.3744  -35.9637   23.3314 H   0  0  0  0  0  0
  -24.3579  -36.8905   22.2052 H   0  0  0  0  0  0
  -23.7253  -37.6506   23.6654 H   0  0  0  0  0  0
  -26.0910  -31.5504   20.6042 H   0  0  0  0  0  0
  -26.8416  -30.8409   22.0028 H   0  0  0  0  0  0
  -28.1172  -28.9807   21.2005 H   0  0  0  0  0  0
  -26.0139  -25.9259   19.0007 H   0  0  0  0  0  0
  -23.9803  -27.3018   19.0070 H   0  0  0  0  0  0
  -23.7570  -30.5891   19.4027 H   0  0  0  0  0  0
  -22.7574  -29.2426   19.8575 H   0  0  0  0  0  0
  -25.1295  -36.1939   25.0823 H   0  0  0  0  0  0
  -20.9979  -28.3262   24.1403 H   0  0  0  0  0  0
  -20.5675  -26.2296   23.3610 H   0  0  0  0  0  0
  -21.6644  -26.7437   22.1206 H   0  0  0  0  0  0
  -19.6913  -25.6294   21.1241 H   0  0  0  0  0  0
  -19.6688  -27.3194   20.6743 H   0  0  0  0  0  0
  -17.4200  -26.6672   21.4029 H   0  0  0  0  0  0
  -18.0333  -26.0068   22.9021 H   0  0  0  0  0  0
  -19.7938  -30.7271   24.2266 H   0  0  0  0  0  0
  -17.5015  -31.6264   24.5166 H   0  0  0  0  0  0
  -15.5353  -30.2986   23.7650 H   0  0  0  0  0  0
  -15.8675  -28.0821   22.7063 H   0  0  0  0  0  0
  -24.5901  -30.7072   25.7781 H   0  0  0  0  0  0
  -24.8917  -32.2888   26.4878 H   0  0  0  0  0  0
  -25.8053  -30.8899   27.0225 H   0  0  0  0  0  0
  -26.2909  -29.6761   24.1202 H   0  0  0  0  0  0
  -27.4040  -29.7269   25.4675 H   0  0  0  0  0  0
  -27.8774  -30.4302   23.9393 H   0  0  0  0  0  0
  -27.2660  -33.3619   26.2073 H   0  0  0  0  0  0
  -28.3856  -32.6889   25.0315 H   0  0  0  0  0  0
  -28.0724  -31.8446   26.5402 H   0  0  0  0  0  0
  -28.2605  -38.0092   24.7496 H   0  0  0  0  0  0
  -28.1064  -36.2622   24.6313 H   0  0  0  0  0  0
  -27.2293  -37.1480   25.8869 H   0  0  0  0  0  0
  -20.9366  -29.8761   21.6886 H   0  0  0  0  0  0
  -26.0177  -38.2853   24.1392 H   0  0  0  0  0  0
  -27.9345  -19.9514   21.5259 H   0  0  0  0  0  0
  -31.6417  -17.3302   19.5419 H   0  0  0  0  0  0
  -30.6153  -21.9524   19.5905 H   0  0  0  0  0  0
  -27.9540  -22.3259   20.9855 H   0  0  0  0  0  0
  -29.9368  -24.3501   19.6295 H   0  0  0  0  0  0
  -27.2202  -24.9143   20.9398 H   0  0  0  0  0  0
  -27.5998  -17.8554   23.0657 H   0  0  0  0  0  0
  -27.7724  -16.2967   22.2824 H   0  0  0  0  0  0
  -26.7078  -17.5138   21.5870 H   0  0  0  0  0  0
  -28.9293  -15.3542   21.2806 H   0  0  0  0  0  0
  1 25  1  0  0  0
  1 30  2  0  0  0
  1 82  1  0  0  0
  2  3  1  0  0  0
  2 25  1  0  0  0
  2 84  1  0  0  0
  2 85  1  0  0  0
  3  4  1  0  0  0
  3 86  1  0  0  0
  3 87  1  0  0  0
  4  5  1  0  0  0
  4 88  1  0  0  0
  4 89  1  0  0  0
  5  6  1  0  0  0
  5 26  1  0  0  0
  5 90  1  0  0  0
  6 25  1  0  0  0
  6 91  1  0  0  0
  6 92  1  0  0  0
  7  8  2  0  0  0
  7 26  1  0  0  0
  7 29  1  0  0  0
  8  9  1  0  0  0
  8 22  1  0  0  0
  9 10  1  0  0  0
  9 27  2  0  0  0
 10 11  2  0  0  0
 10 15  1  0  0  0
 11 12  1  0  0  0
 11 93  1  0  0  0
 12 13  2  0  0  0
 12 94  1  0  0  0
 13 14  1  0  0  0
 13 31  1  0  0  0
 14 15  2  0  0  0
 14 95  1  0  0  0
 15 96  1  0  0  0
 16 17  2  0  0  0
 16 21  1  0  0  0
 16 31  1  0  0  0
 17 18  1  0  0  0
 17 97  1  0  0  0
 18 19  2  0  0  0
 18 98  1  0  0  0
 19 20  1  0  0  0
 19 24  1  0  0  0
 20 21  2  0  0  0
 20 99  1  0  0  0
 21 23  1  0  0  0
 22 28  1  0  0  0
 22 32  2  0  0  0
 26 27  1  0  0  0
 28100  1  0  0  0
 28101  1  0  0  0
 29102  1  0  0  0
 29103  1  0  0  0
 33 34  1  0  0  0
 33 66  1  0  0  0
 33 70  2  0  0  0
 34 36  1  0  0  0
 34 59  1  0  0  0
 34104  1  0  0  0
 35 44  2  0  0  0
 35 45  1  0  0  0
 35 68  1  0  0  0
 36 56  1  0  0  0
 36105  1  0  0  0
 37 39  1  0  0  0
 37 47  1  0  0  0
 37 66  1  0  0  0
 37106  1  0  0  0
 38 43  2  0  0  0
 38 46  1  0  0  0
 38 47  1  0  0  0
 39 64  1  0  0  0
 39 67  2  0  0  0
 40 52  1  0  0  0
 40 53  2  0  0  0
 40 58  1  0  0  0
 41107  1  0  0  0
 41108  1  0  0  0
 41109  1  0  0  0
 41 48  1  0  0  0
 42 43  1  0  0  0
 42 66  1  0  0  0
 42110  1  0  0  0
 42111  1  0  0  0
 43 44  1  0  0  0
 44112  1  0  0  0
 45 46  2  0  0  0
 45113  1  0  0  0
 46114  1  0  0  0
 47115  1  0  0  0
 47116  1  0  0  0
 48 56  1  0  0  0
 48 65  1  0  0  0
 48117  1  0  0  0
 49 50  1  0  0  0
 49 53  1  0  0  0
 49 64  1  0  0  0
 49118  1  0  0  0
 50 51  1  0  0  0
 50119  1  0  0  0
 50120  1  0  0  0
 51 52  1  0  0  0
 51121  1  0  0  0
 51122  1  0  0  0
 52123  1  0  0  0
 52124  1  0  0  0
 53 54  1  0  0  0
 54 55  2  0  0  0
 54125  1  0  0  0
 55 57  1  0  0  0
 55126  1  0  0  0
 56 69  2  0  0  0
 57 58  2  0  0  0
 57127  1  0  0  0
 58128  1  0  0  0
 59 60  1  0  0  0
 59 61  1  0  0  0
 59 62  1  0  0  0
 60129  1  0  0  0
 60130  1  0  0  0
 60131  1  0  0  0
 61132  1  0  0  0
 61133  1  0  0  0
 61134  1  0  0  0
 62135  1  0  0  0
 62136  1  0  0  0
 62137  1  0  0  0
 63 65  1  0  0  0
 63138  1  0  0  0
 63139  1  0  0  0
 63140  1  0  0  0
 64141  1  0  0  0
 65142  1  0  0  0
 68 80  1  0  0  0
 71 73  2  0  0  0
 71 74  1  0  0  0
 71143  1  0  0  0
 72 75  1  0  0  0
 72 76  2  0  0  0
 72144  1  0  0  0
 73 76  1  0  0  0
 73 77  1  0  0  0
 74 75  2  0  0  0
 74 81  1  0  0  0
 75 82  1  0  0  0
 76 83  1  0  0  0
 77 78  2  0  0  0
 77145  1  0  0  0
 78 79  1  0  0  0
 78146  1  0  0  0
 79 80  2  0  0  0
 79147  1  0  0  0
 80148  1  0  0  0
 81149  1  0  0  0
 81150  1  0  0  0
 81151  1  0  0  0
 82152  1  0  0  0
M  ISO  4   1 100  68 101  80 101  82 100
M  END
> <chiral flag>
0

> <version>
0

> <s_m_source_file>
/data/baiqing/PycharmProjects/Reinvent-master-3.2/result/LINK_invent/BTK/process_docking_weight1_custom_product_contain_oxygen_bond_distance_aromatic_linkinvent_7_9_3/rearranged_h_0124.sdf

> <i_m_source_file_index>
65

> <r_mmod_Potential_Energy-OPLS-2005>
59.2210350036621

> <r_mmod_Stretch_Energy-OPLS-2005>
79.7452621459961

> <r_mmod_Bend_Energy-OPLS-2005>
131.806182861328

> <r_mmod_Torsional_Energy-OPLS-2005>
205.896743774414

> <r_mmod_Improper_Torsional_Energy-OPLS-2005>
3.74694919586182

> <r_mmod_Van_der_Waal_Energy-OPLS-2005>
142.113174438477

> <r_mmod_Electrostatic_Energy-OPLS-2005>
-359.276519775391

> <r_mmod_Solvation_Energy-OPLS-2005>
-196.148361206055

> <b_mmod_Minimization_Converged-OPLS-2005>
0

> <r_mmod_RMS_Derivative-OPLS-2005>
0.229639574885368

$$$$
65
                    3D
 Structure written by MMmdl.
158166  0  0  1  0            999 V2000
  -30.5969  -14.6591   20.4634 C   0  0  0  0  0  0
  -30.4457  -12.3998   19.4416 C   0  0  0  0  0  0
  -29.5078  -12.4987   18.2175 C   0  0  0  0  0  0
  -28.0319  -12.3227   18.6332 C   0  0  0  0  0  0
  -27.6516  -13.1884   19.8627 C   0  0  2  0  0  0
  -28.7028  -13.0678   20.9872 C   0  0  0  0  0  0
  -25.2578  -13.8037   20.5683 C   0  0  0  0  0  0
  -24.1833  -13.0371   20.9254 C   0  0  0  0  0  0
  -24.6369  -11.6836   20.8794 C   0  0  0  0  0  0
  -23.9029  -10.4251   21.0439 C   0  0  0  0  0  0
  -24.3591   -9.4163   21.9205 C   0  0  0  0  0  0
  -23.6267   -8.2203   22.0760 C   0  0  0  0  0  0
  -22.4247   -8.0261   21.3548 C   0  0  0  0  0  0
  -21.9886   -9.0236   20.4649 C   0  0  0  0  0  0
  -22.7216  -10.2112   20.3067 C   0  0  0  0  0  0
  -21.6837   -6.0723   22.5282 C   0  0  0  0  0  0
  -21.4004   -6.5626   23.8216 C   0  0  0  0  0  0
  -21.3655   -5.6780   24.9179 C   0  0  0  0  0  0
  -21.6039   -4.3046   24.7226 C   0  0  0  0  0  0
  -21.8819   -3.8140   23.4348 C   0  0  0  0  0  0
  -21.9189   -4.6954   22.3405 C   0  0  0  0  0  0
  -22.7862  -13.5220   21.1873 C   0  0  0  0  0  0
  -22.1659   -4.2146   21.0982 F   0  0  0  0  0  0
  -21.5629   -3.4530   25.7737 F   0  0  0  0  0  0
  -30.0098  -13.4223   20.4098 N   0  0  0  0  0  0
  -26.2973  -12.9172   20.3319 N   0  0  0  0  0  0
  -25.9283  -11.6364   20.5788 N   0  0  0  0  0  0
  -22.0455  -12.8252   22.0419 N   0  0  0  0  0  0
  -25.4306  -15.1714   20.3936 N   0  0  0  0  0  0
  -31.7842  -14.8246   20.1679 O   0  0  0  0  0  0
  -21.6617   -6.8861   21.4243 O   0  0  0  0  0  0
  -22.3589  -14.5530   20.6690 O   0  0  0  0  0  0
  -24.6244  -31.8617   23.2051 C   0  0  0  0  0  0
  -25.9107  -32.4785   23.8364 C   0  0  1  0  0  0
  -27.2280  -27.3366   20.1126 C   0  0  0  0  0  0
  -25.5936  -33.8587   24.2298 N   0  0  0  0  0  0
  -23.4168  -30.4853   21.5478 C   0  0  2  0  0  0
  -24.8635  -28.9450   20.1117 C   0  0  0  0  0  0
  -22.7469  -29.4625   22.4959 C   0  0  0  0  0  0
  -18.0286  -28.1389   22.8482 C   0  0  0  0  0  0
  -24.1489  -36.7283   23.2633 C   0  0  0  0  0  0
  -25.9561  -30.7977   21.3740 C   0  0  0  0  0  0
  -26.0311  -29.4266   20.7162 C   0  0  0  0  0  0
  -27.2152  -28.6330   20.7103 C   0  0  0  0  0  0
  -26.0360  -26.9074   19.4801 C   0  0  0  0  0  0
  -24.8667  -27.6894   19.4866 C   0  0  0  0  0  0
  -23.6303  -29.8226   20.1618 C   0  0  0  0  0  0
  -25.4110  -36.3078   24.0330 C   0  0  1  0  0  0
  -20.5884  -28.3686   23.1297 C   0  0  2  0  0  0
  -20.6782  -26.9413   22.5418 C   0  0  0  0  0  0
  -19.5759  -26.6389   21.5214 C   0  0  0  0  0  0
  -18.1933  -26.7933   22.1616 C   0  0  0  0  0  0
  -19.1537  -28.8857   23.2880 C   0  0  0  0  0  0
  -18.9459  -30.1460   23.8891 C   0  0  0  0  0  0
  -17.6461  -30.6587   24.0567 C   0  0  0  0  0  0
  -25.9053  -34.9451   23.5109 C   0  0  0  0  0  0
  -16.5351  -29.9086   23.6330 C   0  0  0  0  0  0
  -16.7271  -28.6504   23.0343 C   0  0  0  0  0  0
  -26.4497  -31.6581   25.0723 C   0  0  0  0  0  0
  -25.3741  -31.3722   26.1458 C   0  0  0  0  0  0
  -27.0321  -30.3001   24.6157 C   0  0  0  0  0  0
  -27.6067  -32.4299   25.7488 C   0  0  0  0  0  0
  -27.5583  -37.1787   24.8453 C   0  0  0  0  0  0
  -21.4189  -29.3036   22.3694 N   0  0  0  0  0  0
  -26.4282  -37.3779   23.9417 N   0  0  0  0  0  0
  -24.6841  -31.0646   22.0991 N   0  0  0  0  0  0
  -23.4202  -28.8164   23.3032 O   0  0  0  0  0  0
  -28.3516  -26.4998   20.1690 O   0  0  0  0  0  0
  -26.5612  -34.8915   22.4670 O   0  0  0  0  0  0
  -23.5416  -32.1413   23.7391 O   0  0  0  0  0  0
  -28.9159  -19.4164   19.9657 C   0  0  0  0  0  0
  -30.8940  -17.8594   21.1670 C   0  0  0  0  0  0
  -29.9385  -20.1116   20.6498 C   0  0  0  0  0  0
  -28.8430  -17.9892   19.8944 C   0  0  0  0  0  0
  -30.9411  -19.2864   21.2444 C   0  0  0  0  0  0
  -29.8460  -17.1635   20.5139 C   0  0  0  0  0  0
  -29.9601  -21.6351   20.7453 C   0  0  0  0  0  0
  -29.0803  -22.5760   20.2727 C   0  0  0  0  0  0
  -27.7141  -17.4272   19.0907 C   0  0  0  0  0  0
  -29.2439  -24.0766   20.4569 C   0  0  0  0  0  0
  -32.0926  -19.9147   22.0122 C   0  0  0  0  0  0
  -26.4040  -18.2102   19.0604 C   0  0  0  0  0  0
  -28.1275  -25.0567   19.9430 C   0  0  0  0  0  0
  -29.7180  -15.7021   20.6106 N   0  0  0  0  0  0
  -27.7717  -16.3657   18.4696 O   0  0  0  0  0  0
  -30.2368  -24.5573   21.0141 O   0  0  0  0  0  0
  -31.4832  -12.5421   19.1337 H   0  0  0  0  0  0
  -30.3967  -11.4071   19.8903 H   0  0  0  0  0  0
  -29.7792  -11.7478   17.4739 H   0  0  0  0  0  0
  -29.6358  -13.4682   17.7334 H   0  0  0  0  0  0
  -27.8766  -11.2680   18.8633 H   0  0  0  0  0  0
  -27.3757  -12.5517   17.7928 H   0  0  0  0  0  0
  -27.6612  -14.2136   19.5167 H   0  0  0  0  0  0
  -28.7279  -12.0513   21.3830 H   0  0  0  0  0  0
  -28.4502  -13.7128   21.8306 H   0  0  0  0  0  0
  -25.2736   -9.5631   22.4780 H   0  0  0  0  0  0
  -23.9977   -7.4582   22.7463 H   0  0  0  0  0  0
  -21.0824   -8.8753   19.8943 H   0  0  0  0  0  0
  -22.3691  -10.9657   19.6173 H   0  0  0  0  0  0
  -21.1993   -7.6131   23.9718 H   0  0  0  0  0  0
  -21.1476   -6.0511   25.9083 H   0  0  0  0  0  0
  -22.0606   -2.7601   23.2851 H   0  0  0  0  0  0
  -22.4019  -11.9909   22.4837 H   0  0  0  0  0  0
  -21.1072  -13.1307   22.2565 H   0  0  0  0  0  0
  -24.6200  -15.7810   20.4008 H   0  0  0  0  0  0
  -26.1753  -15.5086   19.7965 H   0  0  0  0  0  0
  -26.7174  -32.5461   23.1113 H   0  0  0  0  0  0
  -25.0105  -33.9735   25.0456 H   0  0  0  0  0  0
  -22.7085  -31.3045   21.4078 H   0  0  0  0  0  0
  -23.3761  -35.9604   23.3278 H   0  0  0  0  0  0
  -24.3593  -36.8921   22.2053 H   0  0  0  0  0  0
  -23.7235  -37.6476   23.6666 H   0  0  0  0  0  0
  -26.0867  -31.5635   20.6081 H   0  0  0  0  0  0
  -26.8366  -30.8456   22.0026 H   0  0  0  0  0  0
  -28.1087  -28.9963   21.1980 H   0  0  0  0  0  0
  -25.9754  -25.9527   18.9792 H   0  0  0  0  0  0
  -23.9716  -27.3166   19.0077 H   0  0  0  0  0  0
  -23.7478  -30.6002   19.4057 H   0  0  0  0  0  0
  -22.7500  -29.2522   19.8602 H   0  0  0  0  0  0
  -25.1284  -36.1927   25.0821 H   0  0  0  0  0  0
  -20.9966  -28.3262   24.1422 H   0  0  0  0  0  0
  -20.5693  -26.2287   23.3608 H   0  0  0  0  0  0
  -21.6652  -26.7460   22.1207 H   0  0  0  0  0  0
  -19.6923  -25.6304   21.1233 H   0  0  0  0  0  0
  -19.6696  -27.3204   20.6749 H   0  0  0  0  0  0
  -17.4211  -26.6690   21.4009 H   0  0  0  0  0  0
  -18.0317  -26.0073   22.9003 H   0  0  0  0  0  0
  -19.7940  -30.7281   24.2247 H   0  0  0  0  0  0
  -17.5015  -31.6261   24.5184 H   0  0  0  0  0  0
  -15.5352  -30.2983   23.7660 H   0  0  0  0  0  0
  -15.8672  -28.0824   22.7058 H   0  0  0  0  0  0
  -24.5916  -30.7062   25.7805 H   0  0  0  0  0  0
  -24.8930  -32.2889   26.4876 H   0  0  0  0  0  0
  -25.8078  -30.8914   27.0236 H   0  0  0  0  0  0
  -26.2881  -29.6765   24.1188 H   0  0  0  0  0  0
  -27.4033  -29.7242   25.4647 H   0  0  0  0  0  0
  -27.8746  -30.4284   23.9358 H   0  0  0  0  0  0
  -27.2695  -33.3606   26.2063 H   0  0  0  0  0  0
  -28.3878  -32.6847   25.0313 H   0  0  0  0  0  0
  -28.0726  -31.8420   26.5407 H   0  0  0  0  0  0
  -28.2569  -38.0115   24.7549 H   0  0  0  0  0  0
  -28.1109  -36.2652   24.6202 H   0  0  0  0  0  0
  -27.2314  -37.1359   25.8856 H   0  0  0  0  0  0
  -20.9370  -29.8741   21.6886 H   0  0  0  0  0  0
  -26.0157  -38.2841   24.1457 H   0  0  0  0  0  0
  -28.1598  -20.0107   19.4743 H   0  0  0  0  0  0
  -31.6646  -17.2839   21.6605 H   0  0  0  0  0  0
  -30.8100  -22.0377   21.2767 H   0  0  0  0  0  0
  -28.2011  -22.2602   19.7309 H   0  0  0  0  0  0
  -32.7969  -19.1636   22.3705 H   0  0  0  0  0  0
  -31.7199  -20.4567   22.8821 H   0  0  0  0  0  0
  -32.6465  -20.6097   21.3805 H   0  0  0  0  0  0
  -26.2226  -18.6947   20.0198 H   0  0  0  0  0  0
  -25.5674  -17.5440   18.8549 H   0  0  0  0  0  0
  -26.4339  -18.9685   18.2792 H   0  0  0  0  0  0
  -27.2055  -24.7534   20.4402 H   0  0  0  0  0  0
  -27.9901  -24.8828   18.8754 H   0  0  0  0  0  0
  -28.7679  -15.3697   20.6686 H   0  0  0  0  0  0
  1 25  1  0  0  0
  1 30  2  0  0  0
  1 84  1  0  0  0
  2  3  1  0  0  0
  2 25  1  0  0  0
  2 87  1  0  0  0
  2 88  1  0  0  0
  3  4  1  0  0  0
  3 89  1  0  0  0
  3 90  1  0  0  0
  4  5  1  0  0  0
  4 91  1  0  0  0
  4 92  1  0  0  0
  5  6  1  0  0  0
  5 26  1  0  0  0
  5 93  1  0  0  0
  6 25  1  0  0  0
  6 94  1  0  0  0
  6 95  1  0  0  0
  7  8  2  0  0  0
  7 26  1  0  0  0
  7 29  1  0  0  0
  8  9  1  0  0  0
  8 22  1  0  0  0
  9 10  1  0  0  0
  9 27  2  0  0  0
 10 11  2  0  0  0
 10 15  1  0  0  0
 11 12  1  0  0  0
 11 96  1  0  0  0
 12 13  2  0  0  0
 12 97  1  0  0  0
 13 14  1  0  0  0
 13 31  1  0  0  0
 14 15  2  0  0  0
 14 98  1  0  0  0
 15 99  1  0  0  0
 16 17  2  0  0  0
 16 21  1  0  0  0
 16 31  1  0  0  0
 17 18  1  0  0  0
 17100  1  0  0  0
 18 19  2  0  0  0
 18101  1  0  0  0
 19 20  1  0  0  0
 19 24  1  0  0  0
 20 21  2  0  0  0
 20102  1  0  0  0
 21 23  1  0  0  0
 22 28  1  0  0  0
 22 32  2  0  0  0
 26 27  1  0  0  0
 28103  1  0  0  0
 28104  1  0  0  0
 29105  1  0  0  0
 29106  1  0  0  0
 33 34  1  0  0  0
 33 66  1  0  0  0
 33 70  2  0  0  0
 34 36  1  0  0  0
 34 59  1  0  0  0
 34107  1  0  0  0
 35 44  2  0  0  0
 35 45  1  0  0  0
 35 68  1  0  0  0
 36 56  1  0  0  0
 36108  1  0  0  0
 37 39  1  0  0  0
 37 47  1  0  0  0
 37 66  1  0  0  0
 37109  1  0  0  0
 38 43  2  0  0  0
 38 46  1  0  0  0
 38 47  1  0  0  0
 39 64  1  0  0  0
 39 67  2  0  0  0
 40 52  1  0  0  0
 40 53  2  0  0  0
 40 58  1  0  0  0
 41110  1  0  0  0
 41111  1  0  0  0
 41112  1  0  0  0
 41 48  1  0  0  0
 42 43  1  0  0  0
 42 66  1  0  0  0
 42113  1  0  0  0
 42114  1  0  0  0
 43 44  1  0  0  0
 44115  1  0  0  0
 45 46  2  0  0  0
 45116  1  0  0  0
 46117  1  0  0  0
 47118  1  0  0  0
 47119  1  0  0  0
 48 56  1  0  0  0
 48 65  1  0  0  0
 48120  1  0  0  0
 49 50  1  0  0  0
 49 53  1  0  0  0
 49 64  1  0  0  0
 49121  1  0  0  0
 50 51  1  0  0  0
 50122  1  0  0  0
 50123  1  0  0  0
 51 52  1  0  0  0
 51124  1  0  0  0
 51125  1  0  0  0
 52126  1  0  0  0
 52127  1  0  0  0
 53 54  1  0  0  0
 54 55  2  0  0  0
 54128  1  0  0  0
 55 57  1  0  0  0
 55129  1  0  0  0
 56 69  2  0  0  0
 57 58  2  0  0  0
 57130  1  0  0  0
 58131  1  0  0  0
 59 60  1  0  0  0
 59 61  1  0  0  0
 59 62  1  0  0  0
 60132  1  0  0  0
 60133  1  0  0  0
 60134  1  0  0  0
 61135  1  0  0  0
 61136  1  0  0  0
 61137  1  0  0  0
 62138  1  0  0  0
 62139  1  0  0  0
 62140  1  0  0  0
 63 65  1  0  0  0
 63141  1  0  0  0
 63142  1  0  0  0
 63143  1  0  0  0
 64144  1  0  0  0
 65145  1  0  0  0
 68 83  1  0  0  0
 71 73  2  0  0  0
 71 74  1  0  0  0
 71146  1  0  0  0
 72 75  2  0  0  0
 72 76  1  0  0  0
 72147  1  0  0  0
 73 75  1  0  0  0
 73 77  1  0  0  0
 74 76  2  0  0  0
 74 79  1  0  0  0
 75 81  1  0  0  0
 76 84  1  0  0  0
 77 78  2  0  0  0
 77148  1  0  0  0
 78 80  1  0  0  0
 78149  1  0  0  0
 79 82  1  0  0  0
 79 85  2  0  0  0
 80 83  1  0  0  0
 80 86  2  0  0  0
 81150  1  0  0  0
 81151  1  0  0  0
 81152  1  0  0  0
 82153  1  0  0  0
 82154  1  0  0  0
 82155  1  0  0  0
 83156  1  0  0  0
 83157  1  0  0  0
 84158  1  0  0  0
M  ISO  4   1 100  68 101  83 101  84 100
M  END
> <chiral flag>
0

> <version>
0

> <s_m_source_file>
/data/baiqing/PycharmProjects/Reinvent-master-3.2/result/LINK_invent/BTK/process_docking_weight1_custom_product_contain_oxygen_bond_distance_aromatic_linkinvent_7_9_3/rearranged_h_0124.sdf

> <i_m_source_file_index>
66

> <r_mmod_Potential_Energy-OPLS-2005>
86.9368286132812

> <r_mmod_Stretch_Energy-OPLS-2005>
78.0404663085938

> <r_mmod_Bend_Energy-OPLS-2005>
123.822105407715

> <r_mmod_Torsional_Energy-OPLS-2005>
255.960647583008

> <r_mmod_Improper_Torsional_Energy-OPLS-2005>
9.37799644470215

> <r_mmod_Van_der_Waal_Energy-OPLS-2005>
150.565979003906

> <r_mmod_Electrostatic_Energy-OPLS-2005>
-348.424774169922

> <r_mmod_Solvation_Energy-OPLS-2005>
-233.748184204102

> <b_mmod_Minimization_Converged-OPLS-2005>
0

> <r_mmod_RMS_Derivative-OPLS-2005>
1.24449002742767

$$$$
66
                    3D
 Structure written by MMmdl.
156164  0  0  1  0            999 V2000
  -30.6855  -14.4451   20.5685 C   0  0  0  0  0  0
  -30.4321  -12.2904   19.4060 C   0  0  0  0  0  0
  -29.4996  -12.5250   18.1977 C   0  0  0  0  0  0
  -28.0150  -12.3888   18.6028 C   0  0  0  0  0  0
  -27.6660  -13.2023   19.8784 C   0  0  2  0  0  0
  -28.7095  -12.9427   20.9887 C   0  0  0  0  0  0
  -25.2604  -13.8164   20.5687 C   0  0  0  0  0  0
  -24.1842  -13.0443   20.9138 C   0  0  0  0  0  0
  -24.6399  -11.6903   20.8719 C   0  0  0  0  0  0
  -23.9065  -10.4300   21.0393 C   0  0  0  0  0  0
  -24.3611   -9.4225   21.9185 C   0  0  0  0  0  0
  -23.6291   -8.2262   22.0764 C   0  0  0  0  0  0
  -22.4287   -8.0281   21.3533 C   0  0  0  0  0  0
  -21.9903   -9.0258   20.4641 C   0  0  0  0  0  0
  -22.7235  -10.2134   20.3047 C   0  0  0  0  0  0
  -21.6858   -6.0736   22.5281 C   0  0  0  0  0  0
  -21.4029   -6.5638   23.8214 C   0  0  0  0  0  0
  -21.3672   -5.6786   24.9177 C   0  0  0  0  0  0
  -21.6043   -4.3050   24.7227 C   0  0  0  0  0  0
  -21.8812   -3.8142   23.4350 C   0  0  0  0  0  0
  -21.9190   -4.6965   22.3402 C   0  0  0  0  0  0
  -22.7863  -13.5244   21.1793 C   0  0  0  0  0  0
  -22.1653   -4.2141   21.0982 F   0  0  0  0  0  0
  -21.5617   -3.4531   25.7745 F   0  0  0  0  0  0
  -30.0448  -13.2525   20.4453 N   0  0  0  0  0  0
  -26.3049  -12.9318   20.3374 N   0  0  0  0  0  0
  -25.9325  -11.6473   20.5721 N   0  0  0  0  0  0
  -22.0489  -12.8277   22.0368 N   0  0  0  0  0  0
  -25.4319  -15.1892   20.4172 N   0  0  0  0  0  0
  -31.8088  -14.6750   20.1142 O   0  0  0  0  0  0
  -21.6645   -6.8887   21.4242 O   0  0  0  0  0  0
  -22.3567  -14.5564   20.6664 O   0  0  0  0  0  0
  -24.6110  -31.8699   23.2091 C   0  0  0  0  0  0
  -25.9010  -32.4844   23.8399 C   0  0  1  0  0  0
  -27.2495  -27.4534   20.1101 C   0  0  0  0  0  0
  -25.5896  -33.8645   24.2340 N   0  0  0  0  0  0
  -23.4021  -30.4849   21.5493 C   0  0  2  0  0  0
  -24.8534  -28.9464   20.1245 C   0  0  0  0  0  0
  -22.7375  -29.4644   22.5009 C   0  0  0  0  0  0
  -18.0237  -28.1394   22.8485 C   0  0  0  0  0  0
  -24.1468  -36.7294   23.2646 C   0  0  0  0  0  0
  -25.9247  -30.8419   21.3606 C   0  0  0  0  0  0
  -26.0091  -29.4728   20.7165 C   0  0  0  0  0  0
  -27.2122  -28.7337   20.7031 C   0  0  0  0  0  0
  -26.0820  -26.9300   19.5225 C   0  0  0  0  0  0
  -24.8828  -27.6714   19.5269 C   0  0  0  0  0  0
  -23.6115  -29.8092   20.1692 C   0  0  0  0  0  0
  -25.4094  -36.3131   24.0355 C   0  0  1  0  0  0
  -20.5826  -28.3668   23.1332 C   0  0  2  0  0  0
  -20.6729  -26.9406   22.5427 C   0  0  0  0  0  0
  -19.5725  -26.6398   21.5206 C   0  0  0  0  0  0
  -18.1902  -26.7936   22.1615 C   0  0  0  0  0  0
  -19.1490  -28.8834   23.2915 C   0  0  0  0  0  0
  -18.9434  -30.1436   23.8938 C   0  0  0  0  0  0
  -17.6445  -30.6612   24.0550 C   0  0  0  0  0  0
  -25.9029  -34.9493   23.5134 C   0  0  0  0  0  0
  -16.5328  -29.9120   23.6327 C   0  0  0  0  0  0
  -16.7227  -28.6527   23.0365 C   0  0  0  0  0  0
  -26.4469  -31.6602   25.0700 C   0  0  0  0  0  0
  -25.3753  -31.3700   26.1454 C   0  0  0  0  0  0
  -27.0296  -30.3033   24.6088 C   0  0  0  0  0  0
  -27.6047  -32.4317   25.7477 C   0  0  0  0  0  0
  -27.5573  -37.1794   24.8485 C   0  0  0  0  0  0
  -21.4105  -29.3029   22.3736 N   0  0  0  0  0  0
  -26.4294  -37.3788   23.9423 N   0  0  0  0  0  0
  -24.6629  -31.0797   22.0992 N   0  0  0  0  0  0
  -23.4123  -28.8208   23.3084 O   0  0  0  0  0  0
  -28.4241  -26.7412   20.0500 O   0  0  0  0  0  0
  -26.5593  -34.8943   22.4700 O   0  0  0  0  0  0
  -23.5302  -32.1453   23.7482 O   0  0  0  0  0  0
  -29.5354  -18.9737   20.1005 C   0  0  0  0  0  0
  -30.7934  -17.4916   22.0319 C   0  0  0  0  0  0
  -29.5101  -17.5713   19.9827 C   0  0  0  0  0  0
  -30.1206  -16.8094   21.0040 C   0  0  0  0  0  0
  -30.1500  -19.5868   21.2165 C   0  0  0  0  0  0
  -29.1150  -21.8626   21.0855 C   0  0  0  0  0  0
  -28.8105  -16.9350   18.7917 C   0  0  0  0  0  0
  -29.2975  -23.3252   21.5285 C   0  0  0  0  0  0
  -28.7521  -24.3623   20.5137 C   0  0  0  0  0  0
  -28.6354  -25.7864   21.0936 C   0  0  0  0  0  0
  -30.8147  -18.8408   22.1303 N   0  0  0  0  0  0
  -29.9238  -15.4105   21.1015 N   0  0  0  0  0  0
  -30.1075  -20.9985   21.3910 N   0  0  0  0  0  0
  -28.0729  -21.5460   20.5045 O   0  0  0  0  0  0
  -31.4769  -12.3914   19.1055 H   0  0  0  0  0  0
  -30.3257  -11.2706   19.7804 H   0  0  0  0  0  0
  -29.7363  -11.8282   17.3922 H   0  0  0  0  0  0
  -29.6724  -13.5259   17.7976 H   0  0  0  0  0  0
  -27.8054  -11.3316   18.7665 H   0  0  0  0  0  0
  -27.3745  -12.6993   17.7768 H   0  0  0  0  0  0
  -27.7187  -14.2569   19.6097 H   0  0  0  0  0  0
  -28.6786  -11.8970   21.2958 H   0  0  0  0  0  0
  -28.4771  -13.5116   21.8898 H   0  0  0  0  0  0
  -25.2754   -9.5700   22.4753 H   0  0  0  0  0  0
  -23.9987   -7.4671   22.7504 H   0  0  0  0  0  0
  -21.0815   -8.8800   19.8969 H   0  0  0  0  0  0
  -22.3710  -10.9674   19.6147 H   0  0  0  0  0  0
  -21.2048   -7.6149   23.9725 H   0  0  0  0  0  0
  -21.1493   -6.0514   25.9076 H   0  0  0  0  0  0
  -22.0586   -2.7602   23.2854 H   0  0  0  0  0  0
  -22.4060  -11.9907   22.4747 H   0  0  0  0  0  0
  -21.1110  -13.1335   22.2565 H   0  0  0  0  0  0
  -24.6637  -15.8422   20.5287 H   0  0  0  0  0  0
  -26.2964  -15.6391   20.1518 H   0  0  0  0  0  0
  -26.7081  -32.5569   23.1177 H   0  0  0  0  0  0
  -25.0045  -33.9790   25.0494 H   0  0  0  0  0  0
  -22.6883  -31.2977   21.4004 H   0  0  0  0  0  0
  -23.3742  -35.9616   23.3362 H   0  0  0  0  0  0
  -24.3562  -36.8847   22.2052 H   0  0  0  0  0  0
  -23.7198  -37.6509   23.6610 H   0  0  0  0  0  0
  -26.0338  -31.6099   20.5936 H   0  0  0  0  0  0
  -26.8124  -30.9003   21.9798 H   0  0  0  0  0  0
  -28.1127  -29.1425   21.1356 H   0  0  0  0  0  0
  -26.1058  -25.9544   19.0588 H   0  0  0  0  0  0
  -23.9962  -27.2571   19.0671 H   0  0  0  0  0  0
  -23.7103  -30.5785   19.4021 H   0  0  0  0  0  0
  -22.7403  -29.2209   19.8829 H   0  0  0  0  0  0
  -25.1255  -36.2031   25.0845 H   0  0  0  0  0  0
  -20.9893  -28.3259   24.1469 H   0  0  0  0  0  0
  -20.5606  -26.2279   23.3614 H   0  0  0  0  0  0
  -21.6607  -26.7441   22.1244 H   0  0  0  0  0  0
  -19.6903  -25.6318   21.1241 H   0  0  0  0  0  0
  -19.6708  -27.3199   20.6739 H   0  0  0  0  0  0
  -17.4155  -26.6649   21.4040 H   0  0  0  0  0  0
  -18.0337  -26.0082   22.9020 H   0  0  0  0  0  0
  -19.7918  -30.7218   24.2351 H   0  0  0  0  0  0
  -17.5021  -31.6307   24.5140 H   0  0  0  0  0  0
  -15.5342  -30.3052   23.7649 H   0  0  0  0  0  0
  -15.8612  -28.0864   22.7101 H   0  0  0  0  0  0
  -24.5911  -30.7067   25.7793 H   0  0  0  0  0  0
  -24.8952  -32.2838   26.4945 H   0  0  0  0  0  0
  -25.8114  -30.8832   27.0177 H   0  0  0  0  0  0
  -26.2832  -29.6791   24.1143 H   0  0  0  0  0  0
  -27.4047  -29.7293   25.4576 H   0  0  0  0  0  0
  -27.8684  -30.4328   23.9242 H   0  0  0  0  0  0
  -27.2666  -33.3603   26.2084 H   0  0  0  0  0  0
  -28.3846  -32.6897   25.0301 H   0  0  0  0  0  0
  -28.0716  -31.8412   26.5366 H   0  0  0  0  0  0
  -28.2619  -38.0059   24.7493 H   0  0  0  0  0  0
  -28.1021  -36.2586   24.6347 H   0  0  0  0  0  0
  -27.2281  -37.1511   25.8884 H   0  0  0  0  0  0
  -20.9274  -29.8720   21.6931 H   0  0  0  0  0  0
  -26.0210  -38.2872   24.1419 H   0  0  0  0  0  0
  -29.0492  -19.5750   19.3445 H   0  0  0  0  0  0
  -31.2725  -16.9467   22.8354 H   0  0  0  0  0  0
  -27.8047  -16.6102   19.0542 H   0  0  0  0  0  0
  -29.3685  -16.0767   18.4185 H   0  0  0  0  0  0
  -28.7210  -17.6458   17.9691 H   0  0  0  0  0  0
  -30.3502  -23.5292   21.7303 H   0  0  0  0  0  0
  -28.7775  -23.4388   22.4803 H   0  0  0  0  0  0
  -27.7731  -24.0610   20.1407 H   0  0  0  0  0  0
  -29.4184  -24.3738   19.6482 H   0  0  0  0  0  0
  -29.5630  -26.0519   21.6007 H   0  0  0  0  0  0
  -27.8541  -25.8201   21.8567 H   0  0  0  0  0  0
  -29.0126  -15.1070   21.4107 H   0  0  0  0  0  0
  -30.8598  -21.3773   21.9477 H   0  0  0  0  0  0
  1 25  1  0  0  0
  1 30  2  0  0  0
  1 82  1  0  0  0
  2  3  1  0  0  0
  2 25  1  0  0  0
  2 85  1  0  0  0
  2 86  1  0  0  0
  3  4  1  0  0  0
  3 87  1  0  0  0
  3 88  1  0  0  0
  4  5  1  0  0  0
  4 89  1  0  0  0
  4 90  1  0  0  0
  5  6  1  0  0  0
  5 26  1  0  0  0
  5 91  1  0  0  0
  6 25  1  0  0  0
  6 92  1  0  0  0
  6 93  1  0  0  0
  7  8  2  0  0  0
  7 26  1  0  0  0
  7 29  1  0  0  0
  8  9  1  0  0  0
  8 22  1  0  0  0
  9 10  1  0  0  0
  9 27  2  0  0  0
 10 11  2  0  0  0
 10 15  1  0  0  0
 11 12  1  0  0  0
 11 94  1  0  0  0
 12 13  2  0  0  0
 12 95  1  0  0  0
 13 14  1  0  0  0
 13 31  1  0  0  0
 14 15  2  0  0  0
 14 96  1  0  0  0
 15 97  1  0  0  0
 16 17  2  0  0  0
 16 21  1  0  0  0
 16 31  1  0  0  0
 17 18  1  0  0  0
 17 98  1  0  0  0
 18 19  2  0  0  0
 18 99  1  0  0  0
 19 20  1  0  0  0
 19 24  1  0  0  0
 20 21  2  0  0  0
 20100  1  0  0  0
 21 23  1  0  0  0
 22 28  1  0  0  0
 22 32  2  0  0  0
 26 27  1  0  0  0
 28101  1  0  0  0
 28102  1  0  0  0
 29103  1  0  0  0
 29104  1  0  0  0
 33 34  1  0  0  0
 33 66  1  0  0  0
 33 70  2  0  0  0
 34 36  1  0  0  0
 34 59  1  0  0  0
 34105  1  0  0  0
 35 44  2  0  0  0
 35 45  1  0  0  0
 35 68  1  0  0  0
 36 56  1  0  0  0
 36106  1  0  0  0
 37 39  1  0  0  0
 37 47  1  0  0  0
 37 66  1  0  0  0
 37107  1  0  0  0
 38 43  2  0  0  0
 38 46  1  0  0  0
 38 47  1  0  0  0
 39 64  1  0  0  0
 39 67  2  0  0  0
 40 52  1  0  0  0
 40 53  2  0  0  0
 40 58  1  0  0  0
 41108  1  0  0  0
 41109  1  0  0  0
 41110  1  0  0  0
 41 48  1  0  0  0
 42 43  1  0  0  0
 42 66  1  0  0  0
 42111  1  0  0  0
 42112  1  0  0  0
 43 44  1  0  0  0
 44113  1  0  0  0
 45 46  2  0  0  0
 45114  1  0  0  0
 46115  1  0  0  0
 47116  1  0  0  0
 47117  1  0  0  0
 48 56  1  0  0  0
 48 65  1  0  0  0
 48118  1  0  0  0
 49 50  1  0  0  0
 49 53  1  0  0  0
 49 64  1  0  0  0
 49119  1  0  0  0
 50 51  1  0  0  0
 50120  1  0  0  0
 50121  1  0  0  0
 51 52  1  0  0  0
 51122  1  0  0  0
 51123  1  0  0  0
 52124  1  0  0  0
 52125  1  0  0  0
 53 54  1  0  0  0
 54 55  2  0  0  0
 54126  1  0  0  0
 55 57  1  0  0  0
 55127  1  0  0  0
 56 69  2  0  0  0
 57 58  2  0  0  0
 57128  1  0  0  0
 58129  1  0  0  0
 59 60  1  0  0  0
 59 61  1  0  0  0
 59 62  1  0  0  0
 60130  1  0  0  0
 60131  1  0  0  0
 60132  1  0  0  0
 61133  1  0  0  0
 61134  1  0  0  0
 61135  1  0  0  0
 62136  1  0  0  0
 62137  1  0  0  0
 62138  1  0  0  0
 63 65  1  0  0  0
 63139  1  0  0  0
 63140  1  0  0  0
 63141  1  0  0  0
 64142  1  0  0  0
 65143  1  0  0  0
 68 80  1  0  0  0
 71 73  2  0  0  0
 71 75  1  0  0  0
 71144  1  0  0  0
 72 74  2  0  0  0
 72 81  1  0  0  0
 72145  1  0  0  0
 73 74  1  0  0  0
 73 77  1  0  0  0
 74 82  1  0  0  0
 75 81  2  0  0  0
 75 83  1  0  0  0
 76 78  1  0  0  0
 76 83  1  0  0  0
 76 84  2  0  0  0
 77146  1  0  0  0
 77147  1  0  0  0
 77148  1  0  0  0
 78 79  1  0  0  0
 78149  1  0  0  0
 78150  1  0  0  0
 79 80  1  0  0  0
 79151  1  0  0  0
 79152  1  0  0  0
 80153  1  0  0  0
 80154  1  0  0  0
 82155  1  0  0  0
 83156  1  0  0  0
M  ISO  4   1 100  68 101  80 101  82 100
M  END
> <chiral flag>
0

> <version>
0

> <s_m_source_file>
/data/baiqing/PycharmProjects/Reinvent-master-3.2/result/LINK_invent/BTK/process_docking_weight1_custom_product_contain_oxygen_bond_distance_aromatic_linkinvent_7_9_3/rearranged_h_0124.sdf

> <i_m_source_file_index>
67

> <r_mmod_Potential_Energy-OPLS-2005>
-277.72314453125

> <r_mmod_Stretch_Energy-OPLS-2005>
33.8602104187012

> <r_mmod_Bend_Energy-OPLS-2005>
96.6802368164062

> <r_mmod_Torsional_Energy-OPLS-2005>
282.800354003906

> <r_mmod_Improper_Torsional_Energy-OPLS-2005>
5.15565538406372

> <r_mmod_Van_der_Waal_Energy-OPLS-2005>
150.137252807617

> <r_mmod_Electrostatic_Energy-OPLS-2005>
-617.865112304688

> <r_mmod_Solvation_Energy-OPLS-2005>
-238.013626098633

> <b_mmod_Minimization_Converged-OPLS-2005>
0

> <r_mmod_RMS_Derivative-OPLS-2005>
3.59333395957947

$$$$
67
                    3D
 Structure written by MMmdl.
159167  0  0  1  0            999 V2000
  -30.6078  -14.6574   20.4957 C   0  0  0  0  0  0
  -30.4433  -12.4029   19.4517 C   0  0  0  0  0  0
  -29.5106  -12.5073   18.2238 C   0  0  0  0  0  0
  -28.0325  -12.3429   18.6347 C   0  0  0  0  0  0
  -27.6525  -13.2154   19.8605 C   0  0  2  0  0  0
  -28.6984  -13.0747   20.9899 C   0  0  0  0  0  0
  -25.2560  -13.8165   20.5679 C   0  0  0  0  0  0
  -24.1827  -13.0431   20.9186 C   0  0  0  0  0  0
  -24.6395  -11.6902   20.8736 C   0  0  0  0  0  0
  -23.9061  -10.4288   21.0403 C   0  0  0  0  0  0
  -24.3613   -9.4204   21.9180 C   0  0  0  0  0  0
  -23.6291   -8.2238   22.0750 C   0  0  0  0  0  0
  -22.4274   -8.0275   21.3540 C   0  0  0  0  0  0
  -21.9905   -9.0250   20.4644 C   0  0  0  0  0  0
  -22.7233  -10.2131   20.3054 C   0  0  0  0  0  0
  -21.6853   -6.0730   22.5279 C   0  0  0  0  0  0
  -21.4015   -6.5635   23.8211 C   0  0  0  0  0  0
  -21.3660   -5.6788   24.9173 C   0  0  0  0  0  0
  -21.6046   -4.3051   24.7223 C   0  0  0  0  0  0
  -21.8819   -3.8141   23.4344 C   0  0  0  0  0  0
  -21.9193   -4.6958   22.3403 C   0  0  0  0  0  0
  -22.7849  -13.5225   21.1850 C   0  0  0  0  0  0
  -22.1661   -4.2142   21.0980 F   0  0  0  0  0  0
  -21.5628   -3.4537   25.7737 F   0  0  0  0  0  0
  -30.0114  -13.4245   20.4253 N   0  0  0  0  0  0
  -26.2988  -12.9343   20.3304 N   0  0  0  0  0  0
  -25.9321  -11.6500   20.5746 N   0  0  0  0  0  0
  -22.0492  -12.8225   22.0415 N   0  0  0  0  0  0
  -25.4253  -15.1889   20.4096 N   0  0  0  0  0  0
  -31.7783  -14.8267   20.1388 O   0  0  0  0  0  0
  -21.6639   -6.8873   21.4239 O   0  0  0  0  0  0
  -22.3537  -14.5529   20.6695 O   0  0  0  0  0  0
  -24.6257  -31.8601   23.2017 C   0  0  0  0  0  0
  -25.9102  -32.4781   23.8351 C   0  0  1  0  0  0
  -27.2258  -27.3174   20.1164 C   0  0  0  0  0  0
  -25.5914  -33.8579   24.2280 N   0  0  0  0  0  0
  -23.4201  -30.4833   21.5451 C   0  0  2  0  0  0
  -24.8662  -28.9385   20.1114 C   0  0  0  0  0  0
  -22.7475  -29.4626   22.4937 C   0  0  0  0  0  0
  -18.0288  -28.1386   22.8492 C   0  0  0  0  0  0
  -24.1489  -36.7299   23.2642 C   0  0  0  0  0  0
  -25.9614  -30.7909   21.3723 C   0  0  0  0  0  0
  -26.0357  -29.4178   20.7147 C   0  0  0  0  0  0
  -27.2184  -28.6193   20.7068 C   0  0  0  0  0  0
  -26.0312  -26.8926   19.4887 C   0  0  0  0  0  0
  -24.8658  -27.6811   19.4896 C   0  0  0  0  0  0
  -23.6342  -29.8185   20.1605 C   0  0  0  0  0  0
  -25.4112  -36.3085   24.0335 C   0  0  1  0  0  0
  -20.5891  -28.3689   23.1288 C   0  0  2  0  0  0
  -20.6778  -26.9411   22.5416 C   0  0  0  0  0  0
  -19.5751  -26.6386   21.5218 C   0  0  0  0  0  0
  -18.1932  -26.7931   22.1629 C   0  0  0  0  0  0
  -19.1542  -28.8853   23.2886 C   0  0  0  0  0  0
  -18.9463  -30.1457   23.8899 C   0  0  0  0  0  0
  -17.6464  -30.6588   24.0565 C   0  0  0  0  0  0
  -25.9048  -34.9452   23.5110 C   0  0  0  0  0  0
  -16.5354  -29.9088   23.6328 C   0  0  0  0  0  0
  -16.7277  -28.6506   23.0348 C   0  0  0  0  0  0
  -26.4481  -31.6589   25.0721 C   0  0  0  0  0  0
  -25.3713  -31.3732   26.1451 C   0  0  0  0  0  0
  -27.0323  -30.3012   24.6172 C   0  0  0  0  0  0
  -27.6044  -32.4319   25.7492 C   0  0  0  0  0  0
  -27.5580  -37.1807   24.8465 C   0  0  0  0  0  0
  -21.4188  -29.3041   22.3681 N   0  0  0  0  0  0
  -26.4291  -37.3776   23.9410 N   0  0  0  0  0  0
  -24.6882  -31.0613   22.0968 N   0  0  0  0  0  0
  -23.4197  -28.8165   23.3017 O   0  0  0  0  0  0
  -28.3450  -26.4682   20.1683 O   0  0  0  0  0  0
  -26.5625  -34.8916   22.4682 O   0  0  0  0  0  0
  -23.5418  -32.1402   23.7342 O   0  0  0  0  0  0
  -29.2670  -17.8732   19.6297 C   0  0  0  0  0  0
  -30.5075  -17.9393   21.6782 C   0  0  0  0  0  0
  -29.2459  -19.3054   19.5714 C   0  0  0  0  0  0
  -30.4751  -19.3684   21.6523 C   0  0  0  0  0  0
  -29.8390  -20.1051   20.6006 C   0  0  0  0  0  0
  -29.9094  -17.1500   20.6693 C   0  0  0  0  0  0
  -29.0403  -22.4461   20.3593 C   0  0  0  0  0  0
  -28.5978  -19.9482   18.3554 C   0  0  0  0  0  0
  -32.6245  -20.4114   22.5156 C   0  0  0  0  0  0
  -31.1533  -20.0948   22.8083 C   0  0  0  0  0  0
  -29.2971  -24.0059   20.4382 C   0  0  0  0  0  0
  -28.1275  -25.0048   20.0323 C   0  0  0  0  0  0
  -29.9537  -21.5475   20.5918 N   0  0  0  0  0  0
  -29.7691  -15.6996   20.7964 N   0  0  0  0  0  0
  -31.4836  -12.5374   19.1498 H   0  0  0  0  0  0
  -30.3863  -11.4086   19.8974 H   0  0  0  0  0  0
  -29.7786  -11.7517   17.4841 H   0  0  0  0  0  0
  -29.6494  -13.4742   17.7377 H   0  0  0  0  0  0
  -27.8698  -11.2902   18.8681 H   0  0  0  0  0  0
  -27.3794  -12.5706   17.7915 H   0  0  0  0  0  0
  -27.6669  -14.2488   19.5141 H   0  0  0  0  0  0
  -28.7156  -12.0532   21.3728 H   0  0  0  0  0  0
  -28.4428  -13.7062   21.8422 H   0  0  0  0  0  0
  -25.2758   -9.5681   22.4750 H   0  0  0  0  0  0
  -24.0000   -7.4632   22.7472 H   0  0  0  0  0  0
  -21.0831   -8.8769   19.8957 H   0  0  0  0  0  0
  -22.3688  -10.9667   19.6163 H   0  0  0  0  0  0
  -21.2010   -7.6143   23.9711 H   0  0  0  0  0  0
  -21.1484   -6.0519   25.9075 H   0  0  0  0  0  0
  -22.0599   -2.7603   23.2847 H   0  0  0  0  0  0
  -22.4105  -11.9891   22.4817 H   0  0  0  0  0  0
  -21.1111  -13.1251   22.2615 H   0  0  0  0  0  0
  -24.6541  -15.8389   20.5184 H   0  0  0  0  0  0
  -26.2677  -15.6323   20.0665 H   0  0  0  0  0  0
  -26.7174  -32.5450   23.1105 H   0  0  0  0  0  0
  -25.0038  -33.9721   25.0408 H   0  0  0  0  0  0
  -22.7141  -31.3041   21.4028 H   0  0  0  0  0  0
  -23.3746  -35.9637   23.3304 H   0  0  0  0  0  0
  -24.3581  -36.8913   22.2055 H   0  0  0  0  0  0
  -23.7240  -37.6503   23.6660 H   0  0  0  0  0  0
  -26.0923  -31.5542   20.6039 H   0  0  0  0  0  0
  -26.8420  -30.8397   22.0013 H   0  0  0  0  0  0
  -28.1151  -28.9828   21.1888 H   0  0  0  0  0  0
  -25.9674  -25.9333   18.9983 H   0  0  0  0  0  0
  -23.9696  -27.3086   19.0126 H   0  0  0  0  0  0
  -23.7526  -30.5951   19.4040 H   0  0  0  0  0  0
  -22.7541  -29.2474   19.8588 H   0  0  0  0  0  0
  -25.1291  -36.1942   25.0828 H   0  0  0  0  0  0
  -20.9988  -28.3264   24.1406 H   0  0  0  0  0  0
  -20.5684  -26.2295   23.3616 H   0  0  0  0  0  0
  -21.6647  -26.7446   22.1204 H   0  0  0  0  0  0
  -19.6910  -25.6297   21.1246 H   0  0  0  0  0  0
  -19.6685  -27.3202   20.6752 H   0  0  0  0  0  0
  -17.4204  -26.6679   21.4030 H   0  0  0  0  0  0
  -18.0328  -26.0074   22.9025 H   0  0  0  0  0  0
  -19.7938  -30.7276   24.2263 H   0  0  0  0  0  0
  -17.5017  -31.6266   24.5173 H   0  0  0  0  0  0
  -15.5353  -30.2989   23.7651 H   0  0  0  0  0  0
  -15.8679  -28.0828   22.7052 H   0  0  0  0  0  0
  -24.5887  -30.7082   25.7785 H   0  0  0  0  0  0
  -24.8906  -32.2899   26.4875 H   0  0  0  0  0  0
  -25.8034  -30.8911   27.0227 H   0  0  0  0  0  0
  -26.2898  -29.6773   24.1182 H   0  0  0  0  0  0
  -27.4008  -29.7254   25.4671 H   0  0  0  0  0  0
  -27.8770  -30.4305   23.9403 H   0  0  0  0  0  0
  -27.2662  -33.3620   26.2073 H   0  0  0  0  0  0
  -28.3851  -32.6877   25.0318 H   0  0  0  0  0  0
  -28.0715  -31.8440   26.5402 H   0  0  0  0  0  0
  -28.2603  -38.0100   24.7505 H   0  0  0  0  0  0
  -28.1068  -36.2630   24.6297 H   0  0  0  0  0  0
  -27.2301  -37.1464   25.8869 H   0  0  0  0  0  0
  -20.9364  -29.8764   21.6896 H   0  0  0  0  0  0
  -26.0175  -38.2854   24.1396 H   0  0  0  0  0  0
  -28.7732  -17.3142   18.8472 H   0  0  0  0  0  0
  -30.9797  -17.4416   22.5138 H   0  0  0  0  0  0
  -28.0122  -22.1717   20.1089 H   0  0  0  0  0  0
  -28.4495  -19.2254   17.5524 H   0  0  0  0  0  0
  -29.2249  -20.7467   17.9577 H   0  0  0  0  0  0
  -27.6232  -20.3623   18.6143 H   0  0  0  0  0  0
  -33.0863  -20.9225   23.3604 H   0  0  0  0  0  0
  -32.7225  -21.0584   21.6431 H   0  0  0  0  0  0
  -33.1939  -19.5006   22.3258 H   0  0  0  0  0  0
  -31.0879  -19.4789   23.7064 H   0  0  0  0  0  0
  -30.6117  -21.0100   23.0509 H   0  0  0  0  0  0
  -30.1703  -24.2308   19.8262 H   0  0  0  0  0  0
  -29.5909  -24.2312   21.4629 H   0  0  0  0  0  0
  -27.2538  -24.7353   20.6285 H   0  0  0  0  0  0
  -27.8699  -24.7985   18.9926 H   0  0  0  0  0  0
  -28.8319  -15.3896   21.0008 H   0  0  0  0  0  0
  1 25  1  0  0  0
  1 30  2  0  0  0
  1 84  1  0  0  0
  2  3  1  0  0  0
  2 25  1  0  0  0
  2 85  1  0  0  0
  2 86  1  0  0  0
  3  4  1  0  0  0
  3 87  1  0  0  0
  3 88  1  0  0  0
  4  5  1  0  0  0
  4 89  1  0  0  0
  4 90  1  0  0  0
  5  6  1  0  0  0
  5 26  1  0  0  0
  5 91  1  0  0  0
  6 25  1  0  0  0
  6 92  1  0  0  0
  6 93  1  0  0  0
  7  8  2  0  0  0
  7 26  1  0  0  0
  7 29  1  0  0  0
  8  9  1  0  0  0
  8 22  1  0  0  0
  9 10  1  0  0  0
  9 27  2  0  0  0
 10 11  2  0  0  0
 10 15  1  0  0  0
 11 12  1  0  0  0
 11 94  1  0  0  0
 12 13  2  0  0  0
 12 95  1  0  0  0
 13 14  1  0  0  0
 13 31  1  0  0  0
 14 15  2  0  0  0
 14 96  1  0  0  0
 15 97  1  0  0  0
 16 17  2  0  0  0
 16 21  1  0  0  0
 16 31  1  0  0  0
 17 18  1  0  0  0
 17 98  1  0  0  0
 18 19  2  0  0  0
 18 99  1  0  0  0
 19 20  1  0  0  0
 19 24  1  0  0  0
 20 21  2  0  0  0
 20100  1  0  0  0
 21 23  1  0  0  0
 22 28  1  0  0  0
 22 32  2  0  0  0
 26 27  1  0  0  0
 28101  1  0  0  0
 28102  1  0  0  0
 29103  1  0  0  0
 29104  1  0  0  0
 33 34  1  0  0  0
 33 66  1  0  0  0
 33 70  2  0  0  0
 34 36  1  0  0  0
 34 59  1  0  0  0
 34105  1  0  0  0
 35 44  2  0  0  0
 35 45  1  0  0  0
 35 68  1  0  0  0
 36 56  1  0  0  0
 36106  1  0  0  0
 37 39  1  0  0  0
 37 47  1  0  0  0
 37 66  1  0  0  0
 37107  1  0  0  0
 38 43  2  0  0  0
 38 46  1  0  0  0
 38 47  1  0  0  0
 39 64  1  0  0  0
 39 67  2  0  0  0
 40 52  1  0  0  0
 40 53  2  0  0  0
 40 58  1  0  0  0
 41108  1  0  0  0
 41109  1  0  0  0
 41110  1  0  0  0
 41 48  1  0  0  0
 42 43  1  0  0  0
 42 66  1  0  0  0
 42111  1  0  0  0
 42112  1  0  0  0
 43 44  1  0  0  0
 44113  1  0  0  0
 45 46  2  0  0  0
 45114  1  0  0  0
 46115  1  0  0  0
 47116  1  0  0  0
 47117  1  0  0  0
 48 56  1  0  0  0
 48 65  1  0  0  0
 48118  1  0  0  0
 49 50  1  0  0  0
 49 53  1  0  0  0
 49 64  1  0  0  0
 49119  1  0  0  0
 50 51  1  0  0  0
 50120  1  0  0  0
 50121  1  0  0  0
 51 52  1  0  0  0
 51122  1  0  0  0
 51123  1  0  0  0
 52124  1  0  0  0
 52125  1  0  0  0
 53 54  1  0  0  0
 54 55  2  0  0  0
 54126  1  0  0  0
 55 57  1  0  0  0
 55127  1  0  0  0
 56 69  2  0  0  0
 57 58  2  0  0  0
 57128  1  0  0  0
 58129  1  0  0  0
 59 60  1  0  0  0
 59 61  1  0  0  0
 59 62  1  0  0  0
 60130  1  0  0  0
 60131  1  0  0  0
 60132  1  0  0  0
 61133  1  0  0  0
 61134  1  0  0  0
 61135  1  0  0  0
 62136  1  0  0  0
 62137  1  0  0  0
 62138  1  0  0  0
 63 65  1  0  0  0
 63139  1  0  0  0
 63140  1  0  0  0
 63141  1  0  0  0
 64142  1  0  0  0
 65143  1  0  0  0
 68 82  1  0  0  0
 71 73  2  0  0  0
 71 76  1  0  0  0
 71144  1  0  0  0
 72 74  1  0  0  0
 72 76  2  0  0  0
 72145  1  0  0  0
 73 75  1  0  0  0
 73 78  1  0  0  0
 74 75  2  0  0  0
 74 80  1  0  0  0
 75 83  1  0  0  0
 76 84  1  0  0  0
 77 81  1  0  0  0
 77 83  2  0  0  0
 77146  1  0  0  0
 78147  1  0  0  0
 78148  1  0  0  0
 78149  1  0  0  0
 79 80  1  0  0  0
 79150  1  0  0  0
 79151  1  0  0  0
 79152  1  0  0  0
 80153  1  0  0  0
 80154  1  0  0  0
 81 82  1  0  0  0
 81155  1  0  0  0
 81156  1  0  0  0
 82157  1  0  0  0
 82158  1  0  0  0
 84159  1  0  0  0
M  ISO  4   1 100  68 101  82 101  84 100
M  END
> <chiral flag>
0

> <version>
0

> <s_m_source_file>
/data/baiqing/PycharmProjects/Reinvent-master-3.2/result/LINK_invent/BTK/process_docking_weight1_custom_product_contain_oxygen_bond_distance_aromatic_linkinvent_7_9_3/rearranged_h_0124.sdf

> <i_m_source_file_index>
68

> <r_mmod_Potential_Energy-OPLS-2005>
44.4132614135742

> <r_mmod_Stretch_Energy-OPLS-2005>
83.6399536132812

> <r_mmod_Bend_Energy-OPLS-2005>
143.926849365234

> <r_mmod_Torsional_Energy-OPLS-2005>
248.342300415039

> <r_mmod_Improper_Torsional_Energy-OPLS-2005>
6.18035507202148

> <r_mmod_Van_der_Waal_Energy-OPLS-2005>
144.816619873047

> <r_mmod_Electrostatic_Energy-OPLS-2005>
-418.434844970703

> <r_mmod_Solvation_Energy-OPLS-2005>
-216.552215576172

> <b_mmod_Minimization_Converged-OPLS-2005>
0

> <r_mmod_RMS_Derivative-OPLS-2005>
0.797508060932159

$$$$
68
                    3D
 Structure written by MMmdl.
158166  0  0  1  0            999 V2000
  -30.6680  -14.5711   20.5363 C   0  0  0  0  0  0
  -30.4260  -12.3602   19.4453 C   0  0  0  0  0  0
  -29.4973  -12.4982   18.2201 C   0  0  0  0  0  0
  -28.0210  -12.3415   18.6344 C   0  0  0  0  0  0
  -27.6500  -13.2134   19.8644 C   0  0  2  0  0  0
  -28.6932  -13.0598   20.9937 C   0  0  0  0  0  0
  -25.2544  -13.8173   20.5698 C   0  0  0  0  0  0
  -24.1807  -13.0448   20.9207 C   0  0  0  0  0  0
  -24.6372  -11.6913   20.8758 C   0  0  0  0  0  0
  -23.9049  -10.4295   21.0416 C   0  0  0  0  0  0
  -24.3606   -9.4214   21.9189 C   0  0  0  0  0  0
  -23.6295   -8.2240   22.0752 C   0  0  0  0  0  0
  -22.4279   -8.0278   21.3545 C   0  0  0  0  0  0
  -21.9906   -9.0246   20.4642 C   0  0  0  0  0  0
  -22.7222  -10.2133   20.3060 C   0  0  0  0  0  0
  -21.6852   -6.0742   22.5292 C   0  0  0  0  0  0
  -21.4003   -6.5647   23.8224 C   0  0  0  0  0  0
  -21.3661   -5.6798   24.9186 C   0  0  0  0  0  0
  -21.6052   -4.3060   24.7232 C   0  0  0  0  0  0
  -21.8813   -3.8155   23.4349 C   0  0  0  0  0  0
  -21.9190   -4.6975   22.3410 C   0  0  0  0  0  0
  -22.7831  -13.5250   21.1879 C   0  0  0  0  0  0
  -22.1661   -4.2162   21.0988 F   0  0  0  0  0  0
  -21.5637   -3.4545   25.7740 F   0  0  0  0  0  0
  -30.0117  -13.3784   20.4275 N   0  0  0  0  0  0
  -26.2964  -12.9346   20.3331 N   0  0  0  0  0  0
  -25.9293  -11.6506   20.5766 N   0  0  0  0  0  0
  -22.0470  -12.8226   22.0424 N   0  0  0  0  0  0
  -25.4258  -15.1884   20.4106 N   0  0  0  0  0  0
  -31.8329  -14.7041   20.1516 O   0  0  0  0  0  0
  -21.6645   -6.8874   21.4246 O   0  0  0  0  0  0
  -22.3522  -14.5572   20.6750 O   0  0  0  0  0  0
  -24.6201  -31.8657   23.2082 C   0  0  0  0  0  0
  -25.9094  -32.4801   23.8383 C   0  0  1  0  0  0
  -27.2255  -27.3871   20.1132 C   0  0  0  0  0  0
  -25.5948  -33.8600   24.2309 N   0  0  0  0  0  0
  -23.4086  -30.4881   21.5498 C   0  0  2  0  0  0
  -24.8563  -28.9456   20.1177 C   0  0  0  0  0  0
  -22.7439  -29.4642   22.4986 C   0  0  0  0  0  0
  -18.0278  -28.1371   22.8489 C   0  0  0  0  0  0
  -24.1494  -36.7289   23.2631 C   0  0  0  0  0  0
  -25.9419  -30.8133   21.3705 C   0  0  0  0  0  0
  -26.0178  -29.4433   20.7215 C   0  0  0  0  0  0
  -27.2072  -28.6705   20.7198 C   0  0  0  0  0  0
  -26.0501  -26.9149   19.4975 C   0  0  0  0  0  0
  -24.8684  -27.6813   19.5035 C   0  0  0  0  0  0
  -23.6201  -29.8188   20.1652 C   0  0  0  0  0  0
  -25.4111  -36.3087   24.0327 C   0  0  1  0  0  0
  -20.5873  -28.3662   23.1322 C   0  0  2  0  0  0
  -20.6769  -26.9392   22.5439 C   0  0  0  0  0  0
  -19.5751  -26.6372   21.5232 C   0  0  0  0  0  0
  -18.1919  -26.7923   22.1611 C   0  0  0  0  0  0
  -19.1534  -28.8834   23.2896 C   0  0  0  0  0  0
  -18.9452  -30.1433   23.8922 C   0  0  0  0  0  0
  -17.6458  -30.6576   24.0564 C   0  0  0  0  0  0
  -25.9066  -34.9457   23.5113 C   0  0  0  0  0  0
  -16.5351  -29.9074   23.6337 C   0  0  0  0  0  0
  -16.7266  -28.6489   23.0360 C   0  0  0  0  0  0
  -26.4498  -31.6594   25.0733 C   0  0  0  0  0  0
  -25.3742  -31.3728   26.1472 C   0  0  0  0  0  0
  -27.0312  -30.3024   24.6139 C   0  0  0  0  0  0
  -27.6092  -32.4303   25.7464 C   0  0  0  0  0  0
  -27.5592  -37.1756   24.8433 C   0  0  0  0  0  0
  -21.4161  -29.3023   22.3727 N   0  0  0  0  0  0
  -26.4274  -37.3796   23.9447 N   0  0  0  0  0  0
  -24.6749  -31.0714   22.1011 N   0  0  0  0  0  0
  -23.4202  -28.8204   23.3056 O   0  0  0  0  0  0
  -28.3606  -26.5973   20.0669 O   0  0  0  0  0  0
  -26.5606  -34.8905   22.4661 O   0  0  0  0  0  0
  -23.5385  -32.1441   23.7465 O   0  0  0  0  0  0
  -29.5846  -18.1461   20.5920 C   0  0  0  0  0  0
  -31.5451  -17.3053   21.7455 C   0  0  0  0  0  0
  -31.2363  -19.7356   21.4728 C   0  0  0  0  0  0
  -30.3471  -17.0286   21.0569 C   0  0  0  0  0  0
  -30.0141  -19.5012   20.7774 C   0  0  0  0  0  0
  -31.9836  -18.6265   21.9465 C   0  0  0  0  0  0
  -33.0681  -21.4715   21.5932 C   0  0  0  0  0  0
  -31.7748  -21.1053   21.6328 C   0  0  0  0  0  0
  -27.9587  -24.1523   20.8942 C   0  0  0  0  0  0
  -28.9294  -23.0433   20.3520 C   0  0  0  0  0  0
  -28.5028  -25.6106   21.1175 C   0  0  0  0  0  0
  -28.6600  -21.5822   20.8810 C   0  0  0  0  0  0
  -29.9131  -15.6543   20.8809 N   0  0  0  0  0  0
  -29.3279  -20.5352   20.1317 O   0  0  0  0  0  0
  -33.1459  -18.8127   22.6195 F   0  0  0  0  0  0
  -31.4689  -12.4745   19.1414 H   0  0  0  0  0  0
  -30.3502  -11.3635   19.8813 H   0  0  0  0  0  0
  -29.7546  -11.7538   17.4655 H   0  0  0  0  0  0
  -29.6428  -13.4728   17.7529 H   0  0  0  0  0  0
  -27.8537  -11.2881   18.8651 H   0  0  0  0  0  0
  -27.3655  -12.5754   17.7950 H   0  0  0  0  0  0
  -27.6720  -14.2485   19.5261 H   0  0  0  0  0  0
  -28.6899  -12.0400   21.3801 H   0  0  0  0  0  0
  -28.4492  -13.7002   21.8426 H   0  0  0  0  0  0
  -25.2739   -9.5712   22.4774 H   0  0  0  0  0  0
  -24.0027   -7.4632   22.7455 H   0  0  0  0  0  0
  -21.0845   -8.8747   19.8934 H   0  0  0  0  0  0
  -22.3666  -10.9680   19.6179 H   0  0  0  0  0  0
  -21.1979   -7.6151   23.9732 H   0  0  0  0  0  0
  -21.1498   -6.0528   25.9092 H   0  0  0  0  0  0
  -22.0588   -2.7617   23.2851 H   0  0  0  0  0  0
  -22.4086  -11.9889   22.4810 H   0  0  0  0  0  0
  -21.1082  -13.1241   22.2625 H   0  0  0  0  0  0
  -24.6563  -15.8407   20.5147 H   0  0  0  0  0  0
  -26.2695  -15.6292   20.0679 H   0  0  0  0  0  0
  -26.7166  -32.5485   23.1138 H   0  0  0  0  0  0
  -25.0128  -33.9768   25.0474 H   0  0  0  0  0  0
  -22.6993  -31.3066   21.4082 H   0  0  0  0  0  0
  -23.3774  -35.9599   23.3248 H   0  0  0  0  0  0
  -24.3606  -36.8965   22.2057 H   0  0  0  0  0  0
  -23.7210  -37.6458   23.6688 H   0  0  0  0  0  0
  -26.0616  -31.5761   20.5999 H   0  0  0  0  0  0
  -26.8285  -30.8691   21.9912 H   0  0  0  0  0  0
  -28.1034  -29.0489   21.1910 H   0  0  0  0  0  0
  -26.0487  -25.9491   19.0133 H   0  0  0  0  0  0
  -23.9745  -27.2943   19.0339 H   0  0  0  0  0  0
  -23.7265  -30.5942   19.4060 H   0  0  0  0  0  0
  -22.7443  -29.2394   19.8673 H   0  0  0  0  0  0
  -25.1276  -36.1933   25.0815 H   0  0  0  0  0  0
  -20.9936  -28.3224   24.1452 H   0  0  0  0  0  0
  -20.5685  -26.2265   23.3628 H   0  0  0  0  0  0
  -21.6633  -26.7432   22.1223 H   0  0  0  0  0  0
  -19.6925  -25.6291   21.1240 H   0  0  0  0  0  0
  -19.6720  -27.3200   20.6782 H   0  0  0  0  0  0
  -17.4213  -26.6721   21.3978 H   0  0  0  0  0  0
  -18.0267  -26.0036   22.8972 H   0  0  0  0  0  0
  -19.7929  -30.7233   24.2310 H   0  0  0  0  0  0
  -17.5011  -31.6267   24.5138 H   0  0  0  0  0  0
  -15.5350  -30.2980   23.7650 H   0  0  0  0  0  0
  -15.8661  -28.0814   22.7085 H   0  0  0  0  0  0
  -24.5988  -30.6986   25.7822 H   0  0  0  0  0  0
  -24.8839  -32.2876   26.4804 H   0  0  0  0  0  0
  -25.8076  -30.9007   27.0300 H   0  0  0  0  0  0
  -26.2849  -29.6788   24.1204 H   0  0  0  0  0  0
  -27.4085  -29.7274   25.4604 H   0  0  0  0  0  0
  -27.8691  -30.4326   23.9286 H   0  0  0  0  0  0
  -27.2769  -33.3626   26.2031 H   0  0  0  0  0  0
  -28.3883  -32.6824   25.0262 H   0  0  0  0  0  0
  -28.0783  -31.8437   26.5371 H   0  0  0  0  0  0
  -28.2522  -38.0141   24.7615 H   0  0  0  0  0  0
  -28.1174  -36.2676   24.6066 H   0  0  0  0  0  0
  -27.2341  -37.1172   25.8838 H   0  0  0  0  0  0
  -20.9352  -29.8719   21.6906 H   0  0  0  0  0  0
  -26.0146  -38.2851   24.1558 H   0  0  0  0  0  0
  -28.6693  -17.9704   20.0455 H   0  0  0  0  0  0
  -32.1533  -16.5023   22.1348 H   0  0  0  0  0  0
  -33.3539  -22.5029   21.7521 H   0  0  0  0  0  0
  -33.8633  -20.7650   21.4025 H   0  0  0  0  0  0
  -31.0609  -21.8822   21.8416 H   0  0  0  0  0  0
  -27.6342  -23.8130   21.8789 H   0  0  0  0  0  0
  -27.0444  -24.1764   20.3013 H   0  0  0  0  0  0
  -29.9555  -23.3215   20.5858 H   0  0  0  0  0  0
  -28.8762  -23.0450   19.2623 H   0  0  0  0  0  0
  -29.5600  -25.5621   21.3821 H   0  0  0  0  0  0
  -28.0178  -26.0077   22.0111 H   0  0  0  0  0  0
  -27.5929  -21.3795   20.7945 H   0  0  0  0  0  0
  -28.8750  -21.5139   21.9484 H   0  0  0  0  0  0
  -28.9280  -15.4726   21.0006 H   0  0  0  0  0  0
  1 25  1  0  0  0
  1 30  2  0  0  0
  1 83  1  0  0  0
  2  3  1  0  0  0
  2 25  1  0  0  0
  2 86  1  0  0  0
  2 87  1  0  0  0
  3  4  1  0  0  0
  3 88  1  0  0  0
  3 89  1  0  0  0
  4  5  1  0  0  0
  4 90  1  0  0  0
  4 91  1  0  0  0
  5  6  1  0  0  0
  5 26  1  0  0  0
  5 92  1  0  0  0
  6 25  1  0  0  0
  6 93  1  0  0  0
  6 94  1  0  0  0
  7  8  2  0  0  0
  7 26  1  0  0  0
  7 29  1  0  0  0
  8  9  1  0  0  0
  8 22  1  0  0  0
  9 10  1  0  0  0
  9 27  2  0  0  0
 10 11  2  0  0  0
 10 15  1  0  0  0
 11 12  1  0  0  0
 11 95  1  0  0  0
 12 13  2  0  0  0
 12 96  1  0  0  0
 13 14  1  0  0  0
 13 31  1  0  0  0
 14 15  2  0  0  0
 14 97  1  0  0  0
 15 98  1  0  0  0
 16 17  2  0  0  0
 16 21  1  0  0  0
 16 31  1  0  0  0
 17 18  1  0  0  0
 17 99  1  0  0  0
 18 19  2  0  0  0
 18100  1  0  0  0
 19 20  1  0  0  0
 19 24  1  0  0  0
 20 21  2  0  0  0
 20101  1  0  0  0
 21 23  1  0  0  0
 22 28  1  0  0  0
 22 32  2  0  0  0
 26 27  1  0  0  0
 28102  1  0  0  0
 28103  1  0  0  0
 29104  1  0  0  0
 29105  1  0  0  0
 33 34  1  0  0  0
 33 66  1  0  0  0
 33 70  2  0  0  0
 34 36  1  0  0  0
 34 59  1  0  0  0
 34106  1  0  0  0
 35 44  2  0  0  0
 35 45  1  0  0  0
 35 68  1  0  0  0
 36 56  1  0  0  0
 36107  1  0  0  0
 37 39  1  0  0  0
 37 47  1  0  0  0
 37 66  1  0  0  0
 37108  1  0  0  0
 38 43  2  0  0  0
 38 46  1  0  0  0
 38 47  1  0  0  0
 39 64  1  0  0  0
 39 67  2  0  0  0
 40 52  1  0  0  0
 40 53  2  0  0  0
 40 58  1  0  0  0
 41109  1  0  0  0
 41110  1  0  0  0
 41111  1  0  0  0
 41 48  1  0  0  0
 42 43  1  0  0  0
 42 66  1  0  0  0
 42112  1  0  0  0
 42113  1  0  0  0
 43 44  1  0  0  0
 44114  1  0  0  0
 45 46  2  0  0  0
 45115  1  0  0  0
 46116  1  0  0  0
 47117  1  0  0  0
 47118  1  0  0  0
 48 56  1  0  0  0
 48 65  1  0  0  0
 48119  1  0  0  0
 49 50  1  0  0  0
 49 53  1  0  0  0
 49 64  1  0  0  0
 49120  1  0  0  0
 50 51  1  0  0  0
 50121  1  0  0  0
 50122  1  0  0  0
 51 52  1  0  0  0
 51123  1  0  0  0
 51124  1  0  0  0
 52125  1  0  0  0
 52126  1  0  0  0
 53 54  1  0  0  0
 54 55  2  0  0  0
 54127  1  0  0  0
 55 57  1  0  0  0
 55128  1  0  0  0
 56 69  2  0  0  0
 57 58  2  0  0  0
 57129  1  0  0  0
 58130  1  0  0  0
 59 60  1  0  0  0
 59 61  1  0  0  0
 59 62  1  0  0  0
 60131  1  0  0  0
 60132  1  0  0  0
 60133  1  0  0  0
 61134  1  0  0  0
 61135  1  0  0  0
 61136  1  0  0  0
 62137  1  0  0  0
 62138  1  0  0  0
 62139  1  0  0  0
 63 65  1  0  0  0
 63140  1  0  0  0
 63141  1  0  0  0
 63142  1  0  0  0
 64143  1  0  0  0
 65144  1  0  0  0
 68 81  1  0  0  0
 71 74  2  0  0  0
 71 75  1  0  0  0
 71145  1  0  0  0
 72 74  1  0  0  0
 72 76  2  0  0  0
 72146  1  0  0  0
 73 75  2  0  0  0
 73 76  1  0  0  0
 73 78  1  0  0  0
 74 83  1  0  0  0
 75 84  1  0  0  0
 76 85  1  0  0  0
 77 78  2  0  0  0
 77147  1  0  0  0
 77148  1  0  0  0
 78149  1  0  0  0
 79 80  1  0  0  0
 79 81  1  0  0  0
 79150  1  0  0  0
 79151  1  0  0  0
 80 82  1  0  0  0
 80152  1  0  0  0
 80153  1  0  0  0
 81154  1  0  0  0
 81155  1  0  0  0
 82 84  1  0  0  0
 82156  1  0  0  0
 82157  1  0  0  0
 83158  1  0  0  0
M  ISO  4   1 100  68 101  81 101  83 100
M  END
> <chiral flag>
0

> <version>
0

> <s_m_source_file>
/data/baiqing/PycharmProjects/Reinvent-master-3.2/result/LINK_invent/BTK/process_docking_weight1_custom_product_contain_oxygen_bond_distance_aromatic_linkinvent_7_9_3/rearranged_h_0124.sdf

> <i_m_source_file_index>
69

> <r_mmod_Potential_Energy-OPLS-2005>
125.316108703613

> <r_mmod_Stretch_Energy-OPLS-2005>
56.5312690734863

> <r_mmod_Bend_Energy-OPLS-2005>
120.644401550293

> <r_mmod_Torsional_Energy-OPLS-2005>
297.415588378906

> <r_mmod_Improper_Torsional_Energy-OPLS-2005>
5.87572431564331

> <r_mmod_Van_der_Waal_Energy-OPLS-2005>
146.431884765625

> <r_mmod_Electrostatic_Energy-OPLS-2005>
-321.024017333984

> <r_mmod_Solvation_Energy-OPLS-2005>
-207.412033081055

> <b_mmod_Minimization_Converged-OPLS-2005>
0

> <r_mmod_RMS_Derivative-OPLS-2005>
2.23601007461548

$$$$
69
                    3D
 Structure written by MMmdl.
152160  0  0  1  0            999 V2000
  -30.5981  -14.7301   20.4662 C   0  0  0  0  0  0
  -30.4423  -12.4478   19.4673 C   0  0  0  0  0  0
  -29.5115  -12.5151   18.2327 C   0  0  0  0  0  0
  -28.0327  -12.3406   18.6379 C   0  0  0  0  0  0
  -27.6474  -13.2139   19.8611 C   0  0  2  0  0  0
  -28.6939  -13.0651   20.9840 C   0  0  0  0  0  0
  -25.2551  -13.8159   20.5702 C   0  0  0  0  0  0
  -24.1799  -13.0436   20.9150 C   0  0  0  0  0  0
  -24.6365  -11.6901   20.8714 C   0  0  0  0  0  0
  -23.9041  -10.4292   21.0392 C   0  0  0  0  0  0
  -24.3607   -9.4214   21.9170 C   0  0  0  0  0  0
  -23.6287   -8.2248   22.0748 C   0  0  0  0  0  0
  -22.4265   -8.0283   21.3545 C   0  0  0  0  0  0
  -21.9893   -9.0251   20.4645 C   0  0  0  0  0  0
  -22.7212  -10.2131   20.3045 C   0  0  0  0  0  0
  -21.6856   -6.0738   22.5282 C   0  0  0  0  0  0
  -21.4014   -6.5639   23.8216 C   0  0  0  0  0  0
  -21.3653   -5.6786   24.9174 C   0  0  0  0  0  0
  -21.6041   -4.3050   24.7223 C   0  0  0  0  0  0
  -21.8823   -3.8149   23.4344 C   0  0  0  0  0  0
  -21.9196   -4.6967   22.3402 C   0  0  0  0  0  0
  -22.7828  -13.5237   21.1836 C   0  0  0  0  0  0
  -22.1664   -4.2154   21.0979 F   0  0  0  0  0  0
  -21.5625   -3.4533   25.7736 F   0  0  0  0  0  0
  -29.9912  -13.4837   20.4296 N   0  0  0  0  0  0
  -26.2962  -12.9324   20.3331 N   0  0  0  0  0  0
  -25.9292  -11.6481   20.5739 N   0  0  0  0  0  0
  -22.0481  -12.8240   22.0405 N   0  0  0  0  0  0
  -25.4346  -15.1877   20.4218 N   0  0  0  0  0  0
  -31.7854  -14.8117   20.1324 O   0  0  0  0  0  0
  -21.6634   -6.8881   21.4244 O   0  0  0  0  0  0
  -22.3502  -14.5539   20.6684 O   0  0  0  0  0  0
  -24.6286  -31.8564   23.1982 C   0  0  0  0  0  0
  -25.9121  -32.4761   23.8331 C   0  0  1  0  0  0
  -27.2284  -27.2938   20.1336 C   0  0  0  0  0  0
  -25.5927  -33.8563   24.2257 N   0  0  0  0  0  0
  -23.4245  -30.4769   21.5404 C   0  0  2  0  0  0
  -24.8733  -28.9221   20.1134 C   0  0  0  0  0  0
  -22.7490  -29.4603   22.4915 C   0  0  0  0  0  0
  -18.0290  -28.1383   22.8484 C   0  0  0  0  0  0
  -24.1487  -36.7287   23.2637 C   0  0  0  0  0  0
  -25.9663  -30.7811   21.3708 C   0  0  0  0  0  0
  -26.0419  -29.4045   20.7163 C   0  0  0  0  0  0
  -27.2246  -28.6043   20.7093 C   0  0  0  0  0  0
  -26.0398  -26.8658   19.5060 C   0  0  0  0  0  0
  -24.8750  -27.6595   19.4968 C   0  0  0  0  0  0
  -23.6421  -29.8052   20.1582 C   0  0  0  0  0  0
  -25.4112  -36.3072   24.0325 C   0  0  1  0  0  0
  -20.5890  -28.3689   23.1273 C   0  0  2  0  0  0
  -20.6772  -26.9407   22.5409 C   0  0  0  0  0  0
  -19.5752  -26.6379   21.5208 C   0  0  0  0  0  0
  -18.1933  -26.7926   22.1621 C   0  0  0  0  0  0
  -19.1542  -28.8854   23.2874 C   0  0  0  0  0  0
  -18.9464  -30.1454   23.8893 C   0  0  0  0  0  0
  -17.6463  -30.6583   24.0561 C   0  0  0  0  0  0
  -25.9052  -34.9443   23.5092 C   0  0  0  0  0  0
  -16.5355  -29.9081   23.6328 C   0  0  0  0  0  0
  -16.7277  -28.6497   23.0351 C   0  0  0  0  0  0
  -26.4499  -31.6583   25.0714 C   0  0  0  0  0  0
  -25.3730  -31.3731   26.1441 C   0  0  0  0  0  0
  -27.0343  -30.3002   24.6183 C   0  0  0  0  0  0
  -27.6049  -32.4326   25.7494 C   0  0  0  0  0  0
  -27.5574  -37.1798   24.8464 C   0  0  0  0  0  0
  -21.4198  -29.3041   22.3665 N   0  0  0  0  0  0
  -26.4287  -37.3770   23.9407 N   0  0  0  0  0  0
  -24.6920  -31.0558   22.0935 N   0  0  0  0  0  0
  -23.4202  -28.8144   23.3006 O   0  0  0  0  0  0
  -28.3481  -26.4437   20.1542 O   0  0  0  0  0  0
  -26.5621  -34.8915   22.4658 O   0  0  0  0  0  0
  -23.5444  -32.1366   23.7300 O   0  0  0  0  0  0
  -29.4337  -18.7306   20.6303 C   0  0  0  0  0  0
  -31.2193  -17.6888   19.3722 C   0  0  0  0  0  0
  -30.8958  -20.1223   19.2874 C   0  0  0  0  0  0
  -30.1433  -17.5015   20.2738 C   0  0  0  0  0  0
  -29.7783  -20.0565   20.1445 C   0  0  0  0  0  0
  -31.5922  -18.9623   18.9007 C   0  0  0  0  0  0
  -29.0494  -22.6063   19.4922 C   0  0  0  0  0  0
  -28.7274  -23.9561   19.4840 C   0  0  0  0  0  0
  -29.7383  -16.0728   20.7821 C   0  0  0  0  0  0
  -29.0335  -21.4141   20.5262 C   0  0  0  0  0  0
  -28.1817  -25.0014   20.5141 C   0  0  0  0  0  0
  -28.6720  -16.0233   21.4643 N   0  0  0  0  0  0
  -32.6428  -19.0730   18.0538 F   0  0  0  0  0  0
  -30.4093  -11.4564   19.9228 H   0  0  0  0  0  0
  -31.4788  -12.5883   19.1575 H   0  0  0  0  0  0
  -29.7910  -11.7491   17.5079 H   0  0  0  0  0  0
  -29.6422  -13.4750   17.7294 H   0  0  0  0  0  0
  -27.8776  -11.2872   18.8752 H   0  0  0  0  0  0
  -27.3796  -12.5608   17.7933 H   0  0  0  0  0  0
  -27.6615  -14.2478   19.5179 H   0  0  0  0  0  0
  -28.7391  -12.0249   21.3106 H   0  0  0  0  0  0
  -28.4209  -13.6147   21.8824 H   0  0  0  0  0  0
  -25.2757   -9.5699   22.4735 H   0  0  0  0  0  0
  -24.0005   -7.4641   22.7464 H   0  0  0  0  0  0
  -21.0824   -8.8763   19.8955 H   0  0  0  0  0  0
  -22.3663  -10.9670   19.6153 H   0  0  0  0  0  0
  -21.2006   -7.6146   23.9723 H   0  0  0  0  0  0
  -21.1465   -6.0513   25.9077 H   0  0  0  0  0  0
  -22.0608   -2.7614   23.2839 H   0  0  0  0  0  0
  -22.4092  -11.9899   22.4799 H   0  0  0  0  0  0
  -21.1107  -13.1285   22.2624 H   0  0  0  0  0  0
  -24.7012  -15.8638   20.6030 H   0  0  0  0  0  0
  -26.3490  -15.6091   20.3028 H   0  0  0  0  0  0
  -26.7193  -32.5425   23.1083 H   0  0  0  0  0  0
  -25.0092  -33.9706   25.0415 H   0  0  0  0  0  0
  -22.7200  -31.2978   21.3918 H   0  0  0  0  0  0
  -23.3747  -35.9620   23.3300 H   0  0  0  0  0  0
  -24.3574  -36.8909   22.2050 H   0  0  0  0  0  0
  -23.7245  -37.6489   23.6662 H   0  0  0  0  0  0
  -26.0985  -31.5422   20.6004 H   0  0  0  0  0  0
  -26.8469  -30.8336   22.0000 H   0  0  0  0  0  0
  -28.1248  -28.9729   21.1810 H   0  0  0  0  0  0
  -26.0050  -25.8993   19.0242 H   0  0  0  0  0  0
  -23.9801  -27.2854   19.0184 H   0  0  0  0  0  0
  -23.7647  -30.5784   19.3990 H   0  0  0  0  0  0
  -22.7626  -29.2338   19.8552 H   0  0  0  0  0  0
  -25.1294  -36.1915   25.0819 H   0  0  0  0  0  0
  -20.9988  -28.3266   24.1391 H   0  0  0  0  0  0
  -20.5656  -26.2304   23.3614 H   0  0  0  0  0  0
  -21.6642  -26.7421   22.1212 H   0  0  0  0  0  0
  -19.6909  -25.6287   21.1243 H   0  0  0  0  0  0
  -19.6688  -27.3187   20.6736 H   0  0  0  0  0  0
  -17.4199  -26.6672   21.4026 H   0  0  0  0  0  0
  -18.0331  -26.0068   22.9019 H   0  0  0  0  0  0
  -19.7940  -30.7269   24.2260 H   0  0  0  0  0  0
  -17.5019  -31.6263   24.5164 H   0  0  0  0  0  0
  -15.5355  -30.2983   23.7649 H   0  0  0  0  0  0
  -15.8677  -28.0814   22.7068 H   0  0  0  0  0  0
  -24.5907  -30.7075   25.7774 H   0  0  0  0  0  0
  -24.8924  -32.2904   26.4852 H   0  0  0  0  0  0
  -25.8058  -30.8923   27.0224 H   0  0  0  0  0  0
  -26.2917  -29.6751   24.1209 H   0  0  0  0  0  0
  -27.4033  -29.7259   25.4692 H   0  0  0  0  0  0
  -27.8791  -30.4275   23.9410 H   0  0  0  0  0  0
  -27.2645  -33.3624   26.2063 H   0  0  0  0  0  0
  -28.3870  -32.6892   25.0336 H   0  0  0  0  0  0
  -28.0709  -31.8462   26.5423 H   0  0  0  0  0  0
  -28.2594  -38.0092   24.7505 H   0  0  0  0  0  0
  -28.1070  -36.2624   24.6300 H   0  0  0  0  0  0
  -27.2293  -37.1457   25.8868 H   0  0  0  0  0  0
  -20.9377  -29.8773   21.6880 H   0  0  0  0  0  0
  -26.0165  -38.2841   24.1413 H   0  0  0  0  0  0
  -28.5882  -18.6623   21.2999 H   0  0  0  0  0  0
  -31.7971  -16.8591   19.0022 H   0  0  0  0  0  0
  -31.2398  -21.0727   18.9076 H   0  0  0  0  0  0
  -29.3730  -22.2608   18.5213 H   0  0  0  0  0  0
  -28.8653  -24.4280   18.5210 H   0  0  0  0  0  0
  -29.4373  -21.7791   21.4711 H   0  0  0  0  0  0
  -27.9884  -21.1724   20.7236 H   0  0  0  0  0  0
  -28.6963  -24.8336   21.4601 H   0  0  0  0  0  0
  -27.1358  -24.7654   20.7107 H   0  0  0  0  0  0
  -28.2675  -16.9442   21.5712 H   0  0  0  0  0  0
  1 25  1  0  0  0
  1 30  2  0  0  0
  1 79  1  0  0  0
  2  3  1  0  0  0
  2 25  1  0  0  0
  2 84  1  0  0  0
  2 85  1  0  0  0
  3  4  1  0  0  0
  3 86  1  0  0  0
  3 87  1  0  0  0
  4  5  1  0  0  0
  4 88  1  0  0  0
  4 89  1  0  0  0
  5  6  1  0  0  0
  5 26  1  0  0  0
  5 90  1  0  0  0
  6 25  1  0  0  0
  6 91  1  0  0  0
  6 92  1  0  0  0
  7  8  2  0  0  0
  7 26  1  0  0  0
  7 29  1  0  0  0
  8  9  1  0  0  0
  8 22  1  0  0  0
  9 10  1  0  0  0
  9 27  2  0  0  0
 10 11  2  0  0  0
 10 15  1  0  0  0
 11 12  1  0  0  0
 11 93  1  0  0  0
 12 13  2  0  0  0
 12 94  1  0  0  0
 13 14  1  0  0  0
 13 31  1  0  0  0
 14 15  2  0  0  0
 14 95  1  0  0  0
 15 96  1  0  0  0
 16 17  2  0  0  0
 16 21  1  0  0  0
 16 31  1  0  0  0
 17 18  1  0  0  0
 17 97  1  0  0  0
 18 19  2  0  0  0
 18 98  1  0  0  0
 19 20  1  0  0  0
 19 24  1  0  0  0
 20 21  2  0  0  0
 20 99  1  0  0  0
 21 23  1  0  0  0
 22 28  1  0  0  0
 22 32  2  0  0  0
 26 27  1  0  0  0
 28100  1  0  0  0
 28101  1  0  0  0
 29102  1  0  0  0
 29103  1  0  0  0
 33 34  1  0  0  0
 33 66  1  0  0  0
 33 70  2  0  0  0
 34 36  1  0  0  0
 34 59  1  0  0  0
 34104  1  0  0  0
 35 44  2  0  0  0
 35 45  1  0  0  0
 35 68  1  0  0  0
 36 56  1  0  0  0
 36105  1  0  0  0
 37 39  1  0  0  0
 37 47  1  0  0  0
 37 66  1  0  0  0
 37106  1  0  0  0
 38 43  2  0  0  0
 38 46  1  0  0  0
 38 47  1  0  0  0
 39 64  1  0  0  0
 39 67  2  0  0  0
 40 52  1  0  0  0
 40 53  2  0  0  0
 40 58  1  0  0  0
 41107  1  0  0  0
 41108  1  0  0  0
 41109  1  0  0  0
 41 48  1  0  0  0
 42 43  1  0  0  0
 42 66  1  0  0  0
 42110  1  0  0  0
 42111  1  0  0  0
 43 44  1  0  0  0
 44112  1  0  0  0
 45 46  2  0  0  0
 45113  1  0  0  0
 46114  1  0  0  0
 47115  1  0  0  0
 47116  1  0  0  0
 48 56  1  0  0  0
 48 65  1  0  0  0
 48117  1  0  0  0
 49 50  1  0  0  0
 49 53  1  0  0  0
 49 64  1  0  0  0
 49118  1  0  0  0
 50 51  1  0  0  0
 50119  1  0  0  0
 50120  1  0  0  0
 51 52  1  0  0  0
 51121  1  0  0  0
 51122  1  0  0  0
 52123  1  0  0  0
 52124  1  0  0  0
 53 54  1  0  0  0
 54 55  2  0  0  0
 54125  1  0  0  0
 55 57  1  0  0  0
 55126  1  0  0  0
 56 69  2  0  0  0
 57 58  2  0  0  0
 57127  1  0  0  0
 58128  1  0  0  0
 59 60  1  0  0  0
 59 61  1  0  0  0
 59 62  1  0  0  0
 60129  1  0  0  0
 60130  1  0  0  0
 60131  1  0  0  0
 61132  1  0  0  0
 61133  1  0  0  0
 61134  1  0  0  0
 62135  1  0  0  0
 62136  1  0  0  0
 62137  1  0  0  0
 63 65  1  0  0  0
 63138  1  0  0  0
 63139  1  0  0  0
 63140  1  0  0  0
 64141  1  0  0  0
 65142  1  0  0  0
 68 81  1  0  0  0
 71 74  2  0  0  0
 71 75  1  0  0  0
 71143  1  0  0  0
 72 74  1  0  0  0
 72 76  2  0  0  0
 72144  1  0  0  0
 73 75  2  0  0  0
 73 76  1  0  0  0
 73145  1  0  0  0
 74 79  1  0  0  0
 75 80  1  0  0  0
 76 83  1  0  0  0
 77 78  2  0  0  0
 77 80  1  0  0  0
 77146  1  0  0  0
 78 81  1  0  0  0
 78147  1  0  0  0
 79 82  2  0  0  0
 80148  1  0  0  0
 80149  1  0  0  0
 81150  1  0  0  0
 81151  1  0  0  0
 82152  1  0  0  0
M  ISO  4   1 100  68 101  79 100  81 101
M  END
> <chiral flag>
0

> <version>
0

> <s_m_source_file>
/data/baiqing/PycharmProjects/Reinvent-master-3.2/result/LINK_invent/BTK/process_docking_weight1_custom_product_contain_oxygen_bond_distance_aromatic_linkinvent_7_9_3/rearranged_h_0124.sdf

> <i_m_source_file_index>
70

> <r_mmod_Potential_Energy-OPLS-2005>
308.779449462891

> <r_mmod_Stretch_Energy-OPLS-2005>
127.14298248291

> <r_mmod_Bend_Energy-OPLS-2005>
180.037017822266

> <r_mmod_Torsional_Energy-OPLS-2005>
204.664672851562

> <r_mmod_Improper_Torsional_Energy-OPLS-2005>
3.56109642982483

> <r_mmod_Van_der_Waal_Energy-OPLS-2005>
153.343002319336

> <r_mmod_Electrostatic_Energy-OPLS-2005>
-241.185119628906

> <r_mmod_Solvation_Energy-OPLS-2005>
-185.543701171875

> <b_mmod_Minimization_Converged-OPLS-2005>
0

> <r_mmod_RMS_Derivative-OPLS-2005>
0.882171750068665

$$$$
70
                    3D
 Structure written by MMmdl.
159167  0  0  1  0            999 V2000
  -30.6329  -14.7472   20.4908 C   0  0  0  0  0  0
  -30.4286  -12.4642   19.4736 C   0  0  0  0  0  0
  -29.5104  -12.5328   18.2349 C   0  0  0  0  0  0
  -28.0330  -12.3713   18.6366 C   0  0  0  0  0  0
  -27.6464  -13.2441   19.8621 C   0  0  2  0  0  0
  -28.6942  -13.1631   20.9934 C   0  0  0  0  0  0
  -25.2511  -13.8196   20.5712 C   0  0  0  0  0  0
  -24.1801  -13.0429   20.9201 C   0  0  0  0  0  0
  -24.6409  -11.6911   20.8710 C   0  0  0  0  0  0
  -23.9059  -10.4292   21.0370 C   0  0  0  0  0  0
  -24.3590   -9.4213   21.9163 C   0  0  0  0  0  0
  -23.6267   -8.2249   22.0719 C   0  0  0  0  0  0
  -22.4249   -8.0284   21.3512 C   0  0  0  0  0  0
  -21.9895   -9.0266   20.4616 C   0  0  0  0  0  0
  -22.7217  -10.2147   20.3033 C   0  0  0  0  0  0
  -21.6851   -6.0732   22.5249 C   0  0  0  0  0  0
  -21.4038   -6.5629   23.8194 C   0  0  0  0  0  0
  -21.3678   -5.6780   24.9149 C   0  0  0  0  0  0
  -21.6054   -4.3044   24.7200 C   0  0  0  0  0  0
  -21.8833   -3.8140   23.4319 C   0  0  0  0  0  0
  -21.9194   -4.6960   22.3374 C   0  0  0  0  0  0
  -22.7829  -13.5205   21.1880 C   0  0  0  0  0  0
  -22.1655   -4.2158   21.0957 F   0  0  0  0  0  0
  -21.5615   -3.4523   25.7703 F   0  0  0  0  0  0
  -29.9929  -13.5273   20.4104 N   0  0  0  0  0  0
  -26.2973  -12.9441   20.3341 N   0  0  0  0  0  0
  -25.9350  -11.6553   20.5737 N   0  0  0  0  0  0
  -22.0468  -12.8194   22.0436 N   0  0  0  0  0  0
  -25.4175  -15.1917   20.4132 N   0  0  0  0  0  0
  -31.8004  -14.8424   20.0987 O   0  0  0  0  0  0
  -21.6635   -6.8863   21.4203 O   0  0  0  0  0  0
  -22.3501  -14.5519   20.6730 O   0  0  0  0  0  0
  -24.6326  -31.8496   23.1987 C   0  0  0  0  0  0
  -25.9138  -32.4726   23.8341 C   0  0  1  0  0  0
  -27.2291  -27.2386   20.1463 C   0  0  0  0  0  0
  -25.5921  -33.8534   24.2233 N   0  0  0  0  0  0
  -23.4312  -30.4695   21.5422 C   0  0  2  0  0  0
  -24.8834  -28.9086   20.1182 C   0  0  0  0  0  0
  -22.7512  -29.4542   22.4921 C   0  0  0  0  0  0
  -18.0284  -28.1361   22.8475 C   0  0  0  0  0  0
  -24.1491  -36.7267   23.2645 C   0  0  0  0  0  0
  -25.9814  -30.7553   21.3852 C   0  0  0  0  0  0
  -26.0570  -29.3770   20.7249 C   0  0  0  0  0  0
  -27.2352  -28.5572   20.7208 C   0  0  0  0  0  0
  -26.0329  -26.8365   19.5157 C   0  0  0  0  0  0
  -24.8782  -27.6470   19.5000 C   0  0  0  0  0  0
  -23.6547  -29.8001   20.1606 C   0  0  0  0  0  0
  -25.4112  -36.3040   24.0318 C   0  0  1  0  0  0
  -20.5893  -28.3647   23.1268 C   0  0  2  0  0  0
  -20.6765  -26.9349   22.5417 C   0  0  0  0  0  0
  -19.5751  -26.6345   21.5214 C   0  0  0  0  0  0
  -18.1929  -26.7909   22.1616 C   0  0  0  0  0  0
  -19.1541  -28.8824   23.2864 C   0  0  0  0  0  0
  -18.9462  -30.1446   23.8853 C   0  0  0  0  0  0
  -17.6462  -30.6564   24.0537 C   0  0  0  0  0  0
  -25.9058  -34.9417   23.5080 C   0  0  0  0  0  0
  -16.5349  -29.9050   23.6348 C   0  0  0  0  0  0
  -16.7279  -28.6471   23.0354 C   0  0  0  0  0  0
  -26.4488  -31.6579   25.0760 C   0  0  0  0  0  0
  -25.3732  -31.3781   26.1510 C   0  0  0  0  0  0
  -27.0321  -30.2971   24.6313 C   0  0  0  0  0  0
  -27.6026  -32.4346   25.7534 C   0  0  0  0  0  0
  -27.5572  -37.1775   24.8440 C   0  0  0  0  0  0
  -21.4215  -29.2991   22.3654 N   0  0  0  0  0  0
  -26.4268  -37.3747   23.9413 N   0  0  0  0  0  0
  -24.6998  -31.0441   22.0971 N   0  0  0  0  0  0
  -23.4192  -28.8086   23.3034 O   0  0  0  0  0  0
  -28.3223  -26.3374   20.1470 O   0  0  0  0  0  0
  -26.5630  -34.8887   22.4653 O   0  0  0  0  0  0
  -23.5468  -32.1309   23.7265 O   0  0  0  0  0  0
  -30.8227  -20.0440   21.8504 C   0  0  0  0  0  0
  -29.6006  -18.4536   20.5091 C   0  0  0  0  0  0
  -31.4903  -18.9696   22.4817 C   0  0  0  0  0  0
  -31.2282  -17.6102   22.1397 C   0  0  0  0  0  0
  -30.2744  -17.3009   21.1146 C   0  0  0  0  0  0
  -29.8466  -19.8508   20.8525 C   0  0  0  0  0  0
  -28.8035  -23.6583   20.0624 C   0  0  0  0  0  0
  -32.4902  -19.3344   23.5771 C   0  0  0  0  0  0
  -31.2345  -16.1181   24.2370 C   0  0  0  0  0  0
  -31.9598  -16.5202   22.9447 C   0  0  0  0  0  0
  -28.1257  -24.9576   20.7387 C   0  0  0  0  0  0
  -29.0876  -22.3267   20.9322 C   0  0  0  0  0  0
  -29.8938  -15.8832   20.8163 N   0  0  0  0  0  0
  -29.1155  -23.6840   18.8660 O   0  0  0  0  0  0
  -29.2153  -20.9893   20.2384 O   0  0  0  0  0  0
  -31.4686  -12.5860   19.1702 H   0  0  0  0  0  0
  -30.3700  -11.4825   19.9480 H   0  0  0  0  0  0
  -29.7885  -11.7632   17.5133 H   0  0  0  0  0  0
  -29.6499  -13.4911   17.7324 H   0  0  0  0  0  0
  -27.8615  -11.3173   18.8576 H   0  0  0  0  0  0
  -27.3912  -12.6197   17.7906 H   0  0  0  0  0  0
  -27.6483  -14.2740   19.5061 H   0  0  0  0  0  0
  -28.7341  -12.1590   21.4160 H   0  0  0  0  0  0
  -28.4295  -13.8289   21.8165 H   0  0  0  0  0  0
  -25.2721   -9.5693   22.4740 H   0  0  0  0  0  0
  -23.9994   -7.4623   22.7411 H   0  0  0  0  0  0
  -21.0846   -8.8744   19.8916 H   0  0  0  0  0  0
  -22.3636  -10.9664   19.6135 H   0  0  0  0  0  0
  -21.2042   -7.6138   23.9696 H   0  0  0  0  0  0
  -21.1489   -6.0502   25.9048 H   0  0  0  0  0  0
  -22.0600   -2.7613   23.2801 H   0  0  0  0  0  0
  -22.4107  -11.9884   22.4863 H   0  0  0  0  0  0
  -21.1080  -13.1215   22.2607 H   0  0  0  0  0  0
  -24.6471  -15.8406   20.5312 H   0  0  0  0  0  0
  -26.2624  -15.6381   20.0811 H   0  0  0  0  0  0
  -26.7200  -32.5344   23.1077 H   0  0  0  0  0  0
  -25.0045  -33.9678   25.0359 H   0  0  0  0  0  0
  -22.7280  -31.2913   21.3947 H   0  0  0  0  0  0
  -23.3749  -35.9601   23.3276 H   0  0  0  0  0  0
  -24.3587  -36.8930   22.2070 H   0  0  0  0  0  0
  -23.7252  -37.6455   23.6706 H   0  0  0  0  0  0
  -26.1369  -31.5181   20.6215 H   0  0  0  0  0  0
  -26.8511  -30.7928   22.0297 H   0  0  0  0  0  0
  -28.1362  -28.9167   21.1967 H   0  0  0  0  0  0
  -25.9852  -25.8677   19.0391 H   0  0  0  0  0  0
  -23.9816  -27.2800   19.0187 H   0  0  0  0  0  0
  -23.7856  -30.5766   19.4065 H   0  0  0  0  0  0
  -22.7712  -29.2389   19.8522 H   0  0  0  0  0  0
  -25.1301  -36.1867   25.0806 H   0  0  0  0  0  0
  -20.9985  -28.3234   24.1397 H   0  0  0  0  0  0
  -20.5643  -26.2241   23.3618 H   0  0  0  0  0  0
  -21.6638  -26.7346   22.1233 H   0  0  0  0  0  0
  -19.6898  -25.6248   21.1246 H   0  0  0  0  0  0
  -19.6726  -27.3146   20.6741 H   0  0  0  0  0  0
  -17.4195  -26.6637   21.4025 H   0  0  0  0  0  0
  -18.0325  -26.0056   22.9029 H   0  0  0  0  0  0
  -19.7947  -30.7280   24.2194 H   0  0  0  0  0  0
  -17.5012  -31.6257   24.5117 H   0  0  0  0  0  0
  -15.5347  -30.2917   23.7713 H   0  0  0  0  0  0
  -15.8675  -28.0782   22.7076 H   0  0  0  0  0  0
  -24.5843  -30.7188   25.7882 H   0  0  0  0  0  0
  -24.9025  -32.2983   26.4979 H   0  0  0  0  0  0
  -25.8076  -30.8933   27.0262 H   0  0  0  0  0  0
  -26.2925  -29.6744   24.1272 H   0  0  0  0  0  0
  -27.3851  -29.7229   25.4888 H   0  0  0  0  0  0
  -27.8871  -30.4178   23.9665 H   0  0  0  0  0  0
  -27.2585  -33.3623   26.2114 H   0  0  0  0  0  0
  -28.3837  -32.6941   25.0386 H   0  0  0  0  0  0
  -28.0684  -31.8489   26.5466 H   0  0  0  0  0  0
  -28.2535  -38.0123   24.7519 H   0  0  0  0  0  0
  -28.1120  -36.2649   24.6204 H   0  0  0  0  0  0
  -27.2301  -37.1343   25.8843 H   0  0  0  0  0  0
  -20.9388  -29.8700   21.6860 H   0  0  0  0  0  0
  -26.0129  -38.2796   24.1477 H   0  0  0  0  0  0
  -31.0947  -21.0412   22.1553 H   0  0  0  0  0  0
  -28.8535  -18.2566   19.7538 H   0  0  0  0  0  0
  -32.5174  -20.4065   23.7627 H   0  0  0  0  0  0
  -33.5048  -19.0242   23.3227 H   0  0  0  0  0  0
  -32.2184  -18.8645   24.5201 H   0  0  0  0  0  0
  -30.2474  -15.7089   24.0249 H   0  0  0  0  0  0
  -31.1024  -16.9575   24.9183 H   0  0  0  0  0  0
  -31.8050  -15.3613   24.7771 H   0  0  0  0  0  0
  -32.9738  -16.8438   23.1741 H   0  0  0  0  0  0
  -32.1406  -15.6234   22.3729 H   0  0  0  0  0  0
  -28.4937  -24.9982   21.7637 H   0  0  0  0  0  0
  -27.0619  -24.7438   20.8233 H   0  0  0  0  0  0
  -28.2961  -22.2353   21.6748 H   0  0  0  0  0  0
  -29.9910  -22.5585   21.4883 H   0  0  0  0  0  0
  -28.9045  -15.6972   20.8836 H   0  0  0  0  0  0
  1 25  1  0  0  0
  1 30  2  0  0  0
  1 83  1  0  0  0
  2  3  1  0  0  0
  2 25  1  0  0  0
  2 86  1  0  0  0
  2 87  1  0  0  0
  3  4  1  0  0  0
  3 88  1  0  0  0
  3 89  1  0  0  0
  4  5  1  0  0  0
  4 90  1  0  0  0
  4 91  1  0  0  0
  5  6  1  0  0  0
  5 26  1  0  0  0
  5 92  1  0  0  0
  6 25  1  0  0  0
  6 93  1  0  0  0
  6 94  1  0  0  0
  7  8  2  0  0  0
  7 26  1  0  0  0
  7 29  1  0  0  0
  8  9  1  0  0  0
  8 22  1  0  0  0
  9 10  1  0  0  0
  9 27  2  0  0  0
 10 11  2  0  0  0
 10 15  1  0  0  0
 11 12  1  0  0  0
 11 95  1  0  0  0
 12 13  2  0  0  0
 12 96  1  0  0  0
 13 14  1  0  0  0
 13 31  1  0  0  0
 14 15  2  0  0  0
 14 97  1  0  0  0
 15 98  1  0  0  0
 16 17  2  0  0  0
 16 21  1  0  0  0
 16 31  1  0  0  0
 17 18  1  0  0  0
 17 99  1  0  0  0
 18 19  2  0  0  0
 18100  1  0  0  0
 19 20  1  0  0  0
 19 24  1  0  0  0
 20 21  2  0  0  0
 20101  1  0  0  0
 21 23  1  0  0  0
 22 28  1  0  0  0
 22 32  2  0  0  0
 26 27  1  0  0  0
 28102  1  0  0  0
 28103  1  0  0  0
 29104  1  0  0  0
 29105  1  0  0  0
 33 34  1  0  0  0
 33 66  1  0  0  0
 33 70  2  0  0  0
 34 36  1  0  0  0
 34 59  1  0  0  0
 34106  1  0  0  0
 35 44  2  0  0  0
 35 45  1  0  0  0
 35 68  1  0  0  0
 36 56  1  0  0  0
 36107  1  0  0  0
 37 39  1  0  0  0
 37 47  1  0  0  0
 37 66  1  0  0  0
 37108  1  0  0  0
 38 43  2  0  0  0
 38 46  1  0  0  0
 38 47  1  0  0  0
 39 64  1  0  0  0
 39 67  2  0  0  0
 40 52  1  0  0  0
 40 53  2  0  0  0
 40 58  1  0  0  0
 41109  1  0  0  0
 41110  1  0  0  0
 41111  1  0  0  0
 41 48  1  0  0  0
 42 43  1  0  0  0
 42 66  1  0  0  0
 42112  1  0  0  0
 42113  1  0  0  0
 43 44  1  0  0  0
 44114  1  0  0  0
 45 46  2  0  0  0
 45115  1  0  0  0
 46116  1  0  0  0
 47117  1  0  0  0
 47118  1  0  0  0
 48 56  1  0  0  0
 48 65  1  0  0  0
 48119  1  0  0  0
 49 50  1  0  0  0
 49 53  1  0  0  0
 49 64  1  0  0  0
 49120  1  0  0  0
 50 51  1  0  0  0
 50121  1  0  0  0
 50122  1  0  0  0
 51 52  1  0  0  0
 51123  1  0  0  0
 51124  1  0  0  0
 52125  1  0  0  0
 52126  1  0  0  0
 53 54  1  0  0  0
 54 55  2  0  0  0
 54127  1  0  0  0
 55 57  1  0  0  0
 55128  1  0  0  0
 56 69  2  0  0  0
 57 58  2  0  0  0
 57129  1  0  0  0
 58130  1  0  0  0
 59 60  1  0  0  0
 59 61  1  0  0  0
 59 62  1  0  0  0
 60131  1  0  0  0
 60132  1  0  0  0
 60133  1  0  0  0
 61134  1  0  0  0
 61135  1  0  0  0
 61136  1  0  0  0
 62137  1  0  0  0
 62138  1  0  0  0
 62139  1  0  0  0
 63 65  1  0  0  0
 63140  1  0  0  0
 63141  1  0  0  0
 63142  1  0  0  0
 64143  1  0  0  0
 65144  1  0  0  0
 68 81  1  0  0  0
 71 73  2  0  0  0
 71 76  1  0  0  0
 71145  1  0  0  0
 72 75  1  0  0  0
 72 76  2  0  0  0
 72146  1  0  0  0
 73 74  1  0  0  0
 73 78  1  0  0  0
 74 75  2  0  0  0
 74 80  1  0  0  0
 75 83  1  0  0  0
 76 85  1  0  0  0
 77 81  1  0  0  0
 77 82  1  0  0  0
 77 84  2  0  0  0
 78147  1  0  0  0
 78148  1  0  0  0
 78149  1  0  0  0
 79 80  1  0  0  0
 79150  1  0  0  0
 79151  1  0  0  0
 79152  1  0  0  0
 80153  1  0  0  0
 80154  1  0  0  0
 81155  1  0  0  0
 81156  1  0  0  0
 82 85  1  0  0  0
 82157  1  0  0  0
 82158  1  0  0  0
 83159  1  0  0  0
M  ISO  4   1 100  68 101  81 101  83 100
M  END
> <chiral flag>
0

> <version>
0

> <s_m_source_file>
/data/baiqing/PycharmProjects/Reinvent-master-3.2/result/LINK_invent/BTK/process_docking_weight1_custom_product_contain_oxygen_bond_distance_aromatic_linkinvent_7_9_3/rearranged_h_0124.sdf

> <i_m_source_file_index>
71

> <r_mmod_Potential_Energy-OPLS-2005>
254.212890625

> <r_mmod_Stretch_Energy-OPLS-2005>
149.183364868164

> <r_mmod_Bend_Energy-OPLS-2005>
178.272720336914

> <r_mmod_Torsional_Energy-OPLS-2005>
252.100952148438

> <r_mmod_Improper_Torsional_Energy-OPLS-2005>
4.89315700531006

> <r_mmod_Van_der_Waal_Energy-OPLS-2005>
145.773040771484

> <r_mmod_Electrostatic_Energy-OPLS-2005>
-325.761322021484

> <r_mmod_Solvation_Energy-OPLS-2005>
-238.69580078125

> <b_mmod_Minimization_Converged-OPLS-2005>
0

> <r_mmod_RMS_Derivative-OPLS-2005>
3.60762214660645

$$$$
71
                    3D
 Structure written by MMmdl.
157165  0  0  1  0            999 V2000
  -30.6841  -14.5015   20.5273 C   0  0  0  0  0  0
  -30.4258  -12.3050   19.4471 C   0  0  0  0  0  0
  -29.5077  -12.4897   18.2196 C   0  0  0  0  0  0
  -28.0244  -12.3637   18.6207 C   0  0  0  0  0  0
  -27.6625  -13.2100   19.8716 C   0  0  2  0  0  0
  -28.7010  -13.0108   21.0003 C   0  0  0  0  0  0
  -25.2598  -13.8167   20.5681 C   0  0  0  0  0  0
  -24.1840  -13.0442   20.9151 C   0  0  0  0  0  0
  -24.6391  -11.6909   20.8703 C   0  0  0  0  0  0
  -23.9053  -10.4294   21.0385 C   0  0  0  0  0  0
  -24.3601   -9.4212   21.9167 C   0  0  0  0  0  0
  -23.6272   -8.2251   22.0747 C   0  0  0  0  0  0
  -22.4257   -8.0279   21.3545 C   0  0  0  0  0  0
  -21.9890   -9.0249   20.4649 C   0  0  0  0  0  0
  -22.7217  -10.2127   20.3048 C   0  0  0  0  0  0
  -21.6852   -6.0723   22.5271 C   0  0  0  0  0  0
  -21.4017   -6.5629   23.8205 C   0  0  0  0  0  0
  -21.3666   -5.6780   24.9165 C   0  0  0  0  0  0
  -21.6047   -4.3043   24.7219 C   0  0  0  0  0  0
  -21.8819   -3.8138   23.4337 C   0  0  0  0  0  0
  -21.9198   -4.6952   22.3395 C   0  0  0  0  0  0
  -22.7864  -13.5245   21.1821 C   0  0  0  0  0  0
  -22.1668   -4.2143   21.0973 F   0  0  0  0  0  0
  -21.5628   -3.4532   25.7730 F   0  0  0  0  0  0
  -30.0361  -13.3062   20.4545 N   0  0  0  0  0  0
  -26.3028  -12.9341   20.3326 N   0  0  0  0  0  0
  -25.9318  -11.6498   20.5718 N   0  0  0  0  0  0
  -22.0498  -12.8251   22.0380 N   0  0  0  0  0  0
  -25.4350  -15.1882   20.4151 N   0  0  0  0  0  0
  -31.8216  -14.6729   20.0795 O   0  0  0  0  0  0
  -21.6634   -6.8865   21.4235 O   0  0  0  0  0  0
  -22.3556  -14.5558   20.6677 O   0  0  0  0  0  0
  -24.6176  -31.8667   23.2083 C   0  0  0  0  0  0
  -25.9067  -32.4812   23.8377 C   0  0  1  0  0  0
  -27.2262  -27.4046   20.0974 C   0  0  0  0  0  0
  -25.5911  -33.8610   24.2307 N   0  0  0  0  0  0
  -23.4051  -30.4918   21.5505 C   0  0  2  0  0  0
  -24.8494  -28.9578   20.1120 C   0  0  0  0  0  0
  -22.7420  -29.4661   22.4981 C   0  0  0  0  0  0
  -18.0274  -28.1378   22.8491 C   0  0  0  0  0  0
  -24.1488  -36.7308   23.2635 C   0  0  0  0  0  0
  -25.9378  -30.8241   21.3652 C   0  0  0  0  0  0
  -26.0137  -29.4578   20.7092 C   0  0  0  0  0  0
  -27.2058  -28.6905   20.6961 C   0  0  0  0  0  0
  -26.0419  -26.9354   19.4820 C   0  0  0  0  0  0
  -24.8607  -27.6975   19.4941 C   0  0  0  0  0  0
  -23.6132  -29.8276   20.1641 C   0  0  0  0  0  0
  -25.4108  -36.3100   24.0330 C   0  0  1  0  0  0
  -20.5867  -28.3671   23.1313 C   0  0  2  0  0  0
  -20.6769  -26.9406   22.5416 C   0  0  0  0  0  0
  -19.5743  -26.6389   21.5213 C   0  0  0  0  0  0
  -18.1922  -26.7926   22.1625 C   0  0  0  0  0  0
  -19.1525  -28.8838   23.2899 C   0  0  0  0  0  0
  -18.9455  -30.1447   23.8911 C   0  0  0  0  0  0
  -17.6458  -30.6588   24.0567 C   0  0  0  0  0  0
  -25.9041  -34.9468   23.5115 C   0  0  0  0  0  0
  -16.5349  -29.9092   23.6325 C   0  0  0  0  0  0
  -16.7265  -28.6506   23.0350 C   0  0  0  0  0  0
  -26.4482  -31.6596   25.0714 C   0  0  0  0  0  0
  -25.3738  -31.3725   26.1455 C   0  0  0  0  0  0
  -27.0311  -30.3031   24.6111 C   0  0  0  0  0  0
  -27.6050  -32.4318   25.7485 C   0  0  0  0  0  0
  -27.5580  -37.1807   24.8462 C   0  0  0  0  0  0
  -21.4146  -29.3041   22.3724 N   0  0  0  0  0  0
  -26.4290  -37.3788   23.9410 N   0  0  0  0  0  0
  -24.6720  -31.0747   22.0998 N   0  0  0  0  0  0
  -23.4182  -28.8204   23.3031 O   0  0  0  0  0  0
  -28.3731  -26.6242   20.1354 O   0  0  0  0  0  0
  -26.5607  -34.8926   22.4681 O   0  0  0  0  0  0
  -23.5365  -32.1437   23.7465 O   0  0  0  0  0  0
  -29.1695  -17.8039   18.0713 C   0  0  0  0  0  0
  -29.5239  -16.6663   18.8103 C   0  0  0  0  0  0
  -29.5797  -18.0215   20.8258 C   0  0  0  0  0  0
  -29.2358  -19.1986   20.0926 C   0  0  0  0  0  0
  -29.0033  -19.0590   18.6919 C   0  0  0  0  0  0
  -29.7207  -16.7498   20.2041 C   0  0  0  0  0  0
  -29.1456  -20.4931   20.8455 C   0  0  0  0  0  0
  -29.1720  -21.7819   20.4139 C   0  0  0  0  0  0
  -28.5161  -20.1933   17.8059 C   0  0  0  0  0  0
  -29.0236  -22.9903   21.3421 C   0  0  0  0  0  0
  -29.3655  -24.3999   20.7591 C   0  0  0  0  0  0
  -28.1712  -25.1891   20.1607 C   0  0  0  0  0  0
  -29.9507  -15.5505   20.9621 N   0  0  0  0  0  0
  -31.4745  -12.3880   19.1555 H   0  0  0  0  0  0
  -30.3128  -11.3015   19.8592 H   0  0  0  0  0  0
  -29.7504  -11.7501   17.4559 H   0  0  0  0  0  0
  -29.6856  -13.4634   17.7621 H   0  0  0  0  0  0
  -27.8243  -11.3093   18.8144 H   0  0  0  0  0  0
  -27.3847  -12.6407   17.7824 H   0  0  0  0  0  0
  -27.7002  -14.2548   19.5636 H   0  0  0  0  0  0
  -28.6734  -11.9821   21.3614 H   0  0  0  0  0  0
  -28.4612  -13.6324   21.8645 H   0  0  0  0  0  0
  -25.2749   -9.5688   22.4733 H   0  0  0  0  0  0
  -23.9987   -7.4646   22.7467 H   0  0  0  0  0  0
  -21.0819   -8.8757   19.8954 H   0  0  0  0  0  0
  -22.3666  -10.9654   19.6157 H   0  0  0  0  0  0
  -21.2008   -7.6136   23.9695 H   0  0  0  0  0  0
  -21.1491   -6.0518   25.9066 H   0  0  0  0  0  0
  -22.0600   -2.7598   23.2834 H   0  0  0  0  0  0
  -22.4102  -11.9916   22.4792 H   0  0  0  0  0  0
  -21.1124  -13.1301   22.2587 H   0  0  0  0  0  0
  -24.6740  -15.8484   20.5290 H   0  0  0  0  0  0
  -26.3011  -15.6276   20.1288 H   0  0  0  0  0  0
  -26.7137  -32.5508   23.1135 H   0  0  0  0  0  0
  -25.0066  -33.9767   25.0457 H   0  0  0  0  0  0
  -22.6942  -31.3092   21.4130 H   0  0  0  0  0  0
  -23.3742  -35.9650   23.3308 H   0  0  0  0  0  0
  -24.3581  -36.8917   22.2049 H   0  0  0  0  0  0
  -23.7256  -37.6520   23.6649 H   0  0  0  0  0  0
  -26.0535  -31.5896   20.5963 H   0  0  0  0  0  0
  -26.8246  -30.8749   21.9855 H   0  0  0  0  0  0
  -28.1010  -29.0702   21.1689 H   0  0  0  0  0  0
  -26.0104  -25.9740   18.9902 H   0  0  0  0  0  0
  -23.9676  -27.3068   19.0259 H   0  0  0  0  0  0
  -23.7243  -30.6046   19.4065 H   0  0  0  0  0  0
  -22.7348  -29.2513   19.8664 H   0  0  0  0  0  0
  -25.1288  -36.1954   25.0822 H   0  0  0  0  0  0
  -20.9956  -28.3241   24.1433 H   0  0  0  0  0  0
  -20.5677  -26.2279   23.3606 H   0  0  0  0  0  0
  -21.6642  -26.7455   22.1207 H   0  0  0  0  0  0
  -19.6906  -25.6303   21.1239 H   0  0  0  0  0  0
  -19.6679  -27.3204   20.6746 H   0  0  0  0  0  0
  -17.4193  -26.6675   21.4027 H   0  0  0  0  0  0
  -18.0320  -26.0068   22.9020 H   0  0  0  0  0  0
  -19.7932  -30.7256   24.2288 H   0  0  0  0  0  0
  -17.5017  -31.6270   24.5169 H   0  0  0  0  0  0
  -15.5350  -30.3001   23.7642 H   0  0  0  0  0  0
  -15.8664  -28.0833   22.7058 H   0  0  0  0  0  0
  -24.5898  -30.7085   25.7799 H   0  0  0  0  0  0
  -24.8942  -32.2890   26.4896 H   0  0  0  0  0  0
  -25.8073  -30.8897   27.0220 H   0  0  0  0  0  0
  -26.2865  -29.6794   24.1149 H   0  0  0  0  0  0
  -27.4057  -29.7266   25.4581 H   0  0  0  0  0  0
  -27.8709  -30.4341   23.9282 H   0  0  0  0  0  0
  -27.2659  -33.3606   26.2087 H   0  0  0  0  0  0
  -28.3849  -32.6899   25.0308 H   0  0  0  0  0  0
  -28.0728  -31.8426   26.5384 H   0  0  0  0  0  0
  -28.2598  -38.0103   24.7507 H   0  0  0  0  0  0
  -28.1074  -36.2634   24.6283 H   0  0  0  0  0  0
  -27.2299  -37.1459   25.8865 H   0  0  0  0  0  0
  -20.9304  -29.8764   21.6950 H   0  0  0  0  0  0
  -26.0171  -38.2865   24.1407 H   0  0  0  0  0  0
  -28.9968  -17.6930   17.0092 H   0  0  0  0  0  0
  -29.6033  -15.7235   18.2902 H   0  0  0  0  0  0
  -29.7322  -18.0960   21.8936 H   0  0  0  0  0  0
  -29.0198  -20.3644   21.9120 H   0  0  0  0  0  0
  -29.3023  -22.0252   19.3729 H   0  0  0  0  0  0
  -28.0833  -19.8111   16.8808 H   0  0  0  0  0  0
  -29.3404  -20.8499   17.5284 H   0  0  0  0  0  0
  -27.7321  -20.7704   18.2963 H   0  0  0  0  0  0
  -29.6838  -22.8051   22.1907 H   0  0  0  0  0  0
  -28.0150  -22.9885   21.7573 H   0  0  0  0  0  0
  -30.1882  -24.3410   20.0458 H   0  0  0  0  0  0
  -29.7452  -24.9965   21.5899 H   0  0  0  0  0  0
  -27.2915  -24.9687   20.7681 H   0  0  0  0  0  0
  -27.9656  -24.8216   19.1543 H   0  0  0  0  0  0
  -29.1970  -15.3011   21.5851 H   0  0  0  0  0  0
  1 25  1  0  0  0
  1 30  2  0  0  0
  1 83  1  0  0  0
  2  3  1  0  0  0
  2 25  1  0  0  0
  2 84  1  0  0  0
  2 85  1  0  0  0
  3  4  1  0  0  0
  3 86  1  0  0  0
  3 87  1  0  0  0
  4  5  1  0  0  0
  4 88  1  0  0  0
  4 89  1  0  0  0
  5  6  1  0  0  0
  5 26  1  0  0  0
  5 90  1  0  0  0
  6 25  1  0  0  0
  6 91  1  0  0  0
  6 92  1  0  0  0
  7  8  2  0  0  0
  7 26  1  0  0  0
  7 29  1  0  0  0
  8  9  1  0  0  0
  8 22  1  0  0  0
  9 10  1  0  0  0
  9 27  2  0  0  0
 10 11  2  0  0  0
 10 15  1  0  0  0
 11 12  1  0  0  0
 11 93  1  0  0  0
 12 13  2  0  0  0
 12 94  1  0  0  0
 13 14  1  0  0  0
 13 31  1  0  0  0
 14 15  2  0  0  0
 14 95  1  0  0  0
 15 96  1  0  0  0
 16 17  2  0  0  0
 16 21  1  0  0  0
 16 31  1  0  0  0
 17 18  1  0  0  0
 17 97  1  0  0  0
 18 19  2  0  0  0
 18 98  1  0  0  0
 19 20  1  0  0  0
 19 24  1  0  0  0
 20 21  2  0  0  0
 20 99  1  0  0  0
 21 23  1  0  0  0
 22 28  1  0  0  0
 22 32  2  0  0  0
 26 27  1  0  0  0
 28100  1  0  0  0
 28101  1  0  0  0
 29102  1  0  0  0
 29103  1  0  0  0
 33 34  1  0  0  0
 33 66  1  0  0  0
 33 70  2  0  0  0
 34 36  1  0  0  0
 34 59  1  0  0  0
 34104  1  0  0  0
 35 44  2  0  0  0
 35 45  1  0  0  0
 35 68  1  0  0  0
 36 56  1  0  0  0
 36105  1  0  0  0
 37 39  1  0  0  0
 37 47  1  0  0  0
 37 66  1  0  0  0
 37106  1  0  0  0
 38 43  2  0  0  0
 38 46  1  0  0  0
 38 47  1  0  0  0
 39 64  1  0  0  0
 39 67  2  0  0  0
 40 52  1  0  0  0
 40 53  2  0  0  0
 40 58  1  0  0  0
 41107  1  0  0  0
 41108  1  0  0  0
 41109  1  0  0  0
 41 48  1  0  0  0
 42 43  1  0  0  0
 42 66  1  0  0  0
 42110  1  0  0  0
 42111  1  0  0  0
 43 44  1  0  0  0
 44112  1  0  0  0
 45 46  2  0  0  0
 45113  1  0  0  0
 46114  1  0  0  0
 47115  1  0  0  0
 47116  1  0  0  0
 48 56  1  0  0  0
 48 65  1  0  0  0
 48117  1  0  0  0
 49 50  1  0  0  0
 49 53  1  0  0  0
 49 64  1  0  0  0
 49118  1  0  0  0
 50 51  1  0  0  0
 50119  1  0  0  0
 50120  1  0  0  0
 51 52  1  0  0  0
 51121  1  0  0  0
 51122  1  0  0  0
 52123  1  0  0  0
 52124  1  0  0  0
 53 54  1  0  0  0
 54 55  2  0  0  0
 54125  1  0  0  0
 55 57  1  0  0  0
 55126  1  0  0  0
 56 69  2  0  0  0
 57 58  2  0  0  0
 57127  1  0  0  0
 58128  1  0  0  0
 59 60  1  0  0  0
 59 61  1  0  0  0
 59 62  1  0  0  0
 60129  1  0  0  0
 60130  1  0  0  0
 60131  1  0  0  0
 61132  1  0  0  0
 61133  1  0  0  0
 61134  1  0  0  0
 62135  1  0  0  0
 62136  1  0  0  0
 62137  1  0  0  0
 63 65  1  0  0  0
 63138  1  0  0  0
 63139  1  0  0  0
 63140  1  0  0  0
 64141  1  0  0  0
 65142  1  0  0  0
 68 82  1  0  0  0
 71 72  2  0  0  0
 71 75  1  0  0  0
 71143  1  0  0  0
 72 76  1  0  0  0
 72144  1  0  0  0
 73 74  1  0  0  0
 73 76  2  0  0  0
 73145  1  0  0  0
 74 75  2  0  0  0
 74 77  1  0  0  0
 75 79  1  0  0  0
 76 83  1  0  0  0
 77 78  2  0  0  0
 77146  1  0  0  0
 78 80  1  0  0  0
 78147  1  0  0  0
 79148  1  0  0  0
 79149  1  0  0  0
 79150  1  0  0  0
 80 81  1  0  0  0
 80151  1  0  0  0
 80152  1  0  0  0
 81 82  1  0  0  0
 81153  1  0  0  0
 81154  1  0  0  0
 82155  1  0  0  0
 82156  1  0  0  0
 83157  1  0  0  0
M  ISO  4   1 100  68 101  82 101  83 100
M  END
> <chiral flag>
0

> <version>
0

> <s_m_source_file>
/data/baiqing/PycharmProjects/Reinvent-master-3.2/result/LINK_invent/BTK/process_docking_weight1_custom_product_contain_oxygen_bond_distance_aromatic_linkinvent_7_9_3/rearranged_h_0124.sdf

> <i_m_source_file_index>
72

> <r_mmod_Potential_Energy-OPLS-2005>
32.5816268920898

> <r_mmod_Stretch_Energy-OPLS-2005>
45.6307907104492

> <r_mmod_Bend_Energy-OPLS-2005>
105.298713684082

> <r_mmod_Torsional_Energy-OPLS-2005>
265.013458251953

> <r_mmod_Improper_Torsional_Energy-OPLS-2005>
6.46704339981079

> <r_mmod_Van_der_Waal_Energy-OPLS-2005>
156.291061401367

> <r_mmod_Electrostatic_Energy-OPLS-2005>
-360.215545654297

> <r_mmod_Solvation_Energy-OPLS-2005>
-204.573516845703

> <b_mmod_Minimization_Converged-OPLS-2005>
0

> <r_mmod_RMS_Derivative-OPLS-2005>
1.34924864768982

$$$$
72
                    3D
 Structure written by MMmdl.
161169  0  0  1  0            999 V2000
  -30.6710  -14.5338   20.6065 C   0  0  0  0  0  0
  -30.4396  -12.3549   19.4268 C   0  0  0  0  0  0
  -29.5039  -12.5214   18.2099 C   0  0  0  0  0  0
  -28.0224  -12.3794   18.6165 C   0  0  0  0  0  0
  -27.6645  -13.2051   19.8809 C   0  0  2  0  0  0
  -28.7063  -12.9706   20.9940 C   0  0  0  0  0  0
  -25.2610  -13.8138   20.5711 C   0  0  0  0  0  0
  -24.1845  -13.0417   20.9149 C   0  0  0  0  0  0
  -24.6401  -11.6887   20.8702 C   0  0  0  0  0  0
  -23.9067  -10.4278   21.0381 C   0  0  0  0  0  0
  -24.3619   -9.4202   21.9168 C   0  0  0  0  0  0
  -23.6290   -8.2242   22.0753 C   0  0  0  0  0  0
  -22.4271   -8.0276   21.3544 C   0  0  0  0  0  0
  -21.9901   -9.0244   20.4645 C   0  0  0  0  0  0
  -22.7233  -10.2118   20.3044 C   0  0  0  0  0  0
  -21.6855   -6.0731   22.5277 C   0  0  0  0  0  0
  -21.4016   -6.5636   23.8210 C   0  0  0  0  0  0
  -21.3659   -5.6791   24.9174 C   0  0  0  0  0  0
  -21.6046   -4.3054   24.7224 C   0  0  0  0  0  0
  -21.8823   -3.8145   23.4346 C   0  0  0  0  0  0
  -21.9191   -4.6959   22.3400 C   0  0  0  0  0  0
  -22.7873  -13.5223   21.1817 C   0  0  0  0  0  0
  -22.1658   -4.2142   21.0979 F   0  0  0  0  0  0
  -21.5629   -3.4543   25.7740 F   0  0  0  0  0  0
  -30.0336  -13.3294   20.4568 N   0  0  0  0  0  0
  -26.3046  -12.9305   20.3391 N   0  0  0  0  0  0
  -25.9330  -11.6464   20.5746 N   0  0  0  0  0  0
  -22.0522  -12.8218   22.0384 N   0  0  0  0  0  0
  -25.4341  -15.1857   20.4215 N   0  0  0  0  0  0
  -31.7572  -14.7604   20.0659 O   0  0  0  0  0  0
  -21.6637   -6.8873   21.4241 O   0  0  0  0  0  0
  -22.3553  -14.5529   20.6675 O   0  0  0  0  0  0
  -24.6202  -31.8651   23.2075 C   0  0  0  0  0  0
  -25.9075  -32.4807   23.8385 C   0  0  1  0  0  0
  -27.2346  -27.3763   20.0955 C   0  0  0  0  0  0
  -25.5918  -33.8609   24.2312 N   0  0  0  0  0  0
  -23.4114  -30.4891   21.5498 C   0  0  2  0  0  0
  -24.8587  -28.9537   20.1124 C   0  0  0  0  0  0
  -22.7445  -29.4645   22.4968 C   0  0  0  0  0  0
  -18.0282  -28.1372   22.8492 C   0  0  0  0  0  0
  -24.1490  -36.7302   23.2637 C   0  0  0  0  0  0
  -25.9483  -30.8086   21.3754 C   0  0  0  0  0  0
  -26.0229  -29.4406   20.7180 C   0  0  0  0  0  0
  -27.2098  -28.6592   20.7100 C   0  0  0  0  0  0
  -26.0465  -26.9349   19.4615 C   0  0  0  0  0  0
  -24.8685  -27.7020   19.4810 C   0  0  0  0  0  0
  -23.6233  -29.8253   20.1642 C   0  0  0  0  0  0
  -25.4115  -36.3102   24.0333 C   0  0  1  0  0  0
  -20.5876  -28.3672   23.1302 C   0  0  2  0  0  0
  -20.6770  -26.9403   22.5414 C   0  0  0  0  0  0
  -19.5745  -26.6379   21.5215 C   0  0  0  0  0  0
  -18.1924  -26.7919   22.1625 C   0  0  0  0  0  0
  -19.1532  -28.8840   23.2891 C   0  0  0  0  0  0
  -18.9456  -30.1446   23.8903 C   0  0  0  0  0  0
  -17.6458  -30.6583   24.0561 C   0  0  0  0  0  0
  -25.9047  -34.9468   23.5120 C   0  0  0  0  0  0
  -16.5349  -29.9081   23.6327 C   0  0  0  0  0  0
  -16.7271  -28.6495   23.0353 C   0  0  0  0  0  0
  -26.4477  -31.6598   25.0735 C   0  0  0  0  0  0
  -25.3725  -31.3719   26.1471 C   0  0  0  0  0  0
  -27.0315  -30.3029   24.6156 C   0  0  0  0  0  0
  -27.6043  -32.4325   25.7504 C   0  0  0  0  0  0
  -27.5585  -37.1809   24.8462 C   0  0  0  0  0  0
  -21.4166  -29.3037   22.3709 N   0  0  0  0  0  0
  -26.4296  -37.3792   23.9405 N   0  0  0  0  0  0
  -24.6781  -31.0702   22.1011 N   0  0  0  0  0  0
  -23.4197  -28.8182   23.3024 O   0  0  0  0  0  0
  -28.3831  -26.5829   20.1440 O   0  0  0  0  0  0
  -26.5607  -34.8923   22.4681 O   0  0  0  0  0  0
  -23.5381  -32.1438   23.7427 O   0  0  0  0  0  0
  -29.7999  -19.2672   20.6966 C   0  0  0  0  0  0
  -29.8888  -20.2260   18.4856 C   0  0  0  0  0  0
  -29.7281  -17.9314   20.1829 C   0  0  0  0  0  0
  -29.8321  -18.9312   17.9309 C   0  0  0  0  0  0
  -29.6687  -17.7858   18.7620 C   0  0  0  0  0  0
  -29.8156  -20.4312   19.8785 C   0  0  0  0  0  0
  -29.6367  -16.8437   21.2308 C   0  0  0  0  0  0
  -29.9555  -15.5236   21.4304 C   0  0  0  0  0  0
  -29.2711  -24.1925   20.3259 C   0  0  0  0  0  0
  -29.9124  -18.8150   16.4137 C   0  0  0  0  0  0
  -27.8003  -16.4099   17.7187 C   0  0  0  0  0  0
  -29.2886  -16.4678   18.0932 C   0  0  0  0  0  0
  -28.2786  -25.2010   19.6781 C   0  0  0  0  0  0
  -29.4892  -22.8399   19.5811 C   0  0  0  0  0  0
  -29.8516  -24.4464   21.3883 O   0  0  0  0  0  0
  -29.7602  -21.7065   20.4528 O   0  0  0  0  0  0
  -31.4801  -12.4798   19.1230 H   0  0  0  0  0  0
  -30.3709  -11.3410   19.8245 H   0  0  0  0  0  0
  -29.7509  -11.7862   17.4428 H   0  0  0  0  0  0
  -29.6679  -13.4973   17.7524 H   0  0  0  0  0  0
  -27.8295  -11.3219   18.8002 H   0  0  0  0  0  0
  -27.3770  -12.6642   17.7843 H   0  0  0  0  0  0
  -27.7091  -14.2571   19.6060 H   0  0  0  0  0  0
  -28.7054  -11.9212   21.2919 H   0  0  0  0  0  0
  -28.4285  -13.5112   21.8968 H   0  0  0  0  0  0
  -25.2770   -9.5681   22.4730 H   0  0  0  0  0  0
  -23.9998   -7.4639   22.7483 H   0  0  0  0  0  0
  -21.0829   -8.8766   19.8952 H   0  0  0  0  0  0
  -22.3693  -10.9655   19.6149 H   0  0  0  0  0  0
  -21.2013   -7.6145   23.9709 H   0  0  0  0  0  0
  -21.1476   -6.0526   25.9074 H   0  0  0  0  0  0
  -22.0602   -2.7605   23.2854 H   0  0  0  0  0  0
  -22.4149  -11.9878   22.4761 H   0  0  0  0  0  0
  -21.1142  -13.1244   22.2604 H   0  0  0  0  0  0
  -24.6756  -15.8462   20.5470 H   0  0  0  0  0  0
  -26.3077  -15.6262   20.1647 H   0  0  0  0  0  0
  -26.7146  -32.5497   23.1142 H   0  0  0  0  0  0
  -25.0075  -33.9768   25.0463 H   0  0  0  0  0  0
  -22.7027  -31.3078   21.4090 H   0  0  0  0  0  0
  -23.3758  -35.9629   23.3301 H   0  0  0  0  0  0
  -24.3579  -36.8921   22.2050 H   0  0  0  0  0  0
  -23.7237  -37.6503   23.6656 H   0  0  0  0  0  0
  -26.0767  -31.5749   20.6095 H   0  0  0  0  0  0
  -26.8302  -30.8550   22.0028 H   0  0  0  0  0  0
  -28.1024  -29.0278   21.1957 H   0  0  0  0  0  0
  -25.9900  -25.9934   18.9370 H   0  0  0  0  0  0
  -23.9769  -27.3253   18.9990 H   0  0  0  0  0  0
  -23.7354  -30.6014   19.4060 H   0  0  0  0  0  0
  -22.7461  -29.2483   19.8658 H   0  0  0  0  0  0
  -25.1294  -36.1962   25.0826 H   0  0  0  0  0  0
  -20.9964  -28.3236   24.1424 H   0  0  0  0  0  0
  -20.5672  -26.2281   23.3607 H   0  0  0  0  0  0
  -21.6640  -26.7438   22.1208 H   0  0  0  0  0  0
  -19.6905  -25.6292   21.1240 H   0  0  0  0  0  0
  -19.6678  -27.3195   20.6749 H   0  0  0  0  0  0
  -17.4195  -26.6677   21.4022 H   0  0  0  0  0  0
  -18.0313  -26.0055   22.9012 H   0  0  0  0  0  0
  -19.7934  -30.7259   24.2275 H   0  0  0  0  0  0
  -17.5014  -31.6266   24.5154 H   0  0  0  0  0  0
  -15.5350  -30.2983   23.7646 H   0  0  0  0  0  0
  -15.8669  -28.0814   22.7066 H   0  0  0  0  0  0
  -24.5904  -30.7058   25.7803 H   0  0  0  0  0  0
  -24.8909  -32.2879   26.4903 H   0  0  0  0  0  0
  -25.8066  -30.8898   27.0240 H   0  0  0  0  0  0
  -26.2881  -29.6795   24.1173 H   0  0  0  0  0  0
  -27.4020  -29.7261   25.4638 H   0  0  0  0  0  0
  -27.8745  -30.4323   23.9365 H   0  0  0  0  0  0
  -27.2658  -33.3621   26.2090 H   0  0  0  0  0  0
  -28.3852  -32.6894   25.0333 H   0  0  0  0  0  0
  -28.0713  -31.8447   26.5417 H   0  0  0  0  0  0
  -28.2599  -38.0110   24.7526 H   0  0  0  0  0  0
  -28.1089  -36.2645   24.6272 H   0  0  0  0  0  0
  -27.2303  -37.1438   25.8864 H   0  0  0  0  0  0
  -20.9334  -29.8775   21.6939 H   0  0  0  0  0  0
  -26.0184  -38.2869   24.1407 H   0  0  0  0  0  0
  -29.7926  -19.4136   21.7677 H   0  0  0  0  0  0
  -29.9648  -21.0654   17.8108 H   0  0  0  0  0  0
  -29.1260  -17.2292   22.1021 H   0  0  0  0  0  0
  -29.6567  -15.1547   22.3993 H   0  0  0  0  0  0
  -30.6519  -18.0718   16.1154 H   0  0  0  0  0  0
  -30.2159  -19.7574   15.9568 H   0  0  0  0  0  0
  -28.9506  -18.5435   15.9822 H   0  0  0  0  0  0
  -27.5484  -15.4397   17.2900 H   0  0  0  0  0  0
  -27.5225  -17.1702   16.9919 H   0  0  0  0  0  0
  -27.1721  -16.5574   18.5966 H   0  0  0  0  0  0
  -29.4693  -15.6347   18.7419 H   0  0  0  0  0  0
  -29.9134  -16.2762   17.2221 H   0  0  0  0  0  0
  -27.2985  -24.7896   19.9149 H   0  0  0  0  0  0
  -28.3958  -25.1758   18.5946 H   0  0  0  0  0  0
  -30.3313  -22.9741   18.9014 H   0  0  0  0  0  0
  -28.6091  -22.6341   18.9717 H   0  0  0  0  0  0
  1 25  1  0  0  0
  1 30  2  0  0  0
  1 78  1  0  0  0
  2  3  1  0  0  0
  2 25  1  0  0  0
  2 87  1  0  0  0
  2 88  1  0  0  0
  3  4  1  0  0  0
  3 89  1  0  0  0
  3 90  1  0  0  0
  4  5  1  0  0  0
  4 91  1  0  0  0
  4 92  1  0  0  0
  5  6  1  0  0  0
  5 26  1  0  0  0
  5 93  1  0  0  0
  6 25  1  0  0  0
  6 94  1  0  0  0
  6 95  1  0  0  0
  7  8  2  0  0  0
  7 26  1  0  0  0
  7 29  1  0  0  0
  8  9  1  0  0  0
  8 22  1  0  0  0
  9 10  1  0  0  0
  9 27  2  0  0  0
 10 11  2  0  0  0
 10 15  1  0  0  0
 11 12  1  0  0  0
 11 96  1  0  0  0
 12 13  2  0  0  0
 12 97  1  0  0  0
 13 14  1  0  0  0
 13 31  1  0  0  0
 14 15  2  0  0  0
 14 98  1  0  0  0
 15 99  1  0  0  0
 16 17  2  0  0  0
 16 21  1  0  0  0
 16 31  1  0  0  0
 17 18  1  0  0  0
 17100  1  0  0  0
 18 19  2  0  0  0
 18101  1  0  0  0
 19 20  1  0  0  0
 19 24  1  0  0  0
 20 21  2  0  0  0
 20102  1  0  0  0
 21 23  1  0  0  0
 22 28  1  0  0  0
 22 32  2  0  0  0
 26 27  1  0  0  0
 28103  1  0  0  0
 28104  1  0  0  0
 29105  1  0  0  0
 29106  1  0  0  0
 33 34  1  0  0  0
 33 66  1  0  0  0
 33 70  2  0  0  0
 34 36  1  0  0  0
 34 59  1  0  0  0
 34107  1  0  0  0
 35 44  2  0  0  0
 35 45  1  0  0  0
 35 68  1  0  0  0
 36 56  1  0  0  0
 36108  1  0  0  0
 37 39  1  0  0  0
 37 47  1  0  0  0
 37 66  1  0  0  0
 37109  1  0  0  0
 38 43  2  0  0  0
 38 46  1  0  0  0
 38 47  1  0  0  0
 39 64  1  0  0  0
 39 67  2  0  0  0
 40 52  1  0  0  0
 40 53  2  0  0  0
 40 58  1  0  0  0
 41110  1  0  0  0
 41111  1  0  0  0
 41112  1  0  0  0
 41 48  1  0  0  0
 42 43  1  0  0  0
 42 66  1  0  0  0
 42113  1  0  0  0
 42114  1  0  0  0
 43 44  1  0  0  0
 44115  1  0  0  0
 45 46  2  0  0  0
 45116  1  0  0  0
 46117  1  0  0  0
 47118  1  0  0  0
 47119  1  0  0  0
 48 56  1  0  0  0
 48 65  1  0  0  0
 48120  1  0  0  0
 49 50  1  0  0  0
 49 53  1  0  0  0
 49 64  1  0  0  0
 49121  1  0  0  0
 50 51  1  0  0  0
 50122  1  0  0  0
 50123  1  0  0  0
 51 52  1  0  0  0
 51124  1  0  0  0
 51125  1  0  0  0
 52126  1  0  0  0
 52127  1  0  0  0
 53 54  1  0  0  0
 54 55  2  0  0  0
 54128  1  0  0  0
 55 57  1  0  0  0
 55129  1  0  0  0
 56 69  2  0  0  0
 57 58  2  0  0  0
 57130  1  0  0  0
 58131  1  0  0  0
 59 60  1  0  0  0
 59 61  1  0  0  0
 59 62  1  0  0  0
 60132  1  0  0  0
 60133  1  0  0  0
 60134  1  0  0  0
 61135  1  0  0  0
 61136  1  0  0  0
 61137  1  0  0  0
 62138  1  0  0  0
 62139  1  0  0  0
 62140  1  0  0  0
 63 65  1  0  0  0
 63141  1  0  0  0
 63142  1  0  0  0
 63143  1  0  0  0
 64144  1  0  0  0
 65145  1  0  0  0
 68 83  1  0  0  0
 71 73  2  0  0  0
 71 76  1  0  0  0
 71146  1  0  0  0
 72 74  1  0  0  0
 72 76  2  0  0  0
 72147  1  0  0  0
 73 75  1  0  0  0
 73 77  1  0  0  0
 74 75  2  0  0  0
 74 80  1  0  0  0
 75 82  1  0  0  0
 76 86  1  0  0  0
 77 78  2  0  0  0
 77148  1  0  0  0
 78149  1  0  0  0
 79 83  1  0  0  0
 79 84  1  0  0  0
 79 85  2  0  0  0
 80150  1  0  0  0
 80151  1  0  0  0
 80152  1  0  0  0
 81 82  1  0  0  0
 81153  1  0  0  0
 81154  1  0  0  0
 81155  1  0  0  0
 82156  1  0  0  0
 82157  1  0  0  0
 83158  1  0  0  0
 83159  1  0  0  0
 84 86  1  0  0  0
 84160  1  0  0  0
 84161  1  0  0  0
M  ISO  4   1 100  68 101  78 100  83 101
M  END
> <chiral flag>
0

> <version>
0

> <s_m_source_file>
/data/baiqing/PycharmProjects/Reinvent-master-3.2/result/LINK_invent/BTK/process_docking_weight1_custom_product_contain_oxygen_bond_distance_aromatic_linkinvent_7_9_3/rearranged_h_0124.sdf

> <i_m_source_file_index>
73

> <r_mmod_Potential_Energy-OPLS-2005>
90.2697067260742

> <r_mmod_Stretch_Energy-OPLS-2005>
62.1321754455566

> <r_mmod_Bend_Energy-OPLS-2005>
168.695617675781

> <r_mmod_Torsional_Energy-OPLS-2005>
200.273788452148

> <r_mmod_Improper_Torsional_Energy-OPLS-2005>
2.76925563812256

> <r_mmod_Van_der_Waal_Energy-OPLS-2005>
157.988739013672

> <r_mmod_Electrostatic_Energy-OPLS-2005>
-292.082214355469

> <r_mmod_Solvation_Energy-OPLS-2005>
-232.417373657227

> <b_mmod_Minimization_Converged-OPLS-2005>
0

> <r_mmod_RMS_Derivative-OPLS-2005>
1.02906787395477

$$$$
74
                    3D
 Structure written by MMmdl.
157165  0  0  1  0            999 V2000
  -30.5388  -14.9024   20.4209 C   0  0  0  0  0  0
  -30.4563  -12.5631   19.4748 C   0  0  0  0  0  0
  -29.5234  -12.5377   18.2415 C   0  0  0  0  0  0
  -28.0532  -12.3253   18.6561 C   0  0  0  0  0  0
  -27.6381  -13.2343   19.8424 C   0  0  2  0  0  0
  -28.6892  -13.2233   20.9735 C   0  0  0  0  0  0
  -25.2515  -13.8167   20.5744 C   0  0  0  0  0  0
  -24.1800  -13.0412   20.9221 C   0  0  0  0  0  0
  -24.6392  -11.6896   20.8722 C   0  0  0  0  0  0
  -23.9070  -10.4278   21.0385 C   0  0  0  0  0  0
  -24.3619   -9.4208   21.9182 C   0  0  0  0  0  0
  -23.6294   -8.2245   22.0758 C   0  0  0  0  0  0
  -22.4280   -8.0268   21.3538 C   0  0  0  0  0  0
  -21.9905   -9.0244   20.4653 C   0  0  0  0  0  0
  -22.7234  -10.2122   20.3060 C   0  0  0  0  0  0
  -21.6855   -6.0741   22.5283 C   0  0  0  0  0  0
  -21.4002   -6.5638   23.8212 C   0  0  0  0  0  0
  -21.3667   -5.6796   24.9175 C   0  0  0  0  0  0
  -21.6041   -4.3056   24.7222 C   0  0  0  0  0  0
  -21.8821   -3.8156   23.4339 C   0  0  0  0  0  0
  -21.9188   -4.6974   22.3394 C   0  0  0  0  0  0
  -22.7819  -13.5220   21.1848 C   0  0  0  0  0  0
  -22.1661   -4.2169   21.0967 F   0  0  0  0  0  0
  -21.5640   -3.4536   25.7733 F   0  0  0  0  0  0
  -29.9726  -13.6337   20.3833 N   0  0  0  0  0  0
  -26.2929  -12.9386   20.3268 N   0  0  0  0  0  0
  -25.9330  -11.6514   20.5730 N   0  0  0  0  0  0
  -22.0423  -12.8269   22.0405 N   0  0  0  0  0  0
  -25.4160  -15.1910   20.4278 N   0  0  0  0  0  0
  -31.7369  -15.0181   20.1409 O   0  0  0  0  0  0
  -21.6638   -6.8878   21.4245 O   0  0  0  0  0  0
  -22.3513  -14.5519   20.6663 O   0  0  0  0  0  0
  -24.6382  -31.8513   23.1953 C   0  0  0  0  0  0
  -25.9208  -32.4725   23.8309 C   0  0  1  0  0  0
  -27.2112  -27.1671   20.1558 C   0  0  0  0  0  0
  -25.5996  -33.8536   24.2237 N   0  0  0  0  0  0
  -23.4356  -30.4720   21.5429 C   0  0  2  0  0  0
  -24.8839  -28.9076   20.1099 C   0  0  0  0  0  0
  -22.7510  -29.4607   22.4949 C   0  0  0  0  0  0
  -18.0284  -28.1394   22.8493 C   0  0  0  0  0  0
  -24.1478  -36.7224   23.2650 C   0  0  0  0  0  0
  -25.9893  -30.7300   21.3925 C   0  0  0  0  0  0
  -26.0587  -29.3460   20.7333 C   0  0  0  0  0  0
  -27.2214  -28.4914   20.7460 C   0  0  0  0  0  0
  -26.0135  -26.8325   19.4804 C   0  0  0  0  0  0
  -24.8752  -27.6629   19.4666 C   0  0  0  0  0  0
  -23.6542  -29.8022   20.1606 C   0  0  0  0  0  0
  -25.4126  -36.3048   24.0327 C   0  0  1  0  0  0
  -20.5888  -28.3734   23.1262 C   0  0  2  0  0  0
  -20.6780  -26.9449   22.5423 C   0  0  0  0  0  0
  -19.5762  -26.6379   21.5229 C   0  0  0  0  0  0
  -18.1923  -26.7953   22.1597 C   0  0  0  0  0  0
  -19.1533  -28.8882   23.2865 C   0  0  0  0  0  0
  -18.9467  -30.1487   23.8880 C   0  0  0  0  0  0
  -17.6467  -30.6618   24.0552 C   0  0  0  0  0  0
  -25.9092  -34.9422   23.5082 C   0  0  0  0  0  0
  -16.5354  -29.9098   23.6364 C   0  0  0  0  0  0
  -16.7270  -28.6500   23.0411 C   0  0  0  0  0  0
  -26.4541  -31.6583   25.0735 C   0  0  0  0  0  0
  -25.3739  -31.3763   26.1439 C   0  0  0  0  0  0
  -27.0377  -30.2977   24.6293 C   0  0  0  0  0  0
  -27.6106  -32.4335   25.7475 C   0  0  0  0  0  0
  -27.5578  -37.1762   24.8471 C   0  0  0  0  0  0
  -21.4212  -29.3073   22.3660 N   0  0  0  0  0  0
  -26.4283  -37.3763   23.9422 N   0  0  0  0  0  0
  -24.7067  -31.0396   22.0971 N   0  0  0  0  0  0
  -23.4170  -28.8178   23.3104 O   0  0  0  0  0  0
  -28.2570  -26.1800   20.2478 O   0  0  0  0  0  0
  -26.5655  -34.8917   22.4647 O   0  0  0  0  0  0
  -23.5526  -32.1397   23.7208 O   0  0  0  0  0  0
  -28.5919  -19.5703   19.3608 C   0  0  0  0  0  0
  -30.3591  -18.5023   21.1754 C   0  0  0  0  0  0
  -29.1828  -20.5675   20.1986 C   0  0  0  0  0  0
  -28.8098  -18.1433   19.4272 C   0  0  0  0  0  0
  -30.1272  -19.9488   21.1025 C   0  0  0  0  0  0
  -29.6962  -17.5160   20.3633 C   0  0  0  0  0  0
  -28.6734  -22.0739   19.9949 C   0  0  0  0  0  0
  -28.7976  -23.3893   20.4946 C   0  0  0  0  0  0
  -30.9168  -20.8263   22.0530 C   0  0  0  0  0  0
  -28.9085  -16.8547   17.2532 C   0  0  0  0  0  0
  -28.0351  -17.2954   18.4334 C   0  0  0  0  0  0
  -27.9233  -24.6900   20.0185 C   0  0  0  0  0  0
  -29.6807  -16.0065   20.5859 N   0  0  0  0  0  0
  -31.4841  -12.7447   19.1551 H   0  0  0  0  0  0
  -30.4661  -11.6001   19.9865 H   0  0  0  0  0  0
  -29.8370  -11.7568   17.5478 H   0  0  0  0  0  0
  -29.6134  -13.4801   17.6992 H   0  0  0  0  0  0
  -27.9347  -11.2774   18.9331 H   0  0  0  0  0  0
  -27.3943  -12.4943   17.8029 H   0  0  0  0  0  0
  -27.6092  -14.2419   19.4336 H   0  0  0  0  0  0
  -28.7706  -12.2328   21.4236 H   0  0  0  0  0  0
  -28.3996  -13.9032   21.7763 H   0  0  0  0  0  0
  -25.2753   -9.5701   22.4766 H   0  0  0  0  0  0
  -24.0014   -7.4639   22.7474 H   0  0  0  0  0  0
  -21.0837   -8.8740   19.8963 H   0  0  0  0  0  0
  -22.3667  -10.9657   19.6170 H   0  0  0  0  0  0
  -21.1976   -7.6139   23.9728 H   0  0  0  0  0  0
  -21.1496   -6.0515   25.9083 H   0  0  0  0  0  0
  -22.0593   -2.7622   23.2827 H   0  0  0  0  0  0
  -22.3990  -11.9958   22.4886 H   0  0  0  0  0  0
  -21.1038  -13.1326   22.2526 H   0  0  0  0  0  0
  -24.6473  -15.8366   20.5776 H   0  0  0  0  0  0
  -26.2631  -15.6528   20.1294 H   0  0  0  0  0  0
  -26.7257  -32.5319   23.1021 H   0  0  0  0  0  0
  -25.0205  -33.9676   25.0423 H   0  0  0  0  0  0
  -22.7357  -31.2981   21.3971 H   0  0  0  0  0  0
  -23.3798  -35.9494   23.3278 H   0  0  0  0  0  0
  -24.3572  -36.8892   22.2072 H   0  0  0  0  0  0
  -23.7157  -37.6373   23.6713 H   0  0  0  0  0  0
  -26.1540  -31.4890   20.6265 H   0  0  0  0  0  0
  -26.8536  -30.7658   22.0419 H   0  0  0  0  0  0
  -28.1048  -28.8252   21.2704 H   0  0  0  0  0  0
  -25.9106  -25.8855   18.9745 H   0  0  0  0  0  0
  -23.9826  -27.3251   18.9587 H   0  0  0  0  0  0
  -23.7709  -30.5782   19.4035 H   0  0  0  0  0  0
  -22.7670  -29.2396   19.8615 H   0  0  0  0  0  0
  -25.1312  -36.1870   25.0819 H   0  0  0  0  0  0
  -20.9962  -28.3331   24.1388 H   0  0  0  0  0  0
  -20.5680  -26.2371   23.3656 H   0  0  0  0  0  0
  -21.6659  -26.7484   22.1222 H   0  0  0  0  0  0
  -19.6944  -25.6270   21.1311 H   0  0  0  0  0  0
  -19.6713  -27.3151   20.6727 H   0  0  0  0  0  0
  -17.4227  -26.6776   21.3949 H   0  0  0  0  0  0
  -18.0258  -26.0054   22.8929 H   0  0  0  0  0  0
  -19.7944  -30.7309   24.2233 H   0  0  0  0  0  0
  -17.5030  -31.6311   24.5124 H   0  0  0  0  0  0
  -15.5365  -30.2997   23.7719 H   0  0  0  0  0  0
  -15.8659  -28.0800   22.7194 H   0  0  0  0  0  0
  -24.5913  -30.7121   25.7756 H   0  0  0  0  0  0
  -24.8937  -32.2931   26.4862 H   0  0  0  0  0  0
  -25.8020  -30.8927   27.0226 H   0  0  0  0  0  0
  -26.2958  -29.6716   24.1320 H   0  0  0  0  0  0
  -27.4006  -29.7272   25.4854 H   0  0  0  0  0  0
  -27.8878  -30.4218   23.9585 H   0  0  0  0  0  0
  -27.2766  -33.3698   26.1960 H   0  0  0  0  0  0
  -28.3941  -32.6794   25.0292 H   0  0  0  0  0  0
  -28.0745  -31.8514   26.5448 H   0  0  0  0  0  0
  -28.2611  -38.0046   24.7553 H   0  0  0  0  0  0
  -28.1052  -36.2589   24.6245 H   0  0  0  0  0  0
  -27.2311  -37.1360   25.8878 H   0  0  0  0  0  0
  -20.9438  -29.8773   21.6812 H   0  0  0  0  0  0
  -26.0151  -38.2827   24.1442 H   0  0  0  0  0  0
  -27.8895  -19.9196   18.6172 H   0  0  0  0  0  0
  -31.0507  -18.1329   21.9194 H   0  0  0  0  0  0
  -27.9482  -22.0822   19.1946 H   0  0  0  0  0  0
  -29.4812  -23.5771   21.3095 H   0  0  0  0  0  0
  -31.6175  -20.2360   22.6466 H   0  0  0  0  0  0
  -30.2447  -21.3398   22.7393 H   0  0  0  0  0  0
  -31.4915  -21.5741   21.5056 H   0  0  0  0  0  0
  -28.3127  -16.3367   16.5019 H   0  0  0  0  0  0
  -29.7008  -16.1789   17.5756 H   0  0  0  0  0  0
  -29.3772  -17.7144   16.7716 H   0  0  0  0  0  0
  -27.1820  -17.8608   18.0563 H   0  0  0  0  0  0
  -27.6058  -16.4312   18.9338 H   0  0  0  0  0  0
  -26.9579  -24.5278   20.5052 H   0  0  0  0  0  0
  -27.7337  -24.5550   18.9516 H   0  0  0  0  0  0
  -28.7438  -15.6639   20.7284 H   0  0  0  0  0  0
  1 25  1  0  0  0
  1 30  2  0  0  0
  1 83  1  0  0  0
  2  3  1  0  0  0
  2 25  1  0  0  0
  2 84  1  0  0  0
  2 85  1  0  0  0
  3  4  1  0  0  0
  3 86  1  0  0  0
  3 87  1  0  0  0
  4  5  1  0  0  0
  4 88  1  0  0  0
  4 89  1  0  0  0
  5  6  1  0  0  0
  5 26  1  0  0  0
  5 90  1  0  0  0
  6 25  1  0  0  0
  6 91  1  0  0  0
  6 92  1  0  0  0
  7  8  2  0  0  0
  7 26  1  0  0  0
  7 29  1  0  0  0
  8  9  1  0  0  0
  8 22  1  0  0  0
  9 10  1  0  0  0
  9 27  2  0  0  0
 10 11  2  0  0  0
 10 15  1  0  0  0
 11 12  1  0  0  0
 11 93  1  0  0  0
 12 13  2  0  0  0
 12 94  1  0  0  0
 13 14  1  0  0  0
 13 31  1  0  0  0
 14 15  2  0  0  0
 14 95  1  0  0  0
 15 96  1  0  0  0
 16 17  2  0  0  0
 16 21  1  0  0  0
 16 31  1  0  0  0
 17 18  1  0  0  0
 17 97  1  0  0  0
 18 19  2  0  0  0
 18 98  1  0  0  0
 19 20  1  0  0  0
 19 24  1  0  0  0
 20 21  2  0  0  0
 20 99  1  0  0  0
 21 23  1  0  0  0
 22 28  1  0  0  0
 22 32  2  0  0  0
 26 27  1  0  0  0
 28100  1  0  0  0
 28101  1  0  0  0
 29102  1  0  0  0
 29103  1  0  0  0
 33 34  1  0  0  0
 33 66  1  0  0  0
 33 70  2  0  0  0
 34 36  1  0  0  0
 34 59  1  0  0  0
 34104  1  0  0  0
 35 44  2  0  0  0
 35 45  1  0  0  0
 35 68  1  0  0  0
 36 56  1  0  0  0
 36105  1  0  0  0
 37 39  1  0  0  0
 37 47  1  0  0  0
 37 66  1  0  0  0
 37106  1  0  0  0
 38 43  2  0  0  0
 38 46  1  0  0  0
 38 47  1  0  0  0
 39 64  1  0  0  0
 39 67  2  0  0  0
 40 52  1  0  0  0
 40 53  2  0  0  0
 40 58  1  0  0  0
 41107  1  0  0  0
 41108  1  0  0  0
 41109  1  0  0  0
 41 48  1  0  0  0
 42 43  1  0  0  0
 42 66  1  0  0  0
 42110  1  0  0  0
 42111  1  0  0  0
 43 44  1  0  0  0
 44112  1  0  0  0
 45 46  2  0  0  0
 45113  1  0  0  0
 46114  1  0  0  0
 47115  1  0  0  0
 47116  1  0  0  0
 48 56  1  0  0  0
 48 65  1  0  0  0
 48117  1  0  0  0
 49 50  1  0  0  0
 49 53  1  0  0  0
 49 64  1  0  0  0
 49118  1  0  0  0
 50 51  1  0  0  0
 50119  1  0  0  0
 50120  1  0  0  0
 51 52  1  0  0  0
 51121  1  0  0  0
 51122  1  0  0  0
 52123  1  0  0  0
 52124  1  0  0  0
 53 54  1  0  0  0
 54 55  2  0  0  0
 54125  1  0  0  0
 55 57  1  0  0  0
 55126  1  0  0  0
 56 69  2  0  0  0
 57 58  2  0  0  0
 57127  1  0  0  0
 58128  1  0  0  0
 59 60  1  0  0  0
 59 61  1  0  0  0
 59 62  1  0  0  0
 60129  1  0  0  0
 60130  1  0  0  0
 60131  1  0  0  0
 61132  1  0  0  0
 61133  1  0  0  0
 61134  1  0  0  0
 62135  1  0  0  0
 62136  1  0  0  0
 62137  1  0  0  0
 63 65  1  0  0  0
 63138  1  0  0  0
 63139  1  0  0  0
 63140  1  0  0  0
 64141  1  0  0  0
 65142  1  0  0  0
 68 82  1  0  0  0
 71 73  2  0  0  0
 71 74  1  0  0  0
 71143  1  0  0  0
 72 75  2  0  0  0
 72 76  1  0  0  0
 72144  1  0  0  0
 73 75  1  0  0  0
 73 77  1  0  0  0
 74 76  2  0  0  0
 74 81  1  0  0  0
 75 79  1  0  0  0
 76 83  1  0  0  0
 77 78  2  0  0  0
 77145  1  0  0  0
 78 82  1  0  0  0
 78146  1  0  0  0
 79147  1  0  0  0
 79148  1  0  0  0
 79149  1  0  0  0
 80 81  1  0  0  0
 80150  1  0  0  0
 80151  1  0  0  0
 80152  1  0  0  0
 81153  1  0  0  0
 81154  1  0  0  0
 82155  1  0  0  0
 82156  1  0  0  0
 83157  1  0  0  0
M  ISO  4   1 100  68 101  82 101  83 100
M  END
> <chiral flag>
0

> <version>
0

> <s_m_source_file>
/data/baiqing/PycharmProjects/Reinvent-master-3.2/result/LINK_invent/BTK/process_docking_weight1_custom_product_contain_oxygen_bond_distance_aromatic_linkinvent_7_9_3/rearranged_h_0124.sdf

> <i_m_source_file_index>
74

> <r_mmod_Potential_Energy-OPLS-2005>
419.867858886719

> <r_mmod_Stretch_Energy-OPLS-2005>
200.325912475586

> <r_mmod_Bend_Energy-OPLS-2005>
255.187484741211

> <r_mmod_Torsional_Energy-OPLS-2005>
245.223419189453

> <r_mmod_Improper_Torsional_Energy-OPLS-2005>
6.77957153320312

> <r_mmod_Van_der_Waal_Energy-OPLS-2005>
129.573822021484

> <r_mmod_Electrostatic_Energy-OPLS-2005>
-377.445281982422

> <r_mmod_Solvation_Energy-OPLS-2005>
-207.252517700195

> <b_mmod_Minimization_Converged-OPLS-2005>
0

> <r_mmod_RMS_Derivative-OPLS-2005>
3.21495676040649

$$$$
75
                    3D
 Structure written by MMmdl.
157165  0  0  1  0            999 V2000
  -30.6721  -14.4694   20.6177 C   0  0  0  0  0  0
  -30.4409  -12.3259   19.3977 C   0  0  0  0  0  0
  -29.4917  -12.5200   18.1953 C   0  0  0  0  0  0
  -28.0141  -12.3747   18.6140 C   0  0  0  0  0  0
  -27.6687  -13.1969   19.8829 C   0  0  2  0  0  0
  -28.7114  -12.9274   20.9900 C   0  0  0  0  0  0
  -25.2630  -13.8143   20.5684 C   0  0  0  0  0  0
  -24.1858  -13.0442   20.9172 C   0  0  0  0  0  0
  -24.6392  -11.6899   20.8731 C   0  0  0  0  0  0
  -23.9049  -10.4291   21.0404 C   0  0  0  0  0  0
  -24.3601   -9.4206   21.9185 C   0  0  0  0  0  0
  -23.6280   -8.2241   22.0754 C   0  0  0  0  0  0
  -22.4265   -8.0276   21.3541 C   0  0  0  0  0  0
  -21.9897   -9.0250   20.4647 C   0  0  0  0  0  0
  -22.7220  -10.2133   20.3056 C   0  0  0  0  0  0
  -21.6851   -6.0732   22.5275 C   0  0  0  0  0  0
  -21.4011   -6.5636   23.8207 C   0  0  0  0  0  0
  -21.3654   -5.6790   24.9169 C   0  0  0  0  0  0
  -21.6045   -4.3054   24.7224 C   0  0  0  0  0  0
  -21.8821   -3.8144   23.4345 C   0  0  0  0  0  0
  -21.9193   -4.6960   22.3400 C   0  0  0  0  0  0
  -22.7881  -13.5251   21.1840 C   0  0  0  0  0  0
  -22.1662   -4.2145   21.0978 F   0  0  0  0  0  0
  -21.5631   -3.4537   25.7738 F   0  0  0  0  0  0
  -30.0447  -13.2713   20.4532 N   0  0  0  0  0  0
  -26.3061  -12.9291   20.3403 N   0  0  0  0  0  0
  -25.9318  -11.6460   20.5773 N   0  0  0  0  0  0
  -22.0514  -12.8243   22.0397 N   0  0  0  0  0  0
  -25.4407  -15.1853   20.4089 N   0  0  0  0  0  0
  -31.7454  -14.7558   20.0785 O   0  0  0  0  0  0
  -21.6633   -6.8871   21.4236 O   0  0  0  0  0  0
  -22.3565  -14.5560   20.6695 O   0  0  0  0  0  0
  -24.6152  -31.8670   23.2084 C   0  0  0  0  0  0
  -25.9041  -32.4823   23.8378 C   0  0  1  0  0  0
  -27.2360  -27.4276   20.0991 C   0  0  0  0  0  0
  -25.5893  -33.8618   24.2310 N   0  0  0  0  0  0
  -23.4044  -30.4901   21.5494 C   0  0  2  0  0  0
  -24.8538  -28.9527   20.1147 C   0  0  0  0  0  0
  -22.7419  -29.4646   22.4974 C   0  0  0  0  0  0
  -18.0280  -28.1380   22.8497 C   0  0  0  0  0  0
  -24.1489  -36.7298   23.2642 C   0  0  0  0  0  0
  -25.9346  -30.8289   21.3648 C   0  0  0  0  0  0
  -26.0137  -29.4619   20.7141 C   0  0  0  0  0  0
  -27.2099  -28.7053   20.7062 C   0  0  0  0  0  0
  -26.0629  -26.9324   19.4958 C   0  0  0  0  0  0
  -24.8739  -27.6871   19.5022 C   0  0  0  0  0  0
  -23.6162  -29.8222   20.1637 C   0  0  0  0  0  0
  -25.4106  -36.3105   24.0346 C   0  0  1  0  0  0
  -20.5869  -28.3654   23.1317 C   0  0  2  0  0  0
  -20.6773  -26.9391   22.5418 C   0  0  0  0  0  0
  -19.5754  -26.6382   21.5212 C   0  0  0  0  0  0
  -18.1932  -26.7922   22.1622 C   0  0  0  0  0  0
  -19.1530  -28.8830   23.2905 C   0  0  0  0  0  0
  -18.9462  -30.1439   23.8907 C   0  0  0  0  0  0
  -17.6469  -30.6580   24.0572 C   0  0  0  0  0  0
  -25.9040  -34.9478   23.5123 C   0  0  0  0  0  0
  -16.5359  -29.9084   23.6340 C   0  0  0  0  0  0
  -16.7268  -28.6507   23.0353 C   0  0  0  0  0  0
  -26.4461  -31.6604   25.0710 C   0  0  0  0  0  0
  -25.3727  -31.3744   26.1464 C   0  0  0  0  0  0
  -27.0275  -30.3043   24.6071 C   0  0  0  0  0  0
  -27.6037  -32.4322   25.7470 C   0  0  0  0  0  0
  -27.5580  -37.1801   24.8470 C   0  0  0  0  0  0
  -21.4142  -29.3023   22.3723 N   0  0  0  0  0  0
  -26.4286  -37.3791   23.9419 N   0  0  0  0  0  0
  -24.6696  -31.0760   22.0996 N   0  0  0  0  0  0
  -23.4195  -28.8190   23.3010 O   0  0  0  0  0  0
  -28.3742  -26.6498   20.0731 O   0  0  0  0  0  0
  -26.5598  -34.8934   22.4686 O   0  0  0  0  0  0
  -23.5341  -32.1422   23.7477 O   0  0  0  0  0  0
  -29.2729  -18.7413   22.6902 C   0  0  0  0  0  0
  -30.6686  -17.6287   20.6096 C   0  0  0  0  0  0
  -29.2862  -17.3400   22.5700 C   0  0  0  0  0  0
  -30.0210  -16.7524   21.5176 C   0  0  0  0  0  0
  -29.9384  -19.5399   21.7441 C   0  0  0  0  0  0
  -29.9225  -21.0087   21.9525 C   0  0  0  0  0  0
  -29.5334  -21.9911   21.1026 C   0  0  0  0  0  0
  -28.6961  -24.2935   20.8669 C   0  0  0  0  0  0
  -29.5625  -23.4230   21.4489 C   0  0  0  0  0  0
  -28.5084  -16.4914   23.5621 C   0  0  0  0  0  0
  -30.5716  -23.9368   22.4687 C   0  0  0  0  0  0
  -28.5250  -25.7855   21.2109 C   0  0  0  0  0  0
  -30.6115  -18.9860   20.7059 N   0  0  0  0  0  0
  -29.9997  -15.3232   21.4111 N   0  0  0  0  0  0
  -31.4765  -12.4698   19.0833 H   0  0  0  0  0  0
  -30.3837  -11.3024   19.7706 H   0  0  0  0  0  0
  -29.7266  -11.7990   17.4111 H   0  0  0  0  0  0
  -29.6504  -13.5058   17.7566 H   0  0  0  0  0  0
  -27.8233  -11.3166   18.7980 H   0  0  0  0  0  0
  -27.3589  -12.6607   17.7903 H   0  0  0  0  0  0
  -27.7272  -14.2517   19.6130 H   0  0  0  0  0  0
  -28.6961  -11.8721   21.2678 H   0  0  0  0  0  0
  -28.4521  -13.4573   21.9071 H   0  0  0  0  0  0
  -25.2749   -9.5686   22.4755 H   0  0  0  0  0  0
  -23.9994   -7.4633   22.7470 H   0  0  0  0  0  0
  -21.0830   -8.8764   19.8950 H   0  0  0  0  0  0
  -22.3676  -10.9671   19.6162 H   0  0  0  0  0  0
  -21.1996   -7.6143   23.9708 H   0  0  0  0  0  0
  -21.1476   -6.0521   25.9073 H   0  0  0  0  0  0
  -22.0607   -2.7607   23.2845 H   0  0  0  0  0  0
  -22.4117  -11.9891   22.4771 H   0  0  0  0  0  0
  -21.1140  -13.1283   22.2615 H   0  0  0  0  0  0
  -24.6823  -15.8503   20.5157 H   0  0  0  0  0  0
  -26.3019  -15.6151   20.0959 H   0  0  0  0  0  0
  -26.7110  -32.5534   23.1140 H   0  0  0  0  0  0
  -25.0055  -33.9773   25.0465 H   0  0  0  0  0  0
  -22.6943  -31.3077   21.4093 H   0  0  0  0  0  0
  -23.3756  -35.9627   23.3308 H   0  0  0  0  0  0
  -24.3584  -36.8897   22.2054 H   0  0  0  0  0  0
  -23.7231  -37.6504   23.6644 H   0  0  0  0  0  0
  -26.0480  -31.5947   20.5963 H   0  0  0  0  0  0
  -26.8223  -30.8817   21.9838 H   0  0  0  0  0  0
  -28.1069  -29.0935   21.1695 H   0  0  0  0  0  0
  -26.0705  -25.9576   19.0288 H   0  0  0  0  0  0
  -23.9822  -27.2888   19.0375 H   0  0  0  0  0  0
  -23.7277  -30.5993   19.4071 H   0  0  0  0  0  0
  -22.7391  -29.2461   19.8649 H   0  0  0  0  0  0
  -25.1288  -36.1969   25.0838 H   0  0  0  0  0  0
  -20.9963  -28.3213   24.1437 H   0  0  0  0  0  0
  -20.5681  -26.2258   23.3596 H   0  0  0  0  0  0
  -21.6643  -26.7437   22.1205 H   0  0  0  0  0  0
  -19.6926  -25.6303   21.1220 H   0  0  0  0  0  0
  -19.6704  -27.3214   20.6762 H   0  0  0  0  0  0
  -17.4204  -26.6682   21.4017 H   0  0  0  0  0  0
  -18.0324  -26.0053   22.9004 H   0  0  0  0  0  0
  -19.7948  -30.7257   24.2263 H   0  0  0  0  0  0
  -17.5037  -31.6263   24.5167 H   0  0  0  0  0  0
  -15.5365  -30.3001   23.7658 H   0  0  0  0  0  0
  -15.8670  -28.0842   22.7050 H   0  0  0  0  0  0
  -24.5873  -30.7115   25.7810 H   0  0  0  0  0  0
  -24.8955  -32.2925   26.4904 H   0  0  0  0  0  0
  -25.8073  -30.8913   27.0223 H   0  0  0  0  0  0
  -26.2805  -29.6822   24.1119 H   0  0  0  0  0  0
  -27.4047  -29.7258   25.4514 H   0  0  0  0  0  0
  -27.8644  -30.4358   23.9207 H   0  0  0  0  0  0
  -27.2653  -33.3631   26.2023 H   0  0  0  0  0  0
  -28.3852  -32.6847   25.0298 H   0  0  0  0  0  0
  -28.0677  -31.8453   26.5404 H   0  0  0  0  0  0
  -28.2603  -38.0096   24.7511 H   0  0  0  0  0  0
  -28.1069  -36.2624   24.6298 H   0  0  0  0  0  0
  -27.2304  -37.1454   25.8878 H   0  0  0  0  0  0
  -20.9295  -29.8735   21.6942 H   0  0  0  0  0  0
  -26.0184  -38.2868   24.1430 H   0  0  0  0  0  0
  -28.7399  -19.2108   23.5055 H   0  0  0  0  0  0
  -31.2227  -17.2504   19.7641 H   0  0  0  0  0  0
  -30.2694  -21.2952   22.9345 H   0  0  0  0  0  0
  -29.1812  -21.6942   20.1244 H   0  0  0  0  0  0
  -28.0043  -23.9231   20.1230 H   0  0  0  0  0  0
  -28.0112  -17.1078   24.3107 H   0  0  0  0  0  0
  -29.1701  -15.7990   24.0839 H   0  0  0  0  0  0
  -27.7387  -15.9162   23.0459 H   0  0  0  0  0  0
  -30.0679  -24.2466   23.3849 H   0  0  0  0  0  0
  -31.1212  -24.7894   22.0675 H   0  0  0  0  0  0
  -31.3243  -23.1935   22.7273 H   0  0  0  0  0  0
  -29.3633  -26.1603   21.7957 H   0  0  0  0  0  0
  -27.6578  -25.8543   21.8713 H   0  0  0  0  0  0
  -29.2499  -14.8737   21.9134 H   0  0  0  0  0  0
  1 25  1  0  0  0
  1 30  2  0  0  0
  1 84  1  0  0  0
  2  3  1  0  0  0
  2 25  1  0  0  0
  2 85  1  0  0  0
  2 86  1  0  0  0
  3  4  1  0  0  0
  3 87  1  0  0  0
  3 88  1  0  0  0
  4  5  1  0  0  0
  4 89  1  0  0  0
  4 90  1  0  0  0
  5  6  1  0  0  0
  5 26  1  0  0  0
  5 91  1  0  0  0
  6 25  1  0  0  0
  6 92  1  0  0  0
  6 93  1  0  0  0
  7  8  2  0  0  0
  7 26  1  0  0  0
  7 29  1  0  0  0
  8  9  1  0  0  0
  8 22  1  0  0  0
  9 10  1  0  0  0
  9 27  2  0  0  0
 10 11  2  0  0  0
 10 15  1  0  0  0
 11 12  1  0  0  0
 11 94  1  0  0  0
 12 13  2  0  0  0
 12 95  1  0  0  0
 13 14  1  0  0  0
 13 31  1  0  0  0
 14 15  2  0  0  0
 14 96  1  0  0  0
 15 97  1  0  0  0
 16 17  2  0  0  0
 16 21  1  0  0  0
 16 31  1  0  0  0
 17 18  1  0  0  0
 17 98  1  0  0  0
 18 19  2  0  0  0
 18 99  1  0  0  0
 19 20  1  0  0  0
 19 24  1  0  0  0
 20 21  2  0  0  0
 20100  1  0  0  0
 21 23  1  0  0  0
 22 28  1  0  0  0
 22 32  2  0  0  0
 26 27  1  0  0  0
 28101  1  0  0  0
 28102  1  0  0  0
 29103  1  0  0  0
 29104  1  0  0  0
 33 34  1  0  0  0
 33 66  1  0  0  0
 33 70  2  0  0  0
 34 36  1  0  0  0
 34 59  1  0  0  0
 34105  1  0  0  0
 35 44  2  0  0  0
 35 45  1  0  0  0
 35 68  1  0  0  0
 36 56  1  0  0  0
 36106  1  0  0  0
 37 39  1  0  0  0
 37 47  1  0  0  0
 37 66  1  0  0  0
 37107  1  0  0  0
 38 43  2  0  0  0
 38 46  1  0  0  0
 38 47  1  0  0  0
 39 64  1  0  0  0
 39 67  2  0  0  0
 40 52  1  0  0  0
 40 53  2  0  0  0
 40 58  1  0  0  0
 41108  1  0  0  0
 41109  1  0  0  0
 41110  1  0  0  0
 41 48  1  0  0  0
 42 43  1  0  0  0
 42 66  1  0  0  0
 42111  1  0  0  0
 42112  1  0  0  0
 43 44  1  0  0  0
 44113  1  0  0  0
 45 46  2  0  0  0
 45114  1  0  0  0
 46115  1  0  0  0
 47116  1  0  0  0
 47117  1  0  0  0
 48 56  1  0  0  0
 48 65  1  0  0  0
 48118  1  0  0  0
 49 50  1  0  0  0
 49 53  1  0  0  0
 49 64  1  0  0  0
 49119  1  0  0  0
 50 51  1  0  0  0
 50120  1  0  0  0
 50121  1  0  0  0
 51 52  1  0  0  0
 51122  1  0  0  0
 51123  1  0  0  0
 52124  1  0  0  0
 52125  1  0  0  0
 53 54  1  0  0  0
 54 55  2  0  0  0
 54126  1  0  0  0
 55 57  1  0  0  0
 55127  1  0  0  0
 56 69  2  0  0  0
 57 58  2  0  0  0
 57128  1  0  0  0
 58129  1  0  0  0
 59 60  1  0  0  0
 59 61  1  0  0  0
 59 62  1  0  0  0
 60130  1  0  0  0
 60131  1  0  0  0
 60132  1  0  0  0
 61133  1  0  0  0
 61134  1  0  0  0
 61135  1  0  0  0
 62136  1  0  0  0
 62137  1  0  0  0
 62138  1  0  0  0
 63 65  1  0  0  0
 63139  1  0  0  0
 63140  1  0  0  0
 63141  1  0  0  0
 64142  1  0  0  0
 65143  1  0  0  0
 68 82  1  0  0  0
 71 73  2  0  0  0
 71 75  1  0  0  0
 71144  1  0  0  0
 72 74  2  0  0  0
 72 83  1  0  0  0
 72145  1  0  0  0
 73 74  1  0  0  0
 73 80  1  0  0  0
 74 84  1  0  0  0
 75 76  1  0  0  0
 75 83  2  0  0  0
 76 77  2  0  0  0
 76146  1  0  0  0
 77 79  1  0  0  0
 77147  1  0  0  0
 78 79  2  0  0  0
 78 82  1  0  0  0
 78148  1  0  0  0
 79 81  1  0  0  0
 80149  1  0  0  0
 80150  1  0  0  0
 80151  1  0  0  0
 81152  1  0  0  0
 81153  1  0  0  0
 81154  1  0  0  0
 82155  1  0  0  0
 82156  1  0  0  0
 84157  1  0  0  0
M  ISO  4   1 100  68 101  82 101  84 100
M  END
> <chiral flag>
0

> <version>
0

> <s_m_source_file>
/data/baiqing/PycharmProjects/Reinvent-master-3.2/result/LINK_invent/BTK/process_docking_weight1_custom_product_contain_oxygen_bond_distance_aromatic_linkinvent_7_9_3/rearranged_h_0124.sdf

> <i_m_source_file_index>
75

> <r_mmod_Potential_Energy-OPLS-2005>
-201.421325683594

> <r_mmod_Stretch_Energy-OPLS-2005>
40.5219039916992

> <r_mmod_Bend_Energy-OPLS-2005>
107.497169494629

> <r_mmod_Torsional_Energy-OPLS-2005>
258.844848632812

> <r_mmod_Improper_Torsional_Energy-OPLS-2005>
2.90878653526306

> <r_mmod_Van_der_Waal_Energy-OPLS-2005>
156.887359619141

> <r_mmod_Electrostatic_Energy-OPLS-2005>
-568.08935546875

> <r_mmod_Solvation_Energy-OPLS-2005>
-212.995681762695

> <b_mmod_Minimization_Converged-OPLS-2005>
0

> <r_mmod_RMS_Derivative-OPLS-2005>
1.36221504211426

$$$$
76
                    3D
 Structure written by MMmdl.
157165  0  0  1  0            999 V2000
  -30.6025  -14.6145   20.5248 C   0  0  0  0  0  0
  -30.4403  -12.3809   19.4527 C   0  0  0  0  0  0
  -29.5112  -12.5116   18.2254 C   0  0  0  0  0  0
  -28.0325  -12.3483   18.6329 C   0  0  0  0  0  0
  -27.6549  -13.2090   19.8686 C   0  0  2  0  0  0
  -28.6938  -13.0319   20.9981 C   0  0  0  0  0  0
  -25.2549  -13.8142   20.5635 C   0  0  0  0  0  0
  -24.1821  -13.0432   20.9191 C   0  0  0  0  0  0
  -24.6376  -11.6898   20.8746 C   0  0  0  0  0  0
  -23.9046  -10.4292   21.0412 C   0  0  0  0  0  0
  -24.3602   -9.4209   21.9180 C   0  0  0  0  0  0
  -23.6278   -8.2252   22.0747 C   0  0  0  0  0  0
  -22.4262   -8.0285   21.3542 C   0  0  0  0  0  0
  -21.9890   -9.0261   20.4652 C   0  0  0  0  0  0
  -22.7225  -10.2137   20.3057 C   0  0  0  0  0  0
  -21.6853   -6.0730   22.5276 C   0  0  0  0  0  0
  -21.4026   -6.5633   23.8212 C   0  0  0  0  0  0
  -21.3656   -5.6785   24.9173 C   0  0  0  0  0  0
  -21.6035   -4.3048   24.7225 C   0  0  0  0  0  0
  -21.8821   -3.8141   23.4348 C   0  0  0  0  0  0
  -21.9195   -4.6959   22.3405 C   0  0  0  0  0  0
  -22.7855  -13.5250   21.1854 C   0  0  0  0  0  0
  -22.1660   -4.2145   21.0983 F   0  0  0  0  0  0
  -21.5613   -3.4535   25.7737 F   0  0  0  0  0  0
  -30.0130  -13.3832   20.4477 N   0  0  0  0  0  0
  -26.2979  -12.9310   20.3305 N   0  0  0  0  0  0
  -25.9298  -11.6476   20.5757 N   0  0  0  0  0  0
  -22.0479  -12.8267   22.0418 N   0  0  0  0  0  0
  -25.4244  -15.1849   20.3941 N   0  0  0  0  0  0
  -31.7543  -14.8003   20.1161 O   0  0  0  0  0  0
  -21.6631   -6.8878   21.4239 O   0  0  0  0  0  0
  -22.3555  -14.5554   20.6687 O   0  0  0  0  0  0
  -24.6269  -31.8605   23.2060 C   0  0  0  0  0  0
  -25.9123  -32.4781   23.8378 C   0  0  1  0  0  0
  -27.2173  -27.3228   20.1138 C   0  0  0  0  0  0
  -25.5932  -33.8580   24.2303 N   0  0  0  0  0  0
  -23.4190  -30.4884   21.5482 C   0  0  2  0  0  0
  -24.8636  -28.9491   20.1086 C   0  0  0  0  0  0
  -22.7472  -29.4632   22.4926 C   0  0  0  0  0  0
  -18.0290  -28.1380   22.8471 C   0  0  0  0  0  0
  -24.1491  -36.7300   23.2631 C   0  0  0  0  0  0
  -25.9616  -30.7921   21.3779 C   0  0  0  0  0  0
  -26.0335  -29.4219   20.7165 C   0  0  0  0  0  0
  -27.2136  -28.6205   20.7113 C   0  0  0  0  0  0
  -26.0229  -26.9068   19.4767 C   0  0  0  0  0  0
  -24.8604  -27.6962   19.4806 C   0  0  0  0  0  0
  -23.6333  -29.8312   20.1605 C   0  0  0  0  0  0
  -25.4103  -36.3081   24.0336 C   0  0  1  0  0  0
  -20.5887  -28.3693   23.1260 C   0  0  2  0  0  0
  -20.6782  -26.9412   22.5396 C   0  0  0  0  0  0
  -19.5758  -26.6377   21.5197 C   0  0  0  0  0  0
  -18.1937  -26.7920   22.1609 C   0  0  0  0  0  0
  -19.1539  -28.8853   23.2864 C   0  0  0  0  0  0
  -18.9464  -30.1451   23.8891 C   0  0  0  0  0  0
  -17.6463  -30.6577   24.0568 C   0  0  0  0  0  0
  -25.9049  -34.9450   23.5121 C   0  0  0  0  0  0
  -16.5356  -29.9081   23.6321 C   0  0  0  0  0  0
  -16.7276  -28.6498   23.0341 C   0  0  0  0  0  0
  -26.4495  -31.6584   25.0750 C   0  0  0  0  0  0
  -25.3728  -31.3728   26.1481 C   0  0  0  0  0  0
  -27.0325  -30.3004   24.6207 C   0  0  0  0  0  0
  -27.6074  -32.4304   25.7495 C   0  0  0  0  0  0
  -27.5589  -37.1777   24.8439 C   0  0  0  0  0  0
  -21.4182  -29.3052   22.3657 N   0  0  0  0  0  0
  -26.4273  -37.3782   23.9426 N   0  0  0  0  0  0
  -24.6883  -31.0628   22.1009 N   0  0  0  0  0  0
  -23.4195  -28.8154   23.2996 O   0  0  0  0  0  0
  -28.3228  -26.4600   20.1740 O   0  0  0  0  0  0
  -26.5616  -34.8915   22.4686 O   0  0  0  0  0  0
  -23.5438  -32.1402   23.7393 O   0  0  0  0  0  0
  -28.7654  -19.3081   21.2221 C   0  0  0  0  0  0
  -30.7573  -17.7714   20.0049 C   0  0  0  0  0  0
  -29.7680  -20.0055   20.5025 C   0  0  0  0  0  0
  -28.7628  -17.8848   21.3537 C   0  0  0  0  0  0
  -29.7921  -17.0784   20.7783 C   0  0  0  0  0  0
  -30.7358  -19.1945   19.8388 C   0  0  0  0  0  0
  -29.8373  -21.5258   20.4042 C   0  0  0  0  0  0
  -28.8685  -22.4972   20.4555 C   0  0  0  0  0  0
  -29.1595  -23.9934   20.4106 C   0  0  0  0  0  0
  -27.6136  -17.2601   22.1343 C   0  0  0  0  0  0
  -32.2582  -19.0756   17.9937 C   0  0  0  0  0  0
  -28.0430  -25.0158   19.9812 C   0  0  0  0  0  0
  -29.7846  -15.6254   20.9562 N   0  0  0  0  0  0
  -30.2709  -24.4400   20.7153 O   0  0  0  0  0  0
  -31.6429  -19.8423   19.0261 O   0  0  0  0  0  0
  -31.4819  -12.5134   19.1540 H   0  0  0  0  0  0
  -30.3780  -11.3779   19.8779 H   0  0  0  0  0  0
  -29.7749  -11.7695   17.4700 H   0  0  0  0  0  0
  -29.6584  -13.4865   17.7599 H   0  0  0  0  0  0
  -27.8658  -11.2936   18.8560 H   0  0  0  0  0  0
  -27.3825  -12.5882   17.7912 H   0  0  0  0  0  0
  -27.6850  -14.2490   19.5434 H   0  0  0  0  0  0
  -28.7010  -12.0000   21.3515 H   0  0  0  0  0  0
  -28.4341  -13.6354   21.8702 H   0  0  0  0  0  0
  -25.2741   -9.5691   22.4759 H   0  0  0  0  0  0
  -23.9987   -7.4639   22.7462 H   0  0  0  0  0  0
  -21.0818   -8.8787   19.8964 H   0  0  0  0  0  0
  -22.3676  -10.9675   19.6174 H   0  0  0  0  0  0
  -21.2031   -7.6139   23.9718 H   0  0  0  0  0  0
  -21.1466   -6.0511   25.9075 H   0  0  0  0  0  0
  -22.0603   -2.7602   23.2853 H   0  0  0  0  0  0
  -22.4064  -11.9935   22.4843 H   0  0  0  0  0  0
  -21.1102  -13.1319   22.2587 H   0  0  0  0  0  0
  -24.6506  -15.8334   20.4888 H   0  0  0  0  0  0
  -26.2502  -15.6141   19.9966 H   0  0  0  0  0  0
  -26.7187  -32.5441   23.1122 H   0  0  0  0  0  0
  -25.0070  -33.9723   25.0441 H   0  0  0  0  0  0
  -22.7134  -31.3102   21.4101 H   0  0  0  0  0  0
  -23.3751  -35.9633   23.3270 H   0  0  0  0  0  0
  -24.3597  -36.8947   22.2051 H   0  0  0  0  0  0
  -23.7253  -37.6502   23.6664 H   0  0  0  0  0  0
  -26.0962  -31.5567   20.6114 H   0  0  0  0  0  0
  -26.8414  -30.8360   22.0086 H   0  0  0  0  0  0
  -28.1089  -28.9765   21.2028 H   0  0  0  0  0  0
  -25.9497  -25.9540   18.9750 H   0  0  0  0  0  0
  -23.9654  -27.3287   18.9982 H   0  0  0  0  0  0
  -23.7570  -30.6138   19.4108 H   0  0  0  0  0  0
  -22.7508  -29.2673   19.8518 H   0  0  0  0  0  0
  -25.1271  -36.1929   25.0827 H   0  0  0  0  0  0
  -20.9981  -28.3285   24.1379 H   0  0  0  0  0  0
  -20.5663  -26.2311   23.3604 H   0  0  0  0  0  0
  -21.6655  -26.7434   22.1207 H   0  0  0  0  0  0
  -19.6926  -25.6285   21.1236 H   0  0  0  0  0  0
  -19.6695  -27.3176   20.6717 H   0  0  0  0  0  0
  -17.4203  -26.6656   21.4017 H   0  0  0  0  0  0
  -18.0351  -26.0061   22.9006 H   0  0  0  0  0  0
  -19.7942  -30.7265   24.2258 H   0  0  0  0  0  0
  -17.5021  -31.6254   24.5182 H   0  0  0  0  0  0
  -15.5359  -30.2989   23.7635 H   0  0  0  0  0  0
  -15.8674  -28.0817   22.7058 H   0  0  0  0  0  0
  -24.5891  -30.7088   25.7814 H   0  0  0  0  0  0
  -24.8930  -32.2895   26.4918 H   0  0  0  0  0  0
  -25.8051  -30.8891   27.0252 H   0  0  0  0  0  0
  -26.2895  -29.6754   24.1238 H   0  0  0  0  0  0
  -27.4020  -29.7263   25.4716 H   0  0  0  0  0  0
  -27.8773  -30.4283   23.9435 H   0  0  0  0  0  0
  -27.2706  -33.3588   26.2116 H   0  0  0  0  0  0
  -28.3845  -32.6887   25.0289 H   0  0  0  0  0  0
  -28.0787  -31.8404   26.5367 H   0  0  0  0  0  0
  -28.2540  -38.0137   24.7583 H   0  0  0  0  0  0
  -28.1148  -36.2682   24.6116 H   0  0  0  0  0  0
  -27.2333  -37.1265   25.8842 H   0  0  0  0  0  0
  -20.9356  -29.8798   21.6886 H   0  0  0  0  0  0
  -26.0153  -38.2842   24.1486 H   0  0  0  0  0  0
  -27.9880  -19.8796   21.7092 H   0  0  0  0  0  0
  -31.5277  -17.1909   19.5237 H   0  0  0  0  0  0
  -30.8508  -21.8911   20.3114 H   0  0  0  0  0  0
  -27.8315  -22.2079   20.5375 H   0  0  0  0  0  0
  -27.7199  -17.4564   23.2011 H   0  0  0  0  0  0
  -27.5337  -16.1827   22.0004 H   0  0  0  0  0  0
  -26.6646  -17.6884   21.8083 H   0  0  0  0  0  0
  -32.7109  -19.7450   17.2616 H   0  0  0  0  0  0
  -31.5357  -18.4556   17.4579 H   0  0  0  0  0  0
  -33.0469  -18.4381   18.3938 H   0  0  0  0  0  0
  -27.1351  -24.7451   20.5214 H   0  0  0  0  0  0
  -27.8502  -24.8424   18.9222 H   0  0  0  0  0  0
  -28.9376  -15.2693   21.3709 H   0  0  0  0  0  0
  1 25  1  0  0  0
  1 30  2  0  0  0
  1 83  1  0  0  0
  2  3  1  0  0  0
  2 25  1  0  0  0
  2 86  1  0  0  0
  2 87  1  0  0  0
  3  4  1  0  0  0
  3 88  1  0  0  0
  3 89  1  0  0  0
  4  5  1  0  0  0
  4 90  1  0  0  0
  4 91  1  0  0  0
  5  6  1  0  0  0
  5 26  1  0  0  0
  5 92  1  0  0  0
  6 25  1  0  0  0
  6 93  1  0  0  0
  6 94  1  0  0  0
  7  8  2  0  0  0
  7 26  1  0  0  0
  7 29  1  0  0  0
  8  9  1  0  0  0
  8 22  1  0  0  0
  9 10  1  0  0  0
  9 27  2  0  0  0
 10 11  2  0  0  0
 10 15  1  0  0  0
 11 12  1  0  0  0
 11 95  1  0  0  0
 12 13  2  0  0  0
 12 96  1  0  0  0
 13 14  1  0  0  0
 13 31  1  0  0  0
 14 15  2  0  0  0
 14 97  1  0  0  0
 15 98  1  0  0  0
 16 17  2  0  0  0
 16 21  1  0  0  0
 16 31  1  0  0  0
 17 18  1  0  0  0
 17 99  1  0  0  0
 18 19  2  0  0  0
 18100  1  0  0  0
 19 20  1  0  0  0
 19 24  1  0  0  0
 20 21  2  0  0  0
 20101  1  0  0  0
 21 23  1  0  0  0
 22 28  1  0  0  0
 22 32  2  0  0  0
 26 27  1  0  0  0
 28102  1  0  0  0
 28103  1  0  0  0
 29104  1  0  0  0
 29105  1  0  0  0
 33 34  1  0  0  0
 33 66  1  0  0  0
 33 70  2  0  0  0
 34 36  1  0  0  0
 34 59  1  0  0  0
 34106  1  0  0  0
 35 44  2  0  0  0
 35 45  1  0  0  0
 35 68  1  0  0  0
 36 56  1  0  0  0
 36107  1  0  0  0
 37 39  1  0  0  0
 37 47  1  0  0  0
 37 66  1  0  0  0
 37108  1  0  0  0
 38 43  2  0  0  0
 38 46  1  0  0  0
 38 47  1  0  0  0
 39 64  1  0  0  0
 39 67  2  0  0  0
 40 52  1  0  0  0
 40 53  2  0  0  0
 40 58  1  0  0  0
 41109  1  0  0  0
 41110  1  0  0  0
 41111  1  0  0  0
 41 48  1  0  0  0
 42 43  1  0  0  0
 42 66  1  0  0  0
 42112  1  0  0  0
 42113  1  0  0  0
 43 44  1  0  0  0
 44114  1  0  0  0
 45 46  2  0  0  0
 45115  1  0  0  0
 46116  1  0  0  0
 47117  1  0  0  0
 47118  1  0  0  0
 48 56  1  0  0  0
 48 65  1  0  0  0
 48119  1  0  0  0
 49 50  1  0  0  0
 49 53  1  0  0  0
 49 64  1  0  0  0
 49120  1  0  0  0
 50 51  1  0  0  0
 50121  1  0  0  0
 50122  1  0  0  0
 51 52  1  0  0  0
 51123  1  0  0  0
 51124  1  0  0  0
 52125  1  0  0  0
 52126  1  0  0  0
 53 54  1  0  0  0
 54 55  2  0  0  0
 54127  1  0  0  0
 55 57  1  0  0  0
 55128  1  0  0  0
 56 69  2  0  0  0
 57 58  2  0  0  0
 57129  1  0  0  0
 58130  1  0  0  0
 59 60  1  0  0  0
 59 61  1  0  0  0
 59 62  1  0  0  0
 60131  1  0  0  0
 60132  1  0  0  0
 60133  1  0  0  0
 61134  1  0  0  0
 61135  1  0  0  0
 61136  1  0  0  0
 62137  1  0  0  0
 62138  1  0  0  0
 62139  1  0  0  0
 63 65  1  0  0  0
 63140  1  0  0  0
 63141  1  0  0  0
 63142  1  0  0  0
 64143  1  0  0  0
 65144  1  0  0  0
 68 82  1  0  0  0
 71 73  2  0  0  0
 71 74  1  0  0  0
 71145  1  0  0  0
 72 75  1  0  0  0
 72 76  2  0  0  0
 72146  1  0  0  0
 73 76  1  0  0  0
 73 77  1  0  0  0
 74 75  2  0  0  0
 74 80  1  0  0  0
 75 83  1  0  0  0
 76 85  1  0  0  0
 77 78  2  0  0  0
 77147  1  0  0  0
 78 79  1  0  0  0
 78148  1  0  0  0
 79 82  1  0  0  0
 79 84  2  0  0  0
 80149  1  0  0  0
 80150  1  0  0  0
 80151  1  0  0  0
 81 85  1  0  0  0
 81152  1  0  0  0
 81153  1  0  0  0
 81154  1  0  0  0
 82155  1  0  0  0
 82156  1  0  0  0
 83157  1  0  0  0
M  ISO  4   1 100  68 101  82 101  83 100
M  END
> <chiral flag>
0

> <version>
0

> <s_m_source_file>
/data/baiqing/PycharmProjects/Reinvent-master-3.2/result/LINK_invent/BTK/process_docking_weight1_custom_product_contain_oxygen_bond_distance_aromatic_linkinvent_7_9_3/rearranged_h_0124.sdf

> <i_m_source_file_index>
76

> <r_mmod_Potential_Energy-OPLS-2005>
42.9892959594727

> <r_mmod_Stretch_Energy-OPLS-2005>
77.7850189208984

> <r_mmod_Bend_Energy-OPLS-2005>
132.535888671875

> <r_mmod_Torsional_Energy-OPLS-2005>
226.44075012207

> <r_mmod_Improper_Torsional_Energy-OPLS-2005>
4.01083040237427

> <r_mmod_Van_der_Waal_Energy-OPLS-2005>
156.893524169922

> <r_mmod_Electrostatic_Energy-OPLS-2005>
-366.417510986328

> <r_mmod_Solvation_Energy-OPLS-2005>
-234.069046020508

> <b_mmod_Minimization_Converged-OPLS-2005>
0

> <r_mmod_RMS_Derivative-OPLS-2005>
2.03883528709412

$$$$
77
                    3D
 Structure written by MMmdl.
160168  0  0  1  0            999 V2000
  -30.5726  -14.7472   20.4868 C   0  0  0  0  0  0
  -30.4294  -12.4584   19.4955 C   0  0  0  0  0  0
  -29.5141  -12.5209   18.2502 C   0  0  0  0  0  0
  -28.0364  -12.3464   18.6445 C   0  0  0  0  0  0
  -27.6365  -13.2336   19.8516 C   0  0  2  0  0  0
  -28.6643  -13.1463   20.9989 C   0  0  0  0  0  0
  -25.2460  -13.8220   20.5628 C   0  0  0  0  0  0
  -24.1750  -13.0462   20.9170 C   0  0  0  0  0  0
  -24.6356  -11.6945   20.8741 C   0  0  0  0  0  0
  -23.9063  -10.4309   21.0436 C   0  0  0  0  0  0
  -24.3625   -9.4210   21.9204 C   0  0  0  0  0  0
  -23.6277   -8.2252   22.0774 C   0  0  0  0  0  0
  -22.4265   -8.0291   21.3559 C   0  0  0  0  0  0
  -21.9910   -9.0269   20.4667 C   0  0  0  0  0  0
  -22.7245  -10.2144   20.3078 C   0  0  0  0  0  0
  -21.6837   -6.0732   22.5285 C   0  0  0  0  0  0
  -21.4014   -6.5648   23.8201 C   0  0  0  0  0  0
  -21.3660   -5.6813   24.9179 C   0  0  0  0  0  0
  -21.6031   -4.3065   24.7222 C   0  0  0  0  0  0
  -21.8810   -3.8146   23.4355 C   0  0  0  0  0  0
  -21.9191   -4.6962   22.3399 C   0  0  0  0  0  0
  -22.7785  -13.5240   21.1869 C   0  0  0  0  0  0
  -22.1653   -4.2142   21.0978 F   0  0  0  0  0  0
  -21.5626   -3.4554   25.7741 F   0  0  0  0  0  0
  -29.9790  -13.5047   20.4431 N   0  0  0  0  0  0
  -26.2870  -12.9410   20.3196 N   0  0  0  0  0  0
  -25.9270  -11.6554   20.5709 N   0  0  0  0  0  0
  -22.0430  -12.8256   22.0463 N   0  0  0  0  0  0
  -25.4184  -15.1937   20.4086 N   0  0  0  0  0  0
  -31.7348  -14.8939   20.0894 O   0  0  0  0  0  0
  -21.6635   -6.8881   21.4234 O   0  0  0  0  0  0
  -22.3466  -14.5532   20.6728 O   0  0  0  0  0  0
  -24.6310  -31.8547   23.1958 C   0  0  0  0  0  0
  -25.9115  -32.4767   23.8320 C   0  0  1  0  0  0
  -27.2268  -27.2645   20.1494 C   0  0  0  0  0  0
  -25.5912  -33.8562   24.2267 N   0  0  0  0  0  0
  -23.4314  -30.4768   21.5406 C   0  0  2  0  0  0
  -24.8790  -28.9152   20.1194 C   0  0  0  0  0  0
  -22.7514  -29.4617   22.4921 C   0  0  0  0  0  0
  -18.0312  -28.1383   22.8464 C   0  0  0  0  0  0
  -24.1485  -36.7292   23.2648 C   0  0  0  0  0  0
  -25.9751  -30.7729   21.3709 C   0  0  0  0  0  0
  -26.0508  -29.3915   20.7225 C   0  0  0  0  0  0
  -27.2317  -28.5811   20.7197 C   0  0  0  0  0  0
  -26.0339  -26.8468   19.5232 C   0  0  0  0  0  0
  -24.8744  -27.6495   19.5109 C   0  0  0  0  0  0
  -23.6508  -29.8051   20.1611 C   0  0  0  0  0  0
  -25.4104  -36.3074   24.0337 C   0  0  1  0  0  0
  -20.5904  -28.3712   23.1253 C   0  0  2  0  0  0
  -20.6869  -26.9468   22.5303 C   0  0  0  0  0  0
  -19.5788  -26.6384   21.5174 C   0  0  0  0  0  0
  -18.1957  -26.7949   22.1558 C   0  0  0  0  0  0
  -19.1559  -28.8853   23.2845 C   0  0  0  0  0  0
  -18.9510  -30.1447   23.8873 C   0  0  0  0  0  0
  -17.6522  -30.6600   24.0511 C   0  0  0  0  0  0
  -25.9032  -34.9449   23.5109 C   0  0  0  0  0  0
  -16.5396  -29.9096   23.6310 C   0  0  0  0  0  0
  -16.7307  -28.6487   23.0364 C   0  0  0  0  0  0
  -26.4480  -31.6576   25.0705 C   0  0  0  0  0  0
  -25.3720  -31.3707   26.1448 C   0  0  0  0  0  0
  -27.0311  -30.3002   24.6139 C   0  0  0  0  0  0
  -27.6050  -32.4300   25.7478 C   0  0  0  0  0  0
  -27.5565  -37.1792   24.8462 C   0  0  0  0  0  0
  -21.4214  -29.3122   22.3714 N   0  0  0  0  0  0
  -26.4282  -37.3764   23.9403 N   0  0  0  0  0  0
  -24.6987  -31.0518   22.0934 N   0  0  0  0  0  0
  -23.4203  -28.8111   23.2984 O   0  0  0  0  0  0
  -28.3247  -26.3792   20.1625 O   0  0  0  0  0  0
  -26.5616  -34.8925   22.4680 O   0  0  0  0  0  0
  -23.5467  -32.1351   23.7275 O   0  0  0  0  0  0
  -29.6532  -18.4481   20.9523 C   0  0  0  0  0  0
  -29.0111  -17.1717   19.0056 C   0  0  0  0  0  0
  -29.2048  -19.7166   20.3695 C   0  0  0  0  0  0
  -28.5432  -18.3612   18.4018 C   0  0  0  0  0  0
  -28.6170  -19.6202   19.0769 C   0  0  0  0  0  0
  -29.5671  -17.1531   20.2962 C   0  0  0  0  0  0
  -29.3378  -21.0551   21.1593 C   0  0  0  0  0  0
  -29.1689  -22.4501   21.1058 C   0  0  0  0  0  0
  -28.0016  -20.8656   18.4577 C   0  0  0  0  0  0
  -26.3691  -18.0696   17.1355 C   0  0  0  0  0  0
  -27.8945  -18.2096   17.0299 C   0  0  0  0  0  0
  -28.7344  -23.6433   20.1306 C   0  0  0  0  0  0
  -28.1722  -25.0218   20.7918 C   0  0  0  0  0  0
  -29.8031  -15.8222   20.9115 N   0  0  0  0  0  0
  -31.4709  -12.5986   19.2033 H   0  0  0  0  0  0
  -30.3812  -11.4776   19.9731 H   0  0  0  0  0  0
  -29.8038  -11.7499   17.5367 H   0  0  0  0  0  0
  -29.6422  -13.4774   17.7410 H   0  0  0  0  0  0
  -27.8825  -11.2924   18.8841 H   0  0  0  0  0  0
  -27.3928  -12.5634   17.7907 H   0  0  0  0  0  0
  -27.6407  -14.2588   19.4804 H   0  0  0  0  0  0
  -28.6797  -12.1414   21.4275 H   0  0  0  0  0  0
  -28.3706  -13.8118   21.8142 H   0  0  0  0  0  0
  -25.2756   -9.5671   22.4798 H   0  0  0  0  0  0
  -23.9965   -7.4637   22.7506 H   0  0  0  0  0  0
  -21.0840   -8.8793   19.8975 H   0  0  0  0  0  0
  -22.3691  -10.9698   19.6203 H   0  0  0  0  0  0
  -21.2013   -7.6157   23.9703 H   0  0  0  0  0  0
  -21.1491   -6.0550   25.9078 H   0  0  0  0  0  0
  -22.0585   -2.7604   23.2859 H   0  0  0  0  0  0
  -22.4001  -11.9894   22.4839 H   0  0  0  0  0  0
  -21.1050  -13.1302   22.2625 H   0  0  0  0  0  0
  -24.6526  -15.8483   20.5224 H   0  0  0  0  0  0
  -26.2738  -15.6384   20.0990 H   0  0  0  0  0  0
  -26.7192  -32.5423   23.1075 H   0  0  0  0  0  0
  -25.0018  -33.9678   25.0387 H   0  0  0  0  0  0
  -22.7302  -31.3008   21.3907 H   0  0  0  0  0  0
  -23.3744  -35.9626   23.3303 H   0  0  0  0  0  0
  -24.3595  -36.8914   22.2067 H   0  0  0  0  0  0
  -23.7235  -37.6496   23.6665 H   0  0  0  0  0  0
  -26.1002  -31.5273   20.5928 H   0  0  0  0  0  0
  -26.8589  -30.8354   21.9962 H   0  0  0  0  0  0
  -28.1340  -28.9421   21.1944 H   0  0  0  0  0  0
  -25.9883  -25.8745   19.0532 H   0  0  0  0  0  0
  -23.9761  -27.2731   19.0412 H   0  0  0  0  0  0
  -23.7736  -30.5763   19.4009 H   0  0  0  0  0  0
  -22.7684  -29.2403   19.8606 H   0  0  0  0  0  0
  -25.1278  -36.1941   25.0829 H   0  0  0  0  0  0
  -20.9988  -28.3288   24.1378 H   0  0  0  0  0  0
  -20.5941  -26.2282   23.3453 H   0  0  0  0  0  0
  -21.6710  -26.7642   22.0960 H   0  0  0  0  0  0
  -19.6929  -25.6283   21.1245 H   0  0  0  0  0  0
  -19.6736  -27.3118   20.6644 H   0  0  0  0  0  0
  -17.4263  -26.6802   21.3893 H   0  0  0  0  0  0
  -18.0295  -26.0048   22.8899 H   0  0  0  0  0  0
  -19.8004  -30.7251   24.2233 H   0  0  0  0  0  0
  -17.5105  -31.6327   24.5047 H   0  0  0  0  0  0
  -15.5392  -30.3003   23.7638 H   0  0  0  0  0  0
  -15.8702  -28.0800   22.7112 H   0  0  0  0  0  0
  -24.5907  -30.7029   25.7790 H   0  0  0  0  0  0
  -24.8890  -32.2862   26.4871 H   0  0  0  0  0  0
  -25.8065  -30.8900   27.0223 H   0  0  0  0  0  0
  -26.2861  -29.6780   24.1163 H   0  0  0  0  0  0
  -27.4017  -29.7231   25.4619 H   0  0  0  0  0  0
  -27.8727  -30.4307   23.9340 H   0  0  0  0  0  0
  -27.2662  -33.3610   26.2040 H   0  0  0  0  0  0
  -28.3857  -32.6843   25.0293 H   0  0  0  0  0  0
  -28.0709  -31.8421   26.5401 H   0  0  0  0  0  0
  -28.2584  -38.0089   24.7491 H   0  0  0  0  0  0
  -28.1055  -36.2613   24.6293 H   0  0  0  0  0  0
  -27.2286  -37.1446   25.8870 H   0  0  0  0  0  0
  -20.9380  -29.9009   21.7079 H   0  0  0  0  0  0
  -26.0176  -38.2848   24.1379 H   0  0  0  0  0  0
  -30.0530  -18.4622   21.9570 H   0  0  0  0  0  0
  -28.8734  -16.2338   18.4846 H   0  0  0  0  0  0
  -29.7119  -20.8051   22.1445 H   0  0  0  0  0  0
  -29.4712  -22.9043   22.0408 H   0  0  0  0  0  0
  -28.7815  -21.5741   18.1759 H   0  0  0  0  0  0
  -27.3291  -21.3167   19.1884 H   0  0  0  0  0  0
  -27.3914  -20.6885   17.5785 H   0  0  0  0  0  0
  -25.9061  -17.9772   16.1522 H   0  0  0  0  0  0
  -25.9208  -18.9329   17.6262 H   0  0  0  0  0  0
  -26.1033  -17.1863   17.7165 H   0  0  0  0  0  0
  -28.2984  -17.3226   16.5393 H   0  0  0  0  0  0
  -28.1760  -19.0331   16.3750 H   0  0  0  0  0  0
  -28.0168  -23.3297   19.3815 H   0  0  0  0  0  0
  -29.6364  -23.8999   19.5768 H   0  0  0  0  0  0
  -28.6593  -25.1220   21.7618 H   0  0  0  0  0  0
  -27.1245  -24.8580   21.0395 H   0  0  0  0  0  0
  -28.9864  -15.4859   21.3996 H   0  0  0  0  0  0
  1 25  1  0  0  0
  1 30  2  0  0  0
  1 84  1  0  0  0
  2  3  1  0  0  0
  2 25  1  0  0  0
  2 85  1  0  0  0
  2 86  1  0  0  0
  3  4  1  0  0  0
  3 87  1  0  0  0
  3 88  1  0  0  0
  4  5  1  0  0  0
  4 89  1  0  0  0
  4 90  1  0  0  0
  5  6  1  0  0  0
  5 26  1  0  0  0
  5 91  1  0  0  0
  6 25  1  0  0  0
  6 92  1  0  0  0
  6 93  1  0  0  0
  7  8  2  0  0  0
  7 26  1  0  0  0
  7 29  1  0  0  0
  8  9  1  0  0  0
  8 22  1  0  0  0
  9 10  1  0  0  0
  9 27  2  0  0  0
 10 11  2  0  0  0
 10 15  1  0  0  0
 11 12  1  0  0  0
 11 94  1  0  0  0
 12 13  2  0  0  0
 12 95  1  0  0  0
 13 14  1  0  0  0
 13 31  1  0  0  0
 14 15  2  0  0  0
 14 96  1  0  0  0
 15 97  1  0  0  0
 16 17  2  0  0  0
 16 21  1  0  0  0
 16 31  1  0  0  0
 17 18  1  0  0  0
 17 98  1  0  0  0
 18 19  2  0  0  0
 18 99  1  0  0  0
 19 20  1  0  0  0
 19 24  1  0  0  0
 20 21  2  0  0  0
 20100  1  0  0  0
 21 23  1  0  0  0
 22 28  1  0  0  0
 22 32  2  0  0  0
 26 27  1  0  0  0
 28101  1  0  0  0
 28102  1  0  0  0
 29103  1  0  0  0
 29104  1  0  0  0
 33 34  1  0  0  0
 33 66  1  0  0  0
 33 70  2  0  0  0
 34 36  1  0  0  0
 34 59  1  0  0  0
 34105  1  0  0  0
 35 44  2  0  0  0
 35 45  1  0  0  0
 35 68  1  0  0  0
 36 56  1  0  0  0
 36106  1  0  0  0
 37 39  1  0  0  0
 37 47  1  0  0  0
 37 66  1  0  0  0
 37107  1  0  0  0
 38 43  2  0  0  0
 38 46  1  0  0  0
 38 47  1  0  0  0
 39 64  1  0  0  0
 39 67  2  0  0  0
 40 52  1  0  0  0
 40 53  2  0  0  0
 40 58  1  0  0  0
 41108  1  0  0  0
 41109  1  0  0  0
 41110  1  0  0  0
 41 48  1  0  0  0
 42 43  1  0  0  0
 42 66  1  0  0  0
 42111  1  0  0  0
 42112  1  0  0  0
 43 44  1  0  0  0
 44113  1  0  0  0
 45 46  2  0  0  0
 45114  1  0  0  0
 46115  1  0  0  0
 47116  1  0  0  0
 47117  1  0  0  0
 48 56  1  0  0  0
 48 65  1  0  0  0
 48118  1  0  0  0
 49 50  1  0  0  0
 49 53  1  0  0  0
 49 64  1  0  0  0
 49119  1  0  0  0
 50 51  1  0  0  0
 50120  1  0  0  0
 50121  1  0  0  0
 51 52  1  0  0  0
 51122  1  0  0  0
 51123  1  0  0  0
 52124  1  0  0  0
 52125  1  0  0  0
 53 54  1  0  0  0
 54 55  2  0  0  0
 54126  1  0  0  0
 55 57  1  0  0  0
 55127  1  0  0  0
 56 69  2  0  0  0
 57 58  2  0  0  0
 57128  1  0  0  0
 58129  1  0  0  0
 59 60  1  0  0  0
 59 61  1  0  0  0
 59 62  1  0  0  0
 60130  1  0  0  0
 60131  1  0  0  0
 60132  1  0  0  0
 61133  1  0  0  0
 61134  1  0  0  0
 61135  1  0  0  0
 62136  1  0  0  0
 62137  1  0  0  0
 62138  1  0  0  0
 63 65  1  0  0  0
 63139  1  0  0  0
 63140  1  0  0  0
 63141  1  0  0  0
 64142  1  0  0  0
 65143  1  0  0  0
 68 83  1  0  0  0
 71 73  2  0  0  0
 71 76  1  0  0  0
 71144  1  0  0  0
 72 74  1  0  0  0
 72 76  2  0  0  0
 72145  1  0  0  0
 73 75  1  0  0  0
 73 77  1  0  0  0
 74 75  2  0  0  0
 74 81  1  0  0  0
 75 79  1  0  0  0
 76 84  1  0  0  0
 77 78  2  0  0  0
 77146  1  0  0  0
 78 82  1  0  0  0
 78147  1  0  0  0
 79148  1  0  0  0
 79149  1  0  0  0
 79150  1  0  0  0
 80 81  1  0  0  0
 80151  1  0  0  0
 80152  1  0  0  0
 80153  1  0  0  0
 81154  1  0  0  0
 81155  1  0  0  0
 82 83  1  0  0  0
 82156  1  0  0  0
 82157  1  0  0  0
 83158  1  0  0  0
 83159  1  0  0  0
 84160  1  0  0  0
M  ISO  4   1 100  68 101  83 101  84 100
M  END
> <chiral flag>
0

> <version>
0

> <s_m_source_file>
/data/baiqing/PycharmProjects/Reinvent-master-3.2/result/LINK_invent/BTK/process_docking_weight1_custom_product_contain_oxygen_bond_distance_aromatic_linkinvent_7_9_3/rearranged_h_0124.sdf

> <i_m_source_file_index>
77

> <r_mmod_Potential_Energy-OPLS-2005>
293.713592529297

> <r_mmod_Stretch_Energy-OPLS-2005>
133.139038085938

> <r_mmod_Bend_Energy-OPLS-2005>
235.710159301758

> <r_mmod_Torsional_Energy-OPLS-2005>
273.286865234375

> <r_mmod_Improper_Torsional_Energy-OPLS-2005>
6.41024255752563

> <r_mmod_Van_der_Waal_Energy-OPLS-2005>
137.973419189453

> <r_mmod_Electrostatic_Energy-OPLS-2005>
-372.664855957031

> <r_mmod_Solvation_Energy-OPLS-2005>
-204.707778930664

> <b_mmod_Minimization_Converged-OPLS-2005>
0

> <r_mmod_RMS_Derivative-OPLS-2005>
4.56373453140259

$$$$
78
                    3D
 Structure written by MMmdl.
157165  0  0  1  0            999 V2000
  -30.6237  -14.6280   20.5049 C   0  0  0  0  0  0
  -30.4375  -12.3857   19.4513 C   0  0  0  0  0  0
  -29.5064  -12.5095   18.2241 C   0  0  0  0  0  0
  -28.0290  -12.3493   18.6357 C   0  0  0  0  0  0
  -27.6550  -13.2151   19.8680 C   0  0  2  0  0  0
  -28.6992  -13.0582   20.9967 C   0  0  0  0  0  0
  -25.2554  -13.8141   20.5655 C   0  0  0  0  0  0
  -24.1825  -13.0422   20.9183 C   0  0  0  0  0  0
  -24.6398  -11.6895   20.8748 C   0  0  0  0  0  0
  -23.9066  -10.4281   21.0411 C   0  0  0  0  0  0
  -24.3616   -9.4195   21.9190 C   0  0  0  0  0  0
  -23.6286   -8.2234   22.0760 C   0  0  0  0  0  0
  -22.4271   -8.0274   21.3547 C   0  0  0  0  0  0
  -21.9906   -9.0250   20.4654 C   0  0  0  0  0  0
  -22.7236  -10.2128   20.3063 C   0  0  0  0  0  0
  -21.6851   -6.0731   22.5278 C   0  0  0  0  0  0
  -21.4014   -6.5640   23.8211 C   0  0  0  0  0  0
  -21.3659   -5.6794   24.9173 C   0  0  0  0  0  0
  -21.6044   -4.3056   24.7224 C   0  0  0  0  0  0
  -21.8820   -3.8147   23.4345 C   0  0  0  0  0  0
  -21.9191   -4.6960   22.3400 C   0  0  0  0  0  0
  -22.7849  -13.5219   21.1846 C   0  0  0  0  0  0
  -22.1662   -4.2149   21.0975 F   0  0  0  0  0  0
  -21.5629   -3.4540   25.7736 F   0  0  0  0  0  0
  -30.0169  -13.4011   20.4370 N   0  0  0  0  0  0
  -26.3000  -12.9336   20.3341 N   0  0  0  0  0  0
  -25.9333  -11.6494   20.5785 N   0  0  0  0  0  0
  -22.0495  -12.8213   22.0407 N   0  0  0  0  0  0
  -25.4239  -15.1837   20.3984 N   0  0  0  0  0  0
  -31.7783  -14.7944   20.1006 O   0  0  0  0  0  0
  -21.6636   -6.8872   21.4239 O   0  0  0  0  0  0
  -22.3537  -14.5528   20.6699 O   0  0  0  0  0  0
  -24.6249  -31.8615   23.2038 C   0  0  0  0  0  0
  -25.9109  -32.4781   23.8360 C   0  0  1  0  0  0
  -27.2279  -27.3343   20.1091 C   0  0  0  0  0  0
  -25.5932  -33.8582   24.2285 N   0  0  0  0  0  0
  -23.4176  -30.4851   21.5461 C   0  0  2  0  0  0
  -24.8641  -28.9425   20.1123 C   0  0  0  0  0  0
  -22.7471  -29.4628   22.4946 C   0  0  0  0  0  0
  -18.0287  -28.1371   22.8484 C   0  0  0  0  0  0
  -24.1491  -36.7291   23.2639 C   0  0  0  0  0  0
  -25.9577  -30.7962   21.3738 C   0  0  0  0  0  0
  -26.0328  -29.4257   20.7136 C   0  0  0  0  0  0
  -27.2186  -28.6339   20.7003 C   0  0  0  0  0  0
  -26.0324  -26.8988   19.4912 C   0  0  0  0  0  0
  -24.8644  -27.6833   19.4940 C   0  0  0  0  0  0
  -23.6315  -29.8211   20.1610 C   0  0  0  0  0  0
  -25.4113  -36.3081   24.0333 C   0  0  1  0  0  0
  -20.5885  -28.3679   23.1283 C   0  0  2  0  0  0
  -20.6777  -26.9407   22.5404 C   0  0  0  0  0  0
  -19.5749  -26.6377   21.5204 C   0  0  0  0  0  0
  -18.1933  -26.7914   22.1619 C   0  0  0  0  0  0
  -19.1540  -28.8845   23.2873 C   0  0  0  0  0  0
  -18.9464  -30.1448   23.8889 C   0  0  0  0  0  0
  -17.6465  -30.6582   24.0559 C   0  0  0  0  0  0
  -25.9052  -34.9453   23.5107 C   0  0  0  0  0  0
  -16.5355  -29.9079   23.6323 C   0  0  0  0  0  0
  -16.7275  -28.6492   23.0348 C   0  0  0  0  0  0
  -26.4499  -31.6586   25.0725 C   0  0  0  0  0  0
  -25.3734  -31.3724   26.1453 C   0  0  0  0  0  0
  -27.0344  -30.3013   24.6168 C   0  0  0  0  0  0
  -27.6061  -32.4323   25.7495 C   0  0  0  0  0  0
  -27.5582  -37.1799   24.8467 C   0  0  0  0  0  0
  -21.4188  -29.3036   22.3690 N   0  0  0  0  0  0
  -26.4294  -37.3775   23.9414 N   0  0  0  0  0  0
  -24.6850  -31.0646   22.0977 N   0  0  0  0  0  0
  -23.4197  -28.8165   23.3022 O   0  0  0  0  0  0
  -28.3569  -26.5025   20.1497 O   0  0  0  0  0  0
  -26.5619  -34.8921   22.4669 O   0  0  0  0  0  0
  -23.5421  -32.1414   23.7376 O   0  0  0  0  0  0
  -28.8966  -19.3789   21.1430 C   0  0  0  0  0  0
  -30.8380  -17.7809   19.9250 C   0  0  0  0  0  0
  -29.8647  -20.0393   20.3475 C   0  0  0  0  0  0
  -28.8793  -17.9584   21.3299 C   0  0  0  0  0  0
  -29.8699  -17.1170   20.7247 C   0  0  0  0  0  0
  -30.8334  -19.1927   19.7407 C   0  0  0  0  0  0
  -29.9293  -21.5487   20.1514 C   0  0  0  0  0  0
  -29.1117  -22.5625   20.5769 C   0  0  0  0  0  0
  -26.3989  -17.9897   22.0469 C   0  0  0  0  0  0
  -27.7908  -17.3605   22.2264 C   0  0  0  0  0  0
  -29.3693  -24.0989   20.3964 C   0  0  0  0  0  0
  -28.1471  -25.0432   20.0552 C   0  0  0  0  0  0
  -29.8242  -15.6620   20.9160 N   0  0  0  0  0  0
  -31.7982  -19.7421   18.9624 F   0  0  0  0  0  0
  -31.4788  -12.5096   19.1494 H   0  0  0  0  0  0
  -30.3712  -11.3875   19.8863 H   0  0  0  0  0  0
  -29.7690  -11.7615   17.4749 H   0  0  0  0  0  0
  -29.6502  -13.4807   17.7480 H   0  0  0  0  0  0
  -27.8626  -11.2954   18.8624 H   0  0  0  0  0  0
  -27.3752  -12.5860   17.7954 H   0  0  0  0  0  0
  -27.6772  -14.2529   19.5352 H   0  0  0  0  0  0
  -28.7067  -12.0334   21.3713 H   0  0  0  0  0  0
  -28.4437  -13.6820   21.8541 H   0  0  0  0  0  0
  -25.2762   -9.5667   22.4765 H   0  0  0  0  0  0
  -23.9997   -7.4623   22.7480 H   0  0  0  0  0  0
  -21.0839   -8.8768   19.8957 H   0  0  0  0  0  0
  -22.3699  -10.9667   19.6173 H   0  0  0  0  0  0
  -21.2011   -7.6151   23.9713 H   0  0  0  0  0  0
  -21.1483   -6.0526   25.9076 H   0  0  0  0  0  0
  -22.0600   -2.7609   23.2845 H   0  0  0  0  0  0
  -22.4117  -11.9868   22.4781 H   0  0  0  0  0  0
  -21.1128  -13.1259   22.2642 H   0  0  0  0  0  0
  -24.6539  -15.8337   20.5075 H   0  0  0  0  0  0
  -26.2672  -15.6232   20.0546 H   0  0  0  0  0  0
  -26.7178  -32.5460   23.1112 H   0  0  0  0  0  0
  -25.0091  -33.9726   25.0437 H   0  0  0  0  0  0
  -22.7096  -31.3043   21.4040 H   0  0  0  0  0  0
  -23.3754  -35.9623   23.3304 H   0  0  0  0  0  0
  -24.3584  -36.8909   22.2055 H   0  0  0  0  0  0
  -23.7241  -37.6491   23.6659 H   0  0  0  0  0  0
  -26.0891  -31.5631   20.6095 H   0  0  0  0  0  0
  -26.8376  -30.8416   22.0040 H   0  0  0  0  0  0
  -28.1170  -29.0013   21.1766 H   0  0  0  0  0  0
  -25.9702  -25.9385   19.0026 H   0  0  0  0  0  0
  -23.9678  -27.3056   19.0213 H   0  0  0  0  0  0
  -23.7506  -30.5987   19.4054 H   0  0  0  0  0  0
  -22.7518  -29.2502   19.8585 H   0  0  0  0  0  0
  -25.1286  -36.1939   25.0823 H   0  0  0  0  0  0
  -20.9967  -28.3257   24.1408 H   0  0  0  0  0  0
  -20.5671  -26.2294   23.3602 H   0  0  0  0  0  0
  -21.6646  -26.7434   22.1200 H   0  0  0  0  0  0
  -19.6913  -25.6285   21.1238 H   0  0  0  0  0  0
  -19.6688  -27.3189   20.6736 H   0  0  0  0  0  0
  -17.4196  -26.6664   21.4026 H   0  0  0  0  0  0
  -18.0333  -26.0049   22.9012 H   0  0  0  0  0  0
  -19.7949  -30.7256   24.2259 H   0  0  0  0  0  0
  -17.5028  -31.6264   24.5160 H   0  0  0  0  0  0
  -15.5356  -30.2978   23.7656 H   0  0  0  0  0  0
  -15.8674  -28.0814   22.7060 H   0  0  0  0  0  0
  -24.5907  -30.7070   25.7794 H   0  0  0  0  0  0
  -24.8921  -32.2888   26.4880 H   0  0  0  0  0  0
  -25.8060  -30.8906   27.0230 H   0  0  0  0  0  0
  -26.2913  -29.6760   24.1204 H   0  0  0  0  0  0
  -27.4065  -29.7270   25.4665 H   0  0  0  0  0  0
  -27.8773  -30.4302   23.9371 H   0  0  0  0  0  0
  -27.2669  -33.3630   26.2056 H   0  0  0  0  0  0
  -28.3877  -32.6878   25.0325 H   0  0  0  0  0  0
  -28.0716  -31.8454   26.5422 H   0  0  0  0  0  0
  -28.2592  -38.0105   24.7516 H   0  0  0  0  0  0
  -28.1081  -36.2632   24.6282 H   0  0  0  0  0  0
  -27.2299  -37.1434   25.8871 H   0  0  0  0  0  0
  -20.9375  -29.8769   21.6904 H   0  0  0  0  0  0
  -26.0177  -38.2849   24.1415 H   0  0  0  0  0  0
  -28.1560  -19.9900   21.6342 H   0  0  0  0  0  0
  -31.6100  -17.2159   19.4255 H   0  0  0  0  0  0
  -30.8005  -21.8677   19.5964 H   0  0  0  0  0  0
  -28.2205  -22.3103   21.1333 H   0  0  0  0  0  0
  -25.6574  -17.4409   22.6282 H   0  0  0  0  0  0
  -26.0854  -17.9630   21.0026 H   0  0  0  0  0  0
  -26.3627  -19.0245   22.3858 H   0  0  0  0  0  0
  -28.1081  -17.4623   23.2651 H   0  0  0  0  0  0
  -27.6829  -16.2914   22.0525 H   0  0  0  0  0  0
  -30.1537  -24.2411   19.6514 H   0  0  0  0  0  0
  -29.7912  -24.4448   21.3406 H   0  0  0  0  0  0
  -27.3240  -24.7759   20.7209 H   0  0  0  0  0  0
  -27.8242  -24.8009   19.0429 H   0  0  0  0  0  0
  -28.9650  -15.3303   21.3238 H   0  0  0  0  0  0
  1 25  1  0  0  0
  1 30  2  0  0  0
  1 83  1  0  0  0
  2  3  1  0  0  0
  2 25  1  0  0  0
  2 85  1  0  0  0
  2 86  1  0  0  0
  3  4  1  0  0  0
  3 87  1  0  0  0
  3 88  1  0  0  0
  4  5  1  0  0  0
  4 89  1  0  0  0
  4 90  1  0  0  0
  5  6  1  0  0  0
  5 26  1  0  0  0
  5 91  1  0  0  0
  6 25  1  0  0  0
  6 92  1  0  0  0
  6 93  1  0  0  0
  7  8  2  0  0  0
  7 26  1  0  0  0
  7 29  1  0  0  0
  8  9  1  0  0  0
  8 22  1  0  0  0
  9 10  1  0  0  0
  9 27  2  0  0  0
 10 11  2  0  0  0
 10 15  1  0  0  0
 11 12  1  0  0  0
 11 94  1  0  0  0
 12 13  2  0  0  0
 12 95  1  0  0  0
 13 14  1  0  0  0
 13 31  1  0  0  0
 14 15  2  0  0  0
 14 96  1  0  0  0
 15 97  1  0  0  0
 16 17  2  0  0  0
 16 21  1  0  0  0
 16 31  1  0  0  0
 17 18  1  0  0  0
 17 98  1  0  0  0
 18 19  2  0  0  0
 18 99  1  0  0  0
 19 20  1  0  0  0
 19 24  1  0  0  0
 20 21  2  0  0  0
 20100  1  0  0  0
 21 23  1  0  0  0
 22 28  1  0  0  0
 22 32  2  0  0  0
 26 27  1  0  0  0
 28101  1  0  0  0
 28102  1  0  0  0
 29103  1  0  0  0
 29104  1  0  0  0
 33 34  1  0  0  0
 33 66  1  0  0  0
 33 70  2  0  0  0
 34 36  1  0  0  0
 34 59  1  0  0  0
 34105  1  0  0  0
 35 44  2  0  0  0
 35 45  1  0  0  0
 35 68  1  0  0  0
 36 56  1  0  0  0
 36106  1  0  0  0
 37 39  1  0  0  0
 37 47  1  0  0  0
 37 66  1  0  0  0
 37107  1  0  0  0
 38 43  2  0  0  0
 38 46  1  0  0  0
 38 47  1  0  0  0
 39 64  1  0  0  0
 39 67  2  0  0  0
 40 52  1  0  0  0
 40 53  2  0  0  0
 40 58  1  0  0  0
 41108  1  0  0  0
 41109  1  0  0  0
 41110  1  0  0  0
 41 48  1  0  0  0
 42 43  1  0  0  0
 42 66  1  0  0  0
 42111  1  0  0  0
 42112  1  0  0  0
 43 44  1  0  0  0
 44113  1  0  0  0
 45 46  2  0  0  0
 45114  1  0  0  0
 46115  1  0  0  0
 47116  1  0  0  0
 47117  1  0  0  0
 48 56  1  0  0  0
 48 65  1  0  0  0
 48118  1  0  0  0
 49 50  1  0  0  0
 49 53  1  0  0  0
 49 64  1  0  0  0
 49119  1  0  0  0
 50 51  1  0  0  0
 50120  1  0  0  0
 50121  1  0  0  0
 51 52  1  0  0  0
 51122  1  0  0  0
 51123  1  0  0  0
 52124  1  0  0  0
 52125  1  0  0  0
 53 54  1  0  0  0
 54 55  2  0  0  0
 54126  1  0  0  0
 55 57  1  0  0  0
 55127  1  0  0  0
 56 69  2  0  0  0
 57 58  2  0  0  0
 57128  1  0  0  0
 58129  1  0  0  0
 59 60  1  0  0  0
 59 61  1  0  0  0
 59 62  1  0  0  0
 60130  1  0  0  0
 60131  1  0  0  0
 60132  1  0  0  0
 61133  1  0  0  0
 61134  1  0  0  0
 61135  1  0  0  0
 62136  1  0  0  0
 62137  1  0  0  0
 62138  1  0  0  0
 63 65  1  0  0  0
 63139  1  0  0  0
 63140  1  0  0  0
 63141  1  0  0  0
 64142  1  0  0  0
 65143  1  0  0  0
 68 82  1  0  0  0
 71 73  2  0  0  0
 71 74  1  0  0  0
 71144  1  0  0  0
 72 75  1  0  0  0
 72 76  2  0  0  0
 72145  1  0  0  0
 73 76  1  0  0  0
 73 77  1  0  0  0
 74 75  2  0  0  0
 74 80  1  0  0  0
 75 83  1  0  0  0
 76 84  1  0  0  0
 77 78  2  0  0  0
 77146  1  0  0  0
 78 81  1  0  0  0
 78147  1  0  0  0
 79 80  1  0  0  0
 79148  1  0  0  0
 79149  1  0  0  0
 79150  1  0  0  0
 80151  1  0  0  0
 80152  1  0  0  0
 81 82  1  0  0  0
 81153  1  0  0  0
 81154  1  0  0  0
 82155  1  0  0  0
 82156  1  0  0  0
 83157  1  0  0  0
M  ISO  4   1 100  68 101  82 101  83 100
M  END
> <chiral flag>
0

> <version>
0

> <s_m_source_file>
/data/baiqing/PycharmProjects/Reinvent-master-3.2/result/LINK_invent/BTK/process_docking_weight1_custom_product_contain_oxygen_bond_distance_aromatic_linkinvent_7_9_3/rearranged_h_0124.sdf

> <i_m_source_file_index>
78

> <r_mmod_Potential_Energy-OPLS-2005>
55.6189994812012

> <r_mmod_Stretch_Energy-OPLS-2005>
75.131477355957

> <r_mmod_Bend_Energy-OPLS-2005>
129.371978759766

> <r_mmod_Torsional_Energy-OPLS-2005>
210.500411987305

> <r_mmod_Improper_Torsional_Energy-OPLS-2005>
3.96867680549622

> <r_mmod_Van_der_Waal_Energy-OPLS-2005>
147.35285949707

> <r_mmod_Electrostatic_Energy-OPLS-2005>
-355.554168701172

> <r_mmod_Solvation_Energy-OPLS-2005>
-197.750686645508

> <b_mmod_Minimization_Converged-OPLS-2005>
0

> <r_mmod_RMS_Derivative-OPLS-2005>
1.00894391536713

$$$$
79
                    3D
 Structure written by MMmdl.
153161  0  0  1  0            999 V2000
  -30.6289  -14.7353   20.4821 C   0  0  0  0  0  0
  -30.4229  -12.4563   19.4709 C   0  0  0  0  0  0
  -29.4988  -12.5018   18.2326 C   0  0  0  0  0  0
  -28.0248  -12.3330   18.6468 C   0  0  0  0  0  0
  -27.6318  -13.2350   19.8467 C   0  0  2  0  0  0
  -28.6760  -13.1830   20.9832 C   0  0  0  0  0  0
  -25.2436  -13.8205   20.5682 C   0  0  0  0  0  0
  -24.1739  -13.0434   20.9201 C   0  0  0  0  0  0
  -24.6351  -11.6924   20.8751 C   0  0  0  0  0  0
  -23.9040  -10.4298   21.0415 C   0  0  0  0  0  0
  -24.3598   -9.4227   21.9197 C   0  0  0  0  0  0
  -23.6289   -8.2251   22.0758 C   0  0  0  0  0  0
  -22.4279   -8.0274   21.3536 C   0  0  0  0  0  0
  -21.9911   -9.0251   20.4637 C   0  0  0  0  0  0
  -22.7222  -10.2138   20.3065 C   0  0  0  0  0  0
  -21.6848   -6.0728   22.5263 C   0  0  0  0  0  0
  -21.4020   -6.5646   23.8192 C   0  0  0  0  0  0
  -21.3664   -5.6804   24.9156 C   0  0  0  0  0  0
  -21.6025   -4.3065   24.7211 C   0  0  0  0  0  0
  -21.8825   -3.8149   23.4349 C   0  0  0  0  0  0
  -21.9194   -4.6955   22.3399 C   0  0  0  0  0  0
  -22.7773  -13.5210   21.1893 C   0  0  0  0  0  0
  -22.1656   -4.2168   21.0967 F   0  0  0  0  0  0
  -21.5638   -3.4543   25.7714 F   0  0  0  0  0  0
  -29.9755  -13.5263   20.3936 N   0  0  0  0  0  0
  -26.2866  -12.9435   20.3296 N   0  0  0  0  0  0
  -25.9284  -11.6583   20.5767 N   0  0  0  0  0  0
  -22.0437  -12.8171   22.0449 N   0  0  0  0  0  0
  -25.4149  -15.1917   20.4028 N   0  0  0  0  0  0
  -31.8228  -14.8020   20.1747 O   0  0  0  0  0  0
  -21.6631   -6.8878   21.4235 O   0  0  0  0  0  0
  -22.3450  -14.5523   20.6749 O   0  0  0  0  0  0
  -24.6322  -31.8521   23.1980 C   0  0  0  0  0  0
  -25.9136  -32.4731   23.8342 C   0  0  1  0  0  0
  -27.2160  -27.2444   20.1414 C   0  0  0  0  0  0
  -25.5894  -33.8557   24.2204 N   0  0  0  0  0  0
  -23.4324  -30.4764   21.5365 C   0  0  2  0  0  0
  -24.8836  -28.9269   20.1046 C   0  0  0  0  0  0
  -22.7524  -29.4579   22.4894 C   0  0  0  0  0  0
  -18.0259  -28.1394   22.8440 C   0  0  0  0  0  0
  -24.1500  -36.7264   23.2645 C   0  0  0  0  0  0
  -25.9835  -30.7588   21.3853 C   0  0  0  0  0  0
  -26.0581  -29.3867   20.7194 C   0  0  0  0  0  0
  -27.2259  -28.5570   20.7252 C   0  0  0  0  0  0
  -26.0188  -26.8628   19.4897 C   0  0  0  0  0  0
  -24.8697  -27.6732   19.4791 C   0  0  0  0  0  0
  -23.6549  -29.8094   20.1525 C   0  0  0  0  0  0
  -25.4138  -36.3071   24.0327 C   0  0  1  0  0  0
  -20.5885  -28.3696   23.1251 C   0  0  2  0  0  0
  -20.6783  -26.9402   22.5400 C   0  0  0  0  0  0
  -19.5765  -26.6363   21.5214 C   0  0  0  0  0  0
  -18.1909  -26.7912   22.1601 C   0  0  0  0  0  0
  -19.1545  -28.8867   23.2793 C   0  0  0  0  0  0
  -18.9495  -30.1439   23.8819 C   0  0  0  0  0  0
  -17.6522  -30.6568   24.0592 C   0  0  0  0  0  0
  -25.9088  -34.9447   23.5091 C   0  0  0  0  0  0
  -16.5387  -29.9090   23.6360 C   0  0  0  0  0  0
  -16.7276  -28.6533   23.0344 C   0  0  0  0  0  0
  -26.4513  -31.6603   25.0763 C   0  0  0  0  0  0
  -25.3722  -31.3796   26.1467 C   0  0  0  0  0  0
  -27.0408  -30.3026   24.6313 C   0  0  0  0  0  0
  -27.6037  -32.4388   25.7516 C   0  0  0  0  0  0
  -27.5571  -37.1792   24.8455 C   0  0  0  0  0  0
  -21.4229  -29.3009   22.3630 N   0  0  0  0  0  0
  -26.4325  -37.3766   23.9407 N   0  0  0  0  0  0
  -24.6997  -31.0521   22.0914 N   0  0  0  0  0  0
  -23.4189  -28.8097   23.2986 O   0  0  0  0  0  0
  -28.2878  -26.3235   20.2128 O   0  0  0  0  0  0
  -26.5669  -34.8908   22.4644 O   0  0  0  0  0  0
  -23.5480  -32.1346   23.7271 O   0  0  0  0  0  0
  -31.3703  -19.8112   21.8251 C   0  0  0  0  0  0
  -29.7215  -18.5473   20.5747 C   0  0  0  0  0  0
  -31.4595  -17.3739   21.8348 C   0  0  0  0  0  0
  -30.2327  -19.8532   20.9870 C   0  0  0  0  0  0
  -31.9788  -18.6115   22.2419 C   0  0  0  0  0  0
  -30.3387  -17.2795   20.9836 C   0  0  0  0  0  0
  -29.9516  -21.3065   20.5107 C   0  0  0  0  0  0
  -28.9759  -22.2738   20.7534 C   0  0  0  0  0  0
  -29.1347  -23.7629   20.3281 C   0  0  0  0  0  0
  -33.2360  -18.6572   23.0945 C   0  0  0  0  0  0
  -27.9479  -24.8437   20.3049 C   0  0  0  0  0  0
  -29.8812  -15.8995   20.6510 N   0  0  0  0  0  0
  -30.2495  -24.1770   19.9896 O   0  0  0  0  0  0
  -31.4648  -12.5755   19.1695 H   0  0  0  0  0  0
  -30.3598  -11.4833   19.9682 H   0  0  0  0  0  0
  -29.7809  -11.7225   17.5239 H   0  0  0  0  0  0
  -29.6274  -13.4559   17.7144 H   0  0  0  0  0  0
  -27.8732  -11.2829   18.9081 H   0  0  0  0  0  0
  -27.3698  -12.5331   17.7978 H   0  0  0  0  0  0
  -27.6222  -14.2543   19.4599 H   0  0  0  0  0  0
  -28.7113  -12.1898   21.4379 H   0  0  0  0  0  0
  -28.4126  -13.8798   21.7789 H   0  0  0  0  0  0
  -25.2749   -9.5701   22.4776 H   0  0  0  0  0  0
  -23.9993   -7.4646   22.7479 H   0  0  0  0  0  0
  -21.0859   -8.8755   19.8940 H   0  0  0  0  0  0
  -22.3679  -10.9673   19.6169 H   0  0  0  0  0  0
  -21.2014   -7.6147   23.9702 H   0  0  0  0  0  0
  -21.1479   -6.0525   25.9056 H   0  0  0  0  0  0
  -22.0601   -2.7624   23.2815 H   0  0  0  0  0  0
  -22.4059  -11.9792   22.4740 H   0  0  0  0  0  0
  -21.1077  -13.1214   22.2744 H   0  0  0  0  0  0
  -24.6458  -15.8488   20.4904 H   0  0  0  0  0  0
  -26.2569  -15.6235   20.0468 H   0  0  0  0  0  0
  -26.7181  -32.5361   23.1060 H   0  0  0  0  0  0
  -25.0076  -33.9677   25.0390 H   0  0  0  0  0  0
  -22.7283  -31.3008   21.3886 H   0  0  0  0  0  0
  -23.3780  -35.9585   23.3337 H   0  0  0  0  0  0
  -24.3573  -36.8894   22.2050 H   0  0  0  0  0  0
  -23.7257  -37.6460   23.6685 H   0  0  0  0  0  0
  -26.1397  -31.5254   20.6249 H   0  0  0  0  0  0
  -26.8525  -30.7950   22.0289 H   0  0  0  0  0  0
  -28.1175  -28.9009   21.2343 H   0  0  0  0  0  0
  -25.9324  -25.9115   18.9899 H   0  0  0  0  0  0
  -23.9765  -27.3202   18.9797 H   0  0  0  0  0  0
  -23.7766  -30.5882   19.3976 H   0  0  0  0  0  0
  -22.7722  -29.2420   19.8472 H   0  0  0  0  0  0
  -25.1319  -36.1908   25.0840 H   0  0  0  0  0  0
  -20.9961  -28.3310   24.1400 H   0  0  0  0  0  0
  -20.5759  -26.2302   23.3615 H   0  0  0  0  0  0
  -21.6664  -26.7471   22.1168 H   0  0  0  0  0  0
  -19.6988  -25.6263   21.1233 H   0  0  0  0  0  0
  -19.6771  -27.3199   20.6758 H   0  0  0  0  0  0
  -17.4229  -26.6668   21.3940 H   0  0  0  0  0  0
  -18.0294  -26.0084   22.9012 H   0  0  0  0  0  0
  -19.8002  -30.7215   24.2232 H   0  0  0  0  0  0
  -17.5098  -31.6281   24.5114 H   0  0  0  0  0  0
  -15.5373  -30.2989   23.7736 H   0  0  0  0  0  0
  -15.8666  -28.0826   22.7113 H   0  0  0  0  0  0
  -24.5878  -30.7172   25.7826 H   0  0  0  0  0  0
  -24.8910  -32.2964   26.4857 H   0  0  0  0  0  0
  -25.7978  -30.9001   27.0275 H   0  0  0  0  0  0
  -26.3025  -29.6685   24.1359 H   0  0  0  0  0  0
  -27.4102  -29.7369   25.4865 H   0  0  0  0  0  0
  -27.8889  -30.4302   23.9592 H   0  0  0  0  0  0
  -27.2660  -33.3746   26.1965 H   0  0  0  0  0  0
  -28.3889  -32.6845   25.0380 H   0  0  0  0  0  0
  -28.0644  -31.8599   26.5529 H   0  0  0  0  0  0
  -28.2588  -38.0079   24.7509 H   0  0  0  0  0  0
  -28.1069  -36.2606   24.6302 H   0  0  0  0  0  0
  -27.2270  -37.1451   25.8853 H   0  0  0  0  0  0
  -20.9439  -29.8783   21.6855 H   0  0  0  0  0  0
  -26.0176  -38.2844   24.1425 H   0  0  0  0  0  0
  -31.8231  -20.7426   22.1319 H   0  0  0  0  0  0
  -28.8781  -18.5173   19.8983 H   0  0  0  0  0  0
  -31.9626  -16.4796   22.1766 H   0  0  0  0  0  0
  -30.7905  -21.6600   19.9002 H   0  0  0  0  0  0
  -28.0750  -22.0173   21.3225 H   0  0  0  0  0  0
  -33.2158  -19.5011   23.7843 H   0  0  0  0  0  0
  -34.1121  -18.7568   22.4547 H   0  0  0  0  0  0
  -33.3559  -17.7459   23.6819 H   0  0  0  0  0  0
  -27.3077  -24.6848   21.1701 H   0  0  0  0  0  0
  -27.3622  -24.5629   19.4324 H   0  0  0  0  0  0
  -28.8813  -15.7710   20.6008 H   0  0  0  0  0  0
  1 25  1  0  0  0
  1 30  2  0  0  0
  1 82  1  0  0  0
  2  3  1  0  0  0
  2 25  1  0  0  0
  2 84  1  0  0  0
  2 85  1  0  0  0
  3  4  1  0  0  0
  3 86  1  0  0  0
  3 87  1  0  0  0
  4  5  1  0  0  0
  4 88  1  0  0  0
  4 89  1  0  0  0
  5  6  1  0  0  0
  5 26  1  0  0  0
  5 90  1  0  0  0
  6 25  1  0  0  0
  6 91  1  0  0  0
  6 92  1  0  0  0
  7  8  2  0  0  0
  7 26  1  0  0  0
  7 29  1  0  0  0
  8  9  1  0  0  0
  8 22  1  0  0  0
  9 10  1  0  0  0
  9 27  2  0  0  0
 10 11  2  0  0  0
 10 15  1  0  0  0
 11 12  1  0  0  0
 11 93  1  0  0  0
 12 13  2  0  0  0
 12 94  1  0  0  0
 13 14  1  0  0  0
 13 31  1  0  0  0
 14 15  2  0  0  0
 14 95  1  0  0  0
 15 96  1  0  0  0
 16 17  2  0  0  0
 16 21  1  0  0  0
 16 31  1  0  0  0
 17 18  1  0  0  0
 17 97  1  0  0  0
 18 19  2  0  0  0
 18 98  1  0  0  0
 19 20  1  0  0  0
 19 24  1  0  0  0
 20 21  2  0  0  0
 20 99  1  0  0  0
 21 23  1  0  0  0
 22 28  1  0  0  0
 22 32  2  0  0  0
 26 27  1  0  0  0
 28100  1  0  0  0
 28101  1  0  0  0
 29102  1  0  0  0
 29103  1  0  0  0
 33 34  1  0  0  0
 33 66  1  0  0  0
 33 70  2  0  0  0
 34 36  1  0  0  0
 34 59  1  0  0  0
 34104  1  0  0  0
 35 44  2  0  0  0
 35 45  1  0  0  0
 35 68  1  0  0  0
 36 56  1  0  0  0
 36105  1  0  0  0
 37 39  1  0  0  0
 37 47  1  0  0  0
 37 66  1  0  0  0
 37106  1  0  0  0
 38 43  2  0  0  0
 38 46  1  0  0  0
 38 47  1  0  0  0
 39 64  1  0  0  0
 39 67  2  0  0  0
 40 52  1  0  0  0
 40 53  2  0  0  0
 40 58  1  0  0  0
 41107  1  0  0  0
 41108  1  0  0  0
 41109  1  0  0  0
 41 48  1  0  0  0
 42 43  1  0  0  0
 42 66  1  0  0  0
 42110  1  0  0  0
 42111  1  0  0  0
 43 44  1  0  0  0
 44112  1  0  0  0
 45 46  2  0  0  0
 45113  1  0  0  0
 46114  1  0  0  0
 47115  1  0  0  0
 47116  1  0  0  0
 48 56  1  0  0  0
 48 65  1  0  0  0
 48117  1  0  0  0
 49 50  1  0  0  0
 49 53  1  0  0  0
 49 64  1  0  0  0
 49118  1  0  0  0
 50 51  1  0  0  0
 50119  1  0  0  0
 50120  1  0  0  0
 51 52  1  0  0  0
 51121  1  0  0  0
 51122  1  0  0  0
 52123  1  0  0  0
 52124  1  0  0  0
 53 54  1  0  0  0
 54 55  2  0  0  0
 54125  1  0  0  0
 55 57  1  0  0  0
 55126  1  0  0  0
 56 69  2  0  0  0
 57 58  2  0  0  0
 57127  1  0  0  0
 58128  1  0  0  0
 59 60  1  0  0  0
 59 61  1  0  0  0
 59 62  1  0  0  0
 60129  1  0  0  0
 60130  1  0  0  0
 60131  1  0  0  0
 61132  1  0  0  0
 61133  1  0  0  0
 61134  1  0  0  0
 62135  1  0  0  0
 62136  1  0  0  0
 62137  1  0  0  0
 63 65  1  0  0  0
 63138  1  0  0  0
 63139  1  0  0  0
 63140  1  0  0  0
 64141  1  0  0  0
 65142  1  0  0  0
 68 81  1  0  0  0
 71 74  2  0  0  0
 71 75  1  0  0  0
 71143  1  0  0  0
 72 74  1  0  0  0
 72 76  2  0  0  0
 72144  1  0  0  0
 73 75  2  0  0  0
 73 76  1  0  0  0
 73145  1  0  0  0
 74 77  1  0  0  0
 75 80  1  0  0  0
 76 82  1  0  0  0
 77 78  2  0  0  0
 77146  1  0  0  0
 78 79  1  0  0  0
 78147  1  0  0  0
 79 81  1  0  0  0
 79 83  2  0  0  0
 80148  1  0  0  0
 80149  1  0  0  0
 80150  1  0  0  0
 81151  1  0  0  0
 81152  1  0  0  0
 82153  1  0  0  0
M  ISO  4   1 100  68 101  81 101  82 100
M  END
> <chiral flag>
0

> <version>
0

> <s_m_source_file>
/data/baiqing/PycharmProjects/Reinvent-master-3.2/result/LINK_invent/BTK/process_docking_weight1_custom_product_contain_oxygen_bond_distance_aromatic_linkinvent_7_9_3/rearranged_h_0124.sdf

> <i_m_source_file_index>
79

> <r_mmod_Potential_Energy-OPLS-2005>
250.367172241211

> <r_mmod_Stretch_Energy-OPLS-2005>
137.221298217773

> <r_mmod_Bend_Energy-OPLS-2005>
173.36979675293

> <r_mmod_Torsional_Energy-OPLS-2005>
263.615051269531

> <r_mmod_Improper_Torsional_Energy-OPLS-2005>
9.32117462158203

> <r_mmod_Van_der_Waal_Energy-OPLS-2005>
143.236557006836

> <r_mmod_Electrostatic_Energy-OPLS-2005>
-337.172485351562

> <r_mmod_Solvation_Energy-OPLS-2005>
-231.553894042969

> <b_mmod_Minimization_Converged-OPLS-2005>
0

> <r_mmod_RMS_Derivative-OPLS-2005>
8.95625877380371

$$$$
80
                    3D
 Structure written by MMmdl.
161169  0  0  1  0            999 V2000
  -30.6966  -14.4672   20.5601 C   0  0  0  0  0  0
  -30.4231  -12.2974   19.4216 C   0  0  0  0  0  0
  -29.4966  -12.5066   18.2067 C   0  0  0  0  0  0
  -28.0162  -12.3718   18.6183 C   0  0  0  0  0  0
  -27.6642  -13.2075   19.8795 C   0  0  2  0  0  0
  -28.7061  -12.9776   20.9977 C   0  0  0  0  0  0
  -25.2596  -13.8169   20.5701 C   0  0  0  0  0  0
  -24.1830  -13.0435   20.9127 C   0  0  0  0  0  0
  -24.6391  -11.6907   20.8705 C   0  0  0  0  0  0
  -23.9060  -10.4293   21.0383 C   0  0  0  0  0  0
  -24.3609   -9.4213   21.9173 C   0  0  0  0  0  0
  -23.6288   -8.2247   22.0752 C   0  0  0  0  0  0
  -22.4272   -8.0278   21.3542 C   0  0  0  0  0  0
  -21.9905   -9.0248   20.4641 C   0  0  0  0  0  0
  -22.7231  -10.2129   20.3038 C   0  0  0  0  0  0
  -21.6855   -6.0734   22.5286 C   0  0  0  0  0  0
  -21.4011   -6.5634   23.8217 C   0  0  0  0  0  0
  -21.3659   -5.6783   24.9179 C   0  0  0  0  0  0
  -21.6047   -4.3051   24.7225 C   0  0  0  0  0  0
  -21.8818   -3.8144   23.4347 C   0  0  0  0  0  0
  -21.9190   -4.6960   22.3406 C   0  0  0  0  0  0
  -22.7855  -13.5232   21.1818 C   0  0  0  0  0  0
  -22.1660   -4.2147   21.0985 F   0  0  0  0  0  0
  -21.5630   -3.4530   25.7734 F   0  0  0  0  0  0
  -30.0388  -13.2814   20.4465 N   0  0  0  0  0  0
  -26.3045  -12.9345   20.3408 N   0  0  0  0  0  0
  -25.9327  -11.6500   20.5769 N   0  0  0  0  0  0
  -22.0492  -12.8219   22.0367 N   0  0  0  0  0  0
  -25.4317  -15.1893   20.4246 N   0  0  0  0  0  0
  -31.8267  -14.6406   20.0957 O   0  0  0  0  0  0
  -21.6637   -6.8877   21.4248 O   0  0  0  0  0  0
  -22.3540  -14.5547   20.6686 O   0  0  0  0  0  0
  -24.6129  -31.8695   23.2096 C   0  0  0  0  0  0
  -25.9027  -32.4829   23.8397 C   0  0  1  0  0  0
  -27.2368  -27.4415   20.1019 C   0  0  0  0  0  0
  -25.5892  -33.8627   24.2335 N   0  0  0  0  0  0
  -23.4021  -30.4902   21.5500 C   0  0  2  0  0  0
  -24.8518  -28.9518   20.1208 C   0  0  0  0  0  0
  -22.7404  -29.4661   22.4995 C   0  0  0  0  0  0
  -18.0270  -28.1381   22.8492 C   0  0  0  0  0  0
  -24.1483  -36.7303   23.2632 C   0  0  0  0  0  0
  -25.9296  -30.8340   21.3644 C   0  0  0  0  0  0
  -26.0087  -29.4650   20.7214 C   0  0  0  0  0  0
  -27.2063  -28.7142   20.7156 C   0  0  0  0  0  0
  -26.0693  -26.9406   19.4938 C   0  0  0  0  0  0
  -24.8744  -27.6862   19.5070 C   0  0  0  0  0  0
  -23.6127  -29.8177   20.1667 C   0  0  0  0  0  0
  -25.4106  -36.3111   24.0335 C   0  0  1  0  0  0
  -20.5861  -28.3661   23.1330 C   0  0  2  0  0  0
  -20.6762  -26.9398   22.5425 C   0  0  0  0  0  0
  -19.5754  -26.6396   21.5211 C   0  0  0  0  0  0
  -18.1925  -26.7939   22.1608 C   0  0  0  0  0  0
  -19.1521  -28.8835   23.2913 C   0  0  0  0  0  0
  -18.9448  -30.1447   23.8919 C   0  0  0  0  0  0
  -17.6452  -30.6587   24.0568 C   0  0  0  0  0  0
  -25.9033  -34.9480   23.5132 C   0  0  0  0  0  0
  -16.5342  -29.9090   23.6330 C   0  0  0  0  0  0
  -16.7261  -28.6508   23.0344 C   0  0  0  0  0  0
  -26.4464  -31.6596   25.0715 C   0  0  0  0  0  0
  -25.3730  -31.3703   26.1460 C   0  0  0  0  0  0
  -27.0294  -30.3042   24.6060 C   0  0  0  0  0  0
  -27.6048  -32.4307   25.7478 C   0  0  0  0  0  0
  -27.5590  -37.1807   24.8460 C   0  0  0  0  0  0
  -21.4132  -29.3028   22.3736 N   0  0  0  0  0  0
  -26.4295  -37.3792   23.9411 N   0  0  0  0  0  0
  -24.6662  -31.0795   22.0999 N   0  0  0  0  0  0
  -23.4180  -28.8215   23.3043 O   0  0  0  0  0  0
  -28.3910  -26.6985   20.0391 O   0  0  0  0  0  0
  -26.5593  -34.8932   22.4692 O   0  0  0  0  0  0
  -23.5322  -32.1454   23.7485 O   0  0  0  0  0  0
  -31.1657  -17.5550   20.3638 C   0  0  0  0  0  0
  -28.9573  -19.0494   21.2419 C   0  0  0  0  0  0
  -31.1570  -18.9607   20.2028 C   0  0  0  0  0  0
  -30.0756  -16.8783   20.9609 C   0  0  0  0  0  0
  -30.0460  -19.7270   20.6405 C   0  0  0  0  0  0
  -28.9751  -17.6438   21.4086 C   0  0  0  0  0  0
  -32.5329  -21.2794   17.6332 C   0  0  0  0  0  0
  -29.3058  -23.4254   20.6860 C   0  0  0  0  0  0
  -32.0699  -20.1262   18.1400 C   0  0  0  0  0  0
  -29.1055  -22.0882   20.7509 C   0  0  0  0  0  0
  -28.2446  -24.4214   20.9767 C   0  0  0  0  0  0
  -32.3587  -19.6263   19.5423 C   0  0  0  0  0  0
  -28.6584  -25.8927   21.1933 C   0  0  0  0  0  0
  -27.8942  -17.0009   22.0203 N   0  0  0  0  0  0
  -30.0772  -21.1280   20.4661 N   0  0  0  0  0  0
  -29.9815  -15.4585   21.1236 N   0  0  0  0  0  0
  -27.0505  -24.1156   21.0642 O   0  0  0  0  0  0
  -31.4688  -12.3896   19.1217 H   0  0  0  0  0  0
  -30.3161  -11.2848   19.8137 H   0  0  0  0  0  0
  -29.7340  -11.7858   17.4231 H   0  0  0  0  0  0
  -29.6709  -13.4938   17.7751 H   0  0  0  0  0  0
  -27.8219  -11.3159   18.8096 H   0  0  0  0  0  0
  -27.3670  -12.6522   17.7884 H   0  0  0  0  0  0
  -27.7102  -14.2576   19.5892 H   0  0  0  0  0  0
  -28.6803  -11.9393   21.3320 H   0  0  0  0  0  0
  -28.4698  -13.5690   21.8834 H   0  0  0  0  0  0
  -25.2757   -9.5691   22.4742 H   0  0  0  0  0  0
  -24.0000   -7.4642   22.7472 H   0  0  0  0  0  0
  -21.0838   -8.8762   19.8947 H   0  0  0  0  0  0
  -22.3694  -10.9655   19.6134 H   0  0  0  0  0  0
  -21.2000   -7.6140   23.9720 H   0  0  0  0  0  0
  -21.1482   -6.0513   25.9081 H   0  0  0  0  0  0
  -22.0593   -2.7605   23.2844 H   0  0  0  0  0  0
  -22.4093  -11.9862   22.4733 H   0  0  0  0  0  0
  -21.1110  -13.1250   22.2575 H   0  0  0  0  0  0
  -24.6803  -15.8421   20.6150 H   0  0  0  0  0  0
  -26.3361  -15.6458   20.3556 H   0  0  0  0  0  0
  -26.7096  -32.5548   23.1170 H   0  0  0  0  0  0
  -25.0067  -33.9800   25.0496 H   0  0  0  0  0  0
  -22.6903  -31.3062   21.4087 H   0  0  0  0  0  0
  -23.3762  -35.9617   23.3285 H   0  0  0  0  0  0
  -24.3591  -36.8926   22.2051 H   0  0  0  0  0  0
  -23.7219  -37.6497   23.6653 H   0  0  0  0  0  0
  -26.0382  -31.5941   20.5892 H   0  0  0  0  0  0
  -26.8193  -30.8946   21.9790 H   0  0  0  0  0  0
  -28.1039  -29.1099   21.1716 H   0  0  0  0  0  0
  -26.0870  -25.9733   19.0120 H   0  0  0  0  0  0
  -23.9859  -27.2869   19.0383 H   0  0  0  0  0  0
  -23.7200  -30.5899   19.4041 H   0  0  0  0  0  0
  -22.7375  -29.2354   19.8736 H   0  0  0  0  0  0
  -25.1282  -36.1970   25.0827 H   0  0  0  0  0  0
  -20.9960  -28.3220   24.1447 H   0  0  0  0  0  0
  -20.5674  -26.2257   23.3603 H   0  0  0  0  0  0
  -21.6636  -26.7454   22.1219 H   0  0  0  0  0  0
  -19.6920  -25.6314   21.1223 H   0  0  0  0  0  0
  -19.6712  -27.3222   20.6756 H   0  0  0  0  0  0
  -17.4210  -26.6706   21.3994 H   0  0  0  0  0  0
  -18.0314  -26.0073   22.8994 H   0  0  0  0  0  0
  -19.7924  -30.7257   24.2296 H   0  0  0  0  0  0
  -17.5010  -31.6267   24.5173 H   0  0  0  0  0  0
  -15.5347  -30.2994   23.7652 H   0  0  0  0  0  0
  -15.8661  -28.0842   22.7028 H   0  0  0  0  0  0
  -24.5892  -30.7065   25.7797 H   0  0  0  0  0  0
  -24.8926  -32.2861   26.4918 H   0  0  0  0  0  0
  -25.8077  -30.8866   27.0215 H   0  0  0  0  0  0
  -26.2837  -29.6819   24.1101 H   0  0  0  0  0  0
  -27.4077  -29.7251   25.4495 H   0  0  0  0  0  0
  -27.8663  -30.4385   23.9201 H   0  0  0  0  0  0
  -27.2684  -33.3612   26.2070 H   0  0  0  0  0  0
  -28.3856  -32.6863   25.0303 H   0  0  0  0  0  0
  -28.0719  -31.8419   26.5386 H   0  0  0  0  0  0
  -28.2585  -38.0127   24.7526 H   0  0  0  0  0  0
  -28.1110  -36.2658   24.6246 H   0  0  0  0  0  0
  -27.2321  -37.1400   25.8866 H   0  0  0  0  0  0
  -20.9285  -29.8728   21.6944 H   0  0  0  0  0  0
  -26.0180  -38.2867   24.1424 H   0  0  0  0  0  0
  -32.0262  -17.0109   20.0094 H   0  0  0  0  0  0
  -28.1012  -19.6057   21.5903 H   0  0  0  0  0  0
  -32.2932  -21.5757   16.6217 H   0  0  0  0  0  0
  -33.1557  -21.9463   18.2128 H   0  0  0  0  0  0
  -30.2742  -23.8183   20.4122 H   0  0  0  0  0  0
  -31.4592  -19.4835   17.5203 H   0  0  0  0  0  0
  -28.1409  -21.6864   21.0300 H   0  0  0  0  0  0
  -33.1786  -18.9106   19.4763 H   0  0  0  0  0  0
  -32.7255  -20.4402   20.1697 H   0  0  0  0  0  0
  -29.7264  -25.9359   21.4067 H   0  0  0  0  0  0
  -28.1482  -26.2885   22.0729 H   0  0  0  0  0  0
  -27.2026  -17.6122   22.4405 H   0  0  0  0  0  0
  -28.1312  -16.2578   22.6667 H   0  0  0  0  0  0
  -30.9394  -21.4604   20.0448 H   0  0  0  0  0  0
  -29.0932  -15.1647   21.4977 H   0  0  0  0  0  0
  1 25  1  0  0  0
  1 30  2  0  0  0
  1 86  1  0  0  0
  2  3  1  0  0  0
  2 25  1  0  0  0
  2 88  1  0  0  0
  2 89  1  0  0  0
  3  4  1  0  0  0
  3 90  1  0  0  0
  3 91  1  0  0  0
  4  5  1  0  0  0
  4 92  1  0  0  0
  4 93  1  0  0  0
  5  6  1  0  0  0
  5 26  1  0  0  0
  5 94  1  0  0  0
  6 25  1  0  0  0
  6 95  1  0  0  0
  6 96  1  0  0  0
  7  8  2  0  0  0
  7 26  1  0  0  0
  7 29  1  0  0  0
  8  9  1  0  0  0
  8 22  1  0  0  0
  9 10  1  0  0  0
  9 27  2  0  0  0
 10 11  2  0  0  0
 10 15  1  0  0  0
 11 12  1  0  0  0
 11 97  1  0  0  0
 12 13  2  0  0  0
 12 98  1  0  0  0
 13 14  1  0  0  0
 13 31  1  0  0  0
 14 15  2  0  0  0
 14 99  1  0  0  0
 15100  1  0  0  0
 16 17  2  0  0  0
 16 21  1  0  0  0
 16 31  1  0  0  0
 17 18  1  0  0  0
 17101  1  0  0  0
 18 19  2  0  0  0
 18102  1  0  0  0
 19 20  1  0  0  0
 19 24  1  0  0  0
 20 21  2  0  0  0
 20103  1  0  0  0
 21 23  1  0  0  0
 22 28  1  0  0  0
 22 32  2  0  0  0
 26 27  1  0  0  0
 28104  1  0  0  0
 28105  1  0  0  0
 29106  1  0  0  0
 29107  1  0  0  0
 33 34  1  0  0  0
 33 66  1  0  0  0
 33 70  2  0  0  0
 34 36  1  0  0  0
 34 59  1  0  0  0
 34108  1  0  0  0
 35 44  2  0  0  0
 35 45  1  0  0  0
 35 68  1  0  0  0
 36 56  1  0  0  0
 36109  1  0  0  0
 37 39  1  0  0  0
 37 47  1  0  0  0
 37 66  1  0  0  0
 37110  1  0  0  0
 38 43  2  0  0  0
 38 46  1  0  0  0
 38 47  1  0  0  0
 39 64  1  0  0  0
 39 67  2  0  0  0
 40 52  1  0  0  0
 40 53  2  0  0  0
 40 58  1  0  0  0
 41111  1  0  0  0
 41112  1  0  0  0
 41113  1  0  0  0
 41 48  1  0  0  0
 42 43  1  0  0  0
 42 66  1  0  0  0
 42114  1  0  0  0
 42115  1  0  0  0
 43 44  1  0  0  0
 44116  1  0  0  0
 45 46  2  0  0  0
 45117  1  0  0  0
 46118  1  0  0  0
 47119  1  0  0  0
 47120  1  0  0  0
 48 56  1  0  0  0
 48 65  1  0  0  0
 48121  1  0  0  0
 49 50  1  0  0  0
 49 53  1  0  0  0
 49 64  1  0  0  0
 49122  1  0  0  0
 50 51  1  0  0  0
 50123  1  0  0  0
 50124  1  0  0  0
 51 52  1  0  0  0
 51125  1  0  0  0
 51126  1  0  0  0
 52127  1  0  0  0
 52128  1  0  0  0
 53 54  1  0  0  0
 54 55  2  0  0  0
 54129  1  0  0  0
 55 57  1  0  0  0
 55130  1  0  0  0
 56 69  2  0  0  0
 57 58  2  0  0  0
 57131  1  0  0  0
 58132  1  0  0  0
 59 60  1  0  0  0
 59 61  1  0  0  0
 59 62  1  0  0  0
 60133  1  0  0  0
 60134  1  0  0  0
 60135  1  0  0  0
 61136  1  0  0  0
 61137  1  0  0  0
 61138  1  0  0  0
 62139  1  0  0  0
 62140  1  0  0  0
 62141  1  0  0  0
 63 65  1  0  0  0
 63142  1  0  0  0
 63143  1  0  0  0
 63144  1  0  0  0
 64145  1  0  0  0
 65146  1  0  0  0
 68 83  1  0  0  0
 71 73  2  0  0  0
 71 74  1  0  0  0
 71147  1  0  0  0
 72 75  2  0  0  0
 72 76  1  0  0  0
 72148  1  0  0  0
 73 75  1  0  0  0
 73 82  1  0  0  0
 74 76  2  0  0  0
 74 86  1  0  0  0
 75 85  1  0  0  0
 76 84  1  0  0  0
 77 79  2  0  0  0
 77149  1  0  0  0
 77150  1  0  0  0
 78 80  2  0  0  0
 78 81  1  0  0  0
 78151  1  0  0  0
 79 82  1  0  0  0
 79152  1  0  0  0
 80 85  1  0  0  0
 80153  1  0  0  0
 81 83  1  0  0  0
 81 87  2  0  0  0
 82154  1  0  0  0
 82155  1  0  0  0
 83156  1  0  0  0
 83157  1  0  0  0
 84158  1  0  0  0
 84159  1  0  0  0
 85160  1  0  0  0
 86161  1  0  0  0
M  ISO  4   1 100  68 101  83 101  86 100
M  END
> <chiral flag>
0

> <version>
0

> <s_m_source_file>
/data/baiqing/PycharmProjects/Reinvent-master-3.2/result/LINK_invent/BTK/process_docking_weight1_custom_product_contain_oxygen_bond_distance_aromatic_linkinvent_7_9_3/rearranged_h_0124.sdf

> <i_m_source_file_index>
80

> <r_mmod_Potential_Energy-OPLS-2005>
-62.7686805725098

> <r_mmod_Stretch_Energy-OPLS-2005>
38.054515838623

> <r_mmod_Bend_Energy-OPLS-2005>
102.766624450684

> <r_mmod_Torsional_Energy-OPLS-2005>
260.344573974609

> <r_mmod_Improper_Torsional_Energy-OPLS-2005>
9.07289600372314

> <r_mmod_Van_der_Waal_Energy-OPLS-2005>
153.744277954102

> <r_mmod_Electrostatic_Energy-OPLS-2005>
-417.140838623047

> <r_mmod_Solvation_Energy-OPLS-2005>
-220.702011108398

> <b_mmod_Minimization_Converged-OPLS-2005>
0

> <r_mmod_RMS_Derivative-OPLS-2005>
1.19024968147278

$$$$
81
                    3D
 Structure written by MMmdl.
151159  0  0  1  0            999 V2000
  -30.5589  -14.7335   20.4952 C   0  0  0  0  0  0
  -30.4578  -12.4533   19.4582 C   0  0  0  0  0  0
  -29.5170  -12.5135   18.2310 C   0  0  0  0  0  0
  -28.0412  -12.3353   18.6450 C   0  0  0  0  0  0
  -27.6543  -13.2152   19.8625 C   0  0  2  0  0  0
  -28.7014  -13.0805   20.9909 C   0  0  0  0  0  0
  -25.2581  -13.8159   20.5676 C   0  0  0  0  0  0
  -24.1849  -13.0433   20.9202 C   0  0  0  0  0  0
  -24.6413  -11.6900   20.8760 C   0  0  0  0  0  0
  -23.9082  -10.4289   21.0420 C   0  0  0  0  0  0
  -24.3628   -9.4200   21.9195 C   0  0  0  0  0  0
  -23.6296   -8.2239   22.0759 C   0  0  0  0  0  0
  -22.4280   -8.0284   21.3547 C   0  0  0  0  0  0
  -21.9919   -9.0264   20.4653 C   0  0  0  0  0  0
  -22.7257  -10.2138   20.3064 C   0  0  0  0  0  0
  -21.6852   -6.0741   22.5283 C   0  0  0  0  0  0
  -21.4013   -6.5643   23.8217 C   0  0  0  0  0  0
  -21.3653   -5.6795   24.9179 C   0  0  0  0  0  0
  -21.6043   -4.3058   24.7229 C   0  0  0  0  0  0
  -21.8819   -3.8151   23.4350 C   0  0  0  0  0  0
  -21.9195   -4.6969   22.3407 C   0  0  0  0  0  0
  -22.7871  -13.5233   21.1855 C   0  0  0  0  0  0
  -22.1664   -4.2153   21.0985 F   0  0  0  0  0  0
  -21.5626   -3.4541   25.7742 F   0  0  0  0  0  0
  -30.0051  -13.4730   20.4300 N   0  0  0  0  0  0
  -26.3005  -12.9331   20.3312 N   0  0  0  0  0  0
  -25.9341  -11.6492   20.5770 N   0  0  0  0  0  0
  -22.0507  -12.8227   22.0405 N   0  0  0  0  0  0
  -25.4286  -15.1871   20.4041 N   0  0  0  0  0  0
  -31.7118  -14.9348   20.0981 O   0  0  0  0  0  0
  -21.6637   -6.8884   21.4243 O   0  0  0  0  0  0
  -22.3557  -14.5538   20.6702 O   0  0  0  0  0  0
  -24.6301  -31.8558   23.1984 C   0  0  0  0  0  0
  -25.9132  -32.4758   23.8327 C   0  0  1  0  0  0
  -27.2311  -27.2818   20.1320 C   0  0  0  0  0  0
  -25.5927  -33.8555   24.2256 N   0  0  0  0  0  0
  -23.4280  -30.4769   21.5404 C   0  0  2  0  0  0
  -24.8815  -28.9245   20.1108 C   0  0  0  0  0  0
  -22.7500  -29.4609   22.4909 C   0  0  0  0  0  0
  -18.0296  -28.1396   22.8493 C   0  0  0  0  0  0
  -24.1488  -36.7279   23.2636 C   0  0  0  0  0  0
  -25.9721  -30.7756   21.3760 C   0  0  0  0  0  0
  -26.0515  -29.3978   20.7217 C   0  0  0  0  0  0
  -27.2318  -28.5870   20.7269 C   0  0  0  0  0  0
  -26.0438  -26.8693   19.4971 C   0  0  0  0  0  0
  -24.8816  -27.6661   19.4879 C   0  0  0  0  0  0
  -23.6484  -29.8071   20.1576 C   0  0  0  0  0  0
  -25.4116  -36.3069   24.0322 C   0  0  1  0  0  0
  -20.5900  -28.3706   23.1265 C   0  0  2  0  0  0
  -20.6774  -26.9420   22.5409 C   0  0  0  0  0  0
  -19.5752  -26.6398   21.5209 C   0  0  0  0  0  0
  -18.1939  -26.7939   22.1632 C   0  0  0  0  0  0
  -19.1551  -28.8869   23.2875 C   0  0  0  0  0  0
  -18.9469  -30.1466   23.8895 C   0  0  0  0  0  0
  -17.6469  -30.6591   24.0573 C   0  0  0  0  0  0
  -25.9058  -34.9439   23.5093 C   0  0  0  0  0  0
  -16.5361  -29.9091   23.6336 C   0  0  0  0  0  0
  -16.7282  -28.6509   23.0357 C   0  0  0  0  0  0
  -26.4509  -31.6574   25.0705 C   0  0  0  0  0  0
  -25.3739  -31.3715   26.1430 C   0  0  0  0  0  0
  -27.0343  -30.2987   24.6175 C   0  0  0  0  0  0
  -27.6067  -32.4305   25.7480 C   0  0  0  0  0  0
  -27.5577  -37.1795   24.8467 C   0  0  0  0  0  0
  -21.4208  -29.3049   22.3648 N   0  0  0  0  0  0
  -26.4289  -37.3769   23.9412 N   0  0  0  0  0  0
  -24.6954  -31.0535   22.0951 N   0  0  0  0  0  0
  -23.4202  -28.8148   23.3005 O   0  0  0  0  0  0
  -28.2825  -26.3435   20.1635 O   0  0  0  0  0  0
  -26.5634  -34.8915   22.4667 O   0  0  0  0  0  0
  -23.5454  -32.1366   23.7290 O   0  0  0  0  0  0
  -30.1232  -19.5800   20.1493 C   0  0  0  0  0  0
  -30.3547  -18.1489   20.1144 C   0  0  0  0  0  0
  -28.3954  -19.2361   21.7504 C   0  0  0  0  0  0
  -28.6042  -17.8242   21.7216 C   0  0  0  0  0  0
  -29.1270  -20.1779   20.9833 C   0  0  0  0  0  0
  -29.6054  -17.2162   20.9036 C   0  0  0  0  0  0
  -28.4401  -24.0022   21.3331 C   0  0  0  0  0  0
  -28.2021  -25.3669   21.1797 C   0  0  0  0  0  0
  -28.8963  -22.7198   20.6039 C   0  0  0  0  0  0
  -27.7065  -16.9978   22.6358 C   0  0  0  0  0  0
  -28.8342  -21.5790   21.2568 N   0  0  0  0  0  0
  -29.6970  -15.7324   20.9083 N   0  0  0  0  0  0
  -31.4909  -12.6180   19.1477 H   0  0  0  0  0  0
  -30.4384  -11.4620   19.9136 H   0  0  0  0  0  0
  -29.7957  -11.7464   17.5070 H   0  0  0  0  0  0
  -29.6396  -13.4706   17.7217 H   0  0  0  0  0  0
  -27.8928  -11.2830   18.8921 H   0  0  0  0  0  0
  -27.3828  -12.5442   17.8006 H   0  0  0  0  0  0
  -27.6667  -14.2472   19.5113 H   0  0  0  0  0  0
  -28.7408  -12.0523   21.3545 H   0  0  0  0  0  0
  -28.4297  -13.6849   21.8565 H   0  0  0  0  0  0
  -25.2775   -9.5667   22.4767 H   0  0  0  0  0  0
  -24.0005   -7.4627   22.7472 H   0  0  0  0  0  0
  -21.0852   -8.8795   19.8956 H   0  0  0  0  0  0
  -22.3732  -10.9682   19.6171 H   0  0  0  0  0  0
  -21.2001   -7.6151   23.9722 H   0  0  0  0  0  0
  -21.1472   -6.0524   25.9081 H   0  0  0  0  0  0
  -22.0602   -2.7613   23.2853 H   0  0  0  0  0  0
  -22.4122  -11.9890   22.4795 H   0  0  0  0  0  0
  -21.1127  -13.1257   22.2609 H   0  0  0  0  0  0
  -24.6541  -15.8350   20.4953 H   0  0  0  0  0  0
  -26.2634  -15.6209   20.0309 H   0  0  0  0  0  0
  -26.7198  -32.5428   23.1073 H   0  0  0  0  0  0
  -25.0060  -33.9688   25.0391 H   0  0  0  0  0  0
  -22.7234  -31.2979   21.3910 H   0  0  0  0  0  0
  -23.3749  -35.9614   23.3307 H   0  0  0  0  0  0
  -24.3568  -36.8895   22.2048 H   0  0  0  0  0  0
  -23.7246  -37.6482   23.6658 H   0  0  0  0  0  0
  -26.1052  -31.5349   20.6044 H   0  0  0  0  0  0
  -26.8510  -30.8297   22.0063 H   0  0  0  0  0  0
  -28.1259  -28.9394   21.2210 H   0  0  0  0  0  0
  -26.0101  -25.8930   19.0338 H   0  0  0  0  0  0
  -23.9864  -27.2947   19.0084 H   0  0  0  0  0  0
  -23.7678  -30.5810   19.3978 H   0  0  0  0  0  0
  -22.7691  -29.2352   19.8555 H   0  0  0  0  0  0
  -25.1301  -36.1907   25.0812 H   0  0  0  0  0  0
  -21.0008  -28.3287   24.1378 H   0  0  0  0  0  0
  -20.5667  -26.2313   23.3613 H   0  0  0  0  0  0
  -21.6641  -26.7436   22.1212 H   0  0  0  0  0  0
  -19.6905  -25.6309   21.1237 H   0  0  0  0  0  0
  -19.6684  -27.3207   20.6735 H   0  0  0  0  0  0
  -17.4205  -26.6689   21.4040 H   0  0  0  0  0  0
  -18.0340  -26.0073   22.9018 H   0  0  0  0  0  0
  -19.7940  -30.7289   24.2262 H   0  0  0  0  0  0
  -17.5019  -31.6269   24.5176 H   0  0  0  0  0  0
  -15.5359  -30.2996   23.7655 H   0  0  0  0  0  0
  -15.8681  -28.0825   22.7080 H   0  0  0  0  0  0
  -24.5928  -30.7039   25.7768 H   0  0  0  0  0  0
  -24.8908  -32.2875   26.4835 H   0  0  0  0  0  0
  -25.8071  -30.8918   27.0215 H   0  0  0  0  0  0
  -26.2911  -29.6731   24.1212 H   0  0  0  0  0  0
  -27.4036  -29.7251   25.4683 H   0  0  0  0  0  0
  -27.8794  -30.4247   23.9404 H   0  0  0  0  0  0
  -27.2683  -33.3614   26.2044 H   0  0  0  0  0  0
  -28.3898  -32.6847   25.0323 H   0  0  0  0  0  0
  -28.0713  -31.8428   26.5407 H   0  0  0  0  0  0
  -28.2611  -38.0078   24.7515 H   0  0  0  0  0  0
  -28.1061  -36.2612   24.6307 H   0  0  0  0  0  0
  -27.2291  -37.1473   25.8868 H   0  0  0  0  0  0
  -20.9383  -29.8755   21.6845 H   0  0  0  0  0  0
  -26.0164  -38.2840   24.1416 H   0  0  0  0  0  0
  -30.7486  -20.2168   19.5402 H   0  0  0  0  0  0
  -31.1241  -17.7704   19.4567 H   0  0  0  0  0  0
  -27.6325  -19.6150   22.4177 H   0  0  0  0  0  0
  -28.2230  -23.7114   22.3516 H   0  0  0  0  0  0
  -27.8574  -25.8670   22.0756 H   0  0  0  0  0  0
  -29.2439  -22.8187   19.5725 H   0  0  0  0  0  0
  -27.8568  -17.3057   23.6707 H   0  0  0  0  0  0
  -27.8737  -15.9241   22.5949 H   0  0  0  0  0  0
  -26.6598  -17.1718   22.3862 H   0  0  0  0  0  0
  -28.8643  -15.3085   21.2856 H   0  0  0  0  0  0
  1 25  1  0  0  0
  1 30  2  0  0  0
  1 82  1  0  0  0
  2  3  1  0  0  0
  2 25  1  0  0  0
  2 83  1  0  0  0
  2 84  1  0  0  0
  3  4  1  0  0  0
  3 85  1  0  0  0
  3 86  1  0  0  0
  4  5  1  0  0  0
  4 87  1  0  0  0
  4 88  1  0  0  0
  5  6  1  0  0  0
  5 26  1  0  0  0
  5 89  1  0  0  0
  6 25  1  0  0  0
  6 90  1  0  0  0
  6 91  1  0  0  0
  7  8  2  0  0  0
  7 26  1  0  0  0
  7 29  1  0  0  0
  8  9  1  0  0  0
  8 22  1  0  0  0
  9 10  1  0  0  0
  9 27  2  0  0  0
 10 11  2  0  0  0
 10 15  1  0  0  0
 11 12  1  0  0  0
 11 92  1  0  0  0
 12 13  2  0  0  0
 12 93  1  0  0  0
 13 14  1  0  0  0
 13 31  1  0  0  0
 14 15  2  0  0  0
 14 94  1  0  0  0
 15 95  1  0  0  0
 16 17  2  0  0  0
 16 21  1  0  0  0
 16 31  1  0  0  0
 17 18  1  0  0  0
 17 96  1  0  0  0
 18 19  2  0  0  0
 18 97  1  0  0  0
 19 20  1  0  0  0
 19 24  1  0  0  0
 20 21  2  0  0  0
 20 98  1  0  0  0
 21 23  1  0  0  0
 22 28  1  0  0  0
 22 32  2  0  0  0
 26 27  1  0  0  0
 28 99  1  0  0  0
 28100  1  0  0  0
 29101  1  0  0  0
 29102  1  0  0  0
 33 34  1  0  0  0
 33 66  1  0  0  0
 33 70  2  0  0  0
 34 36  1  0  0  0
 34 59  1  0  0  0
 34103  1  0  0  0
 35 44  2  0  0  0
 35 45  1  0  0  0
 35 68  1  0  0  0
 36 56  1  0  0  0
 36104  1  0  0  0
 37 39  1  0  0  0
 37 47  1  0  0  0
 37 66  1  0  0  0
 37105  1  0  0  0
 38 43  2  0  0  0
 38 46  1  0  0  0
 38 47  1  0  0  0
 39 64  1  0  0  0
 39 67  2  0  0  0
 40 52  1  0  0  0
 40 53  2  0  0  0
 40 58  1  0  0  0
 41106  1  0  0  0
 41107  1  0  0  0
 41108  1  0  0  0
 41 48  1  0  0  0
 42 43  1  0  0  0
 42 66  1  0  0  0
 42109  1  0  0  0
 42110  1  0  0  0
 43 44  1  0  0  0
 44111  1  0  0  0
 45 46  2  0  0  0
 45112  1  0  0  0
 46113  1  0  0  0
 47114  1  0  0  0
 47115  1  0  0  0
 48 56  1  0  0  0
 48 65  1  0  0  0
 48116  1  0  0  0
 49 50  1  0  0  0
 49 53  1  0  0  0
 49 64  1  0  0  0
 49117  1  0  0  0
 50 51  1  0  0  0
 50118  1  0  0  0
 50119  1  0  0  0
 51 52  1  0  0  0
 51120  1  0  0  0
 51121  1  0  0  0
 52122  1  0  0  0
 52123  1  0  0  0
 53 54  1  0  0  0
 54 55  2  0  0  0
 54124  1  0  0  0
 55 57  1  0  0  0
 55125  1  0  0  0
 56 69  2  0  0  0
 57 58  2  0  0  0
 57126  1  0  0  0
 58127  1  0  0  0
 59 60  1  0  0  0
 59 61  1  0  0  0
 59 62  1  0  0  0
 60128  1  0  0  0
 60129  1  0  0  0
 60130  1  0  0  0
 61131  1  0  0  0
 61132  1  0  0  0
 61133  1  0  0  0
 62134  1  0  0  0
 62135  1  0  0  0
 62136  1  0  0  0
 63 65  1  0  0  0
 63137  1  0  0  0
 63138  1  0  0  0
 63139  1  0  0  0
 64140  1  0  0  0
 65141  1  0  0  0
 68 78  1  0  0  0
 71 72  2  0  0  0
 71 75  1  0  0  0
 71142  1  0  0  0
 72 76  1  0  0  0
 72143  1  0  0  0
 73 74  1  0  0  0
 73 75  2  0  0  0
 73144  1  0  0  0
 74 76  2  0  0  0
 74 80  1  0  0  0
 75 81  1  0  0  0
 76 82  1  0  0  0
 77 78  2  0  0  0
 77 79  1  0  0  0
 77145  1  0  0  0
 78146  1  0  0  0
 79 81  2  0  0  0
 79147  1  0  0  0
 80148  1  0  0  0
 80149  1  0  0  0
 80150  1  0  0  0
 82151  1  0  0  0
M  ISO  4   1 100  68 101  78 101  82 100
M  END
> <chiral flag>
0

> <version>
0

> <s_m_source_file>
/data/baiqing/PycharmProjects/Reinvent-master-3.2/result/LINK_invent/BTK/process_docking_weight1_custom_product_contain_oxygen_bond_distance_aromatic_linkinvent_7_9_3/rearranged_h_0124.sdf

> <i_m_source_file_index>
81

> <r_mmod_Potential_Energy-OPLS-2005>
226.352813720703

> <r_mmod_Stretch_Energy-OPLS-2005>
104.685134887695

> <r_mmod_Bend_Energy-OPLS-2005>
288.236724853516

> <r_mmod_Torsional_Energy-OPLS-2005>
228.271667480469

> <r_mmod_Improper_Torsional_Energy-OPLS-2005>
3.94660091400146

> <r_mmod_Van_der_Waal_Energy-OPLS-2005>
134.225433349609

> <r_mmod_Electrostatic_Energy-OPLS-2005>
-409.308959960938

> <r_mmod_Solvation_Energy-OPLS-2005>
-205.799667358398

> <b_mmod_Minimization_Converged-OPLS-2005>
0

> <r_mmod_RMS_Derivative-OPLS-2005>
1.18781638145447

$$$$
82
                    3D
 Structure written by MMmdl.
155163  0  0  1  0            999 V2000
  -30.6600  -14.4775   20.6122 C   0  0  0  0  0  0
  -30.4411  -12.3266   19.4097 C   0  0  0  0  0  0
  -29.4967  -12.5169   18.2029 C   0  0  0  0  0  0
  -28.0175  -12.3665   18.6137 C   0  0  0  0  0  0
  -27.6632  -13.1952   19.8766 C   0  0  2  0  0  0
  -28.7034  -12.9375   20.9902 C   0  0  0  0  0  0
  -25.2604  -13.8129   20.5659 C   0  0  0  0  0  0
  -24.1844  -13.0433   20.9162 C   0  0  0  0  0  0
  -24.6381  -11.6887   20.8739 C   0  0  0  0  0  0
  -23.9033  -10.4284   21.0405 C   0  0  0  0  0  0
  -24.3593   -9.4202   21.9178 C   0  0  0  0  0  0
  -23.6279   -8.2234   22.0757 C   0  0  0  0  0  0
  -22.4263   -8.0271   21.3539 C   0  0  0  0  0  0
  -21.9878   -9.0245   20.4640 C   0  0  0  0  0  0
  -22.7206  -10.2128   20.3051 C   0  0  0  0  0  0
  -21.6850   -6.0721   22.5266 C   0  0  0  0  0  0
  -21.4015   -6.5626   23.8200 C   0  0  0  0  0  0
  -21.3668   -5.6785   24.9164 C   0  0  0  0  0  0
  -21.6049   -4.3046   24.7216 C   0  0  0  0  0  0
  -21.8826   -3.8132   23.4337 C   0  0  0  0  0  0
  -21.9198   -4.6949   22.3394 C   0  0  0  0  0  0
  -22.7868  -13.5241   21.1836 C   0  0  0  0  0  0
  -22.1665   -4.2131   21.0972 F   0  0  0  0  0  0
  -21.5633   -3.4536   25.7732 F   0  0  0  0  0  0
  -30.0350  -13.2794   20.4514 N   0  0  0  0  0  0
  -26.3026  -12.9269   20.3345 N   0  0  0  0  0  0
  -25.9296  -11.6436   20.5732 N   0  0  0  0  0  0
  -22.0508  -12.8239   22.0393 N   0  0  0  0  0  0
  -25.4346  -15.1847   20.4064 N   0  0  0  0  0  0
  -31.7785  -14.7338   20.1529 O   0  0  0  0  0  0
  -21.6640   -6.8861   21.4229 O   0  0  0  0  0  0
  -22.3551  -14.5558   20.6700 O   0  0  0  0  0  0
  -24.6137  -31.8671   23.2096 C   0  0  0  0  0  0
  -25.9032  -32.4817   23.8385 C   0  0  1  0  0  0
  -27.2402  -27.4390   20.1055 C   0  0  0  0  0  0
  -25.5881  -33.8612   24.2327 N   0  0  0  0  0  0
  -23.4034  -30.4866   21.5515 C   0  0  2  0  0  0
  -24.8528  -28.9488   20.1193 C   0  0  0  0  0  0
  -22.7412  -29.4644   22.5027 C   0  0  0  0  0  0
  -18.0264  -28.1374   22.8499 C   0  0  0  0  0  0
  -24.1476  -36.7300   23.2643 C   0  0  0  0  0  0
  -25.9300  -30.8344   21.3620 C   0  0  0  0  0  0
  -26.0112  -29.4665   20.7153 C   0  0  0  0  0  0
  -27.2109  -28.7187   20.7043 C   0  0  0  0  0  0
  -26.0699  -26.9317   19.5071 C   0  0  0  0  0  0
  -24.8768  -27.6808   19.5108 C   0  0  0  0  0  0
  -23.6125  -29.8130   20.1682 C   0  0  0  0  0  0
  -25.4099  -36.3111   24.0346 C   0  0  1  0  0  0
  -20.5854  -28.3650   23.1337 C   0  0  2  0  0  0
  -20.6745  -26.9390   22.5424 C   0  0  0  0  0  0
  -19.5726  -26.6386   21.5213 C   0  0  0  0  0  0
  -18.1908  -26.7922   22.1629 C   0  0  0  0  0  0
  -19.1513  -28.8837   23.2908 C   0  0  0  0  0  0
  -18.9439  -30.1445   23.8914 C   0  0  0  0  0  0
  -17.6443  -30.6589   24.0564 C   0  0  0  0  0  0
  -25.9030  -34.9471   23.5140 C   0  0  0  0  0  0
  -16.5334  -29.9086   23.6334 C   0  0  0  0  0  0
  -16.7254  -28.6497   23.0362 C   0  0  0  0  0  0
  -26.4465  -31.6590   25.0708 C   0  0  0  0  0  0
  -25.3738  -31.3660   26.1461 C   0  0  0  0  0  0
  -27.0302  -30.3047   24.6058 C   0  0  0  0  0  0
  -27.6068  -32.4287   25.7445 C   0  0  0  0  0  0
  -27.5573  -37.1806   24.8479 C   0  0  0  0  0  0
  -21.4146  -29.3008   22.3752 N   0  0  0  0  0  0
  -26.4292  -37.3791   23.9416 N   0  0  0  0  0  0
  -24.6673  -31.0762   22.1003 N   0  0  0  0  0  0
  -23.4181  -28.8208   23.3086 O   0  0  0  0  0  0
  -28.3938  -26.6897   20.0755 O   0  0  0  0  0  0
  -26.5609  -34.8923   22.4712 O   0  0  0  0  0  0
  -23.5327  -32.1428   23.7485 O   0  0  0  0  0  0
  -31.1369  -17.4417   21.8788 C   0  0  0  0  0  0
  -29.0091  -17.6475   20.7747 C   0  0  0  0  0  0
  -31.1207  -18.8462   22.0449 C   0  0  0  0  0  0
  -30.0448  -16.8202   21.2482 C   0  0  0  0  0  0
  -30.0304  -19.6024   21.5471 C   0  0  0  0  0  0
  -29.1389  -21.8002   21.3095 C   0  0  0  0  0  0
  -32.2529  -19.5130   22.8121 C   0  0  0  0  0  0
  -29.0561  -23.2716   21.7297 C   0  0  0  0  0  0
  -28.7217  -24.2779   20.5968 C   0  0  0  0  0  0
  -28.5138  -25.7193   21.1257 C   0  0  0  0  0  0
  -29.0052  -18.9942   20.9067 N   0  0  0  0  0  0
  -29.9964  -20.9908   21.8089 N   0  0  0  0  0  0
  -29.8862  -15.4050   21.2049 N   0  0  0  0  0  0
  -31.4802  -12.4666   19.1045 H   0  0  0  0  0  0
  -30.3775  -11.3073   19.7916 H   0  0  0  0  0  0
  -29.7390  -11.7965   17.4218 H   0  0  0  0  0  0
  -29.6537  -13.5042   17.7665 H   0  0  0  0  0  0
  -27.8274  -11.3087   18.8011 H   0  0  0  0  0  0
  -27.3676  -12.6472   17.7835 H   0  0  0  0  0  0
  -27.7134  -14.2466   19.5930 H   0  0  0  0  0  0
  -28.6876  -11.8855   21.2808 H   0  0  0  0  0  0
  -28.4519  -13.4852   21.8994 H   0  0  0  0  0  0
  -25.2740   -9.5687   22.4748 H   0  0  0  0  0  0
  -23.9995   -7.4626   22.7475 H   0  0  0  0  0  0
  -21.0806   -8.8758   19.8945 H   0  0  0  0  0  0
  -22.3660  -10.9670   19.6161 H   0  0  0  0  0  0
  -21.2008   -7.6135   23.9695 H   0  0  0  0  0  0
  -21.1485   -6.0514   25.9067 H   0  0  0  0  0  0
  -22.0602   -2.7592   23.2844 H   0  0  0  0  0  0
  -22.4118  -11.9897   22.4781 H   0  0  0  0  0  0
  -21.1140  -13.1279   22.2624 H   0  0  0  0  0  0
  -24.6637  -15.8383   20.4964 H   0  0  0  0  0  0
  -26.2734  -15.6124   20.0378 H   0  0  0  0  0  0
  -26.7101  -32.5552   23.1146 H   0  0  0  0  0  0
  -25.0002  -33.9750   25.0456 H   0  0  0  0  0  0
  -22.6922  -31.3029   21.4109 H   0  0  0  0  0  0
  -23.3739  -35.9637   23.3330 H   0  0  0  0  0  0
  -24.3572  -36.8882   22.2054 H   0  0  0  0  0  0
  -23.7215  -37.6507   23.6635 H   0  0  0  0  0  0
  -26.0362  -31.5958   20.5882 H   0  0  0  0  0  0
  -26.8198  -30.8946   21.9763 H   0  0  0  0  0  0
  -28.1100  -29.1156   21.1551 H   0  0  0  0  0  0
  -26.0860  -25.9566   19.0409 H   0  0  0  0  0  0
  -23.9877  -27.2769   19.0466 H   0  0  0  0  0  0
  -23.7154  -30.5846   19.4043 H   0  0  0  0  0  0
  -22.7382  -29.2263   19.8794 H   0  0  0  0  0  0
  -25.1268  -36.1984   25.0838 H   0  0  0  0  0  0
  -20.9920  -28.3197   24.1467 H   0  0  0  0  0  0
  -20.5636  -26.2250   23.3603 H   0  0  0  0  0  0
  -21.6617  -26.7432   22.1222 H   0  0  0  0  0  0
  -19.6879  -25.6305   21.1219 H   0  0  0  0  0  0
  -19.6663  -27.3221   20.6763 H   0  0  0  0  0  0
  -17.4174  -26.6677   21.4036 H   0  0  0  0  0  0
  -18.0316  -26.0062   22.9021 H   0  0  0  0  0  0
  -19.7911  -30.7255   24.2291 H   0  0  0  0  0  0
  -17.4996  -31.6274   24.5149 H   0  0  0  0  0  0
  -15.5332  -30.2989   23.7651 H   0  0  0  0  0  0
  -15.8650  -28.0813   22.7084 H   0  0  0  0  0  0
  -24.5913  -30.7014   25.7768 H   0  0  0  0  0  0
  -24.8928  -32.2802   26.4954 H   0  0  0  0  0  0
  -25.8096  -30.8775   27.0190 H   0  0  0  0  0  0
  -26.2838  -29.6788   24.1155 H   0  0  0  0  0  0
  -27.4139  -29.7285   25.4487 H   0  0  0  0  0  0
  -27.8635  -30.4376   23.9158 H   0  0  0  0  0  0
  -27.2725  -33.3570   26.2082 H   0  0  0  0  0  0
  -28.3834  -32.6869   25.0233 H   0  0  0  0  0  0
  -28.0801  -31.8375   26.5293 H   0  0  0  0  0  0
  -28.2628  -38.0068   24.7510 H   0  0  0  0  0  0
  -28.1026  -36.2606   24.6328 H   0  0  0  0  0  0
  -27.2301  -37.1499   25.8885 H   0  0  0  0  0  0
  -20.9329  -29.8691   21.6932 H   0  0  0  0  0  0
  -26.0185  -38.2872   24.1410 H   0  0  0  0  0  0
  -31.9390  -16.8456   22.2879 H   0  0  0  0  0  0
  -28.1414  -17.2172   20.2950 H   0  0  0  0  0  0
  -28.3864  -21.4932   20.5763 H   0  0  0  0  0  0
  -31.8932  -19.8613   23.7810 H   0  0  0  0  0  0
  -32.6511  -20.3682   22.2651 H   0  0  0  0  0  0
  -33.0747  -18.8195   22.9963 H   0  0  0  0  0  0
  -29.9994  -23.5611   22.1964 H   0  0  0  0  0  0
  -28.3021  -23.3454   22.5142 H   0  0  0  0  0  0
  -27.8238  -23.9603   20.0649 H   0  0  0  0  0  0
  -29.5316  -24.2754   19.8673 H   0  0  0  0  0  0
  -29.3708  -26.0109   21.7336 H   0  0  0  0  0  0
  -27.6523  -25.7392   21.7972 H   0  0  0  0  0  0
  -28.9652  -15.0595   21.4339 H   0  0  0  0  0  0
  1 25  1  0  0  0
  1 30  2  0  0  0
  1 83  1  0  0  0
  2  3  1  0  0  0
  2 25  1  0  0  0
  2 84  1  0  0  0
  2 85  1  0  0  0
  3  4  1  0  0  0
  3 86  1  0  0  0
  3 87  1  0  0  0
  4  5  1  0  0  0
  4 88  1  0  0  0
  4 89  1  0  0  0
  5  6  1  0  0  0
  5 26  1  0  0  0
  5 90  1  0  0  0
  6 25  1  0  0  0
  6 91  1  0  0  0
  6 92  1  0  0  0
  7  8  2  0  0  0
  7 26  1  0  0  0
  7 29  1  0  0  0
  8  9  1  0  0  0
  8 22  1  0  0  0
  9 10  1  0  0  0
  9 27  2  0  0  0
 10 11  2  0  0  0
 10 15  1  0  0  0
 11 12  1  0  0  0
 11 93  1  0  0  0
 12 13  2  0  0  0
 12 94  1  0  0  0
 13 14  1  0  0  0
 13 31  1  0  0  0
 14 15  2  0  0  0
 14 95  1  0  0  0
 15 96  1  0  0  0
 16 17  2  0  0  0
 16 21  1  0  0  0
 16 31  1  0  0  0
 17 18  1  0  0  0
 17 97  1  0  0  0
 18 19  2  0  0  0
 18 98  1  0  0  0
 19 20  1  0  0  0
 19 24  1  0  0  0
 20 21  2  0  0  0
 20 99  1  0  0  0
 21 23  1  0  0  0
 22 28  1  0  0  0
 22 32  2  0  0  0
 26 27  1  0  0  0
 28100  1  0  0  0
 28101  1  0  0  0
 29102  1  0  0  0
 29103  1  0  0  0
 33 34  1  0  0  0
 33 66  1  0  0  0
 33 70  2  0  0  0
 34 36  1  0  0  0
 34 59  1  0  0  0
 34104  1  0  0  0
 35 44  2  0  0  0
 35 45  1  0  0  0
 35 68  1  0  0  0
 36 56  1  0  0  0
 36105  1  0  0  0
 37 39  1  0  0  0
 37 47  1  0  0  0
 37 66  1  0  0  0
 37106  1  0  0  0
 38 43  2  0  0  0
 38 46  1  0  0  0
 38 47  1  0  0  0
 39 64  1  0  0  0
 39 67  2  0  0  0
 40 52  1  0  0  0
 40 53  2  0  0  0
 40 58  1  0  0  0
 41107  1  0  0  0
 41108  1  0  0  0
 41109  1  0  0  0
 41 48  1  0  0  0
 42 43  1  0  0  0
 42 66  1  0  0  0
 42110  1  0  0  0
 42111  1  0  0  0
 43 44  1  0  0  0
 44112  1  0  0  0
 45 46  2  0  0  0
 45113  1  0  0  0
 46114  1  0  0  0
 47115  1  0  0  0
 47116  1  0  0  0
 48 56  1  0  0  0
 48 65  1  0  0  0
 48117  1  0  0  0
 49 50  1  0  0  0
 49 53  1  0  0  0
 49 64  1  0  0  0
 49118  1  0  0  0
 50 51  1  0  0  0
 50119  1  0  0  0
 50120  1  0  0  0
 51 52  1  0  0  0
 51121  1  0  0  0
 51122  1  0  0  0
 52123  1  0  0  0
 52124  1  0  0  0
 53 54  1  0  0  0
 54 55  2  0  0  0
 54125  1  0  0  0
 55 57  1  0  0  0
 55126  1  0  0  0
 56 69  2  0  0  0
 57 58  2  0  0  0
 57127  1  0  0  0
 58128  1  0  0  0
 59 60  1  0  0  0
 59 61  1  0  0  0
 59 62  1  0  0  0
 60129  1  0  0  0
 60130  1  0  0  0
 60131  1  0  0  0
 61132  1  0  0  0
 61133  1  0  0  0
 61134  1  0  0  0
 62135  1  0  0  0
 62136  1  0  0  0
 62137  1  0  0  0
 63 65  1  0  0  0
 63138  1  0  0  0
 63139  1  0  0  0
 63140  1  0  0  0
 64141  1  0  0  0
 65142  1  0  0  0
 68 80  1  0  0  0
 71 73  2  0  0  0
 71 74  1  0  0  0
 71143  1  0  0  0
 72 74  2  0  0  0
 72 81  1  0  0  0
 72144  1  0  0  0
 73 75  1  0  0  0
 73 77  1  0  0  0
 74 83  1  0  0  0
 75 81  2  0  0  0
 75 82  1  0  0  0
 76 78  1  0  0  0
 76 82  2  0  0  0
 76145  1  0  0  0
 77146  1  0  0  0
 77147  1  0  0  0
 77148  1  0  0  0
 78 79  1  0  0  0
 78149  1  0  0  0
 78150  1  0  0  0
 79 80  1  0  0  0
 79151  1  0  0  0
 79152  1  0  0  0
 80153  1  0  0  0
 80154  1  0  0  0
 83155  1  0  0  0
M  ISO  4   1 100  68 101  80 101  83 100
M  END
> <chiral flag>
0

> <version>
0

> <s_m_source_file>
/data/baiqing/PycharmProjects/Reinvent-master-3.2/result/LINK_invent/BTK/process_docking_weight1_custom_product_contain_oxygen_bond_distance_aromatic_linkinvent_7_9_3/rearranged_h_0124.sdf

> <i_m_source_file_index>
82

> <r_mmod_Potential_Energy-OPLS-2005>
-271.989807128906

> <r_mmod_Stretch_Energy-OPLS-2005>
37.2577056884766

> <r_mmod_Bend_Energy-OPLS-2005>
101.614395141602

> <r_mmod_Torsional_Energy-OPLS-2005>
250.879028320312

> <r_mmod_Improper_Torsional_Energy-OPLS-2005>
4.89051055908203

> <r_mmod_Van_der_Waal_Energy-OPLS-2005>
158.37890625

> <r_mmod_Electrostatic_Energy-OPLS-2005>
-617.893615722656

> <r_mmod_Solvation_Energy-OPLS-2005>
-219.885177612305

> <b_mmod_Minimization_Converged-OPLS-2005>
0

> <r_mmod_RMS_Derivative-OPLS-2005>
1.93281948566437

$$$$
83
                    3D
 Structure written by MMmdl.
162170  0  0  1  0            999 V2000
  -30.7032  -14.4709   20.5949 C   0  0  0  0  0  0
  -30.4286  -12.3274   19.4040 C   0  0  0  0  0  0
  -29.4840  -12.4992   18.1950 C   0  0  0  0  0  0
  -28.0085  -12.3384   18.6151 C   0  0  0  0  0  0
  -27.6599  -13.1762   19.8731 C   0  0  2  0  0  0
  -28.7032  -12.8981   20.9756 C   0  0  0  0  0  0
  -25.2599  -13.8099   20.5602 C   0  0  0  0  0  0
  -24.1829  -13.0437   20.9113 C   0  0  0  0  0  0
  -24.6344  -11.6875   20.8755 C   0  0  0  0  0  0
  -23.8995  -10.4280   21.0428 C   0  0  0  0  0  0
  -24.3561   -9.4215   21.9229 C   0  0  0  0  0  0
  -23.6259   -8.2250   22.0821 C   0  0  0  0  0  0
  -22.4258   -8.0264   21.3593 C   0  0  0  0  0  0
  -21.9903   -9.0191   20.4660 C   0  0  0  0  0  0
  -22.7187  -10.2093   20.3050 C   0  0  0  0  0  0
  -21.6872   -6.0685   22.5274 C   0  0  0  0  0  0
  -21.4054   -6.5608   23.8190 C   0  0  0  0  0  0
  -21.3642   -5.6774   24.9154 C   0  0  0  0  0  0
  -21.6048   -4.3044   24.7220 C   0  0  0  0  0  0
  -21.8828   -3.8110   23.4342 C   0  0  0  0  0  0
  -21.9198   -4.6914   22.3384 C   0  0  0  0  0  0
  -22.7839  -13.5247   21.1764 C   0  0  0  0  0  0
  -22.1650   -4.2086   21.0972 F   0  0  0  0  0  0
  -21.5649   -3.4543   25.7753 F   0  0  0  0  0  0
  -30.0293  -13.2829   20.4556 N   0  0  0  0  0  0
  -26.3013  -12.9195   20.3363 N   0  0  0  0  0  0
  -25.9271  -11.6392   20.5821 N   0  0  0  0  0  0
  -22.0446  -12.8230   22.0283 N   0  0  0  0  0  0
  -25.4360  -15.1833   20.3931 N   0  0  0  0  0  0
  -31.8282  -14.6474   20.1146 O   0  0  0  0  0  0
  -21.6671   -6.8835   21.4240 O   0  0  0  0  0  0
  -22.3543  -14.5573   20.6626 O   0  0  0  0  0  0
  -24.6093  -31.8657   23.2071 C   0  0  0  0  0  0
  -25.8990  -32.4814   23.8369 C   0  0  1  0  0  0
  -27.2695  -27.4523   20.0848 C   0  0  0  0  0  0
  -25.5884  -33.8623   24.2307 N   0  0  0  0  0  0
  -23.3994  -30.4833   21.5442 C   0  0  2  0  0  0
  -24.8555  -28.9463   20.1081 C   0  0  0  0  0  0
  -22.7365  -29.4647   22.4968 C   0  0  0  0  0  0
  -18.0279  -28.1363   22.8516 C   0  0  0  0  0  0
  -24.1467  -36.7298   23.2639 C   0  0  0  0  0  0
  -25.9196  -30.8333   21.3577 C   0  0  0  0  0  0
  -26.0052  -29.4626   20.7159 C   0  0  0  0  0  0
  -27.2024  -28.7146   20.7183 C   0  0  0  0  0  0
  -26.1010  -26.9421   19.4732 C   0  0  0  0  0  0
  -24.8983  -27.6824   19.4877 C   0  0  0  0  0  0
  -23.6059  -29.8015   20.1626 C   0  0  0  0  0  0
  -25.4103  -36.3104   24.0330 C   0  0  1  0  0  0
  -20.5854  -28.3679   23.1311 C   0  0  2  0  0  0
  -20.6722  -26.9404   22.5454 C   0  0  0  0  0  0
  -19.5727  -26.6380   21.5215 C   0  0  0  0  0  0
  -18.1888  -26.7932   22.1569 C   0  0  0  0  0  0
  -19.1518  -28.8837   23.2917 C   0  0  0  0  0  0
  -18.9443  -30.1444   23.8926 C   0  0  0  0  0  0
  -17.6456  -30.6585   24.0587 C   0  0  0  0  0  0
  -25.9061  -34.9477   23.5135 C   0  0  0  0  0  0
  -16.5355  -29.9109   23.6320 C   0  0  0  0  0  0
  -16.7270  -28.6501   23.0381 C   0  0  0  0  0  0
  -26.4459  -31.6579   25.0673 C   0  0  0  0  0  0
  -25.3707  -31.3515   26.1352 C   0  0  0  0  0  0
  -27.0415  -30.3092   24.5990 C   0  0  0  0  0  0
  -27.5974  -32.4331   25.7508 C   0  0  0  0  0  0
  -27.5602  -37.1758   24.8421 C   0  0  0  0  0  0
  -21.4088  -29.3050   22.3691 N   0  0  0  0  0  0
  -26.4260  -37.3817   23.9459 N   0  0  0  0  0  0
  -24.6610  -31.0740   22.0968 N   0  0  0  0  0  0
  -23.4114  -28.8189   23.3023 O   0  0  0  0  0  0
  -28.4646  -26.7606   20.1230 O   0  0  0  0  0  0
  -26.5624  -34.8945   22.4689 O   0  0  0  0  0  0
  -23.5297  -32.1405   23.7484 O   0  0  0  0  0  0
  -30.6776  -18.0033   21.6155 C   0  0  0  0  0  0
  -30.2860  -17.0560   20.6405 C   0  0  0  0  0  0
  -30.6141  -19.8327   20.0039 C   0  0  0  0  0  0
  -30.1424  -17.5064   19.2802 C   0  0  0  0  0  0
  -30.3331  -18.8936   18.9698 C   0  0  0  0  0  0
  -30.8468  -19.3596   21.3100 C   0  0  0  0  0  0
  -30.7396  -21.2918   19.7653 C   0  0  0  0  0  0
  -29.6910  -22.1355   19.6350 C   0  0  0  0  0  0
  -29.8123  -23.5709   19.3951 C   0  0  0  0  0  0
  -28.7611  -24.4216   19.3395 C   0  0  0  0  0  0
  -29.9523  -15.6857   21.1834 C   0  0  0  0  0  0
  -30.2370  -19.3939   17.5256 C   0  0  0  0  0  0
  -28.4535  -16.6672   17.4561 C   0  0  0  0  0  0
  -29.8210  -16.5187   18.1409 C   0  0  0  0  0  0
  -28.8526  -25.9169   19.0317 C   0  0  0  0  0  0
  -29.1215  -15.6190   22.1432 N   0  0  0  0  0  0
  -31.2038  -20.2181   22.2989 F   0  0  0  0  0  0
  -31.4582  -12.4587   19.0703 H   0  0  0  0  0  0
  -30.3649  -11.3076   19.7863 H   0  0  0  0  0  0
  -29.7334  -11.7674   17.4242 H   0  0  0  0  0  0
  -29.6352  -13.4723   17.7329 H   0  0  0  0  0  0
  -27.8418  -11.2786   18.8227 H   0  0  0  0  0  0
  -27.3424  -12.5862   17.7879 H   0  0  0  0  0  0
  -27.7179  -14.2258   19.5944 H   0  0  0  0  0  0
  -28.7045  -11.8303   21.2052 H   0  0  0  0  0  0
  -28.4246  -13.3529   21.9224 H   0  0  0  0  0  0
  -25.2668   -9.5751   22.4823 H   0  0  0  0  0  0
  -23.9962   -7.4675   22.7574 H   0  0  0  0  0  0
  -21.0865   -8.8610   19.8940 H   0  0  0  0  0  0
  -22.3591  -10.9598   19.6146 H   0  0  0  0  0  0
  -21.2099   -7.6115   23.9671 H   0  0  0  0  0  0
  -21.1453   -6.0518   25.9035 H   0  0  0  0  0  0
  -22.0642   -2.7571   23.2871 H   0  0  0  0  0  0
  -22.4069  -11.9864   22.4610 H   0  0  0  0  0  0
  -21.1070  -13.1276   22.2523 H   0  0  0  0  0  0
  -24.6680  -15.8407   20.4600 H   0  0  0  0  0  0
  -26.3143  -15.6159   20.1349 H   0  0  0  0  0  0
  -26.7063  -32.5581   23.1150 H   0  0  0  0  0  0
  -24.9979  -33.9790   25.0415 H   0  0  0  0  0  0
  -22.6891  -31.2991   21.3997 H   0  0  0  0  0  0
  -23.3816  -35.9529   23.3121 H   0  0  0  0  0  0
  -24.3565  -36.9112   22.2088 H   0  0  0  0  0  0
  -23.7097  -37.6389   23.6793 H   0  0  0  0  0  0
  -26.0080  -31.5912   20.5771 H   0  0  0  0  0  0
  -26.8142  -30.9074   21.9622 H   0  0  0  0  0  0
  -28.0825  -29.1089   21.2083 H   0  0  0  0  0  0
  -26.1092  -25.9714   19.0000 H   0  0  0  0  0  0
  -24.0148  -27.2754   19.0153 H   0  0  0  0  0  0
  -23.6799  -30.5682   19.3905 H   0  0  0  0  0  0
  -22.7397  -29.1951   19.8940 H   0  0  0  0  0  0
  -25.1250  -36.1931   25.0813 H   0  0  0  0  0  0
  -20.9977  -28.3299   24.1413 H   0  0  0  0  0  0
  -20.5553  -26.2329   23.3660 H   0  0  0  0  0  0
  -21.6596  -26.7361   22.1321 H   0  0  0  0  0  0
  -19.6892  -25.6288   21.1239 H   0  0  0  0  0  0
  -19.6696  -27.3183   20.6746 H   0  0  0  0  0  0
  -17.4210  -26.6848   21.3896 H   0  0  0  0  0  0
  -18.0173  -25.9992   22.8848 H   0  0  0  0  0  0
  -19.7949  -30.7246   24.2275 H   0  0  0  0  0  0
  -17.5038  -31.6253   24.5230 H   0  0  0  0  0  0
  -15.5353  -30.3055   23.7562 H   0  0  0  0  0  0
  -15.8668  -28.0812   22.7089 H   0  0  0  0  0  0
  -24.6221  -30.6472   25.7679 H   0  0  0  0  0  0
  -24.8483  -32.2542   26.4540 H   0  0  0  0  0  0
  -25.8127  -30.9006   27.0250 H   0  0  0  0  0  0
  -26.3007  -29.6751   24.1113 H   0  0  0  0  0  0
  -27.4365  -29.7372   25.4396 H   0  0  0  0  0  0
  -27.8698  -30.4508   23.9037 H   0  0  0  0  0  0
  -27.2556  -33.3646   26.2027 H   0  0  0  0  0  0
  -28.3861  -32.6847   25.0404 H   0  0  0  0  0  0
  -28.0562  -31.8478   26.5481 H   0  0  0  0  0  0
  -28.2436  -38.0234   24.7782 H   0  0  0  0  0  0
  -28.1288  -36.2794   24.5884 H   0  0  0  0  0  0
  -27.2353  -37.0972   25.8809 H   0  0  0  0  0  0
  -20.9227  -29.8838   21.6969 H   0  0  0  0  0  0
  -26.0122  -38.2836   24.1661 H   0  0  0  0  0  0
  -30.8184  -17.6967   22.6426 H   0  0  0  0  0  0
  -31.7515  -21.6681   19.6981 H   0  0  0  0  0  0
  -28.7010  -21.7130   19.7127 H   0  0  0  0  0  0
  -30.8035  -23.9760   19.2419 H   0  0  0  0  0  0
  -27.7620  -24.0439   19.5010 H   0  0  0  0  0  0
  -30.8512  -20.2789   17.3530 H   0  0  0  0  0  0
  -29.2069  -19.6488   17.2758 H   0  0  0  0  0  0
  -30.5875  -18.6654   16.7952 H   0  0  0  0  0  0
  -28.2730  -15.7990   16.8191 H   0  0  0  0  0  0
  -28.3888  -17.5357   16.8004 H   0  0  0  0  0  0
  -27.6398  -16.7164   18.1813 H   0  0  0  0  0  0
  -29.8526  -15.4988   18.4788 H   0  0  0  0  0  0
  -30.6264  -16.5572   17.4053 H   0  0  0  0  0  0
  -28.3057  -26.1456   18.1168 H   0  0  0  0  0  0
  -29.8943  -26.1597   18.8172 H   0  0  0  0  0  0
  -28.7695  -16.5334   22.3956 H   0  0  0  0  0  0
  1 25  1  0  0  0
  1 30  2  0  0  0
  1 81  1  0  0  0
  2  3  1  0  0  0
  2 25  1  0  0  0
  2 88  1  0  0  0
  2 89  1  0  0  0
  3  4  1  0  0  0
  3 90  1  0  0  0
  3 91  1  0  0  0
  4  5  1  0  0  0
  4 92  1  0  0  0
  4 93  1  0  0  0
  5  6  1  0  0  0
  5 26  1  0  0  0
  5 94  1  0  0  0
  6 25  1  0  0  0
  6 95  1  0  0  0
  6 96  1  0  0  0
  7  8  2  0  0  0
  7 26  1  0  0  0
  7 29  1  0  0  0
  8  9  1  0  0  0
  8 22  1  0  0  0
  9 10  1  0  0  0
  9 27  2  0  0  0
 10 11  2  0  0  0
 10 15  1  0  0  0
 11 12  1  0  0  0
 11 97  1  0  0  0
 12 13  2  0  0  0
 12 98  1  0  0  0
 13 14  1  0  0  0
 13 31  1  0  0  0
 14 15  2  0  0  0
 14 99  1  0  0  0
 15100  1  0  0  0
 16 17  2  0  0  0
 16 21  1  0  0  0
 16 31  1  0  0  0
 17 18  1  0  0  0
 17101  1  0  0  0
 18 19  2  0  0  0
 18102  1  0  0  0
 19 20  1  0  0  0
 19 24  1  0  0  0
 20 21  2  0  0  0
 20103  1  0  0  0
 21 23  1  0  0  0
 22 28  1  0  0  0
 22 32  2  0  0  0
 26 27  1  0  0  0
 28104  1  0  0  0
 28105  1  0  0  0
 29106  1  0  0  0
 29107  1  0  0  0
 33 34  1  0  0  0
 33 66  1  0  0  0
 33 70  2  0  0  0
 34 36  1  0  0  0
 34 59  1  0  0  0
 34108  1  0  0  0
 35 44  2  0  0  0
 35 45  1  0  0  0
 35 68  1  0  0  0
 36 56  1  0  0  0
 36109  1  0  0  0
 37 39  1  0  0  0
 37 47  1  0  0  0
 37 66  1  0  0  0
 37110  1  0  0  0
 38 43  2  0  0  0
 38 46  1  0  0  0
 38 47  1  0  0  0
 39 64  1  0  0  0
 39 67  2  0  0  0
 40 52  1  0  0  0
 40 53  2  0  0  0
 40 58  1  0  0  0
 41111  1  0  0  0
 41112  1  0  0  0
 41113  1  0  0  0
 41 48  1  0  0  0
 42 43  1  0  0  0
 42 66  1  0  0  0
 42114  1  0  0  0
 42115  1  0  0  0
 43 44  1  0  0  0
 44116  1  0  0  0
 45 46  2  0  0  0
 45117  1  0  0  0
 46118  1  0  0  0
 47119  1  0  0  0
 47120  1  0  0  0
 48 56  1  0  0  0
 48 65  1  0  0  0
 48121  1  0  0  0
 49 50  1  0  0  0
 49 53  1  0  0  0
 49 64  1  0  0  0
 49122  1  0  0  0
 50 51  1  0  0  0
 50123  1  0  0  0
 50124  1  0  0  0
 51 52  1  0  0  0
 51125  1  0  0  0
 51126  1  0  0  0
 52127  1  0  0  0
 52128  1  0  0  0
 53 54  1  0  0  0
 54 55  2  0  0  0
 54129  1  0  0  0
 55 57  1  0  0  0
 55130  1  0  0  0
 56 69  2  0  0  0
 57 58  2  0  0  0
 57131  1  0  0  0
 58132  1  0  0  0
 59 60  1  0  0  0
 59 61  1  0  0  0
 59 62  1  0  0  0
 60133  1  0  0  0
 60134  1  0  0  0
 60135  1  0  0  0
 61136  1  0  0  0
 61137  1  0  0  0
 61138  1  0  0  0
 62139  1  0  0  0
 62140  1  0  0  0
 62141  1  0  0  0
 63 65  1  0  0  0
 63142  1  0  0  0
 63143  1  0  0  0
 63144  1  0  0  0
 64145  1  0  0  0
 65146  1  0  0  0
 68 85  1  0  0  0
 71 72  2  0  0  0
 71 76  1  0  0  0
 71147  1  0  0  0
 72 74  1  0  0  0
 72 81  1  0  0  0
 73 75  1  0  0  0
 73 76  2  0  0  0
 73 77  1  0  0  0
 74 75  2  0  0  0
 74 84  1  0  0  0
 75 82  1  0  0  0
 76 87  1  0  0  0
 77 78  2  0  0  0
 77148  1  0  0  0
 78 79  1  0  0  0
 78149  1  0  0  0
 79 80  2  0  0  0
 79150  1  0  0  0
 80 85  1  0  0  0
 80151  1  0  0  0
 81 86  2  0  0  0
 82152  1  0  0  0
 82153  1  0  0  0
 82154  1  0  0  0
 83 84  1  0  0  0
 83155  1  0  0  0
 83156  1  0  0  0
 83157  1  0  0  0
 84158  1  0  0  0
 84159  1  0  0  0
 85160  1  0  0  0
 85161  1  0  0  0
 86162  1  0  0  0
M  ISO  4   1 100  68 101  81 100  85 101
M  END
> <chiral flag>
0

> <version>
0

> <s_m_source_file>
/data/baiqing/PycharmProjects/Reinvent-master-3.2/result/LINK_invent/BTK/process_docking_weight1_custom_product_contain_oxygen_bond_distance_aromatic_linkinvent_7_9_3/rearranged_h_0124.sdf

> <i_m_source_file_index>
83

> <r_mmod_Potential_Energy-OPLS-2005>
183.334609985352

> <r_mmod_Stretch_Energy-OPLS-2005>
51.2581443786621

> <r_mmod_Bend_Energy-OPLS-2005>
124.201316833496

> <r_mmod_Torsional_Energy-OPLS-2005>
232.303115844727

> <r_mmod_Improper_Torsional_Energy-OPLS-2005>
4.94359683990479

> <r_mmod_Van_der_Waal_Energy-OPLS-2005>
166.371520996094

> <r_mmod_Electrostatic_Energy-OPLS-2005>
-224.521118164062

> <r_mmod_Solvation_Energy-OPLS-2005>
-184.383941650391

> <b_mmod_Minimization_Converged-OPLS-2005>
0

> <r_mmod_RMS_Derivative-OPLS-2005>
4.95987606048584

$$$$
84
                    3D
 Structure written by MMmdl.
165173  0  0  1  0            999 V2000
  -30.6168  -14.6532   20.5153 C   0  0  0  0  0  0
  -30.4410  -12.4039   19.4575 C   0  0  0  0  0  0
  -29.5096  -12.5189   18.2291 C   0  0  0  0  0  0
  -28.0298  -12.3647   18.6344 C   0  0  0  0  0  0
  -27.6540  -13.2255   19.8699 C   0  0  2  0  0  0
  -28.6995  -13.0678   20.9977 C   0  0  0  0  0  0
  -25.2504  -13.8163   20.5607 C   0  0  0  0  0  0
  -24.1809  -13.0423   20.9182 C   0  0  0  0  0  0
  -24.6418  -11.6908   20.8761 C   0  0  0  0  0  0
  -23.9091  -10.4290   21.0427 C   0  0  0  0  0  0
  -24.3629   -9.4198   21.9202 C   0  0  0  0  0  0
  -23.6301   -8.2236   22.0762 C   0  0  0  0  0  0
  -22.4276   -8.0286   21.3551 C   0  0  0  0  0  0
  -21.9922   -9.0264   20.4646 C   0  0  0  0  0  0
  -22.7265  -10.2140   20.3066 C   0  0  0  0  0  0
  -21.6856   -6.0735   22.5281 C   0  0  0  0  0  0
  -21.4019   -6.5643   23.8211 C   0  0  0  0  0  0
  -21.3654   -5.6793   24.9172 C   0  0  0  0  0  0
  -21.6039   -4.3055   24.7221 C   0  0  0  0  0  0
  -21.8820   -3.8146   23.4344 C   0  0  0  0  0  0
  -21.9194   -4.6964   22.3398 C   0  0  0  0  0  0
  -22.7826  -13.5209   21.1839 C   0  0  0  0  0  0
  -22.1663   -4.2151   21.0978 F   0  0  0  0  0  0
  -21.5618   -3.4538   25.7734 F   0  0  0  0  0  0
  -30.0176  -13.4204   20.4431 N   0  0  0  0  0  0
  -26.2990  -12.9392   20.3342 N   0  0  0  0  0  0
  -25.9361  -11.6536   20.5796 N   0  0  0  0  0  0
  -22.0479  -12.8215   22.0417 N   0  0  0  0  0  0
  -25.4090  -15.1858   20.3820 N   0  0  0  0  0  0
  -31.7538  -14.8397   20.0703 O   0  0  0  0  0  0
  -21.6638   -6.8883   21.4244 O   0  0  0  0  0  0
  -22.3507  -14.5510   20.6683 O   0  0  0  0  0  0
  -24.6281  -31.8595   23.2017 C   0  0  0  0  0  0
  -25.9121  -32.4769   23.8348 C   0  0  1  0  0  0
  -27.2172  -27.3085   20.1149 C   0  0  0  0  0  0
  -25.5926  -33.8566   24.2282 N   0  0  0  0  0  0
  -23.4206  -30.4873   21.5448 C   0  0  2  0  0  0
  -24.8642  -28.9424   20.1086 C   0  0  0  0  0  0
  -22.7487  -29.4629   22.4917 C   0  0  0  0  0  0
  -18.0298  -28.1368   22.8498 C   0  0  0  0  0  0
  -24.1496  -36.7287   23.2652 C   0  0  0  0  0  0
  -25.9657  -30.7875   21.3730 C   0  0  0  0  0  0
  -26.0354  -29.4160   20.7113 C   0  0  0  0  0  0
  -27.2169  -28.6137   20.6985 C   0  0  0  0  0  0
  -26.0197  -26.8898   19.4882 C   0  0  0  0  0  0
  -24.8588  -27.6854   19.4873 C   0  0  0  0  0  0
  -23.6355  -29.8285   20.1580 C   0  0  0  0  0  0
  -25.4113  -36.3070   24.0344 C   0  0  1  0  0  0
  -20.5904  -28.3662   23.1287 C   0  0  2  0  0  0
  -20.6791  -26.9385   22.5406 C   0  0  0  0  0  0
  -19.5764  -26.6366   21.5222 C   0  0  0  0  0  0
  -18.1939  -26.7921   22.1623 C   0  0  0  0  0  0
  -19.1554  -28.8831   23.2894 C   0  0  0  0  0  0
  -18.9480  -30.1450   23.8884 C   0  0  0  0  0  0
  -17.6478  -30.6573   24.0562 C   0  0  0  0  0  0
  -25.9050  -34.9447   23.5116 C   0  0  0  0  0  0
  -16.5369  -29.9073   23.6329 C   0  0  0  0  0  0
  -16.7288  -28.6491   23.0347 C   0  0  0  0  0  0
  -26.4501  -31.6571   25.0724 C   0  0  0  0  0  0
  -25.3750  -31.3711   26.1457 C   0  0  0  0  0  0
  -27.0332  -30.2998   24.6159 C   0  0  0  0  0  0
  -27.6050  -32.4313   25.7494 C   0  0  0  0  0  0
  -27.5578  -37.1800   24.8473 C   0  0  0  0  0  0
  -21.4192  -29.3038   22.3676 N   0  0  0  0  0  0
  -26.4282  -37.3765   23.9420 N   0  0  0  0  0  0
  -24.6912  -31.0624   22.0958 N   0  0  0  0  0  0
  -23.4210  -28.8154   23.2989 O   0  0  0  0  0  0
  -28.3309  -26.4501   20.1726 O   0  0  0  0  0  0
  -26.5635  -34.8912   22.4695 O   0  0  0  0  0  0
  -23.5439  -32.1378   23.7340 O   0  0  0  0  0  0
  -30.4091  -17.8331   19.8021 C   0  0  0  0  0  0
  -30.3625  -19.2590   19.6993 C   0  0  0  0  0  0
  -29.1821  -19.3723   21.8123 C   0  0  0  0  0  0
  -29.2553  -17.9352   21.9202 C   0  0  0  0  0  0
  -29.7476  -20.0756   20.6999 C   0  0  0  0  0  0
  -29.8749  -17.1320   20.9114 C   0  0  0  0  0  0
  -29.0094  -22.4116   20.3807 C   0  0  0  0  0  0
  -31.0406  -19.8882   18.4913 C   0  0  0  0  0  0
  -28.5341  -20.1620   22.9502 C   0  0  0  0  0  0
  -26.7550  -15.8152   24.0727 C   0  0  0  0  0  0
  -28.6930  -17.2229   23.1579 C   0  0  0  0  0  0
  -29.2719  -23.9730   20.4443 C   0  0  0  0  0  0
  -27.2588  -16.7171   22.9401 C   0  0  0  0  0  0
  -28.0982  -24.9834   20.0722 C   0  0  0  0  0  0
  -29.9049  -21.5127   20.6792 N   0  0  0  0  0  0
  -29.8402  -15.6656   21.0161 N   0  0  0  0  0  0
  -31.4823  -12.5293   19.1560 H   0  0  0  0  0  0
  -30.3770  -11.4076   19.8980 H   0  0  0  0  0  0
  -29.7736  -11.7675   17.4826 H   0  0  0  0  0  0
  -29.6554  -13.4881   17.7509 H   0  0  0  0  0  0
  -27.8547  -11.3105   18.8497 H   0  0  0  0  0  0
  -27.3822  -12.6132   17.7921 H   0  0  0  0  0  0
  -27.6728  -14.2648   19.5411 H   0  0  0  0  0  0
  -28.7145  -12.0392   21.3610 H   0  0  0  0  0  0
  -28.4405  -13.6798   21.8629 H   0  0  0  0  0  0
  -25.2768   -9.5664   22.4785 H   0  0  0  0  0  0
  -23.9993   -7.4623   22.7493 H   0  0  0  0  0  0
  -21.0840   -8.8788   19.8960 H   0  0  0  0  0  0
  -22.3724  -10.9676   19.6170 H   0  0  0  0  0  0
  -21.2029   -7.6152   23.9717 H   0  0  0  0  0  0
  -21.1468   -6.0522   25.9072 H   0  0  0  0  0  0
  -22.0607   -2.7613   23.2840 H   0  0  0  0  0  0
  -22.4090  -11.9881   22.4800 H   0  0  0  0  0  0
  -21.1103  -13.1256   22.2622 H   0  0  0  0  0  0
  -24.6449  -15.8378   20.5159 H   0  0  0  0  0  0
  -26.2543  -15.6314   20.0506 H   0  0  0  0  0  0
  -26.7193  -32.5433   23.1085 H   0  0  0  0  0  0
  -25.0076  -33.9711   25.0428 H   0  0  0  0  0  0
  -22.7190  -31.3117   21.4045 H   0  0  0  0  0  0
  -23.3753  -35.9627   23.3311 H   0  0  0  0  0  0
  -24.3610  -36.8904   22.2071 H   0  0  0  0  0  0
  -23.7250  -37.6496   23.6664 H   0  0  0  0  0  0
  -26.1125  -31.5522   20.6089 H   0  0  0  0  0  0
  -26.8434  -30.8248   22.0065 H   0  0  0  0  0  0
  -28.1179  -28.9771   21.1715 H   0  0  0  0  0  0
  -25.9458  -25.9295   19.0013 H   0  0  0  0  0  0
  -23.9600  -27.3185   19.0128 H   0  0  0  0  0  0
  -23.7594  -30.6099   19.4081 H   0  0  0  0  0  0
  -22.7518  -29.2670   19.8489 H   0  0  0  0  0  0
  -25.1289  -36.1928   25.0838 H   0  0  0  0  0  0
  -21.0030  -28.3216   24.1391 H   0  0  0  0  0  0
  -20.5706  -26.2262   23.3593 H   0  0  0  0  0  0
  -21.6655  -26.7403   22.1195 H   0  0  0  0  0  0
  -19.6921  -25.6283   21.1240 H   0  0  0  0  0  0
  -19.6696  -27.3185   20.6768 H   0  0  0  0  0  0
  -17.4218  -26.6695   21.4014 H   0  0  0  0  0  0
  -18.0304  -26.0047   22.8997 H   0  0  0  0  0  0
  -19.7956  -30.7288   24.2205 H   0  0  0  0  0  0
  -17.5039  -31.6249   24.5171 H   0  0  0  0  0  0
  -15.5376  -30.2983   23.7653 H   0  0  0  0  0  0
  -15.8685  -28.0835   22.7032 H   0  0  0  0  0  0
  -24.5940  -30.7017   25.7821 H   0  0  0  0  0  0
  -24.8914  -32.2874   26.4862 H   0  0  0  0  0  0
  -25.8092  -30.8936   27.0254 H   0  0  0  0  0  0
  -26.2887  -29.6751   24.1199 H   0  0  0  0  0  0
  -27.4080  -29.7228   25.4630 H   0  0  0  0  0  0
  -27.8736  -30.4303   23.9332 H   0  0  0  0  0  0
  -27.2646  -33.3623   26.2036 H   0  0  0  0  0  0
  -28.3856  -32.6853   25.0314 H   0  0  0  0  0  0
  -28.0707  -31.8469   26.5442 H   0  0  0  0  0  0
  -28.2586  -38.0103   24.7514 H   0  0  0  0  0  0
  -28.1069  -36.2635   24.6278 H   0  0  0  0  0  0
  -27.2318  -37.1444   25.8884 H   0  0  0  0  0  0
  -20.9333  -29.8779   21.6927 H   0  0  0  0  0  0
  -26.0163  -38.2847   24.1408 H   0  0  0  0  0  0
  -30.8741  -17.2700   19.0047 H   0  0  0  0  0  0
  -27.9978  -22.1327   20.0737 H   0  0  0  0  0  0
  -30.9150  -19.2590   17.6096 H   0  0  0  0  0  0
  -32.1102  -19.9964   18.6770 H   0  0  0  0  0  0
  -30.6354  -20.8685   18.2422 H   0  0  0  0  0  0
  -27.5951  -19.7051   23.2592 H   0  0  0  0  0  0
  -28.2846  -21.1882   22.6929 H   0  0  0  0  0  0
  -29.2031  -20.1905   23.8105 H   0  0  0  0  0  0
  -25.7390  -15.4741   23.8721 H   0  0  0  0  0  0
  -26.7423  -16.3446   25.0263 H   0  0  0  0  0  0
  -27.3826  -14.9296   24.1834 H   0  0  0  0  0  0
  -28.7336  -17.8568   24.0428 H   0  0  0  0  0  0
  -29.3418  -16.3870   23.4207 H   0  0  0  0  0  0
  -30.1253  -24.1847   19.8001 H   0  0  0  0  0  0
  -29.6020  -24.2035   21.4568 H   0  0  0  0  0  0
  -26.5819  -17.5614   22.8123 H   0  0  0  0  0  0
  -27.2218  -16.1547   22.0098 H   0  0  0  0  0  0
  -27.2465  -24.7345   20.7081 H   0  0  0  0  0  0
  -27.7987  -24.7621   19.0477 H   0  0  0  0  0  0
  -29.0328  -15.3102   21.5021 H   0  0  0  0  0  0
  1 25  1  0  0  0
  1 30  2  0  0  0
  1 86  1  0  0  0
  2  3  1  0  0  0
  2 25  1  0  0  0
  2 87  1  0  0  0
  2 88  1  0  0  0
  3  4  1  0  0  0
  3 89  1  0  0  0
  3 90  1  0  0  0
  4  5  1  0  0  0
  4 91  1  0  0  0
  4 92  1  0  0  0
  5  6  1  0  0  0
  5 26  1  0  0  0
  5 93  1  0  0  0
  6 25  1  0  0  0
  6 94  1  0  0  0
  6 95  1  0  0  0
  7  8  2  0  0  0
  7 26  1  0  0  0
  7 29  1  0  0  0
  8  9  1  0  0  0
  8 22  1  0  0  0
  9 10  1  0  0  0
  9 27  2  0  0  0
 10 11  2  0  0  0
 10 15  1  0  0  0
 11 12  1  0  0  0
 11 96  1  0  0  0
 12 13  2  0  0  0
 12 97  1  0  0  0
 13 14  1  0  0  0
 13 31  1  0  0  0
 14 15  2  0  0  0
 14 98  1  0  0  0
 15 99  1  0  0  0
 16 17  2  0  0  0
 16 21  1  0  0  0
 16 31  1  0  0  0
 17 18  1  0  0  0
 17100  1  0  0  0
 18 19  2  0  0  0
 18101  1  0  0  0
 19 20  1  0  0  0
 19 24  1  0  0  0
 20 21  2  0  0  0
 20102  1  0  0  0
 21 23  1  0  0  0
 22 28  1  0  0  0
 22 32  2  0  0  0
 26 27  1  0  0  0
 28103  1  0  0  0
 28104  1  0  0  0
 29105  1  0  0  0
 29106  1  0  0  0
 33 34  1  0  0  0
 33 66  1  0  0  0
 33 70  2  0  0  0
 34 36  1  0  0  0
 34 59  1  0  0  0
 34107  1  0  0  0
 35 44  2  0  0  0
 35 45  1  0  0  0
 35 68  1  0  0  0
 36 56  1  0  0  0
 36108  1  0  0  0
 37 39  1  0  0  0
 37 47  1  0  0  0
 37 66  1  0  0  0
 37109  1  0  0  0
 38 43  2  0  0  0
 38 46  1  0  0  0
 38 47  1  0  0  0
 39 64  1  0  0  0
 39 67  2  0  0  0
 40 52  1  0  0  0
 40 53  2  0  0  0
 40 58  1  0  0  0
 41110  1  0  0  0
 41111  1  0  0  0
 41112  1  0  0  0
 41 48  1  0  0  0
 42 43  1  0  0  0
 42 66  1  0  0  0
 42113  1  0  0  0
 42114  1  0  0  0
 43 44  1  0  0  0
 44115  1  0  0  0
 45 46  2  0  0  0
 45116  1  0  0  0
 46117  1  0  0  0
 47118  1  0  0  0
 47119  1  0  0  0
 48 56  1  0  0  0
 48 65  1  0  0  0
 48120  1  0  0  0
 49 50  1  0  0  0
 49 53  1  0  0  0
 49 64  1  0  0  0
 49121  1  0  0  0
 50 51  1  0  0  0
 50122  1  0  0  0
 50123  1  0  0  0
 51 52  1  0  0  0
 51124  1  0  0  0
 51125  1  0  0  0
 52126  1  0  0  0
 52127  1  0  0  0
 53 54  1  0  0  0
 54 55  2  0  0  0
 54128  1  0  0  0
 55 57  1  0  0  0
 55129  1  0  0  0
 56 69  2  0  0  0
 57 58  2  0  0  0
 57130  1  0  0  0
 58131  1  0  0  0
 59 60  1  0  0  0
 59 61  1  0  0  0
 59 62  1  0  0  0
 60132  1  0  0  0
 60133  1  0  0  0
 60134  1  0  0  0
 61135  1  0  0  0
 61136  1  0  0  0
 61137  1  0  0  0
 62138  1  0  0  0
 62139  1  0  0  0
 62140  1  0  0  0
 63 65  1  0  0  0
 63141  1  0  0  0
 63142  1  0  0  0
 63143  1  0  0  0
 64144  1  0  0  0
 65145  1  0  0  0
 68 84  1  0  0  0
 71 72  2  0  0  0
 71 76  1  0  0  0
 71146  1  0  0  0
 72 75  1  0  0  0
 72 78  1  0  0  0
 73 74  1  0  0  0
 73 75  2  0  0  0
 73 79  1  0  0  0
 74 76  2  0  0  0
 74 81  1  0  0  0
 75 85  1  0  0  0
 76 86  1  0  0  0
 77 82  1  0  0  0
 77 85  2  0  0  0
 77147  1  0  0  0
 78148  1  0  0  0
 78149  1  0  0  0
 78150  1  0  0  0
 79151  1  0  0  0
 79152  1  0  0  0
 79153  1  0  0  0
 80 83  1  0  0  0
 80154  1  0  0  0
 80155  1  0  0  0
 80156  1  0  0  0
 81 83  1  0  0  0
 81157  1  0  0  0
 81158  1  0  0  0
 82 84  1  0  0  0
 82159  1  0  0  0
 82160  1  0  0  0
 83161  1  0  0  0
 83162  1  0  0  0
 84163  1  0  0  0
 84164  1  0  0  0
 86165  1  0  0  0
M  ISO  4   1 100  68 101  84 101  86 100
M  END
> <chiral flag>
0

> <version>
0

> <s_m_source_file>
/data/baiqing/PycharmProjects/Reinvent-master-3.2/result/LINK_invent/BTK/process_docking_weight1_custom_product_contain_oxygen_bond_distance_aromatic_linkinvent_7_9_3/rearranged_h_0124.sdf

> <i_m_source_file_index>
84

> <r_mmod_Potential_Energy-OPLS-2005>
33.5091361999512

> <r_mmod_Stretch_Energy-OPLS-2005>
91.0128326416016

> <r_mmod_Bend_Energy-OPLS-2005>
145.955780029297

> <r_mmod_Torsional_Energy-OPLS-2005>
238.014312744141

> <r_mmod_Improper_Torsional_Energy-OPLS-2005>
4.3275318145752

> <r_mmod_Van_der_Waal_Energy-OPLS-2005>
145.519607543945

> <r_mmod_Electrostatic_Energy-OPLS-2005>
-436.31591796875

> <r_mmod_Solvation_Energy-OPLS-2005>
-208.140823364258

> <b_mmod_Minimization_Converged-OPLS-2005>
0

> <r_mmod_RMS_Derivative-OPLS-2005>
2.42482876777649

$$$$
85
                    3D
 Structure written by MMmdl.
155163  0  0  1  0            999 V2000
  -30.6910  -14.4934   20.5929 C   0  0  0  0  0  0
  -30.4252  -12.3241   19.4332 C   0  0  0  0  0  0
  -29.4956  -12.5174   18.2154 C   0  0  0  0  0  0
  -28.0167  -12.3641   18.6242 C   0  0  0  0  0  0
  -27.6624  -13.2027   19.8805 C   0  0  2  0  0  0
  -28.7003  -12.9672   20.9989 C   0  0  0  0  0  0
  -25.2592  -13.8158   20.5693 C   0  0  0  0  0  0
  -24.1833  -13.0431   20.9176 C   0  0  0  0  0  0
  -24.6388  -11.6902   20.8738 C   0  0  0  0  0  0
  -23.9056  -10.4285   21.0406 C   0  0  0  0  0  0
  -24.3608   -9.4202   21.9183 C   0  0  0  0  0  0
  -23.6281   -8.2236   22.0756 C   0  0  0  0  0  0
  -22.4262   -8.0274   21.3551 C   0  0  0  0  0  0
  -21.9902   -9.0248   20.4652 C   0  0  0  0  0  0
  -22.7233  -10.2127   20.3056 C   0  0  0  0  0  0
  -21.6848   -6.0732   22.5279 C   0  0  0  0  0  0
  -21.4018   -6.5638   23.8215 C   0  0  0  0  0  0
  -21.3662   -5.6790   24.9176 C   0  0  0  0  0  0
  -21.6040   -4.3054   24.7226 C   0  0  0  0  0  0
  -21.8823   -3.8148   23.4349 C   0  0  0  0  0  0
  -21.9199   -4.6959   22.3406 C   0  0  0  0  0  0
  -22.7863  -13.5243   21.1839 C   0  0  0  0  0  0
  -22.1663   -4.2145   21.0983 F   0  0  0  0  0  0
  -21.5629   -3.4538   25.7741 F   0  0  0  0  0  0
  -30.0294  -13.3048   20.4615 N   0  0  0  0  0  0
  -26.3021  -12.9314   20.3398 N   0  0  0  0  0  0
  -25.9307  -11.6481   20.5778 N   0  0  0  0  0  0
  -22.0512  -12.8218   22.0394 N   0  0  0  0  0  0
  -25.4364  -15.1866   20.4145 N   0  0  0  0  0  0
  -31.8006  -14.6674   20.0784 O   0  0  0  0  0  0
  -21.6641   -6.8871   21.4235 O   0  0  0  0  0  0
  -22.3547  -14.5559   20.6704 O   0  0  0  0  0  0
  -24.6132  -31.8657   23.2125 C   0  0  0  0  0  0
  -25.9018  -32.4814   23.8389 C   0  0  1  0  0  0
  -27.2263  -27.4200   20.0995 C   0  0  0  0  0  0
  -25.5880  -33.8618   24.2308 N   0  0  0  0  0  0
  -23.4023  -30.4879   21.5538 C   0  0  2  0  0  0
  -24.8500  -28.9599   20.1090 C   0  0  0  0  0  0
  -22.7417  -29.4609   22.5008 C   0  0  0  0  0  0
  -18.0263  -28.1359   22.8467 C   0  0  0  0  0  0
  -24.1504  -36.7316   23.2638 C   0  0  0  0  0  0
  -25.9320  -30.8268   21.3693 C   0  0  0  0  0  0
  -26.0107  -29.4626   20.7116 C   0  0  0  0  0  0
  -27.2047  -28.7008   20.7023 C   0  0  0  0  0  0
  -26.0550  -26.9434   19.4723 C   0  0  0  0  0  0
  -24.8699  -27.7032   19.4804 C   0  0  0  0  0  0
  -23.6109  -29.8253   20.1661 C   0  0  0  0  0  0
  -25.4126  -36.3110   24.0326 C   0  0  1  0  0  0
  -20.5852  -28.3635   23.1325 C   0  0  2  0  0  0
  -20.6764  -26.9371   22.5412 C   0  0  0  0  0  0
  -19.5746  -26.6368   21.5201 C   0  0  0  0  0  0
  -18.1918  -26.7904   22.1603 C   0  0  0  0  0  0
  -19.1515  -28.8814   23.2886 C   0  0  0  0  0  0
  -18.9444  -30.1419   23.8880 C   0  0  0  0  0  0
  -17.6441  -30.6561   24.0538 C   0  0  0  0  0  0
  -25.9040  -34.9472   23.5112 C   0  0  0  0  0  0
  -16.5332  -29.9055   23.6333 C   0  0  0  0  0  0
  -16.7250  -28.6488   23.0322 C   0  0  0  0  0  0
  -26.4458  -31.6599   25.0702 C   0  0  0  0  0  0
  -25.3739  -31.3709   26.1461 C   0  0  0  0  0  0
  -27.0293  -30.3051   24.6070 C   0  0  0  0  0  0
  -27.6028  -32.4335   25.7454 C   0  0  0  0  0  0
  -27.5597  -37.1816   24.8458 C   0  0  0  0  0  0
  -21.4140  -29.3000   22.3754 N   0  0  0  0  0  0
  -26.4320  -37.3784   23.9392 N   0  0  0  0  0  0
  -24.6670  -31.0743   22.1035 N   0  0  0  0  0  0
  -23.4183  -28.8139   23.3045 O   0  0  0  0  0  0
  -28.3576  -26.6264   20.1263 O   0  0  0  0  0  0
  -26.5604  -34.8916   22.4674 O   0  0  0  0  0  0
  -23.5320  -32.1407   23.7512 O   0  0  0  0  0  0
  -28.1049  -19.1757   23.1706 C   0  0  0  0  0  0
  -28.6712  -18.0127   22.6187 C   0  0  0  0  0  0
  -28.3824  -20.4411   22.6196 C   0  0  0  0  0  0
  -29.8069  -19.3836   20.9616 C   0  0  0  0  0  0
  -29.5422  -18.0959   21.5094 C   0  0  0  0  0  0
  -29.2273  -20.5740   21.4862 C   0  0  0  0  0  0
  -30.1684  -16.8797   20.9158 C   0  0  0  0  0  0
  -29.9808  -15.5827   21.2825 C   0  0  0  0  0  0
  -28.8325  -22.8811   21.0476 C   0  0  0  0  0  0
  -28.5157  -25.7974   22.3711 C   0  0  0  0  0  0
  -29.1224  -24.2494   20.3986 C   0  0  0  0  0  0
  -28.2183  -25.4157   20.9103 C   0  0  2  0  0  0
  -29.5375  -21.8186   20.8746 N   0  0  0  0  0  0
  -31.4700  -12.4217   19.1359 H   0  0  0  0  0  0
  -30.3339  -11.3124   19.8280 H   0  0  0  0  0  0
  -29.7402  -11.7974   17.4334 H   0  0  0  0  0  0
  -29.6556  -13.5055   17.7829 H   0  0  0  0  0  0
  -27.8355  -11.3073   18.8249 H   0  0  0  0  0  0
  -27.3610  -12.6308   17.7940 H   0  0  0  0  0  0
  -27.7129  -14.2529   19.5915 H   0  0  0  0  0  0
  -28.6891  -11.9189   21.3026 H   0  0  0  0  0  0
  -28.4346  -13.5097   21.9025 H   0  0  0  0  0  0
  -25.2757   -9.5679   22.4757 H   0  0  0  0  0  0
  -23.9998   -7.4636   22.7472 H   0  0  0  0  0  0
  -21.0843   -8.8769   19.8953 H   0  0  0  0  0  0
  -22.3700  -10.9663   19.6162 H   0  0  0  0  0  0
  -21.2008   -7.6142   23.9713 H   0  0  0  0  0  0
  -21.1478   -6.0522   25.9078 H   0  0  0  0  0  0
  -22.0602   -2.7608   23.2854 H   0  0  0  0  0  0
  -22.4115  -11.9855   22.4731 H   0  0  0  0  0  0
  -21.1135  -13.1245   22.2642 H   0  0  0  0  0  0
  -24.6792  -15.8506   20.5368 H   0  0  0  0  0  0
  -26.3055  -15.6252   20.1343 H   0  0  0  0  0  0
  -26.7067  -32.5519   23.1136 H   0  0  0  0  0  0
  -25.0015  -33.9794   25.0442 H   0  0  0  0  0  0
  -22.6875  -31.3026   21.4212 H   0  0  0  0  0  0
  -23.3764  -35.9655   23.3299 H   0  0  0  0  0  0
  -24.3591  -36.8930   22.2053 H   0  0  0  0  0  0
  -23.7274  -37.6523   23.6659 H   0  0  0  0  0  0
  -26.0433  -31.5960   20.6041 H   0  0  0  0  0  0
  -26.8191  -30.8752   21.9882 H   0  0  0  0  0  0
  -28.0979  -29.0773   21.1826 H   0  0  0  0  0  0
  -26.0544  -25.9793   18.9817 H   0  0  0  0  0  0
  -23.9817  -27.3183   18.9975 H   0  0  0  0  0  0
  -23.7103  -30.6026   19.4086 H   0  0  0  0  0  0
  -22.7354  -29.2431   19.8734 H   0  0  0  0  0  0
  -25.1312  -36.1976   25.0823 H   0  0  0  0  0  0
  -20.9897  -28.3184   24.1462 H   0  0  0  0  0  0
  -20.5698  -26.2212   23.3582 H   0  0  0  0  0  0
  -21.6635  -26.7440   22.1182 H   0  0  0  0  0  0
  -19.6914  -25.6296   21.1191 H   0  0  0  0  0  0
  -19.6713  -27.3214   20.6756 H   0  0  0  0  0  0
  -17.4199  -26.6639   21.3991 H   0  0  0  0  0  0
  -18.0310  -26.0054   22.8999 H   0  0  0  0  0  0
  -19.7928  -30.7213   24.2256 H   0  0  0  0  0  0
  -17.5012  -31.6250   24.5127 H   0  0  0  0  0  0
  -15.5332  -30.2923   23.7712 H   0  0  0  0  0  0
  -15.8652  -28.0809   22.7025 H   0  0  0  0  0  0
  -24.5905  -30.7051   25.7806 H   0  0  0  0  0  0
  -24.8927  -32.2867   26.4910 H   0  0  0  0  0  0
  -25.8099  -30.8884   27.0216 H   0  0  0  0  0  0
  -26.2819  -29.6805   24.1155 H   0  0  0  0  0  0
  -27.4104  -29.7296   25.4508 H   0  0  0  0  0  0
  -27.8634  -30.4368   23.9172 H   0  0  0  0  0  0
  -27.2639  -33.3638   26.2034 H   0  0  0  0  0  0
  -28.3834  -32.6898   25.0269 H   0  0  0  0  0  0
  -28.0692  -31.8454   26.5369 H   0  0  0  0  0  0
  -28.2603  -38.0127   24.7500 H   0  0  0  0  0  0
  -28.1105  -36.2651   24.6291 H   0  0  0  0  0  0
  -27.2287  -37.1438   25.8852 H   0  0  0  0  0  0
  -20.9297  -29.8740   21.6999 H   0  0  0  0  0  0
  -26.0205  -38.2855   24.1412 H   0  0  0  0  0  0
  -27.4515  -19.0991   24.0291 H   0  0  0  0  0  0
  -28.4311  -17.0628   23.0750 H   0  0  0  0  0  0
  -27.9324  -21.2983   23.0993 H   0  0  0  0  0  0
  -30.4705  -19.4576   20.1114 H   0  0  0  0  0  0
  -30.8459  -17.0756   20.0962 H   0  0  0  0  0  0
  -29.3146  -15.3585   22.0970 H   0  0  0  0  0  0
  -27.9371  -22.8891   21.6746 H   0  0  0  0  0  0
  -28.3816  -24.9552   23.0486 H   0  0  0  0  0  0
  -27.8470  -26.5877   22.7143 H   0  0  0  0  0  0
  -29.5389  -26.1575   22.4833 H   0  0  0  0  0  0
  -28.9807  -24.1366   19.3234 H   0  0  0  0  0  0
  -30.1732  -24.5040   20.5450 H   0  0  0  0  0  0
  -27.1886  -25.0582   20.8657 H   0  0  0  0  0  0
  1 25  1  0  0  0
  1 30  2  0  0  0
  1 78  1  0  0  0
  2  3  1  0  0  0
  2 25  1  0  0  0
  2 84  1  0  0  0
  2 85  1  0  0  0
  3  4  1  0  0  0
  3 86  1  0  0  0
  3 87  1  0  0  0
  4  5  1  0  0  0
  4 88  1  0  0  0
  4 89  1  0  0  0
  5  6  1  0  0  0
  5 26  1  0  0  0
  5 90  1  0  0  0
  6 25  1  0  0  0
  6 91  1  0  0  0
  6 92  1  0  0  0
  7  8  2  0  0  0
  7 26  1  0  0  0
  7 29  1  0  0  0
  8  9  1  0  0  0
  8 22  1  0  0  0
  9 10  1  0  0  0
  9 27  2  0  0  0
 10 11  2  0  0  0
 10 15  1  0  0  0
 11 12  1  0  0  0
 11 93  1  0  0  0
 12 13  2  0  0  0
 12 94  1  0  0  0
 13 14  1  0  0  0
 13 31  1  0  0  0
 14 15  2  0  0  0
 14 95  1  0  0  0
 15 96  1  0  0  0
 16 17  2  0  0  0
 16 21  1  0  0  0
 16 31  1  0  0  0
 17 18  1  0  0  0
 17 97  1  0  0  0
 18 19  2  0  0  0
 18 98  1  0  0  0
 19 20  1  0  0  0
 19 24  1  0  0  0
 20 21  2  0  0  0
 20 99  1  0  0  0
 21 23  1  0  0  0
 22 28  1  0  0  0
 22 32  2  0  0  0
 26 27  1  0  0  0
 28100  1  0  0  0
 28101  1  0  0  0
 29102  1  0  0  0
 29103  1  0  0  0
 33 34  1  0  0  0
 33 66  1  0  0  0
 33 70  2  0  0  0
 34 36  1  0  0  0
 34 59  1  0  0  0
 34104  1  0  0  0
 35 44  2  0  0  0
 35 45  1  0  0  0
 35 68  1  0  0  0
 36 56  1  0  0  0
 36105  1  0  0  0
 37 39  1  0  0  0
 37 47  1  0  0  0
 37 66  1  0  0  0
 37106  1  0  0  0
 38 43  2  0  0  0
 38 46  1  0  0  0
 38 47  1  0  0  0
 39 64  1  0  0  0
 39 67  2  0  0  0
 40 52  1  0  0  0
 40 53  2  0  0  0
 40 58  1  0  0  0
 41107  1  0  0  0
 41108  1  0  0  0
 41109  1  0  0  0
 41 48  1  0  0  0
 42 43  1  0  0  0
 42 66  1  0  0  0
 42110  1  0  0  0
 42111  1  0  0  0
 43 44  1  0  0  0
 44112  1  0  0  0
 45 46  2  0  0  0
 45113  1  0  0  0
 46114  1  0  0  0
 47115  1  0  0  0
 47116  1  0  0  0
 48 56  1  0  0  0
 48 65  1  0  0  0
 48117  1  0  0  0
 49 50  1  0  0  0
 49 53  1  0  0  0
 49 64  1  0  0  0
 49118  1  0  0  0
 50 51  1  0  0  0
 50119  1  0  0  0
 50120  1  0  0  0
 51 52  1  0  0  0
 51121  1  0  0  0
 51122  1  0  0  0
 52123  1  0  0  0
 52124  1  0  0  0
 53 54  1  0  0  0
 54 55  2  0  0  0
 54125  1  0  0  0
 55 57  1  0  0  0
 55126  1  0  0  0
 56 69  2  0  0  0
 57 58  2  0  0  0
 57127  1  0  0  0
 58128  1  0  0  0
 59 60  1  0  0  0
 59 61  1  0  0  0
 59 62  1  0  0  0
 60129  1  0  0  0
 60130  1  0  0  0
 60131  1  0  0  0
 61132  1  0  0  0
 61133  1  0  0  0
 61134  1  0  0  0
 62135  1  0  0  0
 62136  1  0  0  0
 62137  1  0  0  0
 63 65  1  0  0  0
 63138  1  0  0  0
 63139  1  0  0  0
 63140  1  0  0  0
 64141  1  0  0  0
 65142  1  0  0  0
 68 82  1  0  0  0
 71 72  2  0  0  0
 71 73  1  0  0  0
 71143  1  0  0  0
 72 75  1  0  0  0
 72144  1  0  0  0
 73 76  2  0  0  0
 73145  1  0  0  0
 74 75  2  0  0  0
 74 76  1  0  0  0
 74146  1  0  0  0
 75 77  1  0  0  0
 76 83  1  0  0  0
 77 78  2  0  0  0
 77147  1  0  0  0
 78148  1  0  0  0
 79 81  1  0  0  0
 79 83  2  0  0  0
 79149  1  0  0  0
 80150  1  0  0  0
 80151  1  0  0  0
 80152  1  0  0  0
 80 82  1  0  0  0
 81 82  1  0  0  0
 81153  1  0  0  0
 81154  1  0  0  0
 82155  1  0  0  0
M  ISO  4   1 100  68 101  78 100  82 101
M  END
> <chiral flag>
0

> <version>
0

> <s_m_source_file>
/data/baiqing/PycharmProjects/Reinvent-master-3.2/result/LINK_invent/BTK/process_docking_weight1_custom_product_contain_oxygen_bond_distance_aromatic_linkinvent_7_9_3/rearranged_h_0124.sdf

> <i_m_source_file_index>
85

> <r_mmod_Potential_Energy-OPLS-2005>
-21.1815853118896

> <r_mmod_Stretch_Energy-OPLS-2005>
45.9611206054688

> <r_mmod_Bend_Energy-OPLS-2005>
101.160591125488

> <r_mmod_Torsional_Energy-OPLS-2005>
197.604156494141

> <r_mmod_Improper_Torsional_Energy-OPLS-2005>
2.44883227348328

> <r_mmod_Van_der_Waal_Energy-OPLS-2005>
161.893630981445

> <r_mmod_Electrostatic_Energy-OPLS-2005>
-346.8837890625

> <r_mmod_Solvation_Energy-OPLS-2005>
-198.712478637695

> <b_mmod_Minimization_Converged-OPLS-2005>
0

> <r_mmod_RMS_Derivative-OPLS-2005>
2.53877139091492

$$$$
86
                    3D
 Structure written by MMmdl.
153161  0  0  1  0            999 V2000
  -30.6289  -14.7353   20.4821 C   0  0  0  0  0  0
  -30.4229  -12.4563   19.4709 C   0  0  0  0  0  0
  -29.4988  -12.5018   18.2326 C   0  0  0  0  0  0
  -28.0248  -12.3330   18.6468 C   0  0  0  0  0  0
  -27.6318  -13.2350   19.8467 C   0  0  2  0  0  0
  -28.6760  -13.1830   20.9832 C   0  0  0  0  0  0
  -25.2436  -13.8205   20.5682 C   0  0  0  0  0  0
  -24.1739  -13.0434   20.9201 C   0  0  0  0  0  0
  -24.6351  -11.6924   20.8751 C   0  0  0  0  0  0
  -23.9040  -10.4298   21.0415 C   0  0  0  0  0  0
  -24.3598   -9.4227   21.9197 C   0  0  0  0  0  0
  -23.6289   -8.2251   22.0758 C   0  0  0  0  0  0
  -22.4279   -8.0274   21.3536 C   0  0  0  0  0  0
  -21.9911   -9.0251   20.4637 C   0  0  0  0  0  0
  -22.7222  -10.2138   20.3065 C   0  0  0  0  0  0
  -21.6848   -6.0728   22.5263 C   0  0  0  0  0  0
  -21.4020   -6.5646   23.8192 C   0  0  0  0  0  0
  -21.3664   -5.6804   24.9156 C   0  0  0  0  0  0
  -21.6025   -4.3065   24.7211 C   0  0  0  0  0  0
  -21.8825   -3.8149   23.4349 C   0  0  0  0  0  0
  -21.9194   -4.6955   22.3399 C   0  0  0  0  0  0
  -22.7773  -13.5210   21.1893 C   0  0  0  0  0  0
  -22.1656   -4.2168   21.0967 F   0  0  0  0  0  0
  -21.5638   -3.4543   25.7714 F   0  0  0  0  0  0
  -29.9755  -13.5263   20.3936 N   0  0  0  0  0  0
  -26.2866  -12.9435   20.3296 N   0  0  0  0  0  0
  -25.9284  -11.6583   20.5767 N   0  0  0  0  0  0
  -22.0437  -12.8171   22.0449 N   0  0  0  0  0  0
  -25.4149  -15.1917   20.4028 N   0  0  0  0  0  0
  -31.8228  -14.8020   20.1747 O   0  0  0  0  0  0
  -21.6631   -6.8878   21.4235 O   0  0  0  0  0  0
  -22.3450  -14.5523   20.6749 O   0  0  0  0  0  0
  -24.6322  -31.8521   23.1980 C   0  0  0  0  0  0
  -25.9136  -32.4731   23.8342 C   0  0  1  0  0  0
  -27.2160  -27.2444   20.1414 C   0  0  0  0  0  0
  -25.5894  -33.8557   24.2204 N   0  0  0  0  0  0
  -23.4324  -30.4764   21.5365 C   0  0  2  0  0  0
  -24.8836  -28.9269   20.1046 C   0  0  0  0  0  0
  -22.7524  -29.4579   22.4894 C   0  0  0  0  0  0
  -18.0259  -28.1394   22.8440 C   0  0  0  0  0  0
  -24.1500  -36.7264   23.2645 C   0  0  0  0  0  0
  -25.9835  -30.7588   21.3853 C   0  0  0  0  0  0
  -26.0581  -29.3867   20.7194 C   0  0  0  0  0  0
  -27.2259  -28.5570   20.7252 C   0  0  0  0  0  0
  -26.0188  -26.8628   19.4897 C   0  0  0  0  0  0
  -24.8697  -27.6732   19.4791 C   0  0  0  0  0  0
  -23.6549  -29.8094   20.1525 C   0  0  0  0  0  0
  -25.4138  -36.3071   24.0327 C   0  0  1  0  0  0
  -20.5885  -28.3696   23.1251 C   0  0  2  0  0  0
  -20.6783  -26.9402   22.5400 C   0  0  0  0  0  0
  -19.5765  -26.6363   21.5214 C   0  0  0  0  0  0
  -18.1909  -26.7912   22.1601 C   0  0  0  0  0  0
  -19.1545  -28.8867   23.2793 C   0  0  0  0  0  0
  -18.9495  -30.1439   23.8819 C   0  0  0  0  0  0
  -17.6522  -30.6568   24.0592 C   0  0  0  0  0  0
  -25.9088  -34.9447   23.5091 C   0  0  0  0  0  0
  -16.5387  -29.9090   23.6360 C   0  0  0  0  0  0
  -16.7276  -28.6533   23.0344 C   0  0  0  0  0  0
  -26.4513  -31.6603   25.0763 C   0  0  0  0  0  0
  -25.3722  -31.3796   26.1467 C   0  0  0  0  0  0
  -27.0408  -30.3026   24.6313 C   0  0  0  0  0  0
  -27.6037  -32.4388   25.7516 C   0  0  0  0  0  0
  -27.5571  -37.1792   24.8455 C   0  0  0  0  0  0
  -21.4229  -29.3009   22.3630 N   0  0  0  0  0  0
  -26.4325  -37.3766   23.9407 N   0  0  0  0  0  0
  -24.6997  -31.0521   22.0914 N   0  0  0  0  0  0
  -23.4189  -28.8097   23.2986 O   0  0  0  0  0  0
  -28.2878  -26.3235   20.2128 O   0  0  0  0  0  0
  -26.5669  -34.8908   22.4644 O   0  0  0  0  0  0
  -23.5480  -32.1346   23.7271 O   0  0  0  0  0  0
  -31.3703  -19.8112   21.8251 C   0  0  0  0  0  0
  -29.7215  -18.5473   20.5747 C   0  0  0  0  0  0
  -31.4595  -17.3739   21.8348 C   0  0  0  0  0  0
  -30.2327  -19.8532   20.9870 C   0  0  0  0  0  0
  -31.9788  -18.6115   22.2419 C   0  0  0  0  0  0
  -30.3387  -17.2795   20.9836 C   0  0  0  0  0  0
  -29.9516  -21.3065   20.5107 C   0  0  0  0  0  0
  -28.9759  -22.2738   20.7534 C   0  0  0  0  0  0
  -29.1347  -23.7629   20.3281 C   0  0  0  0  0  0
  -33.2360  -18.6572   23.0945 C   0  0  0  0  0  0
  -27.9479  -24.8437   20.3049 C   0  0  0  0  0  0
  -29.8812  -15.8995   20.6510 N   0  0  0  0  0  0
  -30.2495  -24.1770   19.9896 O   0  0  0  0  0  0
  -31.4648  -12.5755   19.1695 H   0  0  0  0  0  0
  -30.3598  -11.4833   19.9682 H   0  0  0  0  0  0
  -29.7809  -11.7225   17.5239 H   0  0  0  0  0  0
  -29.6274  -13.4559   17.7144 H   0  0  0  0  0  0
  -27.8732  -11.2829   18.9081 H   0  0  0  0  0  0
  -27.3698  -12.5331   17.7978 H   0  0  0  0  0  0
  -27.6222  -14.2543   19.4599 H   0  0  0  0  0  0
  -28.7113  -12.1898   21.4379 H   0  0  0  0  0  0
  -28.4126  -13.8798   21.7789 H   0  0  0  0  0  0
  -25.2749   -9.5701   22.4776 H   0  0  0  0  0  0
  -23.9993   -7.4646   22.7479 H   0  0  0  0  0  0
  -21.0859   -8.8755   19.8940 H   0  0  0  0  0  0
  -22.3679  -10.9673   19.6169 H   0  0  0  0  0  0
  -21.2014   -7.6147   23.9702 H   0  0  0  0  0  0
  -21.1479   -6.0525   25.9056 H   0  0  0  0  0  0
  -22.0601   -2.7624   23.2815 H   0  0  0  0  0  0
  -22.4059  -11.9792   22.4740 H   0  0  0  0  0  0
  -21.1077  -13.1214   22.2744 H   0  0  0  0  0  0
  -24.6458  -15.8488   20.4904 H   0  0  0  0  0  0
  -26.2569  -15.6235   20.0468 H   0  0  0  0  0  0
  -26.7181  -32.5361   23.1060 H   0  0  0  0  0  0
  -25.0076  -33.9677   25.0390 H   0  0  0  0  0  0
  -22.7283  -31.3008   21.3886 H   0  0  0  0  0  0
  -23.3780  -35.9585   23.3337 H   0  0  0  0  0  0
  -24.3573  -36.8894   22.2050 H   0  0  0  0  0  0
  -23.7257  -37.6460   23.6685 H   0  0  0  0  0  0
  -26.1397  -31.5254   20.6249 H   0  0  0  0  0  0
  -26.8525  -30.7950   22.0289 H   0  0  0  0  0  0
  -28.1175  -28.9009   21.2343 H   0  0  0  0  0  0
  -25.9324  -25.9115   18.9899 H   0  0  0  0  0  0
  -23.9765  -27.3202   18.9797 H   0  0  0  0  0  0
  -23.7766  -30.5882   19.3976 H   0  0  0  0  0  0
  -22.7722  -29.2420   19.8472 H   0  0  0  0  0  0
  -25.1319  -36.1908   25.0840 H   0  0  0  0  0  0
  -20.9961  -28.3310   24.1400 H   0  0  0  0  0  0
  -20.5759  -26.2302   23.3615 H   0  0  0  0  0  0
  -21.6664  -26.7471   22.1168 H   0  0  0  0  0  0
  -19.6988  -25.6263   21.1233 H   0  0  0  0  0  0
  -19.6771  -27.3199   20.6758 H   0  0  0  0  0  0
  -17.4229  -26.6668   21.3940 H   0  0  0  0  0  0
  -18.0294  -26.0084   22.9012 H   0  0  0  0  0  0
  -19.8002  -30.7215   24.2232 H   0  0  0  0  0  0
  -17.5098  -31.6281   24.5114 H   0  0  0  0  0  0
  -15.5373  -30.2989   23.7736 H   0  0  0  0  0  0
  -15.8666  -28.0826   22.7113 H   0  0  0  0  0  0
  -24.5878  -30.7172   25.7826 H   0  0  0  0  0  0
  -24.8910  -32.2964   26.4857 H   0  0  0  0  0  0
  -25.7978  -30.9001   27.0275 H   0  0  0  0  0  0
  -26.3025  -29.6685   24.1359 H   0  0  0  0  0  0
  -27.4102  -29.7369   25.4865 H   0  0  0  0  0  0
  -27.8889  -30.4302   23.9592 H   0  0  0  0  0  0
  -27.2660  -33.3746   26.1965 H   0  0  0  0  0  0
  -28.3889  -32.6845   25.0380 H   0  0  0  0  0  0
  -28.0644  -31.8599   26.5529 H   0  0  0  0  0  0
  -28.2588  -38.0079   24.7509 H   0  0  0  0  0  0
  -28.1069  -36.2606   24.6302 H   0  0  0  0  0  0
  -27.2270  -37.1451   25.8853 H   0  0  0  0  0  0
  -20.9439  -29.8783   21.6855 H   0  0  0  0  0  0
  -26.0176  -38.2844   24.1425 H   0  0  0  0  0  0
  -31.8231  -20.7426   22.1319 H   0  0  0  0  0  0
  -28.8781  -18.5173   19.8983 H   0  0  0  0  0  0
  -31.9626  -16.4796   22.1766 H   0  0  0  0  0  0
  -30.7905  -21.6600   19.9002 H   0  0  0  0  0  0
  -28.0750  -22.0173   21.3225 H   0  0  0  0  0  0
  -33.2158  -19.5011   23.7843 H   0  0  0  0  0  0
  -34.1121  -18.7568   22.4547 H   0  0  0  0  0  0
  -33.3559  -17.7459   23.6819 H   0  0  0  0  0  0
  -27.3077  -24.6848   21.1701 H   0  0  0  0  0  0
  -27.3622  -24.5629   19.4324 H   0  0  0  0  0  0
  -28.8813  -15.7710   20.6008 H   0  0  0  0  0  0
  1 25  1  0  0  0
  1 30  2  0  0  0
  1 82  1  0  0  0
  2  3  1  0  0  0
  2 25  1  0  0  0
  2 84  1  0  0  0
  2 85  1  0  0  0
  3  4  1  0  0  0
  3 86  1  0  0  0
  3 87  1  0  0  0
  4  5  1  0  0  0
  4 88  1  0  0  0
  4 89  1  0  0  0
  5  6  1  0  0  0
  5 26  1  0  0  0
  5 90  1  0  0  0
  6 25  1  0  0  0
  6 91  1  0  0  0
  6 92  1  0  0  0
  7  8  2  0  0  0
  7 26  1  0  0  0
  7 29  1  0  0  0
  8  9  1  0  0  0
  8 22  1  0  0  0
  9 10  1  0  0  0
  9 27  2  0  0  0
 10 11  2  0  0  0
 10 15  1  0  0  0
 11 12  1  0  0  0
 11 93  1  0  0  0
 12 13  2  0  0  0
 12 94  1  0  0  0
 13 14  1  0  0  0
 13 31  1  0  0  0
 14 15  2  0  0  0
 14 95  1  0  0  0
 15 96  1  0  0  0
 16 17  2  0  0  0
 16 21  1  0  0  0
 16 31  1  0  0  0
 17 18  1  0  0  0
 17 97  1  0  0  0
 18 19  2  0  0  0
 18 98  1  0  0  0
 19 20  1  0  0  0
 19 24  1  0  0  0
 20 21  2  0  0  0
 20 99  1  0  0  0
 21 23  1  0  0  0
 22 28  1  0  0  0
 22 32  2  0  0  0
 26 27  1  0  0  0
 28100  1  0  0  0
 28101  1  0  0  0
 29102  1  0  0  0
 29103  1  0  0  0
 33 34  1  0  0  0
 33 66  1  0  0  0
 33 70  2  0  0  0
 34 36  1  0  0  0
 34 59  1  0  0  0
 34104  1  0  0  0
 35 44  2  0  0  0
 35 45  1  0  0  0
 35 68  1  0  0  0
 36 56  1  0  0  0
 36105  1  0  0  0
 37 39  1  0  0  0
 37 47  1  0  0  0
 37 66  1  0  0  0
 37106  1  0  0  0
 38 43  2  0  0  0
 38 46  1  0  0  0
 38 47  1  0  0  0
 39 64  1  0  0  0
 39 67  2  0  0  0
 40 52  1  0  0  0
 40 53  2  0  0  0
 40 58  1  0  0  0
 41107  1  0  0  0
 41108  1  0  0  0
 41109  1  0  0  0
 41 48  1  0  0  0
 42 43  1  0  0  0
 42 66  1  0  0  0
 42110  1  0  0  0
 42111  1  0  0  0
 43 44  1  0  0  0
 44112  1  0  0  0
 45 46  2  0  0  0
 45113  1  0  0  0
 46114  1  0  0  0
 47115  1  0  0  0
 47116  1  0  0  0
 48 56  1  0  0  0
 48 65  1  0  0  0
 48117  1  0  0  0
 49 50  1  0  0  0
 49 53  1  0  0  0
 49 64  1  0  0  0
 49118  1  0  0  0
 50 51  1  0  0  0
 50119  1  0  0  0
 50120  1  0  0  0
 51 52  1  0  0  0
 51121  1  0  0  0
 51122  1  0  0  0
 52123  1  0  0  0
 52124  1  0  0  0
 53 54  1  0  0  0
 54 55  2  0  0  0
 54125  1  0  0  0
 55 57  1  0  0  0
 55126  1  0  0  0
 56 69  2  0  0  0
 57 58  2  0  0  0
 57127  1  0  0  0
 58128  1  0  0  0
 59 60  1  0  0  0
 59 61  1  0  0  0
 59 62  1  0  0  0
 60129  1  0  0  0
 60130  1  0  0  0
 60131  1  0  0  0
 61132  1  0  0  0
 61133  1  0  0  0
 61134  1  0  0  0
 62135  1  0  0  0
 62136  1  0  0  0
 62137  1  0  0  0
 63 65  1  0  0  0
 63138  1  0  0  0
 63139  1  0  0  0
 63140  1  0  0  0
 64141  1  0  0  0
 65142  1  0  0  0
 68 81  1  0  0  0
 71 74  2  0  0  0
 71 75  1  0  0  0
 71143  1  0  0  0
 72 74  1  0  0  0
 72 76  2  0  0  0
 72144  1  0  0  0
 73 75  2  0  0  0
 73 76  1  0  0  0
 73145  1  0  0  0
 74 77  1  0  0  0
 75 80  1  0  0  0
 76 82  1  0  0  0
 77 78  2  0  0  0
 77146  1  0  0  0
 78 79  1  0  0  0
 78147  1  0  0  0
 79 81  1  0  0  0
 79 83  2  0  0  0
 80148  1  0  0  0
 80149  1  0  0  0
 80150  1  0  0  0
 81151  1  0  0  0
 81152  1  0  0  0
 82153  1  0  0  0
M  ISO  4   1 100  68 101  81 101  82 100
M  END
> <chiral flag>
0

> <version>
0

> <s_m_source_file>
/data/baiqing/PycharmProjects/Reinvent-master-3.2/result/LINK_invent/BTK/process_docking_weight1_custom_product_contain_oxygen_bond_distance_aromatic_linkinvent_7_9_3/rearranged_h_0124.sdf

> <i_m_source_file_index>
86

> <r_mmod_Potential_Energy-OPLS-2005>
250.367172241211

> <r_mmod_Stretch_Energy-OPLS-2005>
137.221298217773

> <r_mmod_Bend_Energy-OPLS-2005>
173.36979675293

> <r_mmod_Torsional_Energy-OPLS-2005>
263.615051269531

> <r_mmod_Improper_Torsional_Energy-OPLS-2005>
9.32117462158203

> <r_mmod_Van_der_Waal_Energy-OPLS-2005>
143.236557006836

> <r_mmod_Electrostatic_Energy-OPLS-2005>
-337.172485351562

> <r_mmod_Solvation_Energy-OPLS-2005>
-231.553894042969

> <b_mmod_Minimization_Converged-OPLS-2005>
0

> <r_mmod_RMS_Derivative-OPLS-2005>
8.95625877380371

$$$$
87
                    3D
 Structure written by MMmdl.
162170  0  0  1  0            999 V2000
  -30.6237  -14.6881   20.4792 C   0  0  0  0  0  0
  -30.4373  -12.4206   19.4593 C   0  0  0  0  0  0
  -29.5065  -12.5101   18.2285 C   0  0  0  0  0  0
  -28.0308  -12.3378   18.6414 C   0  0  0  0  0  0
  -27.6419  -13.2223   19.8566 C   0  0  2  0  0  0
  -28.6933  -13.1154   20.9863 C   0  0  0  0  0  0
  -25.2330  -13.7942   20.5649 C   0  0  0  0  0  0
  -24.1697  -13.0222   20.9251 C   0  0  0  0  0  0
  -24.6373  -11.6760   20.8785 C   0  0  0  0  0  0
  -23.9068  -10.4172   21.0420 C   0  0  0  0  0  0
  -24.3613   -9.4108   21.9202 C   0  0  0  0  0  0
  -23.6270   -8.2164   22.0763 C   0  0  0  0  0  0
  -22.4251   -8.0230   21.3544 C   0  0  0  0  0  0
  -21.9901   -9.0202   20.4641 C   0  0  0  0  0  0
  -22.7248  -10.2061   20.3050 C   0  0  0  0  0  0
  -21.6826   -6.0715   22.5289 C   0  0  0  0  0  0
  -21.3991   -6.5626   23.8223 C   0  0  0  0  0  0
  -21.3654   -5.6780   24.9188 C   0  0  0  0  0  0
  -21.6044   -4.3045   24.7236 C   0  0  0  0  0  0
  -21.8819   -3.8135   23.4359 C   0  0  0  0  0  0
  -21.9186   -4.6948   22.3413 C   0  0  0  0  0  0
  -22.7729  -13.5057   21.1894 C   0  0  0  0  0  0
  -22.1656   -4.2140   21.0990 F   0  0  0  0  0  0
  -21.5638   -3.4532   25.7752 F   0  0  0  0  0  0
  -30.0073  -13.4604   20.4166 N   0  0  0  0  0  0
  -26.2898  -12.9286   20.3303 N   0  0  0  0  0  0
  -25.9316  -11.6427   20.5791 N   0  0  0  0  0  0
  -22.0368  -12.8091   22.0468 N   0  0  0  0  0  0
  -25.3531  -15.1588   20.3900 N   0  0  0  0  0  0
  -31.8008  -14.8260   20.1346 O   0  0  0  0  0  0
  -21.6599   -6.8847   21.4244 O   0  0  0  0  0  0
  -22.3445  -14.5392   20.6754 O   0  0  0  0  0  0
  -24.6262  -31.8607   23.1992 C   0  0  0  0  0  0
  -25.9114  -32.4785   23.8317 C   0  0  1  0  0  0
  -27.2350  -27.3248   20.1142 C   0  0  0  0  0  0
  -25.5929  -33.8582   24.2255 N   0  0  0  0  0  0
  -23.4187  -30.4849   21.5413 C   0  0  2  0  0  0
  -24.8664  -28.9359   20.1113 C   0  0  0  0  0  0
  -22.7471  -29.4655   22.4913 C   0  0  0  0  0  0
  -18.0306  -28.1400   22.8489 C   0  0  0  0  0  0
  -24.1496  -36.7295   23.2636 C   0  0  0  0  0  0
  -25.9577  -30.7967   21.3637 C   0  0  0  0  0  0
  -26.0347  -29.4219   20.7100 C   0  0  0  0  0  0
  -27.2208  -28.6290   20.6992 C   0  0  0  0  0  0
  -26.0383  -26.8870   19.4988 C   0  0  0  0  0  0
  -24.8700  -27.6731   19.4977 C   0  0  0  0  0  0
  -23.6331  -29.8152   20.1580 C   0  0  0  0  0  0
  -25.4113  -36.3082   24.0331 C   0  0  1  0  0  0
  -20.5904  -28.3714   23.1278 C   0  0  2  0  0  0
  -20.6811  -26.9440   22.5406 C   0  0  0  0  0  0
  -19.5783  -26.6393   21.5222 C   0  0  0  0  0  0
  -18.1956  -26.7940   22.1628 C   0  0  0  0  0  0
  -19.1554  -28.8866   23.2889 C   0  0  0  0  0  0
  -18.9480  -30.1468   23.8915 C   0  0  0  0  0  0
  -17.6481  -30.6601   24.0571 C   0  0  0  0  0  0
  -25.9053  -34.9460   23.5090 C   0  0  0  0  0  0
  -16.5377  -29.9105   23.6327 C   0  0  0  0  0  0
  -16.7292  -28.6525   23.0342 C   0  0  0  0  0  0
  -26.4487  -31.6583   25.0683 C   0  0  0  0  0  0
  -25.3709  -31.3725   26.1395 C   0  0  0  0  0  0
  -27.0320  -30.3020   24.6094 C   0  0  0  0  0  0
  -27.6053  -32.4295   25.7466 C   0  0  0  0  0  0
  -27.5576  -37.1800   24.8464 C   0  0  0  0  0  0
  -21.4186  -29.3072   22.3663 N   0  0  0  0  0  0
  -26.4288  -37.3777   23.9409 N   0  0  0  0  0  0
  -24.6870  -31.0628   22.0930 N   0  0  0  0  0  0
  -23.4203  -28.8202   23.2998 O   0  0  0  0  0  0
  -28.3717  -26.4981   20.1594 O   0  0  0  0  0  0
  -26.5624  -34.8940   22.4660 O   0  0  0  0  0  0
  -23.5431  -32.1393   23.7329 O   0  0  0  0  0  0
  -28.8442  -19.4729   20.3629 C   0  0  0  0  0  0
  -31.1619  -17.9428   20.7176 C   0  0  0  0  0  0
  -28.7862  -18.0486   20.4163 C   0  0  0  0  0  0
  -31.2204  -19.3753   20.6525 C   0  0  0  0  0  0
  -30.0565  -20.1912   20.4897 C   0  0  0  0  0  0
  -29.9410  -17.2265   20.6114 C   0  0  0  0  0  0
  -29.2236  -22.5205   20.3172 C   0  0  0  0  0  0
  -32.5804  -20.0442   20.7607 C   0  0  0  0  0  0
  -27.1589  -17.2060   18.7021 C   0  0  0  0  0  0
  -30.6465  -24.4790   19.4678 C   0  0  0  0  0  0
  -27.4249  -17.4354   20.1992 C   0  0  0  0  0  0
  -28.2057  -25.0299   20.0203 C   0  0  0  0  0  0
  -29.4508  -24.0911   20.3559 C   0  0  1  0  0  0
  -30.1673  -21.6313   20.4682 N   0  0  0  0  0  0
  -29.8030  -15.7602   20.7403 N   0  0  0  0  0  0
  -31.4781  -12.5470   19.1561 H   0  0  0  0  0  0
  -30.3783  -11.4329   19.9205 H   0  0  0  0  0  0
  -29.7808  -11.7521   17.4940 H   0  0  0  0  0  0
  -29.6382  -13.4746   17.7355 H   0  0  0  0  0  0
  -27.8815  -11.2861   18.8886 H   0  0  0  0  0  0
  -27.3756  -12.5463   17.7950 H   0  0  0  0  0  0
  -27.6391  -14.2510   19.4972 H   0  0  0  0  0  0
  -28.7136  -12.1038   21.3948 H   0  0  0  0  0  0
  -28.4337  -13.7691   21.8201 H   0  0  0  0  0  0
  -25.2752   -9.5585   22.4788 H   0  0  0  0  0  0
  -23.9966   -7.4547   22.7476 H   0  0  0  0  0  0
  -21.0841   -8.8730   19.8935 H   0  0  0  0  0  0
  -22.3728  -10.9613   19.6164 H   0  0  0  0  0  0
  -21.1961   -7.6130   23.9727 H   0  0  0  0  0  0
  -21.1480   -6.0511   25.9095 H   0  0  0  0  0  0
  -22.0604   -2.7597   23.2866 H   0  0  0  0  0  0
  -22.3969  -11.9751   22.4866 H   0  0  0  0  0  0
  -21.0991  -13.1143   22.2664 H   0  0  0  0  0  0
  -24.5344  -15.7551   20.4442 H   0  0  0  0  0  0
  -26.1322  -15.5974   19.9185 H   0  0  0  0  0  0
  -26.7188  -32.5462   23.1072 H   0  0  0  0  0  0
  -25.0072  -33.9731   25.0397 H   0  0  0  0  0  0
  -22.7121  -31.3049   21.3945 H   0  0  0  0  0  0
  -23.3765  -35.9623   23.3290 H   0  0  0  0  0  0
  -24.3591  -36.8923   22.2054 H   0  0  0  0  0  0
  -23.7256  -37.6498   23.6660 H   0  0  0  0  0  0
  -26.0737  -31.5572   20.5896 H   0  0  0  0  0  0
  -26.8450  -30.8554   21.9829 H   0  0  0  0  0  0
  -28.1194  -29.0003   21.1703 H   0  0  0  0  0  0
  -25.9780  -25.9223   19.0171 H   0  0  0  0  0  0
  -23.9722  -27.2933   19.0284 H   0  0  0  0  0  0
  -23.7487  -30.5902   19.3986 H   0  0  0  0  0  0
  -22.7533  -29.2439   19.8574 H   0  0  0  0  0  0
  -25.1298  -36.1918   25.0826 H   0  0  0  0  0  0
  -21.0007  -28.3307   24.1394 H   0  0  0  0  0  0
  -20.5743  -26.2330   23.3611 H   0  0  0  0  0  0
  -21.6673  -26.7490   22.1177 H   0  0  0  0  0  0
  -19.6953  -25.6298   21.1270 H   0  0  0  0  0  0
  -19.6726  -27.3198   20.6750 H   0  0  0  0  0  0
  -17.4227  -26.6707   21.4027 H   0  0  0  0  0  0
  -18.0351  -26.0078   22.9020 H   0  0  0  0  0  0
  -19.7963  -30.7278   24.2290 H   0  0  0  0  0  0
  -17.5047  -31.6286   24.5167 H   0  0  0  0  0  0
  -15.5382  -30.3021   23.7634 H   0  0  0  0  0  0
  -15.8698  -28.0855   22.7030 H   0  0  0  0  0  0
  -24.5908  -30.7051   25.7705 H   0  0  0  0  0  0
  -24.8867  -32.2899   26.4758 H   0  0  0  0  0  0
  -25.8012  -30.8935   27.0199 H   0  0  0  0  0  0
  -26.2878  -29.6780   24.1130 H   0  0  0  0  0  0
  -27.4074  -29.7252   25.4556 H   0  0  0  0  0  0
  -27.8712  -30.4330   23.9259 H   0  0  0  0  0  0
  -27.2680  -33.3611   26.2016 H   0  0  0  0  0  0
  -28.3884  -32.6817   25.0305 H   0  0  0  0  0  0
  -28.0682  -31.8422   26.5405 H   0  0  0  0  0  0
  -28.2574  -38.0112   24.7511 H   0  0  0  0  0  0
  -28.1096  -36.2646   24.6277 H   0  0  0  0  0  0
  -27.2305  -37.1419   25.8872 H   0  0  0  0  0  0
  -20.9358  -29.8754   21.6839 H   0  0  0  0  0  0
  -26.0171  -38.2851   24.1420 H   0  0  0  0  0  0
  -27.9199  -20.0115   20.2136 H   0  0  0  0  0  0
  -32.0779  -17.3884   20.8665 H   0  0  0  0  0  0
  -28.1796  -22.2356   20.1619 H   0  0  0  0  0  0
  -33.3886  -19.3173   20.8432 H   0  0  0  0  0  0
  -32.6186  -20.6944   21.6350 H   0  0  0  0  0  0
  -32.7672  -20.6507   19.8745 H   0  0  0  0  0  0
  -26.1572  -16.8208   18.5143 H   0  0  0  0  0  0
  -27.8758  -16.5040   18.2744 H   0  0  0  0  0  0
  -27.2431  -18.1410   18.1472 H   0  0  0  0  0  0
  -31.5483  -23.9335   19.7479 H   0  0  0  0  0  0
  -30.8723  -25.5420   19.5591 H   0  0  0  0  0  0
  -30.4435  -24.2678   18.4172 H   0  0  0  0  0  0
  -26.6548  -18.0876   20.6151 H   0  0  0  0  0  0
  -27.3725  -16.5193   20.7794 H   0  0  0  0  0  0
  -27.3814  -24.7251   20.6668 H   0  0  0  0  0  0
  -27.8936  -24.8145   18.9973 H   0  0  0  0  0  0
  -29.7312  -24.3187   21.3850 H   0  0  0  0  0  0
  -28.8637  -15.4583   20.9443 H   0  0  0  0  0  0
  1 25  1  0  0  0
  1 30  2  0  0  0
  1 85  1  0  0  0
  2  3  1  0  0  0
  2 25  1  0  0  0
  2 86  1  0  0  0
  2 87  1  0  0  0
  3  4  1  0  0  0
  3 88  1  0  0  0
  3 89  1  0  0  0
  4  5  1  0  0  0
  4 90  1  0  0  0
  4 91  1  0  0  0
  5  6  1  0  0  0
  5 26  1  0  0  0
  5 92  1  0  0  0
  6 25  1  0  0  0
  6 93  1  0  0  0
  6 94  1  0  0  0
  7  8  2  0  0  0
  7 26  1  0  0  0
  7 29  1  0  0  0
  8  9  1  0  0  0
  8 22  1  0  0  0
  9 10  1  0  0  0
  9 27  2  0  0  0
 10 11  2  0  0  0
 10 15  1  0  0  0
 11 12  1  0  0  0
 11 95  1  0  0  0
 12 13  2  0  0  0
 12 96  1  0  0  0
 13 14  1  0  0  0
 13 31  1  0  0  0
 14 15  2  0  0  0
 14 97  1  0  0  0
 15 98  1  0  0  0
 16 17  2  0  0  0
 16 21  1  0  0  0
 16 31  1  0  0  0
 17 18  1  0  0  0
 17 99  1  0  0  0
 18 19  2  0  0  0
 18100  1  0  0  0
 19 20  1  0  0  0
 19 24  1  0  0  0
 20 21  2  0  0  0
 20101  1  0  0  0
 21 23  1  0  0  0
 22 28  1  0  0  0
 22 32  2  0  0  0
 26 27  1  0  0  0
 28102  1  0  0  0
 28103  1  0  0  0
 29104  1  0  0  0
 29105  1  0  0  0
 33 34  1  0  0  0
 33 66  1  0  0  0
 33 70  2  0  0  0
 34 36  1  0  0  0
 34 59  1  0  0  0
 34106  1  0  0  0
 35 44  2  0  0  0
 35 45  1  0  0  0
 35 68  1  0  0  0
 36 56  1  0  0  0
 36107  1  0  0  0
 37 39  1  0  0  0
 37 47  1  0  0  0
 37 66  1  0  0  0
 37108  1  0  0  0
 38 43  2  0  0  0
 38 46  1  0  0  0
 38 47  1  0  0  0
 39 64  1  0  0  0
 39 67  2  0  0  0
 40 52  1  0  0  0
 40 53  2  0  0  0
 40 58  1  0  0  0
 41109  1  0  0  0
 41110  1  0  0  0
 41111  1  0  0  0
 41 48  1  0  0  0
 42 43  1  0  0  0
 42 66  1  0  0  0
 42112  1  0  0  0
 42113  1  0  0  0
 43 44  1  0  0  0
 44114  1  0  0  0
 45 46  2  0  0  0
 45115  1  0  0  0
 46116  1  0  0  0
 47117  1  0  0  0
 47118  1  0  0  0
 48 56  1  0  0  0
 48 65  1  0  0  0
 48119  1  0  0  0
 49 50  1  0  0  0
 49 53  1  0  0  0
 49 64  1  0  0  0
 49120  1  0  0  0
 50 51  1  0  0  0
 50121  1  0  0  0
 50122  1  0  0  0
 51 52  1  0  0  0
 51123  1  0  0  0
 51124  1  0  0  0
 52125  1  0  0  0
 52126  1  0  0  0
 53 54  1  0  0  0
 54 55  2  0  0  0
 54127  1  0  0  0
 55 57  1  0  0  0
 55128  1  0  0  0
 56 69  2  0  0  0
 57 58  2  0  0  0
 57129  1  0  0  0
 58130  1  0  0  0
 59 60  1  0  0  0
 59 61  1  0  0  0
 59 62  1  0  0  0
 60131  1  0  0  0
 60132  1  0  0  0
 60133  1  0  0  0
 61134  1  0  0  0
 61135  1  0  0  0
 61136  1  0  0  0
 62137  1  0  0  0
 62138  1  0  0  0
 62139  1  0  0  0
 63 65  1  0  0  0
 63140  1  0  0  0
 63141  1  0  0  0
 63142  1  0  0  0
 64143  1  0  0  0
 65144  1  0  0  0
 68 82  1  0  0  0
 71 73  2  0  0  0
 71 75  1  0  0  0
 71145  1  0  0  0
 72 74  1  0  0  0
 72 76  2  0  0  0
 72146  1  0  0  0
 73 76  1  0  0  0
 73 81  1  0  0  0
 74 75  2  0  0  0
 74 78  1  0  0  0
 75 84  1  0  0  0
 76 85  1  0  0  0
 77 83  1  0  0  0
 77 84  2  0  0  0
 77147  1  0  0  0
 78148  1  0  0  0
 78149  1  0  0  0
 78150  1  0  0  0
 79 81  1  0  0  0
 79151  1  0  0  0
 79152  1  0  0  0
 79153  1  0  0  0
 80154  1  0  0  0
 80155  1  0  0  0
 80156  1  0  0  0
 80 83  1  0  0  0
 81157  1  0  0  0
 81158  1  0  0  0
 82 83  1  0  0  0
 82159  1  0  0  0
 82160  1  0  0  0
 83161  1  0  0  0
 85162  1  0  0  0
M  ISO  4   1 100  68 101  82 101  85 100
M  END
> <chiral flag>
0

> <version>
0

> <s_m_source_file>
/data/baiqing/PycharmProjects/Reinvent-master-3.2/result/LINK_invent/BTK/process_docking_weight1_custom_product_contain_oxygen_bond_distance_aromatic_linkinvent_7_9_3/rearranged_h_0124.sdf

> <i_m_source_file_index>
87

> <r_mmod_Potential_Energy-OPLS-2005>
46.9987144470215

> <r_mmod_Stretch_Energy-OPLS-2005>
88.7485122680664

> <r_mmod_Bend_Energy-OPLS-2005>
151.056991577148

> <r_mmod_Torsional_Energy-OPLS-2005>
215.195755004883

> <r_mmod_Improper_Torsional_Energy-OPLS-2005>
5.98771238327026

> <r_mmod_Van_der_Waal_Energy-OPLS-2005>
150.202331542969

> <r_mmod_Electrostatic_Energy-OPLS-2005>
-415.456756591797

> <r_mmod_Solvation_Energy-OPLS-2005>
-205.106475830078

> <b_mmod_Minimization_Converged-OPLS-2005>
0

> <r_mmod_RMS_Derivative-OPLS-2005>
1.57259833812714

$$$$
88
                    3D
 Structure written by MMmdl.
153161  0  0  1  0            999 V2000
  -30.6289  -14.7353   20.4821 C   0  0  0  0  0  0
  -30.4229  -12.4563   19.4709 C   0  0  0  0  0  0
  -29.4988  -12.5018   18.2326 C   0  0  0  0  0  0
  -28.0248  -12.3330   18.6468 C   0  0  0  0  0  0
  -27.6318  -13.2350   19.8467 C   0  0  2  0  0  0
  -28.6760  -13.1830   20.9832 C   0  0  0  0  0  0
  -25.2436  -13.8205   20.5682 C   0  0  0  0  0  0
  -24.1739  -13.0434   20.9201 C   0  0  0  0  0  0
  -24.6351  -11.6924   20.8751 C   0  0  0  0  0  0
  -23.9040  -10.4298   21.0415 C   0  0  0  0  0  0
  -24.3598   -9.4227   21.9197 C   0  0  0  0  0  0
  -23.6289   -8.2251   22.0758 C   0  0  0  0  0  0
  -22.4279   -8.0274   21.3536 C   0  0  0  0  0  0
  -21.9911   -9.0251   20.4637 C   0  0  0  0  0  0
  -22.7222  -10.2138   20.3065 C   0  0  0  0  0  0
  -21.6848   -6.0728   22.5263 C   0  0  0  0  0  0
  -21.4020   -6.5646   23.8192 C   0  0  0  0  0  0
  -21.3664   -5.6804   24.9156 C   0  0  0  0  0  0
  -21.6025   -4.3065   24.7211 C   0  0  0  0  0  0
  -21.8825   -3.8149   23.4349 C   0  0  0  0  0  0
  -21.9194   -4.6955   22.3399 C   0  0  0  0  0  0
  -22.7773  -13.5210   21.1893 C   0  0  0  0  0  0
  -22.1656   -4.2168   21.0967 F   0  0  0  0  0  0
  -21.5638   -3.4543   25.7714 F   0  0  0  0  0  0
  -29.9755  -13.5263   20.3936 N   0  0  0  0  0  0
  -26.2866  -12.9435   20.3296 N   0  0  0  0  0  0
  -25.9284  -11.6583   20.5767 N   0  0  0  0  0  0
  -22.0437  -12.8171   22.0449 N   0  0  0  0  0  0
  -25.4149  -15.1917   20.4028 N   0  0  0  0  0  0
  -31.8228  -14.8020   20.1747 O   0  0  0  0  0  0
  -21.6631   -6.8878   21.4235 O   0  0  0  0  0  0
  -22.3450  -14.5523   20.6749 O   0  0  0  0  0  0
  -24.6322  -31.8521   23.1980 C   0  0  0  0  0  0
  -25.9136  -32.4731   23.8342 C   0  0  1  0  0  0
  -27.2160  -27.2444   20.1414 C   0  0  0  0  0  0
  -25.5894  -33.8557   24.2204 N   0  0  0  0  0  0
  -23.4324  -30.4764   21.5365 C   0  0  2  0  0  0
  -24.8836  -28.9269   20.1046 C   0  0  0  0  0  0
  -22.7524  -29.4579   22.4894 C   0  0  0  0  0  0
  -18.0259  -28.1394   22.8440 C   0  0  0  0  0  0
  -24.1500  -36.7264   23.2645 C   0  0  0  0  0  0
  -25.9835  -30.7588   21.3853 C   0  0  0  0  0  0
  -26.0581  -29.3867   20.7194 C   0  0  0  0  0  0
  -27.2259  -28.5570   20.7252 C   0  0  0  0  0  0
  -26.0188  -26.8628   19.4897 C   0  0  0  0  0  0
  -24.8697  -27.6732   19.4791 C   0  0  0  0  0  0
  -23.6549  -29.8094   20.1525 C   0  0  0  0  0  0
  -25.4138  -36.3071   24.0327 C   0  0  1  0  0  0
  -20.5885  -28.3696   23.1251 C   0  0  2  0  0  0
  -20.6783  -26.9402   22.5400 C   0  0  0  0  0  0
  -19.5765  -26.6363   21.5214 C   0  0  0  0  0  0
  -18.1909  -26.7912   22.1601 C   0  0  0  0  0  0
  -19.1545  -28.8867   23.2793 C   0  0  0  0  0  0
  -18.9495  -30.1439   23.8819 C   0  0  0  0  0  0
  -17.6522  -30.6568   24.0592 C   0  0  0  0  0  0
  -25.9088  -34.9447   23.5091 C   0  0  0  0  0  0
  -16.5387  -29.9090   23.6360 C   0  0  0  0  0  0
  -16.7276  -28.6533   23.0344 C   0  0  0  0  0  0
  -26.4513  -31.6603   25.0763 C   0  0  0  0  0  0
  -25.3722  -31.3796   26.1467 C   0  0  0  0  0  0
  -27.0408  -30.3026   24.6313 C   0  0  0  0  0  0
  -27.6037  -32.4388   25.7516 C   0  0  0  0  0  0
  -27.5571  -37.1792   24.8455 C   0  0  0  0  0  0
  -21.4229  -29.3009   22.3630 N   0  0  0  0  0  0
  -26.4325  -37.3766   23.9407 N   0  0  0  0  0  0
  -24.6997  -31.0521   22.0914 N   0  0  0  0  0  0
  -23.4189  -28.8097   23.2986 O   0  0  0  0  0  0
  -28.2878  -26.3235   20.2128 O   0  0  0  0  0  0
  -26.5669  -34.8908   22.4644 O   0  0  0  0  0  0
  -23.5480  -32.1346   23.7271 O   0  0  0  0  0  0
  -31.3703  -19.8112   21.8251 C   0  0  0  0  0  0
  -29.7215  -18.5473   20.5747 C   0  0  0  0  0  0
  -31.4595  -17.3739   21.8348 C   0  0  0  0  0  0
  -30.2327  -19.8532   20.9870 C   0  0  0  0  0  0
  -31.9788  -18.6115   22.2419 C   0  0  0  0  0  0
  -30.3387  -17.2795   20.9836 C   0  0  0  0  0  0
  -29.9516  -21.3065   20.5107 C   0  0  0  0  0  0
  -28.9759  -22.2738   20.7534 C   0  0  0  0  0  0
  -29.1347  -23.7629   20.3281 C   0  0  0  0  0  0
  -33.2360  -18.6572   23.0945 C   0  0  0  0  0  0
  -27.9479  -24.8437   20.3049 C   0  0  0  0  0  0
  -29.8812  -15.8995   20.6510 N   0  0  0  0  0  0
  -30.2495  -24.1770   19.9896 O   0  0  0  0  0  0
  -31.4648  -12.5755   19.1695 H   0  0  0  0  0  0
  -30.3598  -11.4833   19.9682 H   0  0  0  0  0  0
  -29.7809  -11.7225   17.5239 H   0  0  0  0  0  0
  -29.6274  -13.4559   17.7144 H   0  0  0  0  0  0
  -27.8732  -11.2829   18.9081 H   0  0  0  0  0  0
  -27.3698  -12.5331   17.7978 H   0  0  0  0  0  0
  -27.6222  -14.2543   19.4599 H   0  0  0  0  0  0
  -28.7113  -12.1898   21.4379 H   0  0  0  0  0  0
  -28.4126  -13.8798   21.7789 H   0  0  0  0  0  0
  -25.2749   -9.5701   22.4776 H   0  0  0  0  0  0
  -23.9993   -7.4646   22.7479 H   0  0  0  0  0  0
  -21.0859   -8.8755   19.8940 H   0  0  0  0  0  0
  -22.3679  -10.9673   19.6169 H   0  0  0  0  0  0
  -21.2014   -7.6147   23.9702 H   0  0  0  0  0  0
  -21.1479   -6.0525   25.9056 H   0  0  0  0  0  0
  -22.0601   -2.7624   23.2815 H   0  0  0  0  0  0
  -22.4059  -11.9792   22.4740 H   0  0  0  0  0  0
  -21.1077  -13.1214   22.2744 H   0  0  0  0  0  0
  -24.6458  -15.8488   20.4904 H   0  0  0  0  0  0
  -26.2569  -15.6235   20.0468 H   0  0  0  0  0  0
  -26.7181  -32.5361   23.1060 H   0  0  0  0  0  0
  -25.0076  -33.9677   25.0390 H   0  0  0  0  0  0
  -22.7283  -31.3008   21.3886 H   0  0  0  0  0  0
  -23.3780  -35.9585   23.3337 H   0  0  0  0  0  0
  -24.3573  -36.8894   22.2050 H   0  0  0  0  0  0
  -23.7257  -37.6460   23.6685 H   0  0  0  0  0  0
  -26.1397  -31.5254   20.6249 H   0  0  0  0  0  0
  -26.8525  -30.7950   22.0289 H   0  0  0  0  0  0
  -28.1175  -28.9009   21.2343 H   0  0  0  0  0  0
  -25.9324  -25.9115   18.9899 H   0  0  0  0  0  0
  -23.9765  -27.3202   18.9797 H   0  0  0  0  0  0
  -23.7766  -30.5882   19.3976 H   0  0  0  0  0  0
  -22.7722  -29.2420   19.8472 H   0  0  0  0  0  0
  -25.1319  -36.1908   25.0840 H   0  0  0  0  0  0
  -20.9961  -28.3310   24.1400 H   0  0  0  0  0  0
  -20.5759  -26.2302   23.3615 H   0  0  0  0  0  0
  -21.6664  -26.7471   22.1168 H   0  0  0  0  0  0
  -19.6988  -25.6263   21.1233 H   0  0  0  0  0  0
  -19.6771  -27.3199   20.6758 H   0  0  0  0  0  0
  -17.4229  -26.6668   21.3940 H   0  0  0  0  0  0
  -18.0294  -26.0084   22.9012 H   0  0  0  0  0  0
  -19.8002  -30.7215   24.2232 H   0  0  0  0  0  0
  -17.5098  -31.6281   24.5114 H   0  0  0  0  0  0
  -15.5373  -30.2989   23.7736 H   0  0  0  0  0  0
  -15.8666  -28.0826   22.7113 H   0  0  0  0  0  0
  -24.5878  -30.7172   25.7826 H   0  0  0  0  0  0
  -24.8910  -32.2964   26.4857 H   0  0  0  0  0  0
  -25.7978  -30.9001   27.0275 H   0  0  0  0  0  0
  -26.3025  -29.6685   24.1359 H   0  0  0  0  0  0
  -27.4102  -29.7369   25.4865 H   0  0  0  0  0  0
  -27.8889  -30.4302   23.9592 H   0  0  0  0  0  0
  -27.2660  -33.3746   26.1965 H   0  0  0  0  0  0
  -28.3889  -32.6845   25.0380 H   0  0  0  0  0  0
  -28.0644  -31.8599   26.5529 H   0  0  0  0  0  0
  -28.2588  -38.0079   24.7509 H   0  0  0  0  0  0
  -28.1069  -36.2606   24.6302 H   0  0  0  0  0  0
  -27.2270  -37.1451   25.8853 H   0  0  0  0  0  0
  -20.9439  -29.8783   21.6855 H   0  0  0  0  0  0
  -26.0176  -38.2844   24.1425 H   0  0  0  0  0  0
  -31.8231  -20.7426   22.1319 H   0  0  0  0  0  0
  -28.8781  -18.5173   19.8983 H   0  0  0  0  0  0
  -31.9626  -16.4796   22.1766 H   0  0  0  0  0  0
  -30.7905  -21.6600   19.9002 H   0  0  0  0  0  0
  -28.0750  -22.0173   21.3225 H   0  0  0  0  0  0
  -33.2158  -19.5011   23.7843 H   0  0  0  0  0  0
  -34.1121  -18.7568   22.4547 H   0  0  0  0  0  0
  -33.3559  -17.7459   23.6819 H   0  0  0  0  0  0
  -27.3077  -24.6848   21.1701 H   0  0  0  0  0  0
  -27.3622  -24.5629   19.4324 H   0  0  0  0  0  0
  -28.8813  -15.7710   20.6008 H   0  0  0  0  0  0
  1 25  1  0  0  0
  1 30  2  0  0  0
  1 82  1  0  0  0
  2  3  1  0  0  0
  2 25  1  0  0  0
  2 84  1  0  0  0
  2 85  1  0  0  0
  3  4  1  0  0  0
  3 86  1  0  0  0
  3 87  1  0  0  0
  4  5  1  0  0  0
  4 88  1  0  0  0
  4 89  1  0  0  0
  5  6  1  0  0  0
  5 26  1  0  0  0
  5 90  1  0  0  0
  6 25  1  0  0  0
  6 91  1  0  0  0
  6 92  1  0  0  0
  7  8  2  0  0  0
  7 26  1  0  0  0
  7 29  1  0  0  0
  8  9  1  0  0  0
  8 22  1  0  0  0
  9 10  1  0  0  0
  9 27  2  0  0  0
 10 11  2  0  0  0
 10 15  1  0  0  0
 11 12  1  0  0  0
 11 93  1  0  0  0
 12 13  2  0  0  0
 12 94  1  0  0  0
 13 14  1  0  0  0
 13 31  1  0  0  0
 14 15  2  0  0  0
 14 95  1  0  0  0
 15 96  1  0  0  0
 16 17  2  0  0  0
 16 21  1  0  0  0
 16 31  1  0  0  0
 17 18  1  0  0  0
 17 97  1  0  0  0
 18 19  2  0  0  0
 18 98  1  0  0  0
 19 20  1  0  0  0
 19 24  1  0  0  0
 20 21  2  0  0  0
 20 99  1  0  0  0
 21 23  1  0  0  0
 22 28  1  0  0  0
 22 32  2  0  0  0
 26 27  1  0  0  0
 28100  1  0  0  0
 28101  1  0  0  0
 29102  1  0  0  0
 29103  1  0  0  0
 33 34  1  0  0  0
 33 66  1  0  0  0
 33 70  2  0  0  0
 34 36  1  0  0  0
 34 59  1  0  0  0
 34104  1  0  0  0
 35 44  2  0  0  0
 35 45  1  0  0  0
 35 68  1  0  0  0
 36 56  1  0  0  0
 36105  1  0  0  0
 37 39  1  0  0  0
 37 47  1  0  0  0
 37 66  1  0  0  0
 37106  1  0  0  0
 38 43  2  0  0  0
 38 46  1  0  0  0
 38 47  1  0  0  0
 39 64  1  0  0  0
 39 67  2  0  0  0
 40 52  1  0  0  0
 40 53  2  0  0  0
 40 58  1  0  0  0
 41107  1  0  0  0
 41108  1  0  0  0
 41109  1  0  0  0
 41 48  1  0  0  0
 42 43  1  0  0  0
 42 66  1  0  0  0
 42110  1  0  0  0
 42111  1  0  0  0
 43 44  1  0  0  0
 44112  1  0  0  0
 45 46  2  0  0  0
 45113  1  0  0  0
 46114  1  0  0  0
 47115  1  0  0  0
 47116  1  0  0  0
 48 56  1  0  0  0
 48 65  1  0  0  0
 48117  1  0  0  0
 49 50  1  0  0  0
 49 53  1  0  0  0
 49 64  1  0  0  0
 49118  1  0  0  0
 50 51  1  0  0  0
 50119  1  0  0  0
 50120  1  0  0  0
 51 52  1  0  0  0
 51121  1  0  0  0
 51122  1  0  0  0
 52123  1  0  0  0
 52124  1  0  0  0
 53 54  1  0  0  0
 54 55  2  0  0  0
 54125  1  0  0  0
 55 57  1  0  0  0
 55126  1  0  0  0
 56 69  2  0  0  0
 57 58  2  0  0  0
 57127  1  0  0  0
 58128  1  0  0  0
 59 60  1  0  0  0
 59 61  1  0  0  0
 59 62  1  0  0  0
 60129  1  0  0  0
 60130  1  0  0  0
 60131  1  0  0  0
 61132  1  0  0  0
 61133  1  0  0  0
 61134  1  0  0  0
 62135  1  0  0  0
 62136  1  0  0  0
 62137  1  0  0  0
 63 65  1  0  0  0
 63138  1  0  0  0
 63139  1  0  0  0
 63140  1  0  0  0
 64141  1  0  0  0
 65142  1  0  0  0
 68 81  1  0  0  0
 71 74  2  0  0  0
 71 75  1  0  0  0
 71143  1  0  0  0
 72 74  1  0  0  0
 72 76  2  0  0  0
 72144  1  0  0  0
 73 75  2  0  0  0
 73 76  1  0  0  0
 73145  1  0  0  0
 74 77  1  0  0  0
 75 80  1  0  0  0
 76 82  1  0  0  0
 77 78  2  0  0  0
 77146  1  0  0  0
 78 79  1  0  0  0
 78147  1  0  0  0
 79 81  1  0  0  0
 79 83  2  0  0  0
 80148  1  0  0  0
 80149  1  0  0  0
 80150  1  0  0  0
 81151  1  0  0  0
 81152  1  0  0  0
 82153  1  0  0  0
M  ISO  4   1 100  68 101  81 101  82 100
M  END
> <chiral flag>
0

> <version>
0

> <s_m_source_file>
/data/baiqing/PycharmProjects/Reinvent-master-3.2/result/LINK_invent/BTK/process_docking_weight1_custom_product_contain_oxygen_bond_distance_aromatic_linkinvent_7_9_3/rearranged_h_0124.sdf

> <i_m_source_file_index>
88

> <r_mmod_Potential_Energy-OPLS-2005>
250.367172241211

> <r_mmod_Stretch_Energy-OPLS-2005>
137.221298217773

> <r_mmod_Bend_Energy-OPLS-2005>
173.36979675293

> <r_mmod_Torsional_Energy-OPLS-2005>
263.615051269531

> <r_mmod_Improper_Torsional_Energy-OPLS-2005>
9.32117462158203

> <r_mmod_Van_der_Waal_Energy-OPLS-2005>
143.236557006836

> <r_mmod_Electrostatic_Energy-OPLS-2005>
-337.172485351562

> <r_mmod_Solvation_Energy-OPLS-2005>
-231.553894042969

> <b_mmod_Minimization_Converged-OPLS-2005>
0

> <r_mmod_RMS_Derivative-OPLS-2005>
8.95625877380371

$$$$
89
                    3D
 Structure written by MMmdl.
153161  0  0  1  0            999 V2000
  -30.6384  -14.4774   20.5416 C   0  0  0  0  0  0
  -30.4416  -12.3089   19.3638 C   0  0  0  0  0  0
  -29.4766  -12.4844   18.1767 C   0  0  0  0  0  0
  -28.0052  -12.3273   18.6150 C   0  0  0  0  0  0
  -27.6694  -13.1677   19.8747 C   0  0  2  0  0  0
  -28.7259  -12.8849   20.9667 C   0  0  0  0  0  0
  -25.2751  -13.8044   20.5614 C   0  0  0  0  0  0
  -24.1943  -13.0415   20.9165 C   0  0  0  0  0  0
  -24.6434  -11.6865   20.8780 C   0  0  0  0  0  0
  -23.9087  -10.4276   21.0435 C   0  0  0  0  0  0
  -24.3640   -9.4170   21.9197 C   0  0  0  0  0  0
  -23.6269   -8.2237   22.0801 C   0  0  0  0  0  0
  -22.4268   -8.0310   21.3575 C   0  0  0  0  0  0
  -21.9894   -9.0287   20.4701 C   0  0  0  0  0  0
  -22.7264  -10.2119   20.3075 C   0  0  0  0  0  0
  -21.6831   -6.0763   22.5269 C   0  0  0  0  0  0
  -21.4009   -6.5670   23.8195 C   0  0  0  0  0  0
  -21.3643   -5.6825   24.9167 C   0  0  0  0  0  0
  -21.6027   -4.3078   24.7211 C   0  0  0  0  0  0
  -21.8843   -3.8176   23.4329 C   0  0  0  0  0  0
  -21.9183   -4.6996   22.3388 C   0  0  0  0  0  0
  -22.7973  -13.5287   21.1764 C   0  0  0  0  0  0
  -22.1659   -4.2195   21.0953 F   0  0  0  0  0  0
  -21.5596   -3.4551   25.7701 F   0  0  0  0  0  0
  -30.0398  -13.2587   20.4197 N   0  0  0  0  0  0
  -26.3129  -12.9127   20.3415 N   0  0  0  0  0  0
  -25.9345  -11.6351   20.5879 N   0  0  0  0  0  0
  -22.0546  -12.8301   22.0275 N   0  0  0  0  0  0
  -25.4548  -15.1743   20.3897 N   0  0  0  0  0  0
  -31.7794  -14.6940   20.1188 O   0  0  0  0  0  0
  -21.6645   -6.8908   21.4238 O   0  0  0  0  0  0
  -22.3674  -14.5558   20.6557 O   0  0  0  0  0  0
  -24.6129  -31.8756   23.2112 C   0  0  0  0  0  0
  -25.9077  -32.4847   23.8410 C   0  0  1  0  0  0
  -27.1870  -27.3777   20.1119 C   0  0  0  0  0  0
  -25.5966  -33.8674   24.2426 N   0  0  0  0  0  0
  -23.4022  -30.5281   21.5355 C   0  0  2  0  0  0
  -24.8455  -28.9891   20.1078 C   0  0  0  0  0  0
  -22.7327  -29.4881   22.4711 C   0  0  0  0  0  0
  -18.0367  -28.1323   22.8367 C   0  0  0  0  0  0
  -24.1473  -36.7342   23.2626 C   0  0  0  0  0  0
  -25.9448  -30.8305   21.3809 C   0  0  0  0  0  0
  -26.0136  -29.4654   20.7179 C   0  0  0  0  0  0
  -27.1899  -28.6667   20.7184 C   0  0  0  0  0  0
  -26.0062  -26.9733   19.4417 C   0  0  0  0  0  0
  -24.8426  -27.7542   19.4578 C   0  0  0  0  0  0
  -23.6206  -29.8753   20.1495 C   0  0  0  0  0  0
  -25.4113  -36.3134   24.0303 C   0  0  1  0  0  0
  -20.5971  -28.3846   23.1155 C   0  0  2  0  0  0
  -20.6979  -26.9444   22.5522 C   0  0  0  0  0  0
  -19.6005  -26.6024   21.5513 C   0  0  0  0  0  0
  -18.2120  -26.7666   22.1806 C   0  0  0  0  0  0
  -19.1576  -28.8854   23.2837 C   0  0  0  0  0  0
  -18.9335  -30.1433   23.8975 C   0  0  0  0  0  0
  -17.6254  -30.6476   24.0403 C   0  0  0  0  0  0
  -25.9086  -34.9486   23.5145 C   0  0  0  0  0  0
  -16.5248  -29.8943   23.5794 C   0  0  0  0  0  0
  -16.7348  -28.6344   22.9945 C   0  0  0  0  0  0
  -26.4530  -31.6622   25.0719 C   0  0  0  0  0  0
  -25.3795  -31.3739   26.1469 C   0  0  0  0  0  0
  -27.0352  -30.3003   24.6166 C   0  0  0  0  0  0
  -27.6125  -32.4341   25.7516 C   0  0  0  0  0  0
  -27.5581  -37.1807   24.8453 C   0  0  0  0  0  0
  -21.4056  -29.3138   22.3243 N   0  0  0  0  0  0
  -26.4310  -37.3789   23.9387 N   0  0  0  0  0  0
  -24.6679  -31.0924   22.0977 N   0  0  0  0  0  0
  -23.4090  -28.8676   23.2995 O   0  0  0  0  0  0
  -28.2776  -26.5142   20.2136 O   0  0  0  0  0  0
  -26.5617  -34.8924   22.4667 O   0  0  0  0  0  0
  -23.5354  -32.1466   23.7542 O   0  0  0  0  0  0
  -26.8770  -18.7376   22.1454 C   0  0  0  0  0  0
  -27.6999  -17.6780   21.7181 C   0  0  0  0  0  0
  -27.3258  -20.0690   22.0276 C   0  0  0  0  0  0
  -29.3907  -19.2722   21.0358 C   0  0  0  0  0  0
  -28.9661  -17.9249   21.1466 C   0  0  0  0  0  0
  -28.5975  -20.3504   21.4843 C   0  0  0  0  0  0
  -29.8795  -16.8337   20.7087 C   0  0  0  0  0  0
  -29.7475  -15.5317   21.0441 C   0  0  0  0  0  0
  -28.7334  -24.0600   20.8783 C   0  0  0  0  0  0
  -29.1128  -21.7531   21.4007 C   0  0  0  0  0  0
  -27.9735  -25.0942   20.0405 C   0  0  0  0  0  0
  -28.4074  -22.8100   20.8644 N   0  0  0  0  0  0
  -30.3175  -21.9450   21.8458 N   0  3  0  0  0  0
  -31.4585  -12.4688   19.0030 H   0  0  0  0  0  0
  -30.4009  -11.2808   19.7318 H   0  0  0  0  0  0
  -29.7131  -11.7521   17.4029 H   0  0  0  0  0  0
  -29.6318  -13.4674   17.7234 H   0  0  0  0  0  0
  -27.8337  -11.2685   18.8307 H   0  0  0  0  0  0
  -27.3335  -12.5730   17.7919 H   0  0  0  0  0  0
  -27.7339  -14.2216   19.5940 H   0  0  0  0  0  0
  -28.7356  -11.8239   21.2190 H   0  0  0  0  0  0
  -28.4941  -13.3605   21.9166 H   0  0  0  0  0  0
  -25.2793   -9.5657   22.4771 H   0  0  0  0  0  0
  -23.9978   -7.4654   22.7538 H   0  0  0  0  0  0
  -21.0809   -8.8850   19.9022 H   0  0  0  0  0  0
  -22.3752  -10.9689   19.6206 H   0  0  0  0  0  0
  -21.2042   -7.6181   23.9700 H   0  0  0  0  0  0
  -21.1409   -6.0553   25.9057 H   0  0  0  0  0  0
  -22.0632   -2.7645   23.2801 H   0  0  0  0  0  0
  -22.4144  -11.9958   22.4734 H   0  0  0  0  0  0
  -21.1225  -13.1432   22.2551 H   0  0  0  0  0  0
  -24.6975  -15.8364   20.5087 H   0  0  0  0  0  0
  -26.3057  -15.5957   20.0403 H   0  0  0  0  0  0
  -26.7183  -32.5524   23.1227 H   0  0  0  0  0  0
  -24.9931  -33.9897   25.0477 H   0  0  0  0  0  0
  -22.7083  -31.3591   21.3905 H   0  0  0  0  0  0
  -23.3713  -35.9685   23.3267 H   0  0  0  0  0  0
  -24.3574  -36.8992   22.2044 H   0  0  0  0  0  0
  -23.7257  -37.6549   23.6676 H   0  0  0  0  0  0
  -26.0786  -31.6090   20.6296 H   0  0  0  0  0  0
  -26.8246  -30.8728   22.0089 H   0  0  0  0  0  0
  -28.0826  -29.0282   21.2200 H   0  0  0  0  0  0
  -25.9404  -26.0505   18.8835 H   0  0  0  0  0  0
  -23.9485  -27.4095   18.9601 H   0  0  0  0  0  0
  -23.7643  -30.6560   19.4007 H   0  0  0  0  0  0
  -22.7354  -29.3272   19.8177 H   0  0  0  0  0  0
  -25.1265  -36.1964   25.0780 H   0  0  0  0  0  0
  -21.0094  -28.3773   24.1222 H   0  0  0  0  0  0
  -20.5860  -26.2609   23.3959 H   0  0  0  0  0  0
  -21.6873  -26.7366   22.1298 H   0  0  0  0  0  0
  -19.7352  -25.5736   21.2300 H   0  0  0  0  0  0
  -19.6902  -27.2235   20.6578 H   0  0  0  0  0  0
  -17.4377  -26.5982   21.4289 H   0  0  0  0  0  0
  -18.0574  -26.0018   22.9384 H   0  0  0  0  0  0
  -19.7733  -30.7188   24.2648 H   0  0  0  0  0  0
  -17.4540  -31.6131   24.4902 H   0  0  0  0  0  0
  -15.5256  -30.2939   23.6820 H   0  0  0  0  0  0
  -15.9078  -28.0439   22.6243 H   0  0  0  0  0  0
  -24.6019  -30.7046   25.7794 H   0  0  0  0  0  0
  -24.8938  -32.2908   26.4798 H   0  0  0  0  0  0
  -25.8121  -30.8980   27.0296 H   0  0  0  0  0  0
  -26.2851  -29.6746   24.1287 H   0  0  0  0  0  0
  -27.4147  -29.7275   25.4678 H   0  0  0  0  0  0
  -27.8710  -30.4240   23.9255 H   0  0  0  0  0  0
  -27.2741  -33.3632   26.2132 H   0  0  0  0  0  0
  -28.3918  -32.6929   25.0331 H   0  0  0  0  0  0
  -28.0853  -31.8446   26.5412 H   0  0  0  0  0  0
  -28.2543  -38.0141   24.7502 H   0  0  0  0  0  0
  -28.1104  -36.2665   24.6242 H   0  0  0  0  0  0
  -27.2296  -37.1422   25.8852 H   0  0  0  0  0  0
  -20.9407  -29.8130   21.5836 H   0  0  0  0  0  0
  -26.0159  -38.2827   24.1443 H   0  0  0  0  0  0
  -25.9047  -18.5240   22.5802 H   0  0  0  0  0  0
  -27.3180  -16.6750   21.8271 H   0  0  0  0  0  0
  -26.7027  -20.8618   22.3906 H   0  0  0  0  0  0
  -30.3552  -19.4766   20.6032 H   0  0  0  0  0  0
  -30.6860  -17.1246   20.0464 H   0  0  0  0  0  0
  -28.9405  -15.2996   21.7119 H   0  0  0  0  0  0
  -29.5398  -24.4644   21.4939 H   0  0  0  0  0  0
  -26.9435  -24.8604   20.2904 H   0  0  0  0  0  0
  -28.1139  -24.8204   19.0010 H   0  0  0  0  0  0
  -30.8873  -21.2025   22.2520 H   0  0  0  0  0  0
  -30.8087  -22.8194   21.7123 H   0  0  0  0  0  0
  1 25  1  0  0  0
  1 30  2  0  0  0
  1 78  1  0  0  0
  2  3  1  0  0  0
  2 25  1  0  0  0
  2 84  1  0  0  0
  2 85  1  0  0  0
  3  4  1  0  0  0
  3 86  1  0  0  0
  3 87  1  0  0  0
  4  5  1  0  0  0
  4 88  1  0  0  0
  4 89  1  0  0  0
  5  6  1  0  0  0
  5 26  1  0  0  0
  5 90  1  0  0  0
  6 25  1  0  0  0
  6 91  1  0  0  0
  6 92  1  0  0  0
  7  8  2  0  0  0
  7 26  1  0  0  0
  7 29  1  0  0  0
  8  9  1  0  0  0
  8 22  1  0  0  0
  9 10  1  0  0  0
  9 27  2  0  0  0
 10 11  2  0  0  0
 10 15  1  0  0  0
 11 12  1  0  0  0
 11 93  1  0  0  0
 12 13  2  0  0  0
 12 94  1  0  0  0
 13 14  1  0  0  0
 13 31  1  0  0  0
 14 15  2  0  0  0
 14 95  1  0  0  0
 15 96  1  0  0  0
 16 17  2  0  0  0
 16 21  1  0  0  0
 16 31  1  0  0  0
 17 18  1  0  0  0
 17 97  1  0  0  0
 18 19  2  0  0  0
 18 98  1  0  0  0
 19 20  1  0  0  0
 19 24  1  0  0  0
 20 21  2  0  0  0
 20 99  1  0  0  0
 21 23  1  0  0  0
 22 28  1  0  0  0
 22 32  2  0  0  0
 26 27  1  0  0  0
 28100  1  0  0  0
 28101  1  0  0  0
 29102  1  0  0  0
 29103  1  0  0  0
 33 34  1  0  0  0
 33 66  1  0  0  0
 33 70  2  0  0  0
 34 36  1  0  0  0
 34 59  1  0  0  0
 34104  1  0  0  0
 35 44  2  0  0  0
 35 45  1  0  0  0
 35 68  1  0  0  0
 36 56  1  0  0  0
 36105  1  0  0  0
 37 39  1  0  0  0
 37 47  1  0  0  0
 37 66  1  0  0  0
 37106  1  0  0  0
 38 43  2  0  0  0
 38 46  1  0  0  0
 38 47  1  0  0  0
 39 64  1  0  0  0
 39 67  2  0  0  0
 40 52  1  0  0  0
 40 53  2  0  0  0
 40 58  1  0  0  0
 41107  1  0  0  0
 41108  1  0  0  0
 41109  1  0  0  0
 41 48  1  0  0  0
 42 43  1  0  0  0
 42 66  1  0  0  0
 42110  1  0  0  0
 42111  1  0  0  0
 43 44  1  0  0  0
 44112  1  0  0  0
 45 46  2  0  0  0
 45113  1  0  0  0
 46114  1  0  0  0
 47115  1  0  0  0
 47116  1  0  0  0
 48 56  1  0  0  0
 48 65  1  0  0  0
 48117  1  0  0  0
 49 50  1  0  0  0
 49 53  1  0  0  0
 49 64  1  0  0  0
 49118  1  0  0  0
 50 51  1  0  0  0
 50119  1  0  0  0
 50120  1  0  0  0
 51 52  1  0  0  0
 51121  1  0  0  0
 51122  1  0  0  0
 52123  1  0  0  0
 52124  1  0  0  0
 53 54  1  0  0  0
 54 55  2  0  0  0
 54125  1  0  0  0
 55 57  1  0  0  0
 55126  1  0  0  0
 56 69  2  0  0  0
 57 58  2  0  0  0
 57127  1  0  0  0
 58128  1  0  0  0
 59 60  1  0  0  0
 59 61  1  0  0  0
 59 62  1  0  0  0
 60129  1  0  0  0
 60130  1  0  0  0
 60131  1  0  0  0
 61132  1  0  0  0
 61133  1  0  0  0
 61134  1  0  0  0
 62135  1  0  0  0
 62136  1  0  0  0
 62137  1  0  0  0
 63 65  1  0  0  0
 63138  1  0  0  0
 63139  1  0  0  0
 63140  1  0  0  0
 64141  1  0  0  0
 65142  1  0  0  0
 68 81  1  0  0  0
 71 72  2  0  0  0
 71 73  1  0  0  0
 71143  1  0  0  0
 72 75  1  0  0  0
 72144  1  0  0  0
 73 76  2  0  0  0
 73145  1  0  0  0
 74 75  2  0  0  0
 74 76  1  0  0  0
 74146  1  0  0  0
 75 77  1  0  0  0
 76 80  1  0  0  0
 77 78  2  0  0  0
 77147  1  0  0  0
 78148  1  0  0  0
 79 81  1  0  0  0
 79 82  2  0  0  0
 79149  1  0  0  0
 80 82  1  0  0  0
 80 83  2  0  0  0
 81150  1  0  0  0
 81151  1  0  0  0
 83152  1  0  0  0
 83153  1  0  0  0
M  CHG  1  83   1
M  ISO  4   1 100  68 101  78 100  81 101
M  END
> <chiral flag>
0

> <version>
0

> <s_m_source_file>
/data/baiqing/PycharmProjects/Reinvent-master-3.2/result/LINK_invent/BTK/process_docking_weight1_custom_product_contain_oxygen_bond_distance_aromatic_linkinvent_7_9_3/rearranged_h_0124.sdf

> <i_m_source_file_index>
89

> <r_mmod_Potential_Energy-OPLS-2005>
66.9044570922852

> <r_mmod_Stretch_Energy-OPLS-2005>
51.9456253051758

> <r_mmod_Bend_Energy-OPLS-2005>
116.480285644531

> <r_mmod_Torsional_Energy-OPLS-2005>
202.230072021484

> <r_mmod_Improper_Torsional_Energy-OPLS-2005>
4.5199499130249

> <r_mmod_Van_der_Waal_Energy-OPLS-2005>
181.230422973633

> <r_mmod_Electrostatic_Energy-OPLS-2005>
-70.8006134033203

> <r_mmod_Solvation_Energy-OPLS-2005>
-451.18212890625

> <b_mmod_Minimization_Converged-OPLS-2005>
0

> <r_mmod_RMS_Derivative-OPLS-2005>
13.5927505493164

$$$$
90
                    3D
 Structure written by MMmdl.
155163  0  0  1  0            999 V2000
  -30.6646  -14.8004   20.4778 C   0  0  0  0  0  0
  -30.4225  -12.5016   19.4921 C   0  0  0  0  0  0
  -29.5142  -12.5217   18.2451 C   0  0  0  0  0  0
  -28.0428  -12.3356   18.6560 C   0  0  0  0  0  0
  -27.6375  -13.2501   19.8454 C   0  0  2  0  0  0
  -28.6811  -13.2413   20.9834 C   0  0  0  0  0  0
  -25.2483  -13.8227   20.5705 C   0  0  0  0  0  0
  -24.1778  -13.0451   20.9186 C   0  0  0  0  0  0
  -24.6395  -11.6936   20.8714 C   0  0  0  0  0  0
  -23.9074  -10.4307   21.0369 C   0  0  0  0  0  0
  -24.3621   -9.4218   21.9147 C   0  0  0  0  0  0
  -23.6283   -8.2251   22.0731 C   0  0  0  0  0  0
  -22.4272   -8.0269   21.3526 C   0  0  0  0  0  0
  -21.9903   -9.0243   20.4630 C   0  0  0  0  0  0
  -22.7236  -10.2126   20.3026 C   0  0  0  0  0  0
  -21.6862   -6.0706   22.5253 C   0  0  0  0  0  0
  -21.4035   -6.5612   23.8189 C   0  0  0  0  0  0
  -21.3666   -5.6769   24.9145 C   0  0  0  0  0  0
  -21.6040   -4.3030   24.7196 C   0  0  0  0  0  0
  -21.8827   -3.8113   23.4318 C   0  0  0  0  0  0
  -21.9202   -4.6930   22.3378 C   0  0  0  0  0  0
  -22.7794  -13.5212   21.1828 C   0  0  0  0  0  0
  -22.1663   -4.2120   21.0959 F   0  0  0  0  0  0
  -21.5634   -3.4515   25.7715 F   0  0  0  0  0  0
  -29.9761  -13.6016   20.3895 N   0  0  0  0  0  0
  -26.2924  -12.9463   20.3267 N   0  0  0  0  0  0
  -25.9335  -11.6593   20.5724 N   0  0  0  0  0  0
  -22.0455  -12.8234   22.0415 N   0  0  0  0  0  0
  -25.4155  -15.1951   20.4159 N   0  0  0  0  0  0
  -31.8366  -14.8173   20.0901 O   0  0  0  0  0  0
  -21.6638   -6.8861   21.4218 O   0  0  0  0  0  0
  -22.3454  -14.5478   20.6610 O   0  0  0  0  0  0
  -24.6379  -31.8501   23.1949 C   0  0  0  0  0  0
  -25.9186  -32.4719   23.8298 C   0  0  1  0  0  0
  -27.2052  -27.2072   20.1234 C   0  0  0  0  0  0
  -25.5959  -33.8527   24.2219 N   0  0  0  0  0  0
  -23.4341  -30.4774   21.5398 C   0  0  2  0  0  0
  -24.8789  -28.9200   20.1044 C   0  0  0  0  0  0
  -22.7525  -29.4601   22.4881 C   0  0  0  0  0  0
  -18.0300  -28.1381   22.8476 C   0  0  0  0  0  0
  -24.1497  -36.7274   23.2639 C   0  0  0  0  0  0
  -25.9869  -30.7452   21.3821 C   0  0  0  0  0  0
  -26.0549  -29.3649   20.7212 C   0  0  0  0  0  0
  -27.2205  -28.5212   20.7202 C   0  0  0  0  0  0
  -26.0059  -26.8552   19.4626 C   0  0  0  0  0  0
  -24.8627  -27.6754   19.4618 C   0  0  0  0  0  0
  -23.6534  -29.8139   20.1562 C   0  0  0  0  0  0
  -25.4119  -36.3053   24.0317 C   0  0  1  0  0  0
  -20.5913  -28.3708   23.1231 C   0  0  2  0  0  0
  -20.6789  -26.9419   22.5396 C   0  0  0  0  0  0
  -19.5763  -26.6373   21.5204 C   0  0  0  0  0  0
  -18.1941  -26.7919   22.1620 C   0  0  0  0  0  0
  -19.1559  -28.8858   23.2852 C   0  0  0  0  0  0
  -18.9477  -30.1449   23.8887 C   0  0  0  0  0  0
  -17.6473  -30.6583   24.0552 C   0  0  0  0  0  0
  -25.9063  -34.9426   23.5076 C   0  0  0  0  0  0
  -16.5362  -29.9079   23.6332 C   0  0  0  0  0  0
  -16.7285  -28.6497   23.0358 C   0  0  0  0  0  0
  -26.4529  -31.6557   25.0711 C   0  0  0  0  0  0
  -25.3734  -31.3719   26.1424 C   0  0  0  0  0  0
  -27.0373  -30.2960   24.6228 C   0  0  0  0  0  0
  -27.6077  -32.4301   25.7495 C   0  0  0  0  0  0
  -27.5573  -37.1795   24.8463 C   0  0  0  0  0  0
  -21.4231  -29.3054   22.3623 N   0  0  0  0  0  0
  -26.4284  -37.3762   23.9405 N   0  0  0  0  0  0
  -24.7060  -31.0436   22.0945 N   0  0  0  0  0  0
  -23.4211  -28.8122   23.2983 O   0  0  0  0  0  0
  -28.2619  -26.2490   20.1997 O   0  0  0  0  0  0
  -26.5638  -34.8907   22.4648 O   0  0  0  0  0  0
  -23.5521  -32.1354   23.7214 O   0  0  0  0  0  0
  -32.8640  -19.0425   22.1100 C   0  0  0  0  0  0
  -32.7713  -17.8003   22.7205 C   0  0  0  0  0  0
  -31.8173  -19.4645   21.2906 C   0  0  0  0  0  0
  -31.7366  -16.9160   22.3775 C   0  0  0  0  0  0
  -30.6523  -18.6871   21.0011 C   0  0  0  0  0  0
  -30.7624  -17.2314   21.3613 C   0  0  0  0  0  0
  -29.4391  -20.8043   20.6729 C   0  0  0  0  0  0
  -28.8923  -23.5743   20.4144 C   0  0  0  0  0  0
  -31.7354  -15.6172   23.1821 C   0  0  0  0  0  0
  -28.6334  -22.0269   19.9780 C   0  0  0  0  0  0
  -27.9509  -24.7840   19.8872 C   0  0  0  0  0  0
  -29.6001  -19.5025   20.3621 N   0  0  0  0  0  0
  -30.0527  -16.0136   20.8449 N   0  0  0  0  0  0
  -29.8276  -23.8403   21.1762 O   0  0  0  0  0  0
  -31.4681  -12.5961   19.1972 H   0  0  0  0  0  0
  -30.3528  -11.5409   20.0055 H   0  0  0  0  0  0
  -29.8107  -11.7384   17.5457 H   0  0  0  0  0  0
  -29.6333  -13.4692   17.7157 H   0  0  0  0  0  0
  -27.9105  -11.2900   18.9334 H   0  0  0  0  0  0
  -27.3869  -12.5070   17.8012 H   0  0  0  0  0  0
  -27.6167  -14.2634   19.4440 H   0  0  0  0  0  0
  -28.7332  -12.2593   21.4544 H   0  0  0  0  0  0
  -28.4050  -13.9455   21.7702 H   0  0  0  0  0  0
  -25.2789   -9.5674   22.4693 H   0  0  0  0  0  0
  -23.9983   -7.4648   22.7456 H   0  0  0  0  0  0
  -21.0811   -8.8756   19.8955 H   0  0  0  0  0  0
  -22.3682  -10.9637   19.6110 H   0  0  0  0  0  0
  -21.2050   -7.6122   23.9679 H   0  0  0  0  0  0
  -21.1482   -6.0492   25.9045 H   0  0  0  0  0  0
  -22.0611   -2.7576   23.2819 H   0  0  0  0  0  0
  -22.4106  -11.9955   22.4885 H   0  0  0  0  0  0
  -21.1030  -13.1185   22.2549 H   0  0  0  0  0  0
  -24.6493  -15.8503   20.5310 H   0  0  0  0  0  0
  -26.2682  -15.6379   20.0976 H   0  0  0  0  0  0
  -26.7252  -32.5346   23.1031 H   0  0  0  0  0  0
  -25.0115  -33.9656   25.0372 H   0  0  0  0  0  0
  -22.7340  -31.3029   21.3939 H   0  0  0  0  0  0
  -23.3757  -35.9612   23.3296 H   0  0  0  0  0  0
  -24.3586  -36.8908   22.2055 H   0  0  0  0  0  0
  -23.7252  -37.6471   23.6671 H   0  0  0  0  0  0
  -26.1334  -31.5014   20.6089 H   0  0  0  0  0  0
  -26.8614  -30.7912   22.0199 H   0  0  0  0  0  0
  -28.1158  -28.8546   21.2260 H   0  0  0  0  0  0
  -25.9094  -25.9107   18.9491 H   0  0  0  0  0  0
  -23.9664  -27.3359   18.9611 H   0  0  0  0  0  0
  -23.7821  -30.5902   19.4014 H   0  0  0  0  0  0
  -22.7674  -29.2549   19.8491 H   0  0  0  0  0  0
  -25.1308  -36.1884   25.0807 H   0  0  0  0  0  0
  -21.0017  -28.3302   24.1342 H   0  0  0  0  0  0
  -20.5667  -26.2334   23.3616 H   0  0  0  0  0  0
  -21.6652  -26.7421   22.1196 H   0  0  0  0  0  0
  -19.6928  -25.6278   21.1236 H   0  0  0  0  0  0
  -19.6687  -27.3180   20.6727 H   0  0  0  0  0  0
  -17.4210  -26.6658   21.4022 H   0  0  0  0  0  0
  -18.0346  -26.0056   22.9012 H   0  0  0  0  0  0
  -19.7958  -30.7257   24.2266 H   0  0  0  0  0  0
  -17.5039  -31.6267   24.5142 H   0  0  0  0  0  0
  -15.5368  -30.2979   23.7659 H   0  0  0  0  0  0
  -15.8688  -28.0804   22.7090 H   0  0  0  0  0  0
  -24.5923  -30.7051   25.7748 H   0  0  0  0  0  0
  -24.8919  -32.2901   26.4807 H   0  0  0  0  0  0
  -25.8045  -30.8923   27.0227 H   0  0  0  0  0  0
  -26.2960  -29.6700   24.1245 H   0  0  0  0  0  0
  -27.4029  -29.7224   25.4753 H   0  0  0  0  0  0
  -27.8860  -30.4204   23.9494 H   0  0  0  0  0  0
  -27.2675  -33.3609   26.2041 H   0  0  0  0  0  0
  -28.3914  -32.6838   25.0345 H   0  0  0  0  0  0
  -28.0720  -31.8441   26.5441 H   0  0  0  0  0  0
  -28.2589  -38.0097   24.7516 H   0  0  0  0  0  0
  -28.1073  -36.2627   24.6283 H   0  0  0  0  0  0
  -27.2296  -37.1433   25.8869 H   0  0  0  0  0  0
  -20.9424  -29.8804   21.6843 H   0  0  0  0  0  0
  -26.0156  -38.2836   24.1403 H   0  0  0  0  0  0
  -33.6908  -19.7060   22.3269 H   0  0  0  0  0  0
  -33.5252  -17.5143   23.4411 H   0  0  0  0  0  0
  -31.9374  -20.4705   20.9147 H   0  0  0  0  0  0
  -29.9399  -21.1898   21.5653 H   0  0  0  0  0  0
  -32.1318  -15.7849   24.1851 H   0  0  0  0  0  0
  -32.3723  -14.8643   22.7174 H   0  0  0  0  0  0
  -30.7305  -15.2125   23.3066 H   0  0  0  0  0  0
  -27.5696  -21.8271   20.0922 H   0  0  0  0  0  0
  -28.8268  -21.9743   18.9071 H   0  0  0  0  0  0
  -26.9638  -24.5569   20.2888 H   0  0  0  0  0  0
  -27.8737  -24.6838   18.8035 H   0  0  0  0  0  0
  -29.0452  -16.0236   20.8994 H   0  0  0  0  0  0
  1 25  1  0  0  0
  1 30  2  0  0  0
  1 83  1  0  0  0
  2  3  1  0  0  0
  2 25  1  0  0  0
  2 85  1  0  0  0
  2 86  1  0  0  0
  3  4  1  0  0  0
  3 87  1  0  0  0
  3 88  1  0  0  0
  4  5  1  0  0  0
  4 89  1  0  0  0
  4 90  1  0  0  0
  5  6  1  0  0  0
  5 26  1  0  0  0
  5 91  1  0  0  0
  6 25  1  0  0  0
  6 92  1  0  0  0
  6 93  1  0  0  0
  7  8  2  0  0  0
  7 26  1  0  0  0
  7 29  1  0  0  0
  8  9  1  0  0  0
  8 22  1  0  0  0
  9 10  1  0  0  0
  9 27  2  0  0  0
 10 11  2  0  0  0
 10 15  1  0  0  0
 11 12  1  0  0  0
 11 94  1  0  0  0
 12 13  2  0  0  0
 12 95  1  0  0  0
 13 14  1  0  0  0
 13 31  1  0  0  0
 14 15  2  0  0  0
 14 96  1  0  0  0
 15 97  1  0  0  0
 16 17  2  0  0  0
 16 21  1  0  0  0
 16 31  1  0  0  0
 17 18  1  0  0  0
 17 98  1  0  0  0
 18 19  2  0  0  0
 18 99  1  0  0  0
 19 20  1  0  0  0
 19 24  1  0  0  0
 20 21  2  0  0  0
 20100  1  0  0  0
 21 23  1  0  0  0
 22 28  1  0  0  0
 22 32  2  0  0  0
 26 27  1  0  0  0
 28101  1  0  0  0
 28102  1  0  0  0
 29103  1  0  0  0
 29104  1  0  0  0
 33 34  1  0  0  0
 33 66  1  0  0  0
 33 70  2  0  0  0
 34 36  1  0  0  0
 34 59  1  0  0  0
 34105  1  0  0  0
 35 44  2  0  0  0
 35 45  1  0  0  0
 35 68  1  0  0  0
 36 56  1  0  0  0
 36106  1  0  0  0
 37 39  1  0  0  0
 37 47  1  0  0  0
 37 66  1  0  0  0
 37107  1  0  0  0
 38 43  2  0  0  0
 38 46  1  0  0  0
 38 47  1  0  0  0
 39 64  1  0  0  0
 39 67  2  0  0  0
 40 52  1  0  0  0
 40 53  2  0  0  0
 40 58  1  0  0  0
 41108  1  0  0  0
 41109  1  0  0  0
 41110  1  0  0  0
 41 48  1  0  0  0
 42 43  1  0  0  0
 42 66  1  0  0  0
 42111  1  0  0  0
 42112  1  0  0  0
 43 44  1  0  0  0
 44113  1  0  0  0
 45 46  2  0  0  0
 45114  1  0  0  0
 46115  1  0  0  0
 47116  1  0  0  0
 47117  1  0  0  0
 48 56  1  0  0  0
 48 65  1  0  0  0
 48118  1  0  0  0
 49 50  1  0  0  0
 49 53  1  0  0  0
 49 64  1  0  0  0
 49119  1  0  0  0
 50 51  1  0  0  0
 50120  1  0  0  0
 50121  1  0  0  0
 51 52  1  0  0  0
 51122  1  0  0  0
 51123  1  0  0  0
 52124  1  0  0  0
 52125  1  0  0  0
 53 54  1  0  0  0
 54 55  2  0  0  0
 54126  1  0  0  0
 55 57  1  0  0  0
 55127  1  0  0  0
 56 69  2  0  0  0
 57 58  2  0  0  0
 57128  1  0  0  0
 58129  1  0  0  0
 59 60  1  0  0  0
 59 61  1  0  0  0
 59 62  1  0  0  0
 60130  1  0  0  0
 60131  1  0  0  0
 60132  1  0  0  0
 61133  1  0  0  0
 61134  1  0  0  0
 61135  1  0  0  0
 62136  1  0  0  0
 62137  1  0  0  0
 62138  1  0  0  0
 63 65  1  0  0  0
 63139  1  0  0  0
 63140  1  0  0  0
 63141  1  0  0  0
 64142  1  0  0  0
 65143  1  0  0  0
 68 81  1  0  0  0
 71 72  2  0  0  0
 71 73  1  0  0  0
 71144  1  0  0  0
 72 74  1  0  0  0
 72145  1  0  0  0
 73 75  2  0  0  0
 73146  1  0  0  0
 74 76  2  0  0  0
 74 79  1  0  0  0
 75 76  1  0  0  0
 75 82  1  0  0  0
 76 83  1  0  0  0
 77 80  1  0  0  0
 77 82  2  0  0  0
 77147  1  0  0  0
 78 80  1  0  0  0
 78 81  1  0  0  0
 78 84  2  0  0  0
 79148  1  0  0  0
 79149  1  0  0  0
 79150  1  0  0  0
 80151  1  0  0  0
 80152  1  0  0  0
 81153  1  0  0  0
 81154  1  0  0  0
 83155  1  0  0  0
M  ISO  4   1 100  68 101  81 101  83 100
M  END
> <chiral flag>
0

> <version>
0

> <s_m_source_file>
/data/baiqing/PycharmProjects/Reinvent-master-3.2/result/LINK_invent/BTK/process_docking_weight1_custom_product_contain_oxygen_bond_distance_aromatic_linkinvent_7_9_3/rearranged_h_0124.sdf

> <i_m_source_file_index>
90

> <r_mmod_Potential_Energy-OPLS-2005>
319.769897460938

> <r_mmod_Stretch_Energy-OPLS-2005>
194.756103515625

> <r_mmod_Bend_Energy-OPLS-2005>
224.767715454102

> <r_mmod_Torsional_Energy-OPLS-2005>
272.107879638672

> <r_mmod_Improper_Torsional_Energy-OPLS-2005>
3.24215173721313

> <r_mmod_Van_der_Waal_Energy-OPLS-2005>
174.195159912109

> <r_mmod_Electrostatic_Energy-OPLS-2005>
-429.711730957031

> <r_mmod_Solvation_Energy-OPLS-2005>
-239.510848999023

> <b_mmod_Minimization_Converged-OPLS-2005>
0

> <r_mmod_RMS_Derivative-OPLS-2005>
2.56871628761292

$$$$
91
                    3D
 Structure written by MMmdl.
156164  0  0  1  0            999 V2000
  -30.7506  -14.4190   20.5407 C   0  0  0  0  0  0
  -30.4012  -12.2591   19.4466 C   0  0  0  0  0  0
  -29.4984  -12.4935   18.2188 C   0  0  0  0  0  0
  -28.0156  -12.3682   18.6207 C   0  0  0  0  0  0
  -27.6600  -13.2152   19.8734 C   0  0  2  0  0  0
  -28.6965  -13.0190   21.0031 C   0  0  0  0  0  0
  -25.2577  -13.8188   20.5693 C   0  0  0  0  0  0
  -24.1830  -13.0448   20.9169 C   0  0  0  0  0  0
  -24.6404  -11.6920   20.8735 C   0  0  0  0  0  0
  -23.9080  -10.4296   21.0406 C   0  0  0  0  0  0
  -24.3635   -9.4212   21.9185 C   0  0  0  0  0  0
  -23.6309   -8.2245   22.0758 C   0  0  0  0  0  0
  -22.4286   -8.0286   21.3547 C   0  0  0  0  0  0
  -21.9921   -9.0263   20.4651 C   0  0  0  0  0  0
  -22.7251  -10.2141   20.3057 C   0  0  0  0  0  0
  -21.6851   -6.0746   22.5284 C   0  0  0  0  0  0
  -21.4018   -6.5645   23.8220 C   0  0  0  0  0  0
  -21.3661   -5.6792   24.9177 C   0  0  0  0  0  0
  -21.6040   -4.3056   24.7222 C   0  0  0  0  0  0
  -21.8820   -3.8151   23.4340 C   0  0  0  0  0  0
  -21.9190   -4.6972   22.3402 C   0  0  0  0  0  0
  -22.7847  -13.5236   21.1824 C   0  0  0  0  0  0
  -22.1649   -4.2160   21.0978 F   0  0  0  0  0  0
  -21.5638   -3.4540   25.7732 F   0  0  0  0  0  0
  -30.0375  -13.2657   20.4552 N   0  0  0  0  0  0
  -26.3021  -12.9383   20.3365 N   0  0  0  0  0  0
  -25.9334  -11.6533   20.5770 N   0  0  0  0  0  0
  -22.0488  -12.8243   22.0398 N   0  0  0  0  0  0
  -25.4323  -15.1908   20.4130 N   0  0  0  0  0  0
  -31.9020  -14.5118   20.1068 O   0  0  0  0  0  0
  -21.6643   -6.8891   21.4245 O   0  0  0  0  0  0
  -22.3525  -14.5534   20.6664 O   0  0  0  0  0  0
  -24.6140  -31.8706   23.2139 C   0  0  0  0  0  0
  -25.9051  -32.4826   23.8422 C   0  0  1  0  0  0
  -27.2244  -27.4558   20.0809 C   0  0  0  0  0  0
  -25.5922  -33.8629   24.2350 N   0  0  0  0  0  0
  -23.3976  -30.4978   21.5549 C   0  0  2  0  0  0
  -24.8372  -28.9687   20.1144 C   0  0  0  0  0  0
  -22.7393  -29.4682   22.5017 C   0  0  0  0  0  0
  -18.0271  -28.1384   22.8482 C   0  0  0  0  0  0
  -24.1482  -36.7329   23.2632 C   0  0  0  0  0  0
  -25.9253  -30.8401   21.3639 C   0  0  0  0  0  0
  -25.9969  -29.4778   20.7092 C   0  0  0  0  0  0
  -27.1914  -28.7273   20.6922 C   0  0  0  0  0  0
  -26.0450  -26.9612   19.4724 C   0  0  0  0  0  0
  -24.8543  -27.7078   19.4966 C   0  0  0  0  0  0
  -23.6014  -29.8362   20.1666 C   0  0  0  0  0  0
  -25.4098  -36.3115   24.0333 C   0  0  1  0  0  0
  -20.5853  -28.3662   23.1328 C   0  0  2  0  0  0
  -20.6762  -26.9406   22.5413 C   0  0  0  0  0  0
  -19.5743  -26.6386   21.5208 C   0  0  0  0  0  0
  -18.1920  -26.7934   22.1612 C   0  0  0  0  0  0
  -19.1517  -28.8840   23.2900 C   0  0  0  0  0  0
  -18.9444  -30.1449   23.8903 C   0  0  0  0  0  0
  -17.6447  -30.6586   24.0568 C   0  0  0  0  0  0
  -25.9031  -34.9480   23.5134 C   0  0  0  0  0  0
  -16.5339  -29.9088   23.6329 C   0  0  0  0  0  0
  -16.7260  -28.6512   23.0333 C   0  0  0  0  0  0
  -26.4477  -31.6601   25.0751 C   0  0  0  0  0  0
  -25.3757  -31.3734   26.1520 C   0  0  0  0  0  0
  -27.0279  -30.3028   24.6131 C   0  0  0  0  0  0
  -27.6060  -32.4312   25.7513 C   0  0  0  0  0  0
  -27.5580  -37.1814   24.8461 C   0  0  0  0  0  0
  -21.4127  -29.3039   22.3749 N   0  0  0  0  0  0
  -26.4288  -37.3795   23.9411 N   0  0  0  0  0  0
  -24.6640  -31.0832   22.1027 N   0  0  0  0  0  0
  -23.4180  -28.8228   23.3049 O   0  0  0  0  0  0
  -28.4108  -26.7559   20.1060 O   0  0  0  0  0  0
  -26.5575  -34.8925   22.4685 O   0  0  0  0  0  0
  -23.5340  -32.1463   23.7542 O   0  0  0  0  0  0
  -29.5676  -18.6315   21.5622 C   0  0  0  0  0  0
  -29.3587  -20.0179   21.7035 C   0  0  0  0  0  0
  -29.2369  -20.2436   19.2849 C   0  0  0  0  0  0
  -29.6867  -18.0549   20.2790 C   0  0  0  0  0  0
  -29.4601  -18.8617   19.1354 C   0  0  0  0  0  0
  -29.2534  -20.8423   20.5637 C   0  0  0  0  0  0
  -30.1206  -16.6613   20.1097 C   0  0  0  0  0  0
  -30.0390  -15.6162   20.9605 C   0  0  0  0  0  0
  -29.6606  -23.2107   19.9461 C   0  0  0  0  0  0
  -29.5003  -18.2836   17.7284 C   0  0  0  0  0  0
  -29.5428  -24.6514   20.4390 C   0  0  0  0  0  0
  -28.3885  -25.3771   19.7416 C   0  0  0  0  0  0
  -29.1691  -22.2484   20.7492 N   0  0  0  0  0  0
  -30.2025  -22.9978   18.8582 O   0  0  0  0  0  0
  -31.4536  -12.2999   19.1588 H   0  0  0  0  0  0
  -30.2467  -11.2567   19.8498 H   0  0  0  0  0  0
  -29.7373  -11.7746   17.4344 H   0  0  0  0  0  0
  -29.6877  -13.4829   17.7987 H   0  0  0  0  0  0
  -27.8175  -11.3144   18.8183 H   0  0  0  0  0  0
  -27.3723  -12.6462   17.7850 H   0  0  0  0  0  0
  -27.7009  -14.2617   19.5696 H   0  0  0  0  0  0
  -28.6477  -12.0021   21.3947 H   0  0  0  0  0  0
  -28.4725  -13.6686   21.8500 H   0  0  0  0  0  0
  -25.2789   -9.5688   22.4749 H   0  0  0  0  0  0
  -24.0023   -7.4639   22.7468 H   0  0  0  0  0  0
  -21.0854   -8.8782   19.8956 H   0  0  0  0  0  0
  -22.3715  -10.9681   19.6162 H   0  0  0  0  0  0
  -21.2016   -7.6150   23.9731 H   0  0  0  0  0  0
  -21.1477   -6.0516   25.9084 H   0  0  0  0  0  0
  -22.0601   -2.7616   23.2831 H   0  0  0  0  0  0
  -22.4095  -11.9909   22.4803 H   0  0  0  0  0  0
  -21.1109  -13.1287   22.2602 H   0  0  0  0  0  0
  -24.6790  -15.8564   20.5423 H   0  0  0  0  0  0
  -26.3059  -15.6273   20.1444 H   0  0  0  0  0  0
  -26.7132  -32.5528   23.1193 H   0  0  0  0  0  0
  -25.0101  -33.9800   25.0514 H   0  0  0  0  0  0
  -22.6860  -31.3156   21.4216 H   0  0  0  0  0  0
  -23.3729  -35.9675   23.3289 H   0  0  0  0  0  0
  -24.3591  -36.8946   22.2050 H   0  0  0  0  0  0
  -23.7242  -37.6538   23.6648 H   0  0  0  0  0  0
  -26.0386  -31.6069   20.5963 H   0  0  0  0  0  0
  -26.8141  -30.8887   21.9813 H   0  0  0  0  0  0
  -28.0881  -29.1197   21.1517 H   0  0  0  0  0  0
  -26.0164  -26.0091   18.9636 H   0  0  0  0  0  0
  -23.9633  -27.3119   19.0286 H   0  0  0  0  0  0
  -23.7132  -30.6162   19.4120 H   0  0  0  0  0  0
  -22.7227  -29.2611   19.8686 H   0  0  0  0  0  0
  -25.1264  -36.1982   25.0823 H   0  0  0  0  0  0
  -20.9935  -28.3214   24.1452 H   0  0  0  0  0  0
  -20.5668  -26.2270   23.3592 H   0  0  0  0  0  0
  -21.6635  -26.7463   22.1203 H   0  0  0  0  0  0
  -19.6904  -25.6295   21.1240 H   0  0  0  0  0  0
  -19.6695  -27.3195   20.6738 H   0  0  0  0  0  0
  -17.4197  -26.6690   21.4006 H   0  0  0  0  0  0
  -18.0313  -26.0072   22.9003 H   0  0  0  0  0  0
  -19.7921  -30.7267   24.2265 H   0  0  0  0  0  0
  -17.5004  -31.6267   24.5167 H   0  0  0  0  0  0
  -15.5338  -30.2991   23.7650 H   0  0  0  0  0  0
  -15.8661  -28.0846   22.7020 H   0  0  0  0  0  0
  -24.5927  -30.7058   25.7909 H   0  0  0  0  0  0
  -24.8949  -32.2896   26.4956 H   0  0  0  0  0  0
  -25.8131  -30.8949   27.0289 H   0  0  0  0  0  0
  -26.2817  -29.6821   24.1152 H   0  0  0  0  0  0
  -27.3993  -29.7242   25.4602 H   0  0  0  0  0  0
  -27.8687  -30.4328   23.9311 H   0  0  0  0  0  0
  -27.2677  -33.3595   26.2133 H   0  0  0  0  0  0
  -28.3853  -32.6894   25.0333 H   0  0  0  0  0  0
  -28.0742  -31.8409   26.5400 H   0  0  0  0  0  0
  -28.2597  -38.0109   24.7485 H   0  0  0  0  0  0
  -28.1071  -36.2640   24.6288 H   0  0  0  0  0  0
  -27.2316  -37.1473   25.8870 H   0  0  0  0  0  0
  -20.9282  -29.8794   21.7003 H   0  0  0  0  0  0
  -26.0175  -38.2875   24.1398 H   0  0  0  0  0  0
  -29.7187  -18.0305   22.4479 H   0  0  0  0  0  0
  -29.3413  -20.4504   22.6946 H   0  0  0  0  0  0
  -29.0950  -20.8461   18.3982 H   0  0  0  0  0  0
  -30.6406  -16.4866   19.1766 H   0  0  0  0  0  0
  -29.5250  -15.6758   21.9085 H   0  0  0  0  0  0
  -29.1152  -18.9904   16.9924 H   0  0  0  0  0  0
  -28.8968  -17.3779   17.6613 H   0  0  0  0  0  0
  -30.5239  -18.0368   17.4448 H   0  0  0  0  0  0
  -30.4843  -25.1629   20.2361 H   0  0  0  0  0  0
  -29.4041  -24.6737   21.5201 H   0  0  0  0  0  0
  -27.4697  -24.8797   20.0553 H   0  0  0  0  0  0
  -28.4645  -25.2928   18.6558 H   0  0  0  0  0  0
  -28.8157  -22.5597   21.6439 H   0  0  0  0  0  0
  1 25  1  0  0  0
  1 30  2  0  0  0
  1 78  1  0  0  0
  2  3  1  0  0  0
  2 25  1  0  0  0
  2 85  1  0  0  0
  2 86  1  0  0  0
  3  4  1  0  0  0
  3 87  1  0  0  0
  3 88  1  0  0  0
  4  5  1  0  0  0
  4 89  1  0  0  0
  4 90  1  0  0  0
  5  6  1  0  0  0
  5 26  1  0  0  0
  5 91  1  0  0  0
  6 25  1  0  0  0
  6 92  1  0  0  0
  6 93  1  0  0  0
  7  8  2  0  0  0
  7 26  1  0  0  0
  7 29  1  0  0  0
  8  9  1  0  0  0
  8 22  1  0  0  0
  9 10  1  0  0  0
  9 27  2  0  0  0
 10 11  2  0  0  0
 10 15  1  0  0  0
 11 12  1  0  0  0
 11 94  1  0  0  0
 12 13  2  0  0  0
 12 95  1  0  0  0
 13 14  1  0  0  0
 13 31  1  0  0  0
 14 15  2  0  0  0
 14 96  1  0  0  0
 15 97  1  0  0  0
 16 17  2  0  0  0
 16 21  1  0  0  0
 16 31  1  0  0  0
 17 18  1  0  0  0
 17 98  1  0  0  0
 18 19  2  0  0  0
 18 99  1  0  0  0
 19 20  1  0  0  0
 19 24  1  0  0  0
 20 21  2  0  0  0
 20100  1  0  0  0
 21 23  1  0  0  0
 22 28  1  0  0  0
 22 32  2  0  0  0
 26 27  1  0  0  0
 28101  1  0  0  0
 28102  1  0  0  0
 29103  1  0  0  0
 29104  1  0  0  0
 33 34  1  0  0  0
 33 66  1  0  0  0
 33 70  2  0  0  0
 34 36  1  0  0  0
 34 59  1  0  0  0
 34105  1  0  0  0
 35 44  2  0  0  0
 35 45  1  0  0  0
 35 68  1  0  0  0
 36 56  1  0  0  0
 36106  1  0  0  0
 37 39  1  0  0  0
 37 47  1  0  0  0
 37 66  1  0  0  0
 37107  1  0  0  0
 38 43  2  0  0  0
 38 46  1  0  0  0
 38 47  1  0  0  0
 39 64  1  0  0  0
 39 67  2  0  0  0
 40 52  1  0  0  0
 40 53  2  0  0  0
 40 58  1  0  0  0
 41108  1  0  0  0
 41109  1  0  0  0
 41110  1  0  0  0
 41 48  1  0  0  0
 42 43  1  0  0  0
 42 66  1  0  0  0
 42111  1  0  0  0
 42112  1  0  0  0
 43 44  1  0  0  0
 44113  1  0  0  0
 45 46  2  0  0  0
 45114  1  0  0  0
 46115  1  0  0  0
 47116  1  0  0  0
 47117  1  0  0  0
 48 56  1  0  0  0
 48 65  1  0  0  0
 48118  1  0  0  0
 49 50  1  0  0  0
 49 53  1  0  0  0
 49 64  1  0  0  0
 49119  1  0  0  0
 50 51  1  0  0  0
 50120  1  0  0  0
 50121  1  0  0  0
 51 52  1  0  0  0
 51122  1  0  0  0
 51123  1  0  0  0
 52124  1  0  0  0
 52125  1  0  0  0
 53 54  1  0  0  0
 54 55  2  0  0  0
 54126  1  0  0  0
 55 57  1  0  0  0
 55127  1  0  0  0
 56 69  2  0  0  0
 57 58  2  0  0  0
 57128  1  0  0  0
 58129  1  0  0  0
 59 60  1  0  0  0
 59 61  1  0  0  0
 59 62  1  0  0  0
 60130  1  0  0  0
 60131  1  0  0  0
 60132  1  0  0  0
 61133  1  0  0  0
 61134  1  0  0  0
 61135  1  0  0  0
 62136  1  0  0  0
 62137  1  0  0  0
 62138  1  0  0  0
 63 65  1  0  0  0
 63139  1  0  0  0
 63140  1  0  0  0
 63141  1  0  0  0
 64142  1  0  0  0
 65143  1  0  0  0
 68 82  1  0  0  0
 71 72  2  0  0  0
 71 74  1  0  0  0
 71144  1  0  0  0
 72 76  1  0  0  0
 72145  1  0  0  0
 73 75  1  0  0  0
 73 76  2  0  0  0
 73146  1  0  0  0
 74 75  2  0  0  0
 74 77  1  0  0  0
 75 80  1  0  0  0
 76 83  1  0  0  0
 77 78  2  0  0  0
 77147  1  0  0  0
 78148  1  0  0  0
 79 81  1  0  0  0
 79 83  1  0  0  0
 79 84  2  0  0  0
 80149  1  0  0  0
 80150  1  0  0  0
 80151  1  0  0  0
 81 82  1  0  0  0
 81152  1  0  0  0
 81153  1  0  0  0
 82154  1  0  0  0
 82155  1  0  0  0
 83156  1  0  0  0
M  ISO  4   1 100  68 101  78 100  82 101
M  END
> <chiral flag>
0

> <version>
0

> <s_m_source_file>
/data/baiqing/PycharmProjects/Reinvent-master-3.2/result/LINK_invent/BTK/process_docking_weight1_custom_product_contain_oxygen_bond_distance_aromatic_linkinvent_7_9_3/rearranged_h_0124.sdf

> <i_m_source_file_index>
91

> <r_mmod_Potential_Energy-OPLS-2005>
-56.7167739868164

> <r_mmod_Stretch_Energy-OPLS-2005>
32.2454032897949

> <r_mmod_Bend_Energy-OPLS-2005>
102.818756103516

> <r_mmod_Torsional_Energy-OPLS-2005>
218.325790405273

> <r_mmod_Improper_Torsional_Energy-OPLS-2005>
5.91322708129883

> <r_mmod_Van_der_Waal_Energy-OPLS-2005>
170.3486328125

> <r_mmod_Electrostatic_Energy-OPLS-2005>
-384.662750244141

> <r_mmod_Solvation_Energy-OPLS-2005>
-217.323593139648

> <b_mmod_Minimization_Converged-OPLS-2005>
0

> <r_mmod_RMS_Derivative-OPLS-2005>
1.43455910682678

$$$$
92
                    3D
 Structure written by MMmdl.
157165  0  0  1  0            999 V2000
  -30.6008  -14.7663   20.4549 C   0  0  0  0  0  0
  -30.4556  -12.4745   19.4509 C   0  0  0  0  0  0
  -29.5140  -12.4996   18.2270 C   0  0  0  0  0  0
  -28.0440  -12.3187   18.6525 C   0  0  0  0  0  0
  -27.6485  -13.2261   19.8469 C   0  0  2  0  0  0
  -28.6999  -13.1701   20.9799 C   0  0  0  0  0  0
  -25.2550  -13.8187   20.5643 C   0  0  0  0  0  0
  -24.1840  -13.0467   20.9131 C   0  0  0  0  0  0
  -24.6422  -11.6930   20.8746 C   0  0  0  0  0  0
  -23.9092  -10.4329   21.0435 C   0  0  0  0  0  0
  -24.3634   -9.4246   21.9222 C   0  0  0  0  0  0
  -23.6298   -8.2295   22.0792 C   0  0  0  0  0  0
  -22.4298   -8.0317   21.3545 C   0  0  0  0  0  0
  -21.9919   -9.0317   20.4674 C   0  0  0  0  0  0
  -22.7258  -10.2191   20.3086 C   0  0  0  0  0  0
  -21.6858   -6.0764   22.5271 C   0  0  0  0  0  0
  -21.4034   -6.5651   23.8211 C   0  0  0  0  0  0
  -21.3662   -5.6788   24.9159 C   0  0  0  0  0  0
  -21.6032   -4.3046   24.7199 C   0  0  0  0  0  0
  -21.8829   -3.8155   23.4314 C   0  0  0  0  0  0
  -21.9203   -4.6992   22.3381 C   0  0  0  0  0  0
  -22.7862  -13.5282   21.1762 C   0  0  0  0  0  0
  -22.1664   -4.2181   21.0957 F   0  0  0  0  0  0
  -21.5617   -3.4519   25.7703 F   0  0  0  0  0  0
  -29.9994  -13.5275   20.3870 N   0  0  0  0  0  0
  -26.2992  -12.9393   20.3257 N   0  0  0  0  0  0
  -25.9341  -11.6552   20.5753 N   0  0  0  0  0  0
  -22.0474  -12.8363   22.0352 N   0  0  0  0  0  0
  -25.4145  -15.1941   20.4027 N   0  0  0  0  0  0
  -31.8002  -14.8923   20.1928 O   0  0  0  0  0  0
  -21.6645   -6.8926   21.4243 O   0  0  0  0  0  0
  -22.3585  -14.5587   20.6559 O   0  0  0  0  0  0
  -24.6299  -31.8559   23.2027 C   0  0  0  0  0  0
  -25.9112  -32.4762   23.8366 C   0  0  1  0  0  0
  -27.2393  -27.2535   20.1250 C   0  0  0  0  0  0
  -25.5936  -33.8570   24.2307 N   0  0  0  0  0  0
  -23.4235  -30.4752   21.5487 C   0  0  2  0  0  0
  -24.8746  -28.9203   20.1078 C   0  0  0  0  0  0
  -22.7483  -29.4571   22.4969 C   0  0  0  0  0  0
  -18.0232  -28.1314   22.8503 C   0  0  0  0  0  0
  -24.1455  -36.7297   23.2644 C   0  0  0  0  0  0
  -25.9701  -30.7591   21.3833 C   0  0  0  0  0  0
  -26.0422  -29.3803   20.7281 C   0  0  0  0  0  0
  -27.2144  -28.5567   20.7340 C   0  0  0  0  0  0
  -26.0448  -26.8659   19.4681 C   0  0  0  0  0  0
  -24.8848  -27.6737   19.4627 C   0  0  0  0  0  0
  -23.6400  -29.8104   20.1612 C   0  0  0  0  0  0
  -25.4084  -36.3117   24.0358 C   0  0  1  0  0  0
  -20.5846  -28.3647   23.1280 C   0  0  2  0  0  0
  -20.6721  -26.9362   22.5434 C   0  0  0  0  0  0
  -19.5695  -26.6355   21.5232 C   0  0  0  0  0  0
  -18.1879  -26.7859   22.1629 C   0  0  0  0  0  0
  -19.1483  -28.8797   23.2859 C   0  0  0  0  0  0
  -18.9431  -30.1386   23.8912 C   0  0  0  0  0  0
  -17.6441  -30.6546   24.0555 C   0  0  0  0  0  0
  -25.9049  -34.9467   23.5136 C   0  0  0  0  0  0
  -16.5337  -29.9059   23.6293 C   0  0  0  0  0  0
  -16.7232  -28.6434   23.0380 C   0  0  0  0  0  0
  -26.4463  -31.6603   25.0763 C   0  0  0  0  0  0
  -25.3695  -31.3737   26.1508 C   0  0  0  0  0  0
  -27.0298  -30.3035   24.6209 C   0  0  0  0  0  0
  -27.6020  -32.4362   25.7505 C   0  0  0  0  0  0
  -27.5566  -37.1820   24.8479 C   0  0  0  0  0  0
  -21.4195  -29.3030   22.3750 N   0  0  0  0  0  0
  -26.4265  -37.3817   23.9442 N   0  0  0  0  0  0
  -24.6939  -31.0479   22.1023 N   0  0  0  0  0  0
  -23.4210  -28.8107   23.3053 O   0  0  0  0  0  0
  -28.3677  -26.3878   20.2203 O   0  0  0  0  0  0
  -26.5595  -34.8936   22.4697 O   0  0  0  0  0  0
  -23.5456  -32.1391   23.7325 O   0  0  0  0  0  0
  -29.5023  -20.0128   21.8279 C   0  0  0  0  0  0
  -29.6919  -17.5931   22.2617 C   0  0  0  0  0  0
  -29.6771  -19.8336   20.4403 C   0  0  0  0  0  0
  -29.8422  -18.4400   19.9867 C   0  0  0  0  0  0
  -29.8554  -17.2930   20.8931 C   0  0  0  0  0  0
  -29.5184  -18.9187   22.7177 C   0  0  0  0  0  0
  -29.6808  -21.0752   19.5097 C   0  0  0  0  0  0
  -29.4925  -22.4622   19.4779 C   0  0  0  0  0  0
  -31.4823  -18.1165   18.0969 C   0  0  0  0  0  0
  -30.0035  -18.1328   18.5003 C   0  0  0  0  0  0
  -29.1367  -23.7019   20.4083 C   0  0  0  0  0  0
  -28.4024  -24.9743   19.6840 C   0  0  0  0  0  0
  -29.7402  -15.8534   20.5185 N   0  0  0  0  0  0
  -29.3440  -19.1421   24.0425 F   0  0  0  0  0  0
  -31.4853  -12.6386   19.1252 H   0  0  0  0  0  0
  -30.4391  -11.4977   19.9390 H   0  0  0  0  0  0
  -29.7975  -11.7217   17.5171 H   0  0  0  0  0  0
  -29.6240  -13.4481   17.6993 H   0  0  0  0  0  0
  -27.9094  -11.2705   18.9255 H   0  0  0  0  0  0
  -27.3832  -12.4989   17.8059 H   0  0  0  0  0  0
  -27.6385  -14.2436   19.4566 H   0  0  0  0  0  0
  -28.7414  -12.1799   21.4365 H   0  0  0  0  0  0
  -28.4318  -13.8603   21.7830 H   0  0  0  0  0  0
  -25.2804   -9.5720   22.4764 H   0  0  0  0  0  0
  -23.9994   -7.4720   22.7533 H   0  0  0  0  0  0
  -21.0839   -8.8876   19.8995 H   0  0  0  0  0  0
  -22.3748  -10.9741   19.6189 H   0  0  0  0  0  0
  -21.2036   -7.6162   23.9719 H   0  0  0  0  0  0
  -21.1446   -6.0508   25.9058 H   0  0  0  0  0  0
  -22.0596   -2.7618   23.2787 H   0  0  0  0  0  0
  -22.4047  -12.0059   22.4831 H   0  0  0  0  0  0
  -21.1106  -13.1471   22.2494 H   0  0  0  0  0  0
  -24.6278  -15.8242   20.5115 H   0  0  0  0  0  0
  -26.2391  -15.6572   20.0478 H   0  0  0  0  0  0
  -26.7165  -32.5405   23.1096 H   0  0  0  0  0  0
  -25.0149  -33.9704   25.0500 H   0  0  0  0  0  0
  -22.7174  -31.2979   21.4134 H   0  0  0  0  0  0
  -23.3733  -35.9610   23.3303 H   0  0  0  0  0  0
  -24.3549  -36.8913   22.2060 H   0  0  0  0  0  0
  -23.7151  -37.6484   23.6636 H   0  0  0  0  0  0
  -26.0978  -31.5077   20.6006 H   0  0  0  0  0  0
  -26.8512  -30.8175   22.0096 H   0  0  0  0  0  0
  -28.0963  -28.9006   21.2540 H   0  0  0  0  0  0
  -25.9599  -25.9252   18.9478 H   0  0  0  0  0  0
  -24.0004  -27.3249   18.9466 H   0  0  0  0  0  0
  -23.7543  -30.5951   19.4131 H   0  0  0  0  0  0
  -22.7526  -29.2531   19.8533 H   0  0  0  0  0  0
  -25.1232  -36.1996   25.0841 H   0  0  0  0  0  0
  -20.9900  -28.3175   24.1416 H   0  0  0  0  0  0
  -20.5531  -26.2278   23.3647 H   0  0  0  0  0  0
  -21.6583  -26.7311   22.1251 H   0  0  0  0  0  0
  -19.6818  -25.6271   21.1250 H   0  0  0  0  0  0
  -19.6603  -27.3182   20.6766 H   0  0  0  0  0  0
  -17.4157  -26.6642   21.4008 H   0  0  0  0  0  0
  -18.0224  -25.9979   22.8981 H   0  0  0  0  0  0
  -19.7921  -30.7168   24.2305 H   0  0  0  0  0  0
  -17.4999  -31.6244   24.5157 H   0  0  0  0  0  0
  -15.5334  -30.2958   23.7586 H   0  0  0  0  0  0
  -15.8632  -28.0729   22.7154 H   0  0  0  0  0  0
  -24.5879  -30.7048   25.7886 H   0  0  0  0  0  0
  -24.8856  -32.2885   26.4953 H   0  0  0  0  0  0
  -25.8060  -30.8957   27.0286 H   0  0  0  0  0  0
  -26.2873  -29.6830   24.1179 H   0  0  0  0  0  0
  -27.3937  -29.7248   25.4705 H   0  0  0  0  0  0
  -27.8766  -30.4343   23.9459 H   0  0  0  0  0  0
  -27.2621  -33.3680   26.2027 H   0  0  0  0  0  0
  -28.3819  -32.6906   25.0315 H   0  0  0  0  0  0
  -28.0667  -31.8536   26.5466 H   0  0  0  0  0  0
  -28.2614  -38.0095   24.7522 H   0  0  0  0  0  0
  -28.1032  -36.2635   24.6286 H   0  0  0  0  0  0
  -27.2306  -37.1461   25.8891 H   0  0  0  0  0  0
  -20.9328  -29.8910   21.7127 H   0  0  0  0  0  0
  -26.0165  -38.2897   24.1456 H   0  0  0  0  0  0
  -29.3429  -21.0010   22.2378 H   0  0  0  0  0  0
  -29.6506  -16.7886   22.9830 H   0  0  0  0  0  0
  -29.9690  -20.7675   18.5164 H   0  0  0  0  0  0
  -29.6704  -22.8516   18.4855 H   0  0  0  0  0  0
  -31.9454  -19.0873   18.2820 H   0  0  0  0  0  0
  -31.6057  -17.8775   17.0406 H   0  0  0  0  0  0
  -32.0278  -17.3633   18.6676 H   0  0  0  0  0  0
  -29.4449  -18.8389   17.8854 H   0  0  0  0  0  0
  -29.5606  -17.1639   18.2667 H   0  0  0  0  0  0
  -30.0936  -24.0514   20.8029 H   0  0  0  0  0  0
  -28.5650  -23.3641   21.2706 H   0  0  0  0  0  0
  -27.4030  -24.6108   19.4709 H   0  0  0  0  0  0
  -28.8867  -25.0959   18.7132 H   0  0  0  0  0  0
  -28.7872  -15.5304   20.5504 H   0  0  0  0  0  0
  1 25  1  0  0  0
  1 30  2  0  0  0
  1 83  1  0  0  0
  2  3  1  0  0  0
  2 25  1  0  0  0
  2 85  1  0  0  0
  2 86  1  0  0  0
  3  4  1  0  0  0
  3 87  1  0  0  0
  3 88  1  0  0  0
  4  5  1  0  0  0
  4 89  1  0  0  0
  4 90  1  0  0  0
  5  6  1  0  0  0
  5 26  1  0  0  0
  5 91  1  0  0  0
  6 25  1  0  0  0
  6 92  1  0  0  0
  6 93  1  0  0  0
  7  8  2  0  0  0
  7 26  1  0  0  0
  7 29  1  0  0  0
  8  9  1  0  0  0
  8 22  1  0  0  0
  9 10  1  0  0  0
  9 27  2  0  0  0
 10 11  2  0  0  0
 10 15  1  0  0  0
 11 12  1  0  0  0
 11 94  1  0  0  0
 12 13  2  0  0  0
 12 95  1  0  0  0
 13 14  1  0  0  0
 13 31  1  0  0  0
 14 15  2  0  0  0
 14 96  1  0  0  0
 15 97  1  0  0  0
 16 17  2  0  0  0
 16 21  1  0  0  0
 16 31  1  0  0  0
 17 18  1  0  0  0
 17 98  1  0  0  0
 18 19  2  0  0  0
 18 99  1  0  0  0
 19 20  1  0  0  0
 19 24  1  0  0  0
 20 21  2  0  0  0
 20100  1  0  0  0
 21 23  1  0  0  0
 22 28  1  0  0  0
 22 32  2  0  0  0
 26 27  1  0  0  0
 28101  1  0  0  0
 28102  1  0  0  0
 29103  1  0  0  0
 29104  1  0  0  0
 33 34  1  0  0  0
 33 66  1  0  0  0
 33 70  2  0  0  0
 34 36  1  0  0  0
 34 59  1  0  0  0
 34105  1  0  0  0
 35 44  2  0  0  0
 35 45  1  0  0  0
 35 68  1  0  0  0
 36 56  1  0  0  0
 36106  1  0  0  0
 37 39  1  0  0  0
 37 47  1  0  0  0
 37 66  1  0  0  0
 37107  1  0  0  0
 38 43  2  0  0  0
 38 46  1  0  0  0
 38 47  1  0  0  0
 39 64  1  0  0  0
 39 67  2  0  0  0
 40 52  1  0  0  0
 40 53  2  0  0  0
 40 58  1  0  0  0
 41108  1  0  0  0
 41109  1  0  0  0
 41110  1  0  0  0
 41 48  1  0  0  0
 42 43  1  0  0  0
 42 66  1  0  0  0
 42111  1  0  0  0
 42112  1  0  0  0
 43 44  1  0  0  0
 44113  1  0  0  0
 45 46  2  0  0  0
 45114  1  0  0  0
 46115  1  0  0  0
 47116  1  0  0  0
 47117  1  0  0  0
 48 56  1  0  0  0
 48 65  1  0  0  0
 48118  1  0  0  0
 49 50  1  0  0  0
 49 53  1  0  0  0
 49 64  1  0  0  0
 49119  1  0  0  0
 50 51  1  0  0  0
 50120  1  0  0  0
 50121  1  0  0  0
 51 52  1  0  0  0
 51122  1  0  0  0
 51123  1  0  0  0
 52124  1  0  0  0
 52125  1  0  0  0
 53 54  1  0  0  0
 54 55  2  0  0  0
 54126  1  0  0  0
 55 57  1  0  0  0
 55127  1  0  0  0
 56 69  2  0  0  0
 57 58  2  0  0  0
 57128  1  0  0  0
 58129  1  0  0  0
 59 60  1  0  0  0
 59 61  1  0  0  0
 59 62  1  0  0  0
 60130  1  0  0  0
 60131  1  0  0  0
 60132  1  0  0  0
 61133  1  0  0  0
 61134  1  0  0  0
 61135  1  0  0  0
 62136  1  0  0  0
 62137  1  0  0  0
 62138  1  0  0  0
 63 65  1  0  0  0
 63139  1  0  0  0
 63140  1  0  0  0
 63141  1  0  0  0
 64142  1  0  0  0
 65143  1  0  0  0
 68 82  1  0  0  0
 71 73  2  0  0  0
 71 76  1  0  0  0
 71144  1  0  0  0
 72 75  1  0  0  0
 72 76  2  0  0  0
 72145  1  0  0  0
 73 74  1  0  0  0
 73 77  1  0  0  0
 74 75  2  0  0  0
 74 80  1  0  0  0
 75 83  1  0  0  0
 76 84  1  0  0  0
 77 78  2  0  0  0
 77146  1  0  0  0
 78 81  1  0  0  0
 78147  1  0  0  0
 79 80  1  0  0  0
 79148  1  0  0  0
 79149  1  0  0  0
 79150  1  0  0  0
 80151  1  0  0  0
 80152  1  0  0  0
 81 82  1  0  0  0
 81153  1  0  0  0
 81154  1  0  0  0
 82155  1  0  0  0
 82156  1  0  0  0
 83157  1  0  0  0
M  ISO  4   1 100  68 101  82 101  83 100
M  END
> <chiral flag>
0

> <version>
0

> <s_m_source_file>
/data/baiqing/PycharmProjects/Reinvent-master-3.2/result/LINK_invent/BTK/process_docking_weight1_custom_product_contain_oxygen_bond_distance_aromatic_linkinvent_7_9_3/rearranged_h_0124.sdf

> <i_m_source_file_index>
92

> <r_mmod_Potential_Energy-OPLS-2005>
312.694854736328

> <r_mmod_Stretch_Energy-OPLS-2005>
139.62760925293

> <r_mmod_Bend_Energy-OPLS-2005>
243.361236572266

> <r_mmod_Torsional_Energy-OPLS-2005>
246.718246459961

> <r_mmod_Improper_Torsional_Energy-OPLS-2005>
10.5104398727417

> <r_mmod_Van_der_Waal_Energy-OPLS-2005>
132.503845214844

> <r_mmod_Electrostatic_Energy-OPLS-2005>
-349.552856445312

> <r_mmod_Solvation_Energy-OPLS-2005>
-203.306396484375

> <b_mmod_Minimization_Converged-OPLS-2005>
0

> <r_mmod_RMS_Derivative-OPLS-2005>
5.20642232894897

$$$$
93
                    3D
 Structure written by MMmdl.
157165  0  0  1  0            999 V2000
  -30.7782  -14.4232   20.6517 C   0  0  0  0  0  0
  -30.4095  -12.3129   19.4184 C   0  0  0  0  0  0
  -29.4846  -12.5228   18.2071 C   0  0  0  0  0  0
  -28.0132  -12.3657   18.6268 C   0  0  0  0  0  0
  -27.6624  -13.2135   19.8777 C   0  0  2  0  0  0
  -28.7035  -13.0133   21.0021 C   0  0  0  0  0  0
  -25.2586  -13.8182   20.5688 C   0  0  0  0  0  0
  -24.1832  -13.0459   20.9168 C   0  0  0  0  0  0
  -24.6391  -11.6924   20.8748 C   0  0  0  0  0  0
  -23.9056  -10.4313   21.0418 C   0  0  0  0  0  0
  -24.3609   -9.4224   21.9185 C   0  0  0  0  0  0
  -23.6290   -8.2257   22.0761 C   0  0  0  0  0  0
  -22.4273   -8.0291   21.3553 C   0  0  0  0  0  0
  -21.9910   -9.0269   20.4659 C   0  0  0  0  0  0
  -22.7237  -10.2149   20.3061 C   0  0  0  0  0  0
  -21.6857   -6.0731   22.5276 C   0  0  0  0  0  0
  -21.4022   -6.5641   23.8205 C   0  0  0  0  0  0
  -21.3660   -5.6800   24.9172 C   0  0  0  0  0  0
  -21.6048   -4.3059   24.7229 C   0  0  0  0  0  0
  -21.8813   -3.8143   23.4349 C   0  0  0  0  0  0
  -21.9198   -4.6960   22.3404 C   0  0  0  0  0  0
  -22.7854  -13.5256   21.1831 C   0  0  0  0  0  0
  -22.1657   -4.2137   21.0983 F   0  0  0  0  0  0
  -21.5635   -3.4546   25.7743 F   0  0  0  0  0  0
  -30.0414  -13.2940   20.4541 N   0  0  0  0  0  0
  -26.3033  -12.9362   20.3402 N   0  0  0  0  0  0
  -25.9324  -11.6513   20.5799 N   0  0  0  0  0  0
  -22.0500  -12.8238   22.0385 N   0  0  0  0  0  0
  -25.4349  -15.1888   20.4084 N   0  0  0  0  0  0
  -31.8180  -14.6580   20.0323 O   0  0  0  0  0  0
  -21.6649   -6.8872   21.4236 O   0  0  0  0  0  0
  -22.3529  -14.5574   20.6710 O   0  0  0  0  0  0
  -24.6156  -31.8674   23.2071 C   0  0  0  0  0  0
  -25.9057  -32.4816   23.8374 C   0  0  1  0  0  0
  -27.2310  -27.4204   20.1076 C   0  0  0  0  0  0
  -25.5918  -33.8612   24.2313 N   0  0  0  0  0  0
  -23.4055  -30.4897   21.5474 C   0  0  2  0  0  0
  -24.8555  -28.9556   20.1102 C   0  0  0  0  0  0
  -22.7424  -29.4656   22.4966 C   0  0  0  0  0  0
  -18.0279  -28.1370   22.8473 C   0  0  0  0  0  0
  -24.1489  -36.7308   23.2631 C   0  0  0  0  0  0
  -25.9348  -30.8303   21.3635 C   0  0  0  0  0  0
  -26.0154  -29.4642   20.7091 C   0  0  0  0  0  0
  -27.2110  -28.7048   20.7026 C   0  0  0  0  0  0
  -26.0579  -26.9329   19.4961 C   0  0  0  0  0  0
  -24.8727  -27.6908   19.4967 C   0  0  0  0  0  0
  -23.6160  -29.8210   20.1613 C   0  0  0  0  0  0
  -25.4112  -36.3104   24.0331 C   0  0  1  0  0  0
  -20.5871  -28.3676   23.1302 C   0  0  2  0  0  0
  -20.6785  -26.9399   22.5425 C   0  0  0  0  0  0
  -19.5785  -26.6393   21.5200 C   0  0  0  0  0  0
  -18.1955  -26.7918   22.1604 C   0  0  0  0  0  0
  -19.1524  -28.8835   23.2886 C   0  0  0  0  0  0
  -18.9446  -30.1437   23.8905 C   0  0  0  0  0  0
  -17.6448  -30.6578   24.0543 C   0  0  0  0  0  0
  -25.9040  -34.9469   23.5115 C   0  0  0  0  0  0
  -16.5344  -29.9078   23.6291 C   0  0  0  0  0  0
  -16.7267  -28.6481   23.0345 C   0  0  0  0  0  0
  -26.4483  -31.6593   25.0702 C   0  0  0  0  0  0
  -25.3735  -31.3734   26.1442 C   0  0  0  0  0  0
  -27.0319  -30.3023   24.6106 C   0  0  0  0  0  0
  -27.6054  -32.4306   25.7474 C   0  0  0  0  0  0
  -27.5578  -37.1819   24.8469 C   0  0  0  0  0  0
  -21.4149  -29.3053   22.3712 N   0  0  0  0  0  0
  -26.4300  -37.3786   23.9395 N   0  0  0  0  0  0
  -24.6702  -31.0771   22.0977 N   0  0  0  0  0  0
  -23.4188  -28.8188   23.3003 O   0  0  0  0  0  0
  -28.3583  -26.6244   20.1360 O   0  0  0  0  0  0
  -26.5597  -34.8923   22.4671 O   0  0  0  0  0  0
  -23.5350  -32.1451   23.7453 O   0  0  0  0  0  0
  -29.7625  -18.8625   20.9558 C   0  0  0  0  0  0
  -30.3865  -17.5940   20.9460 C   0  0  0  0  0  0
  -28.4573  -16.6406   22.0511 C   0  0  0  0  0  0
  -28.4901  -19.0689   21.5479 C   0  0  0  0  0  0
  -27.8242  -17.9072   22.0710 C   0  0  0  0  0  0
  -29.7421  -16.4687   21.5043 C   0  0  0  0  0  0
  -28.3508  -21.5956   20.7146 C   0  0  0  0  0  0
  -28.4762  -22.8822   21.1314 C   0  0  0  0  0  0
  -27.9342  -20.4802   21.6177 C   0  0  0  0  0  0
  -26.4247  -17.9372   22.6789 C   0  0  0  0  0  0
  -28.7735  -24.1194   20.2733 C   0  0  0  0  0  0
  -28.2001  -25.4150   20.9134 C   0  0  0  0  0  0
  -27.0664  -20.7891   22.4869 N   0  0  0  0  0  0
  -30.4254  -15.2283   21.6667 N   0  0  0  0  0  0
  -31.4542  -12.3950   19.1153 H   0  0  0  0  0  0
  -30.2999  -11.3008   19.8153 H   0  0  0  0  0  0
  -29.7276  -11.8150   17.4135 H   0  0  0  0  0  0
  -29.6416  -13.5184   17.7888 H   0  0  0  0  0  0
  -27.8392  -11.3106   18.8402 H   0  0  0  0  0  0
  -27.3520  -12.6232   17.7980 H   0  0  0  0  0  0
  -27.7055  -14.2600   19.5743 H   0  0  0  0  0  0
  -28.6677  -11.9913   21.3810 H   0  0  0  0  0  0
  -28.4578  -13.6484   21.8516 H   0  0  0  0  0  0
  -25.2753   -9.5697   22.4752 H   0  0  0  0  0  0
  -24.0007   -7.4643   22.7474 H   0  0  0  0  0  0
  -21.0837   -8.8782   19.8963 H   0  0  0  0  0  0
  -22.3685  -10.9685   19.6166 H   0  0  0  0  0  0
  -21.2003   -7.6145   23.9696 H   0  0  0  0  0  0
  -21.1493   -6.0535   25.9071 H   0  0  0  0  0  0
  -22.0590   -2.7602   23.2858 H   0  0  0  0  0  0
  -22.4138  -11.9903   22.4760 H   0  0  0  0  0  0
  -21.1137  -13.1286   22.2647 H   0  0  0  0  0  0
  -24.6807  -15.8565   20.5198 H   0  0  0  0  0  0
  -26.3081  -15.6203   20.1347 H   0  0  0  0  0  0
  -26.7114  -32.5527   23.1124 H   0  0  0  0  0  0
  -25.0104  -33.9768   25.0484 H   0  0  0  0  0  0
  -22.6946  -31.3066   21.4056 H   0  0  0  0  0  0
  -23.3732  -35.9663   23.3335 H   0  0  0  0  0  0
  -24.3566  -36.8882   22.2034 H   0  0  0  0  0  0
  -23.7266  -37.6533   23.6622 H   0  0  0  0  0  0
  -26.0497  -31.5975   20.5964 H   0  0  0  0  0  0
  -26.8181  -30.8806   21.9888 H   0  0  0  0  0  0
  -28.1040  -29.0866   21.1768 H   0  0  0  0  0  0
  -26.0616  -25.9548   19.0352 H   0  0  0  0  0  0
  -23.9818  -27.2943   19.0287 H   0  0  0  0  0  0
  -23.7263  -30.5954   19.4018 H   0  0  0  0  0  0
  -22.7410  -29.2414   19.8628 H   0  0  0  0  0  0
  -25.1288  -36.1972   25.0826 H   0  0  0  0  0  0
  -20.9938  -28.3262   24.1431 H   0  0  0  0  0  0
  -20.5678  -26.2276   23.3617 H   0  0  0  0  0  0
  -21.6666  -26.7438   22.1243 H   0  0  0  0  0  0
  -19.6953  -25.6307   21.1211 H   0  0  0  0  0  0
  -19.6745  -27.3225   20.6744 H   0  0  0  0  0  0
  -17.4222  -26.6616   21.4017 H   0  0  0  0  0  0
  -18.0388  -26.0088   22.9030 H   0  0  0  0  0  0
  -19.7930  -30.7238   24.2291 H   0  0  0  0  0  0
  -17.4997  -31.6264   24.5138 H   0  0  0  0  0  0
  -15.5345  -30.2984   23.7584 H   0  0  0  0  0  0
  -15.8669  -28.0776   22.7092 H   0  0  0  0  0  0
  -24.5895  -30.7099   25.7773 H   0  0  0  0  0  0
  -24.8948  -32.2913   26.4866 H   0  0  0  0  0  0
  -25.8068  -30.8909   27.0210 H   0  0  0  0  0  0
  -26.2888  -29.6781   24.1128 H   0  0  0  0  0  0
  -27.4034  -29.7265   25.4591 H   0  0  0  0  0  0
  -27.8740  -30.4305   23.9298 H   0  0  0  0  0  0
  -27.2666  -33.3582   26.2096 H   0  0  0  0  0  0
  -28.3855  -32.6902   25.0305 H   0  0  0  0  0  0
  -28.0735  -31.8403   26.5366 H   0  0  0  0  0  0
  -28.2627  -38.0082   24.7465 H   0  0  0  0  0  0
  -28.1037  -36.2613   24.6357 H   0  0  0  0  0  0
  -27.2288  -37.1548   25.8870 H   0  0  0  0  0  0
  -20.9305  -29.8824   21.6978 H   0  0  0  0  0  0
  -26.0195  -38.2869   24.1367 H   0  0  0  0  0  0
  -30.3101  -19.7024   20.5516 H   0  0  0  0  0  0
  -31.3843  -17.5028   20.5374 H   0  0  0  0  0  0
  -27.9585  -15.7929   22.5022 H   0  0  0  0  0  0
  -28.5230  -21.3186   19.6851 H   0  0  0  0  0  0
  -28.3369  -23.0878   22.1843 H   0  0  0  0  0  0
  -26.0106  -16.9328   22.7765 H   0  0  0  0  0  0
  -25.7318  -18.4985   22.0523 H   0  0  0  0  0  0
  -26.4409  -18.3749   23.6772 H   0  0  0  0  0  0
  -28.3458  -23.9709   19.2815 H   0  0  0  0  0  0
  -29.8517  -24.2139   20.1454 H   0  0  0  0  0  0
  -28.7000  -25.5844   21.8673 H   0  0  0  0  0  0
  -27.1541  -25.2316   21.1704 H   0  0  0  0  0  0
  -26.8381  -19.9847   23.0587 H   0  0  0  0  0  0
  -31.2784  -15.3992   22.1805 H   0  0  0  0  0  0
  1 25  1  0  0  0
  1 30  2  0  0  0
  1 84  1  0  0  0
  2  3  1  0  0  0
  2 25  1  0  0  0
  2 85  1  0  0  0
  2 86  1  0  0  0
  3  4  1  0  0  0
  3 87  1  0  0  0
  3 88  1  0  0  0
  4  5  1  0  0  0
  4 89  1  0  0  0
  4 90  1  0  0  0
  5  6  1  0  0  0
  5 26  1  0  0  0
  5 91  1  0  0  0
  6 25  1  0  0  0
  6 92  1  0  0  0
  6 93  1  0  0  0
  7  8  2  0  0  0
  7 26  1  0  0  0
  7 29  1  0  0  0
  8  9  1  0  0  0
  8 22  1  0  0  0
  9 10  1  0  0  0
  9 27  2  0  0  0
 10 11  2  0  0  0
 10 15  1  0  0  0
 11 12  1  0  0  0
 11 94  1  0  0  0
 12 13  2  0  0  0
 12 95  1  0  0  0
 13 14  1  0  0  0
 13 31  1  0  0  0
 14 15  2  0  0  0
 14 96  1  0  0  0
 15 97  1  0  0  0
 16 17  2  0  0  0
 16 21  1  0  0  0
 16 31  1  0  0  0
 17 18  1  0  0  0
 17 98  1  0  0  0
 18 19  2  0  0  0
 18 99  1  0  0  0
 19 20  1  0  0  0
 19 24  1  0  0  0
 20 21  2  0  0  0
 20100  1  0  0  0
 21 23  1  0  0  0
 22 28  1  0  0  0
 22 32  2  0  0  0
 26 27  1  0  0  0
 28101  1  0  0  0
 28102  1  0  0  0
 29103  1  0  0  0
 29104  1  0  0  0
 33 34  1  0  0  0
 33 66  1  0  0  0
 33 70  2  0  0  0
 34 36  1  0  0  0
 34 59  1  0  0  0
 34105  1  0  0  0
 35 44  2  0  0  0
 35 45  1  0  0  0
 35 68  1  0  0  0
 36 56  1  0  0  0
 36106  1  0  0  0
 37 39  1  0  0  0
 37 47  1  0  0  0
 37 66  1  0  0  0
 37107  1  0  0  0
 38 43  2  0  0  0
 38 46  1  0  0  0
 38 47  1  0  0  0
 39 64  1  0  0  0
 39 67  2  0  0  0
 40 52  1  0  0  0
 40 53  2  0  0  0
 40 58  1  0  0  0
 41108  1  0  0  0
 41109  1  0  0  0
 41110  1  0  0  0
 41 48  1  0  0  0
 42 43  1  0  0  0
 42 66  1  0  0  0
 42111  1  0  0  0
 42112  1  0  0  0
 43 44  1  0  0  0
 44113  1  0  0  0
 45 46  2  0  0  0
 45114  1  0  0  0
 46115  1  0  0  0
 47116  1  0  0  0
 47117  1  0  0  0
 48 56  1  0  0  0
 48 65  1  0  0  0
 48118  1  0  0  0
 49 50  1  0  0  0
 49 53  1  0  0  0
 49 64  1  0  0  0
 49119  1  0  0  0
 50 51  1  0  0  0
 50120  1  0  0  0
 50121  1  0  0  0
 51 52  1  0  0  0
 51122  1  0  0  0
 51123  1  0  0  0
 52124  1  0  0  0
 52125  1  0  0  0
 53 54  1  0  0  0
 54 55  2  0  0  0
 54126  1  0  0  0
 55 57  1  0  0  0
 55127  1  0  0  0
 56 69  2  0  0  0
 57 58  2  0  0  0
 57128  1  0  0  0
 58129  1  0  0  0
 59 60  1  0  0  0
 59 61  1  0  0  0
 59 62  1  0  0  0
 60130  1  0  0  0
 60131  1  0  0  0
 60132  1  0  0  0
 61133  1  0  0  0
 61134  1  0  0  0
 61135  1  0  0  0
 62136  1  0  0  0
 62137  1  0  0  0
 62138  1  0  0  0
 63 65  1  0  0  0
 63139  1  0  0  0
 63140  1  0  0  0
 63141  1  0  0  0
 64142  1  0  0  0
 65143  1  0  0  0
 68 82  1  0  0  0
 71 72  2  0  0  0
 71 74  1  0  0  0
 71144  1  0  0  0
 72 76  1  0  0  0
 72145  1  0  0  0
 73 75  1  0  0  0
 73 76  2  0  0  0
 73146  1  0  0  0
 74 75  2  0  0  0
 74 79  1  0  0  0
 75 80  1  0  0  0
 76 84  1  0  0  0
 77 78  2  0  0  0
 77 79  1  0  0  0
 77147  1  0  0  0
 78 81  1  0  0  0
 78148  1  0  0  0
 79 83  2  0  0  0
 80149  1  0  0  0
 80150  1  0  0  0
 80151  1  0  0  0
 81 82  1  0  0  0
 81152  1  0  0  0
 81153  1  0  0  0
 82154  1  0  0  0
 82155  1  0  0  0
 83156  1  0  0  0
 84157  1  0  0  0
M  ISO  4   1 100  68 101  82 101  84 100
M  END
> <chiral flag>
0

> <version>
0

> <s_m_source_file>
/data/baiqing/PycharmProjects/Reinvent-master-3.2/result/LINK_invent/BTK/process_docking_weight1_custom_product_contain_oxygen_bond_distance_aromatic_linkinvent_7_9_3/rearranged_h_0124.sdf

> <i_m_source_file_index>
93

> <r_mmod_Potential_Energy-OPLS-2005>
71.3531036376953

> <r_mmod_Stretch_Energy-OPLS-2005>
44.8826370239258

> <r_mmod_Bend_Energy-OPLS-2005>
114.607551574707

> <r_mmod_Torsional_Energy-OPLS-2005>
307.801422119141

> <r_mmod_Improper_Torsional_Energy-OPLS-2005>
9.33695411682129

> <r_mmod_Van_der_Waal_Energy-OPLS-2005>
153.258438110352

> <r_mmod_Electrostatic_Energy-OPLS-2005>
-373.671752929688

> <r_mmod_Solvation_Energy-OPLS-2005>
-197.745681762695

> <b_mmod_Minimization_Converged-OPLS-2005>
0

> <r_mmod_RMS_Derivative-OPLS-2005>
2.46804189682007

$$$$
94
                    3D
 Structure written by MMmdl.
154162  0  0  1  0            999 V2000
  -30.5452  -14.9008   20.4380 C   0  0  0  0  0  0
  -30.4420  -12.5556   19.4835 C   0  0  0  0  0  0
  -29.5171  -12.5520   18.2438 C   0  0  0  0  0  0
  -28.0478  -12.3367   18.6566 C   0  0  0  0  0  0
  -27.6359  -13.2426   19.8467 C   0  0  2  0  0  0
  -28.6847  -13.2207   20.9799 C   0  0  0  0  0  0
  -25.2470  -13.8168   20.5702 C   0  0  0  0  0  0
  -24.1774  -13.0392   20.9216 C   0  0  0  0  0  0
  -24.6400  -11.6886   20.8737 C   0  0  0  0  0  0
  -23.9091  -10.4258   21.0393 C   0  0  0  0  0  0
  -24.3629   -9.4176   21.9185 C   0  0  0  0  0  0
  -23.6291   -8.2219   22.0746 C   0  0  0  0  0  0
  -22.4277   -8.0259   21.3529 C   0  0  0  0  0  0
  -21.9928   -9.0229   20.4627 C   0  0  0  0  0  0
  -22.7265  -10.2103   20.3044 C   0  0  0  0  0  0
  -21.6844   -6.0726   22.5282 C   0  0  0  0  0  0
  -21.4001   -6.5620   23.8215 C   0  0  0  0  0  0
  -21.3670   -5.6774   24.9177 C   0  0  0  0  0  0
  -21.6051   -4.3038   24.7222 C   0  0  0  0  0  0
  -21.8807   -3.8133   23.4341 C   0  0  0  0  0  0
  -21.9182   -4.6956   22.3397 C   0  0  0  0  0  0
  -22.7795  -13.5180   21.1865 C   0  0  0  0  0  0
  -22.1645   -4.2148   21.0973 F   0  0  0  0  0  0
  -21.5652   -3.4522   25.7737 F   0  0  0  0  0  0
  -29.9712  -13.6325   20.3972 N   0  0  0  0  0  0
  -26.2914  -12.9409   20.3290 N   0  0  0  0  0  0
  -25.9345  -11.6532   20.5745 N   0  0  0  0  0  0
  -22.0435  -12.8171   22.0413 N   0  0  0  0  0  0
  -25.4115  -15.1893   20.4133 N   0  0  0  0  0  0
  -31.7330  -15.0114   20.1157 O   0  0  0  0  0  0
  -21.6621   -6.8875   21.4249 O   0  0  0  0  0  0
  -22.3479  -14.5481   20.6704 O   0  0  0  0  0  0
  -24.6370  -31.8507   23.1972 C   0  0  0  0  0  0
  -25.9160  -32.4741   23.8352 C   0  0  1  0  0  0
  -27.2120  -27.1633   20.1557 C   0  0  0  0  0  0
  -25.5946  -33.8553   24.2272 N   0  0  0  0  0  0
  -23.4407  -30.4723   21.5395 C   0  0  2  0  0  0
  -24.8918  -28.9097   20.1112 C   0  0  0  0  0  0
  -22.7541  -29.4582   22.4881 C   0  0  0  0  0  0
  -18.0292  -28.1414   22.8497 C   0  0  0  0  0  0
  -24.1475  -36.7230   23.2651 C   0  0  0  0  0  0
  -25.9964  -30.7281   21.3999 C   0  0  0  0  0  0
  -26.0659  -29.3437   20.7397 C   0  0  0  0  0  0
  -27.2225  -28.4815   20.7580 C   0  0  0  0  0  0
  -26.0184  -26.8394   19.4683 C   0  0  0  0  0  0
  -24.8786  -27.6672   19.4655 C   0  0  0  0  0  0
  -23.6682  -29.8092   20.1564 C   0  0  0  0  0  0
  -25.4117  -36.3060   24.0338 C   0  0  1  0  0  0
  -20.5904  -28.3735   23.1260 C   0  0  2  0  0  0
  -20.6790  -26.9448   22.5417 C   0  0  0  0  0  0
  -19.5752  -26.6401   21.5240 C   0  0  0  0  0  0
  -18.1922  -26.7968   22.1625 C   0  0  0  0  0  0
  -19.1541  -28.8894   23.2873 C   0  0  0  0  0  0
  -18.9463  -30.1500   23.8895 C   0  0  0  0  0  0
  -17.6453  -30.6622   24.0572 C   0  0  0  0  0  0
  -25.9064  -34.9430   23.5109 C   0  0  0  0  0  0
  -16.5349  -29.9109   23.6365 C   0  0  0  0  0  0
  -16.7271  -28.6524   23.0392 C   0  0  0  0  0  0
  -26.4511  -31.6592   25.0766 C   0  0  0  0  0  0
  -25.3725  -31.3713   26.1472 C   0  0  0  0  0  0
  -27.0388  -30.3009   24.6314 C   0  0  0  0  0  0
  -27.6055  -32.4364   25.7524 C   0  0  0  0  0  0
  -27.5573  -37.1778   24.8477 C   0  0  0  0  0  0
  -21.4227  -29.3070   22.3634 N   0  0  0  0  0  0
  -26.4283  -37.3767   23.9423 N   0  0  0  0  0  0
  -24.7103  -31.0383   22.0996 N   0  0  0  0  0  0
  -23.4201  -28.8120   23.3005 O   0  0  0  0  0  0
  -28.2552  -26.1748   20.2568 O   0  0  0  0  0  0
  -26.5626  -34.8904   22.4671 O   0  0  0  0  0  0
  -23.5498  -32.1375   23.7192 O   0  0  0  0  0  0
  -28.6552  -19.5409   19.3152 C   0  0  0  0  0  0
  -30.2622  -18.5487   21.3122 C   0  0  0  0  0  0
  -29.1564  -20.5674   20.1792 C   0  0  0  0  0  0
  -28.9019  -18.1195   19.4307 C   0  0  0  0  0  0
  -30.0068  -19.9884   21.1896 C   0  0  0  0  0  0
  -29.7201  -17.5275   20.4462 C   0  0  0  0  0  0
  -28.6799  -22.0723   19.9118 C   0  0  0  0  0  0
  -28.7286  -23.3684   20.4687 C   0  0  0  0  0  0
  -28.2084  -17.2163   18.4313 C   0  0  0  0  0  0
  -30.6659  -20.9261   22.1858 C   0  0  0  0  0  0
  -27.9674  -24.7004   19.9013 C   0  0  0  0  0  0
  -29.7173  -16.0170   20.6969 N   0  0  0  0  0  0
  -31.4777  -12.7040   19.1764 H   0  0  0  0  0  0
  -30.4156  -11.5867   19.9842 H   0  0  0  0  0  0
  -29.8270  -11.7821   17.5364 H   0  0  0  0  0  0
  -29.6102  -13.5034   17.7184 H   0  0  0  0  0  0
  -27.9315  -11.2893   18.9352 H   0  0  0  0  0  0
  -27.3858  -12.5030   17.8049 H   0  0  0  0  0  0
  -27.6126  -14.2561   19.4481 H   0  0  0  0  0  0
  -28.7575  -12.2238   21.4178 H   0  0  0  0  0  0
  -28.3937  -13.8915   21.7904 H   0  0  0  0  0  0
  -25.2772   -9.5637   22.4771 H   0  0  0  0  0  0
  -23.9994   -7.4599   22.7454 H   0  0  0  0  0  0
  -21.0873   -8.8730   19.8921 H   0  0  0  0  0  0
  -22.3728  -10.9633   19.6131 H   0  0  0  0  0  0
  -21.1968   -7.6119   23.9730 H   0  0  0  0  0  0
  -21.1520   -6.0492   25.9089 H   0  0  0  0  0  0
  -22.0579   -2.7601   23.2831 H   0  0  0  0  0  0
  -22.4043  -11.9856   22.4855 H   0  0  0  0  0  0
  -21.1038  -13.1168   22.2555 H   0  0  0  0  0  0
  -24.6364  -15.8371   20.5106 H   0  0  0  0  0  0
  -26.2542  -15.6338   20.0769 H   0  0  0  0  0  0
  -26.7210  -32.5369   23.1069 H   0  0  0  0  0  0
  -25.0183  -33.9717   25.0482 H   0  0  0  0  0  0
  -22.7409  -31.2973   21.3887 H   0  0  0  0  0  0
  -23.3792  -35.9503   23.3294 H   0  0  0  0  0  0
  -24.3576  -36.8875   22.2071 H   0  0  0  0  0  0
  -23.7150  -37.6386   23.6694 H   0  0  0  0  0  0
  -26.1583  -31.4864   20.6330 H   0  0  0  0  0  0
  -26.8647  -30.7732   22.0453 H   0  0  0  0  0  0
  -28.1049  -28.7978   21.2959 H   0  0  0  0  0  0
  -25.9186  -25.9025   18.9434 H   0  0  0  0  0  0
  -23.9819  -27.3306   18.9632 H   0  0  0  0  0  0
  -23.8051  -30.5892   19.4064 H   0  0  0  0  0  0
  -22.7845  -29.2509   19.8411 H   0  0  0  0  0  0
  -25.1296  -36.1908   25.0829 H   0  0  0  0  0  0
  -20.9988  -28.3329   24.1381 H   0  0  0  0  0  0
  -20.5741  -26.2340   23.3629 H   0  0  0  0  0  0
  -21.6654  -26.7508   22.1168 H   0  0  0  0  0  0
  -19.6924  -25.6304   21.1289 H   0  0  0  0  0  0
  -19.6706  -27.3212   20.6768 H   0  0  0  0  0  0
  -17.4212  -26.6768   21.3997 H   0  0  0  0  0  0
  -18.0275  -26.0098   22.8992 H   0  0  0  0  0  0
  -19.7933  -30.7337   24.2249 H   0  0  0  0  0  0
  -17.5005  -31.6306   24.5154 H   0  0  0  0  0  0
  -15.5356  -30.3007   23.7712 H   0  0  0  0  0  0
  -15.8658  -28.0845   22.7131 H   0  0  0  0  0  0
  -24.5911  -30.7062   25.7773 H   0  0  0  0  0  0
  -24.8906  -32.2856   26.4945 H   0  0  0  0  0  0
  -25.8042  -30.8846   27.0228 H   0  0  0  0  0  0
  -26.2996  -29.6736   24.1321 H   0  0  0  0  0  0
  -27.4020  -29.7304   25.4871 H   0  0  0  0  0  0
  -27.8900  -30.4292   23.9629 H   0  0  0  0  0  0
  -27.2689  -33.3738   26.1976 H   0  0  0  0  0  0
  -28.3915  -32.6810   25.0363 H   0  0  0  0  0  0
  -28.0653  -31.8561   26.5535 H   0  0  0  0  0  0
  -28.2572  -38.0091   24.7572 H   0  0  0  0  0  0
  -28.1082  -36.2627   24.6253 H   0  0  0  0  0  0
  -27.2296  -37.1365   25.8878 H   0  0  0  0  0  0
  -20.9424  -29.8773   21.6816 H   0  0  0  0  0  0
  -26.0155  -38.2830   24.1449 H   0  0  0  0  0  0
  -28.0042  -19.8601   18.5138 H   0  0  0  0  0  0
  -30.8712  -18.2188   22.1417 H   0  0  0  0  0  0
  -28.1066  -22.1004   18.9949 H   0  0  0  0  0  0
  -29.2592  -23.5111   21.3984 H   0  0  0  0  0  0
  -27.8256  -17.7870   17.5848 H   0  0  0  0  0  0
  -27.3676  -16.7119   18.9043 H   0  0  0  0  0  0
  -28.8977  -16.4681   18.0399 H   0  0  0  0  0  0
  -31.3475  -20.3945   22.8507 H   0  0  0  0  0  0
  -29.9168  -21.4237   22.8022 H   0  0  0  0  0  0
  -31.2389  -21.6931   21.6615 H   0  0  0  0  0  0
  -26.9387  -24.5010   20.2041 H   0  0  0  0  0  0
  -27.9737  -24.6326   18.8122 H   0  0  0  0  0  0
  -28.7960  -15.6829   20.9319 H   0  0  0  0  0  0
  1 25  1  0  0  0
  1 30  2  0  0  0
  1 82  1  0  0  0
  2  3  1  0  0  0
  2 25  1  0  0  0
  2 83  1  0  0  0
  2 84  1  0  0  0
  3  4  1  0  0  0
  3 85  1  0  0  0
  3 86  1  0  0  0
  4  5  1  0  0  0
  4 87  1  0  0  0
  4 88  1  0  0  0
  5  6  1  0  0  0
  5 26  1  0  0  0
  5 89  1  0  0  0
  6 25  1  0  0  0
  6 90  1  0  0  0
  6 91  1  0  0  0
  7  8  2  0  0  0
  7 26  1  0  0  0
  7 29  1  0  0  0
  8  9  1  0  0  0
  8 22  1  0  0  0
  9 10  1  0  0  0
  9 27  2  0  0  0
 10 11  2  0  0  0
 10 15  1  0  0  0
 11 12  1  0  0  0
 11 92  1  0  0  0
 12 13  2  0  0  0
 12 93  1  0  0  0
 13 14  1  0  0  0
 13 31  1  0  0  0
 14 15  2  0  0  0
 14 94  1  0  0  0
 15 95  1  0  0  0
 16 17  2  0  0  0
 16 21  1  0  0  0
 16 31  1  0  0  0
 17 18  1  0  0  0
 17 96  1  0  0  0
 18 19  2  0  0  0
 18 97  1  0  0  0
 19 20  1  0  0  0
 19 24  1  0  0  0
 20 21  2  0  0  0
 20 98  1  0  0  0
 21 23  1  0  0  0
 22 28  1  0  0  0
 22 32  2  0  0  0
 26 27  1  0  0  0
 28 99  1  0  0  0
 28100  1  0  0  0
 29101  1  0  0  0
 29102  1  0  0  0
 33 34  1  0  0  0
 33 66  1  0  0  0
 33 70  2  0  0  0
 34 36  1  0  0  0
 34 59  1  0  0  0
 34103  1  0  0  0
 35 44  2  0  0  0
 35 45  1  0  0  0
 35 68  1  0  0  0
 36 56  1  0  0  0
 36104  1  0  0  0
 37 39  1  0  0  0
 37 47  1  0  0  0
 37 66  1  0  0  0
 37105  1  0  0  0
 38 43  2  0  0  0
 38 46  1  0  0  0
 38 47  1  0  0  0
 39 64  1  0  0  0
 39 67  2  0  0  0
 40 52  1  0  0  0
 40 53  2  0  0  0
 40 58  1  0  0  0
 41106  1  0  0  0
 41107  1  0  0  0
 41108  1  0  0  0
 41 48  1  0  0  0
 42 43  1  0  0  0
 42 66  1  0  0  0
 42109  1  0  0  0
 42110  1  0  0  0
 43 44  1  0  0  0
 44111  1  0  0  0
 45 46  2  0  0  0
 45112  1  0  0  0
 46113  1  0  0  0
 47114  1  0  0  0
 47115  1  0  0  0
 48 56  1  0  0  0
 48 65  1  0  0  0
 48116  1  0  0  0
 49 50  1  0  0  0
 49 53  1  0  0  0
 49 64  1  0  0  0
 49117  1  0  0  0
 50 51  1  0  0  0
 50118  1  0  0  0
 50119  1  0  0  0
 51 52  1  0  0  0
 51120  1  0  0  0
 51121  1  0  0  0
 52122  1  0  0  0
 52123  1  0  0  0
 53 54  1  0  0  0
 54 55  2  0  0  0
 54124  1  0  0  0
 55 57  1  0  0  0
 55125  1  0  0  0
 56 69  2  0  0  0
 57 58  2  0  0  0
 57126  1  0  0  0
 58127  1  0  0  0
 59 60  1  0  0  0
 59 61  1  0  0  0
 59 62  1  0  0  0
 60128  1  0  0  0
 60129  1  0  0  0
 60130  1  0  0  0
 61131  1  0  0  0
 61132  1  0  0  0
 61133  1  0  0  0
 62134  1  0  0  0
 62135  1  0  0  0
 62136  1  0  0  0
 63 65  1  0  0  0
 63137  1  0  0  0
 63138  1  0  0  0
 63139  1  0  0  0
 64140  1  0  0  0
 65141  1  0  0  0
 68 81  1  0  0  0
 71 73  2  0  0  0
 71 74  1  0  0  0
 71142  1  0  0  0
 72 75  2  0  0  0
 72 76  1  0  0  0
 72143  1  0  0  0
 73 75  1  0  0  0
 73 77  1  0  0  0
 74 76  2  0  0  0
 74 79  1  0  0  0
 75 80  1  0  0  0
 76 82  1  0  0  0
 77 78  2  0  0  0
 77144  1  0  0  0
 78 81  1  0  0  0
 78145  1  0  0  0
 79146  1  0  0  0
 79147  1  0  0  0
 79148  1  0  0  0
 80149  1  0  0  0
 80150  1  0  0  0
 80151  1  0  0  0
 81152  1  0  0  0
 81153  1  0  0  0
 82154  1  0  0  0
M  ISO  4   1 100  68 101  81 101  82 100
M  END
> <chiral flag>
0

> <version>
0

> <s_m_source_file>
/data/baiqing/PycharmProjects/Reinvent-master-3.2/result/LINK_invent/BTK/process_docking_weight1_custom_product_contain_oxygen_bond_distance_aromatic_linkinvent_7_9_3/rearranged_h_0124.sdf

> <i_m_source_file_index>
94

> <r_mmod_Potential_Energy-OPLS-2005>
410.012451171875

> <r_mmod_Stretch_Energy-OPLS-2005>
203.524948120117

> <r_mmod_Bend_Energy-OPLS-2005>
249.278900146484

> <r_mmod_Torsional_Energy-OPLS-2005>
245.123641967773

> <r_mmod_Improper_Torsional_Energy-OPLS-2005>
6.82344436645508

> <r_mmod_Van_der_Waal_Energy-OPLS-2005>
133.788848876953

> <r_mmod_Electrostatic_Energy-OPLS-2005>
-385.307281494141

> <r_mmod_Solvation_Energy-OPLS-2005>
-210.113754272461

> <b_mmod_Minimization_Converged-OPLS-2005>
0

> <r_mmod_RMS_Derivative-OPLS-2005>
2.72032022476196

$$$$
95
                    3D
 Structure written by MMmdl.
159167  0  0  1  0            999 V2000
  -30.6822  -14.6088   20.4734 C   0  0  0  0  0  0
  -30.4176  -12.3645   19.4637 C   0  0  0  0  0  0
  -29.5049  -12.4921   18.2252 C   0  0  0  0  0  0
  -28.0262  -12.3453   18.6325 C   0  0  0  0  0  0
  -27.6481  -13.2245   19.8558 C   0  0  2  0  0  0
  -28.6911  -13.1069   20.9881 C   0  0  0  0  0  0
  -25.2538  -13.8198   20.5690 C   0  0  0  0  0  0
  -24.1814  -13.0463   20.9180 C   0  0  0  0  0  0
  -24.6386  -11.6928   20.8737 C   0  0  0  0  0  0
  -23.9065  -10.4313   21.0404 C   0  0  0  0  0  0
  -24.3624   -9.4242   21.9191 C   0  0  0  0  0  0
  -23.6308   -8.2272   22.0764 C   0  0  0  0  0  0
  -22.4295   -8.0292   21.3558 C   0  0  0  0  0  0
  -21.9912   -9.0255   20.4661 C   0  0  0  0  0  0
  -22.7223  -10.2146   20.3063 C   0  0  0  0  0  0
  -21.6879   -6.0744   22.5288 C   0  0  0  0  0  0
  -21.4030   -6.5645   23.8219 C   0  0  0  0  0  0
  -21.3656   -5.6793   24.9181 C   0  0  0  0  0  0
  -21.6040   -4.3059   24.7238 C   0  0  0  0  0  0
  -21.8822   -3.8156   23.4359 C   0  0  0  0  0  0
  -21.9203   -4.6971   22.3410 C   0  0  0  0  0  0
  -22.7834  -13.5258   21.1834 C   0  0  0  0  0  0
  -22.1665   -4.2165   21.0992 F   0  0  0  0  0  0
  -21.5629   -3.4528   25.7745 F   0  0  0  0  0  0
  -30.0112  -13.4134   20.4238 N   0  0  0  0  0  0
  -26.2962  -12.9385   20.3296 N   0  0  0  0  0  0
  -25.9323  -11.6527   20.5769 N   0  0  0  0  0  0
  -22.0473  -12.8264   22.0391 N   0  0  0  0  0  0
  -25.4249  -15.1929   20.4128 N   0  0  0  0  0  0
  -31.8681  -14.6513   20.1343 O   0  0  0  0  0  0
  -21.6667   -6.8879   21.4252 O   0  0  0  0  0  0
  -22.3517  -14.5560   20.6674 O   0  0  0  0  0  0
  -24.6247  -31.8664   23.2101 C   0  0  0  0  0  0
  -25.9124  -32.4800   23.8397 C   0  0  1  0  0  0
  -27.1964  -27.3274   20.0821 C   0  0  0  0  0  0
  -25.5962  -33.8600   24.2322 N   0  0  0  0  0  0
  -23.4126  -30.4979   21.5553 C   0  0  2  0  0  0
  -24.8495  -28.9691   20.1086 C   0  0  0  0  0  0
  -22.7457  -29.4678   22.4977 C   0  0  0  0  0  0
  -18.0289  -28.1366   22.8501 C   0  0  0  0  0  0
  -24.1487  -36.7285   23.2633 C   0  0  0  0  0  0
  -25.9596  -30.7901   21.3898 C   0  0  0  0  0  0
  -26.0225  -29.4230   20.7238 C   0  0  0  0  0  0
  -27.1951  -28.6089   20.7170 C   0  0  0  0  0  0
  -25.9990  -26.9535   19.4191 C   0  0  0  0  0  0
  -24.8401  -27.7374   19.4526 C   0  0  0  0  0  0
  -23.6187  -29.8470   20.1660 C   0  0  0  0  0  0
  -25.4113  -36.3095   24.0333 C   0  0  1  0  0  0
  -20.5885  -28.3673   23.1283 C   0  0  2  0  0  0
  -20.6777  -26.9398   22.5400 C   0  0  0  0  0  0
  -19.5740  -26.6371   21.5212 C   0  0  0  0  0  0
  -18.1924  -26.7914   22.1629 C   0  0  0  0  0  0
  -19.1543  -28.8836   23.2887 C   0  0  0  0  0  0
  -18.9469  -30.1439   23.8897 C   0  0  0  0  0  0
  -17.6467  -30.6575   24.0552 C   0  0  0  0  0  0
  -25.9066  -34.9463   23.5128 C   0  0  0  0  0  0
  -16.5357  -29.9071   23.6327 C   0  0  0  0  0  0
  -16.7277  -28.6479   23.0373 C   0  0  0  0  0  0
  -26.4511  -31.6584   25.0749 C   0  0  0  0  0  0
  -25.3750  -31.3729   26.1479 C   0  0  0  0  0  0
  -27.0352  -30.2995   24.6219 C   0  0  0  0  0  0
  -27.6058  -32.4334   25.7521 C   0  0  0  0  0  0
  -27.5592  -37.1784   24.8458 C   0  0  0  0  0  0
  -21.4177  -29.3048   22.3700 N   0  0  0  0  0  0
  -26.4293  -37.3786   23.9427 N   0  0  0  0  0  0
  -24.6842  -31.0686   22.1062 N   0  0  0  0  0  0
  -23.4209  -28.8207   23.3025 O   0  0  0  0  0  0
  -28.3016  -26.4536   20.1360 O   0  0  0  0  0  0
  -26.5620  -34.8918   22.4689 O   0  0  0  0  0  0
  -23.5423  -32.1495   23.7425 O   0  0  0  0  0  0
  -28.6348  -18.8398   20.8526 C   0  0  0  0  0  0
  -30.3427  -20.9569   20.1845 C   0  0  0  0  0  0
  -29.9790  -18.5134   20.5484 C   0  0  0  0  0  0
  -28.9809  -21.2650   20.3897 C   0  0  0  0  0  0
  -30.8355  -19.6217   20.2566 C   0  0  0  0  0  0
  -28.1450  -20.1800   20.7903 C   0  0  0  0  0  0
  -30.4963  -17.0856   20.4896 C   0  0  0  0  0  0
  -28.4138  -22.6416   20.1149 C   0  0  0  0  0  0
  -29.9090  -15.8639   20.7107 C   0  0  0  0  0  0
  -28.9592  -23.8971   20.0668 C   0  0  0  0  0  0
  -32.3186  -19.4107   19.9883 C   0  0  0  0  0  0
  -26.6879  -20.4293   21.1453 C   0  0  0  0  0  0
  -28.4770  -25.2668   18.0138 C   0  0  0  0  0  0
  -28.1672  -25.1186   19.5129 C   0  0  2  0  0  0
  -31.4642  -12.4421   19.1653 H   0  0  0  0  0  0
  -30.3139  -11.3770   19.9151 H   0  0  0  0  0  0
  -29.7618  -11.7343   17.4818 H   0  0  0  0  0  0
  -29.6637  -13.4586   17.7456 H   0  0  0  0  0  0
  -27.8596  -11.2942   18.8685 H   0  0  0  0  0  0
  -27.3756  -12.5737   17.7872 H   0  0  0  0  0  0
  -27.6580  -14.2549   19.5044 H   0  0  0  0  0  0
  -28.6901  -12.0982   21.4041 H   0  0  0  0  0  0
  -28.4492  -13.7730   21.8170 H   0  0  0  0  0  0
  -25.2777   -9.5742   22.4753 H   0  0  0  0  0  0
  -24.0045   -7.4678   22.7478 H   0  0  0  0  0  0
  -21.0837   -8.8745   19.8977 H   0  0  0  0  0  0
  -22.3656  -10.9671   19.6174 H   0  0  0  0  0  0
  -21.2026   -7.6153   23.9723 H   0  0  0  0  0  0
  -21.1466   -6.0530   25.9076 H   0  0  0  0  0  0
  -22.0605   -2.7624   23.2858 H   0  0  0  0  0  0
  -22.4085  -11.9949   22.4823 H   0  0  0  0  0  0
  -21.1094  -13.1308   22.2570 H   0  0  0  0  0  0
  -24.6572  -15.8474   20.5177 H   0  0  0  0  0  0
  -26.2795  -15.6349   20.0993 H   0  0  0  0  0  0
  -26.7181  -32.5447   23.1123 H   0  0  0  0  0  0
  -25.0100  -33.9760   25.0462 H   0  0  0  0  0  0
  -22.7044  -31.3192   21.4241 H   0  0  0  0  0  0
  -23.3773  -35.9590   23.3268 H   0  0  0  0  0  0
  -24.3591  -36.8934   22.2054 H   0  0  0  0  0  0
  -23.7198  -37.6463   23.6667 H   0  0  0  0  0  0
  -26.1097  -31.5585   20.6297 H   0  0  0  0  0  0
  -26.8343  -30.8212   22.0280 H   0  0  0  0  0  0
  -28.0873  -28.9489   21.2224 H   0  0  0  0  0  0
  -25.8895  -26.0498   18.8424 H   0  0  0  0  0  0
  -23.9468  -27.3948   18.9488 H   0  0  0  0  0  0
  -23.7256  -30.6295   19.4134 H   0  0  0  0  0  0
  -22.7365  -29.2748   19.8694 H   0  0  0  0  0  0
  -25.1280  -36.1959   25.0822 H   0  0  0  0  0  0
  -20.9991  -28.3246   24.1396 H   0  0  0  0  0  0
  -20.5687  -26.2291   23.3607 H   0  0  0  0  0  0
  -21.6645  -26.7432   22.1182 H   0  0  0  0  0  0
  -19.6898  -25.6287   21.1231 H   0  0  0  0  0  0
  -19.6662  -27.3195   20.6753 H   0  0  0  0  0  0
  -17.4198  -26.6690   21.4023 H   0  0  0  0  0  0
  -18.0305  -26.0040   22.9007 H   0  0  0  0  0  0
  -19.7945  -30.7256   24.2270 H   0  0  0  0  0  0
  -17.5020  -31.6263   24.5135 H   0  0  0  0  0  0
  -15.5356  -30.2972   23.7635 H   0  0  0  0  0  0
  -15.8682  -28.0777   22.7114 H   0  0  0  0  0  0
  -24.5865  -30.7162   25.7793 H   0  0  0  0  0  0
  -24.9025  -32.2909   26.4974 H   0  0  0  0  0  0
  -25.8063  -30.8822   27.0208 H   0  0  0  0  0  0
  -26.2933  -29.6747   24.1229 H   0  0  0  0  0  0
  -27.4021  -29.7247   25.4730 H   0  0  0  0  0  0
  -27.8821  -30.4261   23.9473 H   0  0  0  0  0  0
  -27.2627  -33.3592   26.2144 H   0  0  0  0  0  0
  -28.3829  -32.6973   25.0339 H   0  0  0  0  0  0
  -28.0768  -31.8453   26.5403 H   0  0  0  0  0  0
  -28.2570  -38.0121   24.7582 H   0  0  0  0  0  0
  -28.1135  -36.2663   24.6193 H   0  0  0  0  0  0
  -27.2328  -37.1317   25.8862 H   0  0  0  0  0  0
  -20.9358  -29.8785   21.6918 H   0  0  0  0  0  0
  -26.0182  -38.2860   24.1461 H   0  0  0  0  0  0
  -27.9528  -18.0430   21.1168 H   0  0  0  0  0  0
  -31.0141  -21.7561   19.9020 H   0  0  0  0  0  0
  -31.5285  -17.0326   20.1806 H   0  0  0  0  0  0
  -27.3783  -22.5950   19.8095 H   0  0  0  0  0  0
  -28.8786  -15.8252   21.0256 H   0  0  0  0  0  0
  -29.9868  -24.0628   20.3558 H   0  0  0  0  0  0
  -32.8426  -20.3546   19.8356 H   0  0  0  0  0  0
  -32.4708  -18.8018   19.0968 H   0  0  0  0  0  0
  -32.7923  -18.9137   20.8356 H   0  0  0  0  0  0
  -26.2690  -19.6021   21.7190 H   0  0  0  0  0  0
  -26.0866  -20.5605   20.2450 H   0  0  0  0  0  0
  -26.5927  -21.3238   21.7626 H   0  0  0  0  0  0
  -28.3587  -24.3145   17.4956 H   0  0  0  0  0  0
  -29.5009  -25.6036   17.8562 H   0  0  0  0  0  0
  -27.8174  -25.9816   17.5243 H   0  0  0  0  0  0
  -27.1513  -24.7553   19.6407 H   0  0  0  0  0  0
  1 25  1  0  0  0
  1 30  2  0  0  0
  1 79  1  0  0  0
  2  3  1  0  0  0
  2 25  1  0  0  0
  2 85  1  0  0  0
  2 86  1  0  0  0
  3  4  1  0  0  0
  3 87  1  0  0  0
  3 88  1  0  0  0
  4  5  1  0  0  0
  4 89  1  0  0  0
  4 90  1  0  0  0
  5  6  1  0  0  0
  5 26  1  0  0  0
  5 91  1  0  0  0
  6 25  1  0  0  0
  6 92  1  0  0  0
  6 93  1  0  0  0
  7  8  2  0  0  0
  7 26  1  0  0  0
  7 29  1  0  0  0
  8  9  1  0  0  0
  8 22  1  0  0  0
  9 10  1  0  0  0
  9 27  2  0  0  0
 10 11  2  0  0  0
 10 15  1  0  0  0
 11 12  1  0  0  0
 11 94  1  0  0  0
 12 13  2  0  0  0
 12 95  1  0  0  0
 13 14  1  0  0  0
 13 31  1  0  0  0
 14 15  2  0  0  0
 14 96  1  0  0  0
 15 97  1  0  0  0
 16 17  2  0  0  0
 16 21  1  0  0  0
 16 31  1  0  0  0
 17 18  1  0  0  0
 17 98  1  0  0  0
 18 19  2  0  0  0
 18 99  1  0  0  0
 19 20  1  0  0  0
 19 24  1  0  0  0
 20 21  2  0  0  0
 20100  1  0  0  0
 21 23  1  0  0  0
 22 28  1  0  0  0
 22 32  2  0  0  0
 26 27  1  0  0  0
 28101  1  0  0  0
 28102  1  0  0  0
 29103  1  0  0  0
 29104  1  0  0  0
 33 34  1  0  0  0
 33 66  1  0  0  0
 33 70  2  0  0  0
 34 36  1  0  0  0
 34 59  1  0  0  0
 34105  1  0  0  0
 35 44  2  0  0  0
 35 45  1  0  0  0
 35 68  1  0  0  0
 36 56  1  0  0  0
 36106  1  0  0  0
 37 39  1  0  0  0
 37 47  1  0  0  0
 37 66  1  0  0  0
 37107  1  0  0  0
 38 43  2  0  0  0
 38 46  1  0  0  0
 38 47  1  0  0  0
 39 64  1  0  0  0
 39 67  2  0  0  0
 40 52  1  0  0  0
 40 53  2  0  0  0
 40 58  1  0  0  0
 41108  1  0  0  0
 41109  1  0  0  0
 41110  1  0  0  0
 41 48  1  0  0  0
 42 43  1  0  0  0
 42 66  1  0  0  0
 42111  1  0  0  0
 42112  1  0  0  0
 43 44  1  0  0  0
 44113  1  0  0  0
 45 46  2  0  0  0
 45114  1  0  0  0
 46115  1  0  0  0
 47116  1  0  0  0
 47117  1  0  0  0
 48 56  1  0  0  0
 48 65  1  0  0  0
 48118  1  0  0  0
 49 50  1  0  0  0
 49 53  1  0  0  0
 49 64  1  0  0  0
 49119  1  0  0  0
 50 51  1  0  0  0
 50120  1  0  0  0
 50121  1  0  0  0
 51 52  1  0  0  0
 51122  1  0  0  0
 51123  1  0  0  0
 52124  1  0  0  0
 52125  1  0  0  0
 53 54  1  0  0  0
 54 55  2  0  0  0
 54126  1  0  0  0
 55 57  1  0  0  0
 55127  1  0  0  0
 56 69  2  0  0  0
 57 58  2  0  0  0
 57128  1  0  0  0
 58129  1  0  0  0
 59 60  1  0  0  0
 59 61  1  0  0  0
 59 62  1  0  0  0
 60130  1  0  0  0
 60131  1  0  0  0
 60132  1  0  0  0
 61133  1  0  0  0
 61134  1  0  0  0
 61135  1  0  0  0
 62136  1  0  0  0
 62137  1  0  0  0
 62138  1  0  0  0
 63 65  1  0  0  0
 63139  1  0  0  0
 63140  1  0  0  0
 63141  1  0  0  0
 64142  1  0  0  0
 65143  1  0  0  0
 68 84  1  0  0  0
 71 73  2  0  0  0
 71 76  1  0  0  0
 71144  1  0  0  0
 72 74  1  0  0  0
 72 75  2  0  0  0
 72145  1  0  0  0
 73 75  1  0  0  0
 73 77  1  0  0  0
 74 76  2  0  0  0
 74 78  1  0  0  0
 75 81  1  0  0  0
 76 82  1  0  0  0
 77 79  2  0  0  0
 77146  1  0  0  0
 78 80  2  0  0  0
 78147  1  0  0  0
 79148  1  0  0  0
 80 84  1  0  0  0
 80149  1  0  0  0
 81150  1  0  0  0
 81151  1  0  0  0
 81152  1  0  0  0
 82153  1  0  0  0
 82154  1  0  0  0
 82155  1  0  0  0
 83156  1  0  0  0
 83157  1  0  0  0
 83158  1  0  0  0
 83 84  1  0  0  0
 84159  1  0  0  0
M  ISO  4   1 100  68 101  79 100  84 101
M  END
> <chiral flag>
0

> <version>
0

> <s_m_source_file>
/data/baiqing/PycharmProjects/Reinvent-master-3.2/result/LINK_invent/BTK/process_docking_weight1_custom_product_contain_oxygen_bond_distance_aromatic_linkinvent_7_9_3/rearranged_h_0124.sdf

> <i_m_source_file_index>
95

> <r_mmod_Potential_Energy-OPLS-2005>
65.6792602539062

> <r_mmod_Stretch_Energy-OPLS-2005>
72.3871154785156

> <r_mmod_Bend_Energy-OPLS-2005>
139.647766113281

> <r_mmod_Torsional_Energy-OPLS-2005>
183.304183959961

> <r_mmod_Improper_Torsional_Energy-OPLS-2005>
6.85159587860107

> <r_mmod_Van_der_Waal_Energy-OPLS-2005>
170.960250854492

> <r_mmod_Electrostatic_Energy-OPLS-2005>
-367.469116210938

> <r_mmod_Solvation_Energy-OPLS-2005>
-188.824401855469

> <b_mmod_Minimization_Converged-OPLS-2005>
0

> <r_mmod_RMS_Derivative-OPLS-2005>
2.41823673248291

$$$$
