0
                    3D
 Structure written by MMmdl.
161170  0  0  1  0            999 V2000
  -30.5282  -14.9446   20.4550 C   0  0  0  0  0  0
  -30.4517  -12.5823   19.5234 C   0  0  0  0  0  0
  -29.5471  -12.5430   18.2715 C   0  0  0  0  0  0
  -28.0787  -12.3085   18.6748 C   0  0  0  0  0  0
  -27.6357  -13.2416   19.8338 C   0  0  2  0  0  0
  -28.6657  -13.2649   20.9866 C   0  0  0  0  0  0
  -25.2483  -13.8178   20.5629 C   0  0  0  0  0  0
  -24.1803  -13.0402   20.9180 C   0  0  0  0  0  0
  -24.6431  -11.6888   20.8738 C   0  0  0  0  0  0
  -23.9137  -10.4262   21.0390 C   0  0  0  0  0  0
  -24.3655   -9.4173   21.9185 C   0  0  0  0  0  0
  -23.6301   -8.2223   22.0760 C   0  0  0  0  0  0
  -22.4275   -8.0291   21.3561 C   0  0  0  0  0  0
  -21.9935   -9.0269   20.4647 C   0  0  0  0  0  0
  -22.7299  -10.2125   20.3049 C   0  0  0  0  0  0
  -21.6839   -6.0744   22.5275 C   0  0  0  0  0  0
  -21.4021   -6.5642   23.8217 C   0  0  0  0  0  0
  -21.3656   -5.6792   24.9184 C   0  0  0  0  0  0
  -21.6050   -4.3054   24.7224 C   0  0  0  0  0  0
  -21.8808   -3.8143   23.4339 C   0  0  0  0  0  0
  -21.9186   -4.6972   22.3399 C   0  0  0  0  0  0
  -22.7829  -13.5186   21.1855 C   0  0  0  0  0  0
  -22.1645   -4.2159   21.0980 F   0  0  0  0  0  0
  -21.5626   -3.4529   25.7733 F   0  0  0  0  0  0
  -29.9605  -13.6691   20.4206 N   0  0  0  0  0  0
  -26.2919  -12.9400   20.3145 N   0  0  0  0  0  0
  -25.9359  -11.6540   20.5666 N   0  0  0  0  0  0
  -22.0472  -12.8203   22.0419 N   0  0  0  0  0  0
  -25.4122  -15.1918   20.4040 N   0  0  0  0  0  0
  -31.7029  -15.0601   20.0853 O   0  0  0  0  0  0
  -21.6630   -6.8895   21.4248 O   0  0  0  0  0  0
  -22.3494  -14.5465   20.6655 O   0  0  0  0  0  0
  -24.6415  -31.8401   23.1919 C   0  0  0  0  0  0
  -25.9213  -32.4665   23.8300 C   0  0  1  0  0  0
  -27.2328  -27.1258   20.2028 C   0  0  0  0  0  0
  -25.6002  -33.8484   24.2224 N   0  0  0  0  0  0
  -23.4453  -30.4606   21.5332 C   0  0  2  0  0  0
  -24.9018  -28.8732   20.1407 C   0  0  0  0  0  0
  -22.7567  -29.4566   22.4872 C   0  0  0  0  0  0
  -18.0293  -28.1445   22.8422 C   0  0  0  0  0  0
  -24.1506  -36.7260   23.2632 C   0  0  0  0  0  0
  -26.0014  -30.7189   21.3861 C   0  0  0  0  0  0
  -26.0791  -29.3197   20.7554 C   0  0  0  0  0  0
  -27.2473  -28.4666   20.7659 C   0  0  0  0  0  0
  -26.0393  -26.7923   19.5325 C   0  0  0  0  0  0
  -24.8928  -27.6175   19.5169 C   0  0  0  0  0  0
  -23.6765  -29.7750   20.1623 C   0  0  0  0  0  0
  -25.4135  -36.3037   24.0314 C   0  0  1  0  0  0
  -20.5949  -28.3671   23.1144 C   0  0  2  0  0  0
  -20.6780  -26.9324   22.5382 C   0  0  0  0  0  0
  -19.5703  -26.6285   21.5226 C   0  0  0  0  0  0
  -18.1844  -26.8005   22.1514 C   0  0  0  0  0  0
  -19.1626  -28.8854   23.2796 C   0  0  0  0  0  0
  -18.9603  -30.1450   23.8830 C   0  0  0  0  0  0
  -17.6626  -30.6624   24.0667 C   0  0  0  0  0  0
  -25.9088  -34.9390   23.5060 C   0  0  0  0  0  0
  -16.5468  -29.9199   23.6373 C   0  0  0  0  0  0
  -16.7314  -28.6656   23.0300 C   0  0  0  0  0  0
  -26.4539  -31.6533   25.0736 C   0  0  0  0  0  0
  -25.3748  -31.3762   26.1452 C   0  0  0  0  0  0
  -27.0430  -30.2950   24.6296 C   0  0  0  0  0  0
  -27.6038  -32.4321   25.7531 C   0  0  0  0  0  0
  -27.5587  -37.1779   24.8463 C   0  0  0  0  0  0
  -21.4287  -29.3014   22.3522 N   0  0  0  0  0  0
  -26.4310  -37.3730   23.9394 N   0  0  0  0  0  0
  -24.7144  -31.0293   22.0931 N   0  0  0  0  0  0
  -23.4203  -28.8190   23.3077 O   0  0  0  0  0  0
  -28.3342  -26.2131   20.0311 O   0  0  0  0  0  0
  -26.5631  -34.8877   22.4628 O   0  0  0  0  0  0
  -23.5542  -32.1310   23.7149 O   0  0  0  0  0  0
  -29.5992  -20.0425   21.2181 C   0  0  0  0  0  0
  -29.9541  -18.6369   21.3979 C   0  0  0  0  0  0
  -28.5633  -19.5032   19.1607 C   0  0  0  0  0  0
  -28.9044  -18.0849   19.3668 C   0  0  0  0  0  0
  -28.8592  -20.5960   20.1069 C   0  0  0  0  0  0
  -29.6315  -17.5662   20.4927 C   0  0  0  0  0  0
  -27.4281  -22.5154   19.1738 C   0  0  0  0  0  0
  -26.2251  -23.0150   19.9703 C   0  0  0  0  0  0
  -26.8302  -23.3136   21.3322 C   0  0  0  0  0  0
  -28.3173  -23.2938   21.0018 C   0  0  2  0  0  0
  -27.8224  -19.8123   17.8561 C   0  0  0  0  0  0
  -28.4059  -17.0468   18.3607 C   0  0  0  0  0  0
  -28.7780  -24.9218   20.7876 C   0  0  0  0  0  0
  -28.4411  -22.1172   19.9703 N   0  0  0  0  0  0
  -29.7308  -16.0635   20.8188 N   0  0  0  0  0  0
  -27.4644  -22.6336   17.9462 O   0  0  0  0  0  0
  -31.4867  -12.7419   19.2197 H   0  0  0  0  0  0
  -30.4448  -11.6213   20.0419 H   0  0  0  0  0  0
  -29.8847  -11.7662   17.5835 H   0  0  0  0  0  0
  -29.6439  -13.4896   17.7349 H   0  0  0  0  0  0
  -27.9887  -11.2675   18.9899 H   0  0  0  0  0  0
  -27.4281  -12.4233   17.8082 H   0  0  0  0  0  0
  -27.5999  -14.2417   19.4005 H   0  0  0  0  0  0
  -28.7378  -12.2935   21.4778 H   0  0  0  0  0  0
  -28.3447  -13.9707   21.7550 H   0  0  0  0  0  0
  -25.2806   -9.5608   22.4762 H   0  0  0  0  0  0
  -23.9982   -7.4602   22.7466 H   0  0  0  0  0  0
  -21.0875   -8.8819   19.8942 H   0  0  0  0  0  0
  -22.3800  -10.9673   19.6136 H   0  0  0  0  0  0
  -21.2022   -7.6147   23.9740 H   0  0  0  0  0  0
  -21.1494   -6.0514   25.9099 H   0  0  0  0  0  0
  -22.0594   -2.7606   23.2839 H   0  0  0  0  0  0
  -22.4085  -11.9899   22.4860 H   0  0  0  0  0  0
  -21.1074  -13.1219   22.2569 H   0  0  0  0  0  0
  -24.6258  -15.8270   20.4816 H   0  0  0  0  0  0
  -26.2555  -15.6485   20.0773 H   0  0  0  0  0  0
  -26.7274  -32.5297   23.1028 H   0  0  0  0  0  0
  -25.0218  -33.9579   25.0407 H   0  0  0  0  0  0
  -22.7420  -31.2811   21.3684 H   0  0  0  0  0  0
  -23.3772  -35.9589   23.3279 H   0  0  0  0  0  0
  -24.3577  -36.8918   22.2055 H   0  0  0  0  0  0
  -23.7270  -37.6450   23.6675 H   0  0  0  0  0  0
  -26.1480  -31.4552   20.5936 H   0  0  0  0  0  0
  -26.8747  -30.7822   22.0269 H   0  0  0  0  0  0
  -28.1645  -28.8286   21.2119 H   0  0  0  0  0  0
  -25.9941  -25.8733   18.9773 H   0  0  0  0  0  0
  -24.0017  -27.2732   19.0115 H   0  0  0  0  0  0
  -23.8136  -30.5420   19.3996 H   0  0  0  0  0  0
  -22.7967  -29.2081   19.8572 H   0  0  0  0  0  0
  -25.1311  -36.1863   25.0805 H   0  0  0  0  0  0
  -21.0119  -28.3277   24.1229 H   0  0  0  0  0  0
  -20.5599  -26.2257   23.3627 H   0  0  0  0  0  0
  -21.6635  -26.7305   22.1163 H   0  0  0  0  0  0
  -19.6766  -25.6131   21.1377 H   0  0  0  0  0  0
  -19.6753  -27.2989   20.6698 H   0  0  0  0  0  0
  -17.4179  -26.6933   21.3850 H   0  0  0  0  0  0
  -18.0038  -26.0130   22.8822 H   0  0  0  0  0  0
  -19.8116  -30.7264   24.2174 H   0  0  0  0  0  0
  -17.5301  -31.6227   24.5409 H   0  0  0  0  0  0
  -15.5500  -30.3166   23.7729 H   0  0  0  0  0  0
  -15.8616  -28.1164   22.6910 H   0  0  0  0  0  0
  -24.5916  -30.7083   25.7841 H   0  0  0  0  0  0
  -24.8972  -32.2994   26.4764 H   0  0  0  0  0  0
  -25.8042  -30.9060   27.0314 H   0  0  0  0  0  0
  -26.3094  -29.6668   24.1251 H   0  0  0  0  0  0
  -27.4046  -29.7201   25.4830 H   0  0  0  0  0  0
  -27.8956  -30.4242   23.9629 H   0  0  0  0  0  0
  -27.2572  -33.3579   26.2133 H   0  0  0  0  0  0
  -28.3843  -32.6968   25.0385 H   0  0  0  0  0  0
  -28.0737  -31.8491   26.5470 H   0  0  0  0  0  0
  -28.2558  -38.0109   24.7487 H   0  0  0  0  0  0
  -28.1120  -36.2624   24.6310 H   0  0  0  0  0  0
  -27.2275  -37.1435   25.8854 H   0  0  0  0  0  0
  -20.9565  -29.8576   21.6540 H   0  0  0  0  0  0
  -26.0169  -38.2779   24.1418 H   0  0  0  0  0  0
  -29.9071  -20.7193   22.0026 H   0  0  0  0  0  0
  -30.4771  -18.3751   22.3084 H   0  0  0  0  0  0
  -25.8195  -23.9001   19.4957 H   0  0  0  0  0  0
  -25.4350  -22.2669   20.0256 H   0  0  0  0  0  0
  -26.5729  -22.5271   22.0469 H   0  0  0  0  0  0
  -26.4999  -24.2645   21.7495 H   0  0  0  0  0  0
  -28.8603  -22.9606   21.8900 H   0  0  0  0  0  0
  -27.6582  -18.9973   17.1601 H   0  0  0  0  0  0
  -28.3813  -20.5383   17.2685 H   0  0  0  0  0  0
  -26.8205  -20.1790   18.0694 H   0  0  0  0  0  0
  -28.8011  -17.2429   17.3655 H   0  0  0  0  0  0
  -27.3142  -17.0361   18.3249 H   0  0  0  0  0  0
  -28.7176  -16.0344   18.5786 H   0  0  0  0  0  0
  -29.8082  -24.8213   20.4453 H   0  0  0  0  0  0
  -28.8939  -25.2852   21.8091 H   0  0  0  0  0  0
  -28.8816  -15.7296   21.2470 H   0  0  0  0  0  0
  1 25  1  0  0  0
  1 30  2  0  0  0
  1 85  1  0  0  0
  2  3  1  0  0  0
  2 25  1  0  0  0
  2 87  1  0  0  0
  2 88  1  0  0  0
  3  4  1  0  0  0
  3 89  1  0  0  0
  3 90  1  0  0  0
  4  5  1  0  0  0
  4 91  1  0  0  0
  4 92  1  0  0  0
  5  6  1  0  0  0
  5 26  1  0  0  0
  5 93  1  0  0  0
  6 25  1  0  0  0
  6 94  1  0  0  0
  6 95  1  0  0  0
  7  8  2  0  0  0
  7 26  1  0  0  0
  7 29  1  0  0  0
  8  9  1  0  0  0
  8 22  1  0  0  0
  9 10  1  0  0  0
  9 27  2  0  0  0
 10 11  2  0  0  0
 10 15  1  0  0  0
 11 12  1  0  0  0
 11 96  1  0  0  0
 12 13  2  0  0  0
 12 97  1  0  0  0
 13 14  1  0  0  0
 13 31  1  0  0  0
 14 15  2  0  0  0
 14 98  1  0  0  0
 15 99  1  0  0  0
 16 17  2  0  0  0
 16 21  1  0  0  0
 16 31  1  0  0  0
 17 18  1  0  0  0
 17100  1  0  0  0
 18 19  2  0  0  0
 18101  1  0  0  0
 19 20  1  0  0  0
 19 24  1  0  0  0
 20 21  2  0  0  0
 20102  1  0  0  0
 21 23  1  0  0  0
 22 28  1  0  0  0
 22 32  2  0  0  0
 26 27  1  0  0  0
 28103  1  0  0  0
 28104  1  0  0  0
 29105  1  0  0  0
 29106  1  0  0  0
 33 34  1  0  0  0
 33 66  1  0  0  0
 33 70  2  0  0  0
 34 36  1  0  0  0
 34 59  1  0  0  0
 34107  1  0  0  0
 35 44  2  0  0  0
 35 45  1  0  0  0
 35 68  1  0  0  0
 36 56  1  0  0  0
 36108  1  0  0  0
 37 39  1  0  0  0
 37 47  1  0  0  0
 37 66  1  0  0  0
 37109  1  0  0  0
 38 43  2  0  0  0
 38 46  1  0  0  0
 38 47  1  0  0  0
 39 64  1  0  0  0
 39 67  2  0  0  0
 40 52  1  0  0  0
 40 53  2  0  0  0
 40 58  1  0  0  0
 41110  1  0  0  0
 41111  1  0  0  0
 41112  1  0  0  0
 41 48  1  0  0  0
 42 43  1  0  0  0
 42 66  1  0  0  0
 42113  1  0  0  0
 42114  1  0  0  0
 43 44  1  0  0  0
 44115  1  0  0  0
 45 46  2  0  0  0
 45116  1  0  0  0
 46117  1  0  0  0
 47118  1  0  0  0
 47119  1  0  0  0
 48 56  1  0  0  0
 48 65  1  0  0  0
 48120  1  0  0  0
 49 50  1  0  0  0
 49 53  1  0  0  0
 49 64  1  0  0  0
 49121  1  0  0  0
 50 51  1  0  0  0
 50122  1  0  0  0
 50123  1  0  0  0
 51 52  1  0  0  0
 51124  1  0  0  0
 51125  1  0  0  0
 52126  1  0  0  0
 52127  1  0  0  0
 53 54  1  0  0  0
 54 55  2  0  0  0
 54128  1  0  0  0
 55 57  1  0  0  0
 55129  1  0  0  0
 56 69  2  0  0  0
 57 58  2  0  0  0
 57130  1  0  0  0
 58131  1  0  0  0
 59 60  1  0  0  0
 59 61  1  0  0  0
 59 62  1  0  0  0
 60132  1  0  0  0
 60133  1  0  0  0
 60134  1  0  0  0
 61135  1  0  0  0
 61136  1  0  0  0
 61137  1  0  0  0
 62138  1  0  0  0
 62139  1  0  0  0
 62140  1  0  0  0
 63 65  1  0  0  0
 63141  1  0  0  0
 63142  1  0  0  0
 63143  1  0  0  0
 64144  1  0  0  0
 65145  1  0  0  0
 68 83  1  0  0  0
 71 72  2  0  0  0
 71 75  1  0  0  0
 71146  1  0  0  0
 72 76  1  0  0  0
 72147  1  0  0  0
 73 74  1  0  0  0
 73 75  2  0  0  0
 73 81  1  0  0  0
 74 76  2  0  0  0
 74 82  1  0  0  0
 75 84  1  0  0  0
 76 85  1  0  0  0
 77 78  1  0  0  0
 77 84  1  0  0  0
 77 86  2  0  0  0
 78 79  1  0  0  0
 78148  1  0  0  0
 78149  1  0  0  0
 79 80  1  0  0  0
 79150  1  0  0  0
 79151  1  0  0  0
 80 83  1  0  0  0
 80 84  1  0  0  0
 80152  1  0  0  0
 81153  1  0  0  0
 81154  1  0  0  0
 81155  1  0  0  0
 82156  1  0  0  0
 82157  1  0  0  0
 82158  1  0  0  0
 83159  1  0  0  0
 83160  1  0  0  0
 85161  1  0  0  0
M  ISO  4   1 100  68 101  83 101  85 100
M  END
> <chiral flag>
0

> <version>
0

> <s_m_source_file>
/data/baiqing/PycharmProjects/Reinvent-master-3.2/result/LINK_invent/BTK/process_docking_weight1_custom_product_contain_oxygen_bond_distance_aromatic_linkinvent_7_9_3/rearranged_h_0061.sdf

> <i_m_source_file_index>
1

> <r_mmod_Potential_Energy-OPLS-2005>
812.726623535156

> <r_mmod_Stretch_Energy-OPLS-2005>
281.211364746094

> <r_mmod_Bend_Energy-OPLS-2005>
422.894104003906

> <r_mmod_Torsional_Energy-OPLS-2005>
380.775756835938

> <r_mmod_Improper_Torsional_Energy-OPLS-2005>
10.8468818664551

> <r_mmod_Van_der_Waal_Energy-OPLS-2005>
149.624572753906

> <r_mmod_Electrostatic_Energy-OPLS-2005>
-392.369201660156

> <r_mmod_Solvation_Energy-OPLS-2005>
-222.73974609375

> <b_mmod_Minimization_Converged-OPLS-2005>
0

> <r_mmod_RMS_Derivative-OPLS-2005>
6.49817609786987

$$$$
1
                    3D
 Structure written by MMmdl.
155163  0  0  1  0            999 V2000
  -30.5572  -14.6367   20.4957 C   0  0  0  0  0  0
  -30.4315  -12.3696   19.4835 C   0  0  0  0  0  0
  -29.5255  -12.5018   18.2346 C   0  0  0  0  0  0
  -28.0422  -12.3176   18.6285 C   0  0  0  0  0  0
  -27.6420  -13.2012   19.8403 C   0  0  2  0  0  0
  -28.6650  -13.0566   20.9862 C   0  0  0  0  0  0
  -25.2550  -13.8126   20.5633 C   0  0  0  0  0  0
  -24.1822  -13.0414   20.9236 C   0  0  0  0  0  0
  -24.6338  -11.6883   20.8687 C   0  0  0  0  0  0
  -23.8997  -10.4290   21.0365 C   0  0  0  0  0  0
  -24.3571   -9.4229   21.9138 C   0  0  0  0  0  0
  -23.6273   -8.2258   22.0702 C   0  0  0  0  0  0
  -22.4244   -8.0276   21.3523 C   0  0  0  0  0  0
  -21.9861   -9.0229   20.4614 C   0  0  0  0  0  0
  -22.7175  -10.2124   20.3027 C   0  0  0  0  0  0
  -21.6821   -6.0738   22.5303 C   0  0  0  0  0  0
  -21.3996   -6.5633   23.8243 C   0  0  0  0  0  0
  -21.3665   -5.6788   24.9204 C   0  0  0  0  0  0
  -21.6043   -4.3049   24.7245 C   0  0  0  0  0  0
  -21.8808   -3.8140   23.4362 C   0  0  0  0  0  0
  -21.9193   -4.6970   22.3423 C   0  0  0  0  0  0
  -22.7878  -13.5258   21.1967 C   0  0  0  0  0  0
  -22.1666   -4.2155   21.1004 F   0  0  0  0  0  0
  -21.5618   -3.4534   25.7749 F   0  0  0  0  0  0
  -29.9953  -13.3890   20.4539 N   0  0  0  0  0  0
  -26.2885  -12.9268   20.3070 N   0  0  0  0  0  0
  -25.9229  -11.6433   20.5544 N   0  0  0  0  0  0
  -22.0480  -12.8206   22.0479 N   0  0  0  0  0  0
  -25.4302  -15.1834   20.4120 N   0  0  0  0  0  0
  -31.7436  -14.7843   20.1924 O   0  0  0  0  0  0
  -21.6609   -6.8880   21.4262 O   0  0  0  0  0  0
  -22.3599  -14.5594   20.6870 O   0  0  0  0  0  0
  -24.6384  -31.8694   23.2120 C   0  0  0  0  0  0
  -25.9202  -32.4873   23.8438 C   0  0  1  0  0  0
  -27.2350  -27.3645   20.0961 C   0  0  0  0  0  0
  -25.6008  -33.8670   24.2372 N   0  0  0  0  0  0
  -23.4486  -30.4906   21.5696 C   0  0  2  0  0  0
  -24.8654  -28.9433   20.1227 C   0  0  0  0  0  0
  -22.7772  -29.4835   22.5275 C   0  0  0  0  0  0
  -17.9947  -28.1189   22.8699 C   0  0  0  0  0  0
  -24.1486  -36.7295   23.2635 C   0  0  0  0  0  0
  -25.9702  -30.8097   21.3711 C   0  0  0  0  0  0
  -26.0343  -29.4387   20.7118 C   0  0  0  0  0  0
  -27.2185  -28.6587   20.6870 C   0  0  0  0  0  0
  -26.0384  -26.8953   19.5096 C   0  0  0  0  0  0
  -24.8666  -27.6781   19.5137 C   0  0  0  0  0  0
  -23.6356  -29.8176   20.1836 C   0  0  0  0  0  0
  -25.4116  -36.3165   24.0346 C   0  0  1  0  0  0
  -20.4812  -28.4588   22.7863 C   0  0  2  0  0  0
  -20.6974  -26.9631   22.5329 C   0  0  0  0  0  0
  -19.5612  -26.4561   21.6220 C   0  0  0  0  0  0
  -18.1585  -26.7518   22.2036 C   0  0  0  0  0  0
  -19.1140  -28.8947   23.2559 C   0  0  0  0  0  0
  -18.9322  -30.1457   23.8803 C   0  0  0  0  0  0
  -17.6336  -30.6492   24.0769 C   0  0  0  0  0  0
  -25.9068  -34.9539   23.5147 C   0  0  0  0  0  0
  -16.5177  -29.8963   23.6704 C   0  0  0  0  0  0
  -16.6982  -28.6293   23.0856 C   0  0  0  0  0  0
  -26.4535  -31.6630   25.0767 C   0  0  0  0  0  0
  -25.3722  -31.3736   26.1438 C   0  0  0  0  0  0
  -27.0322  -30.3044   24.6162 C   0  0  0  0  0  0
  -27.6141  -32.4321   25.7513 C   0  0  0  0  0  0
  -27.5595  -37.1829   24.8481 C   0  0  0  0  0  0
  -21.4554  -29.4463   22.3999 N   0  0  0  0  0  0
  -26.4318  -37.3841   23.9413 N   0  0  0  0  0  0
  -24.7081  -31.0709   22.1092 N   0  0  0  0  0  0
  -23.4215  -28.7638   23.2923 O   0  0  0  0  0  0
  -28.4048  -26.6071   20.1323 O   0  0  0  0  0  0
  -26.5609  -34.8990   22.4696 O   0  0  0  0  0  0
  -23.5540  -32.1471   23.7459 O   0  0  0  0  0  0
  -28.3267  -19.1045   20.6187 C   0  0  0  0  0  0
  -28.5114  -17.7594   20.7029 C   0  0  0  0  0  0
  -31.0670  -17.6653   20.9587 C   0  0  0  0  0  0
  -30.4581  -20.0501   21.0083 C   0  0  0  0  0  0
  -31.2740  -18.9820   21.2374 C   0  0  0  0  0  0
  -29.1508  -20.1815   20.6842 C   0  0  0  0  0  0
  -29.7708  -16.9554   20.7678 C   0  0  0  0  0  0
  -29.0311  -22.6791   20.1500 C   0  0  0  0  0  0
  -32.5419  -19.3070   22.0193 C   0  0  0  0  0  0
  -28.2433  -24.0135   20.4481 C   0  0  0  0  0  0
  -28.5210  -25.2749   19.5304 C   0  0  0  0  0  0
  -29.5953  -15.6653   20.6827 N   0  0  0  0  0  0
  -28.5355  -21.4828   20.6047 N   0  0  0  0  0  0
  -30.0922  -22.7426   19.5230 O   0  0  0  0  0  0
  -31.4875  -12.4627   19.2328 H   0  0  0  0  0  0
  -30.3177  -11.3749   19.9182 H   0  0  0  0  0  0
  -29.8047  -11.7529   17.4947 H   0  0  0  0  0  0
  -29.6699  -13.4768   17.7603 H   0  0  0  0  0  0
  -27.9061  -11.2669   18.8874 H   0  0  0  0  0  0
  -27.3866  -12.5134   17.7786 H   0  0  0  0  0  0
  -27.6574  -14.2308   19.4844 H   0  0  0  0  0  0
  -28.6643  -12.0475   21.3963 H   0  0  0  0  0  0
  -28.3860  -13.7038   21.8193 H   0  0  0  0  0  0
  -25.2703   -9.5732   22.4728 H   0  0  0  0  0  0
  -23.9984   -7.4646   22.7389 H   0  0  0  0  0  0
  -21.0796   -8.8746   19.8915 H   0  0  0  0  0  0
  -22.3596  -10.9669   19.6151 H   0  0  0  0  0  0
  -21.1958   -7.6132   23.9752 H   0  0  0  0  0  0
  -21.1494   -6.0504   25.9109 H   0  0  0  0  0  0
  -22.0564   -2.7601   23.2859 H   0  0  0  0  0  0
  -22.4072  -11.9864   22.4888 H   0  0  0  0  0  0
  -21.1057  -13.1198   22.2593 H   0  0  0  0  0  0
  -24.6853  -15.8480   20.5907 H   0  0  0  0  0  0
  -26.2647  -15.6025   20.0214 H   0  0  0  0  0  0
  -26.7294  -32.5546   23.1238 H   0  0  0  0  0  0
  -25.0216  -33.9847   25.0557 H   0  0  0  0  0  0
  -22.7483  -31.3174   21.4247 H   0  0  0  0  0  0
  -23.3812  -35.9562   23.3324 H   0  0  0  0  0  0
  -24.3577  -36.8860   22.2046 H   0  0  0  0  0  0
  -23.7164  -37.6486   23.6583 H   0  0  0  0  0  0
  -26.0865  -31.5777   20.6075 H   0  0  0  0  0  0
  -26.8584  -30.8604   21.9917 H   0  0  0  0  0  0
  -28.1220  -29.0432   21.1406 H   0  0  0  0  0  0
  -25.9761  -25.9165   19.0589 H   0  0  0  0  0  0
  -23.9608  -27.2950   19.0645 H   0  0  0  0  0  0
  -23.7396  -30.5901   19.4218 H   0  0  0  0  0  0
  -22.7537  -29.2383   19.9014 H   0  0  0  0  0  0
  -25.1284  -36.2081   25.0832 H   0  0  0  0  0  0
  -20.1603  -28.6779   21.7661 H   0  0  0  0  0  0
  -20.6913  -26.4202   23.4789 H   0  0  0  0  0  0
  -21.6644  -26.7706   22.0656 H   0  0  0  0  0  0
  -19.6745  -25.3849   21.4436 H   0  0  0  0  0  0
  -19.6523  -26.9261   20.6431 H   0  0  0  0  0  0
  -17.3993  -26.6320   21.4279 H   0  0  0  0  0  0
  -17.9325  -26.0050   22.9664 H   0  0  0  0  0  0
  -19.7907  -30.7449   24.1572 H   0  0  0  0  0  0
  -17.4963  -31.6250   24.5260 H   0  0  0  0  0  0
  -15.5180  -30.2876   23.8175 H   0  0  0  0  0  0
  -15.8316  -28.0545   22.7874 H   0  0  0  0  0  0
  -24.5937  -30.7076   25.7701 H   0  0  0  0  0  0
  -24.8862  -32.2869   26.4864 H   0  0  0  0  0  0
  -25.7993  -30.8890   27.0228 H   0  0  0  0  0  0
  -26.2899  -29.6877   24.1074 H   0  0  0  0  0  0
  -27.3893  -29.7215   25.4676 H   0  0  0  0  0  0
  -27.8826  -30.4323   23.9458 H   0  0  0  0  0  0
  -27.2822  -33.3644   26.2096 H   0  0  0  0  0  0
  -28.3912  -32.6849   25.0285 H   0  0  0  0  0  0
  -28.0817  -31.8417   26.5404 H   0  0  0  0  0  0
  -28.2665  -38.0092   24.7538 H   0  0  0  0  0  0
  -28.1060  -36.2644   24.6309 H   0  0  0  0  0  0
  -27.2305  -37.1465   25.8885 H   0  0  0  0  0  0
  -21.0756  -30.1533   21.7835 H   0  0  0  0  0  0
  -26.0239  -38.2936   24.1411 H   0  0  0  0  0  0
  -27.2840  -19.3571   20.4770 H   0  0  0  0  0  0
  -27.6036  -17.1755   20.6785 H   0  0  0  0  0  0
  -31.9296  -17.0320   21.0714 H   0  0  0  0  0  0
  -30.9308  -20.9896   21.2550 H   0  0  0  0  0  0
  -33.1588  -20.0337   21.4850 H   0  0  0  0  0  0
  -33.1535  -18.4243   22.2153 H   0  0  0  0  0  0
  -32.2811  -19.7319   22.9907 H   0  0  0  0  0  0
  -28.5168  -24.2911   21.4629 H   0  0  0  0  0  0
  -27.1724  -23.8173   20.4740 H   0  0  0  0  0  0
  -27.9466  -25.2073   18.6058 H   0  0  0  0  0  0
  -29.5565  -25.2223   19.1929 H   0  0  0  0  0  0
  -27.5950  -21.5269   20.9740 H   0  0  0  0  0  0
  1 25  1  0  0  0
  1 30  2  0  0  0
  1 82  1  0  0  0
  2  3  1  0  0  0
  2 25  1  0  0  0
  2 85  1  0  0  0
  2 86  1  0  0  0
  3  4  1  0  0  0
  3 87  1  0  0  0
  3 88  1  0  0  0
  4  5  1  0  0  0
  4 89  1  0  0  0
  4 90  1  0  0  0
  5  6  1  0  0  0
  5 26  1  0  0  0
  5 91  1  0  0  0
  6 25  1  0  0  0
  6 92  1  0  0  0
  6 93  1  0  0  0
  7  8  2  0  0  0
  7 26  1  0  0  0
  7 29  1  0  0  0
  8  9  1  0  0  0
  8 22  1  0  0  0
  9 10  1  0  0  0
  9 27  2  0  0  0
 10 11  2  0  0  0
 10 15  1  0  0  0
 11 12  1  0  0  0
 11 94  1  0  0  0
 12 13  2  0  0  0
 12 95  1  0  0  0
 13 14  1  0  0  0
 13 31  1  0  0  0
 14 15  2  0  0  0
 14 96  1  0  0  0
 15 97  1  0  0  0
 16 17  2  0  0  0
 16 21  1  0  0  0
 16 31  1  0  0  0
 17 18  1  0  0  0
 17 98  1  0  0  0
 18 19  2  0  0  0
 18 99  1  0  0  0
 19 20  1  0  0  0
 19 24  1  0  0  0
 20 21  2  0  0  0
 20100  1  0  0  0
 21 23  1  0  0  0
 22 28  1  0  0  0
 22 32  2  0  0  0
 26 27  1  0  0  0
 28101  1  0  0  0
 28102  1  0  0  0
 29103  1  0  0  0
 29104  1  0  0  0
 33 34  1  0  0  0
 33 66  1  0  0  0
 33 70  2  0  0  0
 34 36  1  0  0  0
 34 59  1  0  0  0
 34105  1  0  0  0
 35 44  2  0  0  0
 35 45  1  0  0  0
 35 68  1  0  0  0
 36 56  1  0  0  0
 36106  1  0  0  0
 37 39  1  0  0  0
 37 47  1  0  0  0
 37 66  1  0  0  0
 37107  1  0  0  0
 38 43  2  0  0  0
 38 46  1  0  0  0
 38 47  1  0  0  0
 39 64  1  0  0  0
 39 67  2  0  0  0
 40 52  1  0  0  0
 40 53  2  0  0  0
 40 58  1  0  0  0
 41108  1  0  0  0
 41109  1  0  0  0
 41110  1  0  0  0
 41 48  1  0  0  0
 42 43  1  0  0  0
 42 66  1  0  0  0
 42111  1  0  0  0
 42112  1  0  0  0
 43 44  1  0  0  0
 44113  1  0  0  0
 45 46  2  0  0  0
 45114  1  0  0  0
 46115  1  0  0  0
 47116  1  0  0  0
 47117  1  0  0  0
 48 56  1  0  0  0
 48 65  1  0  0  0
 48118  1  0  0  0
 49 50  1  0  0  0
 49 53  1  0  0  0
 49 64  1  0  0  0
 49119  1  0  0  0
 50 51  1  0  0  0
 50120  1  0  0  0
 50121  1  0  0  0
 51 52  1  0  0  0
 51122  1  0  0  0
 51123  1  0  0  0
 52124  1  0  0  0
 52125  1  0  0  0
 53 54  1  0  0  0
 54 55  2  0  0  0
 54126  1  0  0  0
 55 57  1  0  0  0
 55127  1  0  0  0
 56 69  2  0  0  0
 57 58  2  0  0  0
 57128  1  0  0  0
 58129  1  0  0  0
 59 60  1  0  0  0
 59 61  1  0  0  0
 59 62  1  0  0  0
 60130  1  0  0  0
 60131  1  0  0  0
 60132  1  0  0  0
 61133  1  0  0  0
 61134  1  0  0  0
 61135  1  0  0  0
 62136  1  0  0  0
 62137  1  0  0  0
 62138  1  0  0  0
 63 65  1  0  0  0
 63139  1  0  0  0
 63140  1  0  0  0
 63141  1  0  0  0
 64142  1  0  0  0
 65143  1  0  0  0
 68 81  1  0  0  0
 71 72  2  0  0  0
 71 76  1  0  0  0
 71144  1  0  0  0
 72 77  1  0  0  0
 72145  1  0  0  0
 73 75  2  0  0  0
 73 77  1  0  0  0
 73146  1  0  0  0
 74 75  1  0  0  0
 74 76  2  0  0  0
 74147  1  0  0  0
 75 79  1  0  0  0
 76 83  1  0  0  0
 77 82  2  0  0  0
 78 80  1  0  0  0
 78 83  1  0  0  0
 78 84  2  0  0  0
 79148  1  0  0  0
 79149  1  0  0  0
 79150  1  0  0  0
 80 81  1  0  0  0
 80151  1  0  0  0
 80152  1  0  0  0
 81153  1  0  0  0
 81154  1  0  0  0
 83155  1  0  0  0
M  ISO  4   1 100  68 101  81 101  82 100
M  END
> <chiral flag>
0

> <version>
0

> <s_m_source_file>
/data/baiqing/PycharmProjects/Reinvent-master-3.2/result/LINK_invent/BTK/process_docking_weight1_custom_product_contain_oxygen_bond_distance_aromatic_linkinvent_7_9_3/rearranged_h_0061.sdf

> <i_m_source_file_index>
2

> <r_mmod_Potential_Energy-OPLS-2005>
174.54736328125

> <r_mmod_Stretch_Energy-OPLS-2005>
66.6049194335938

> <r_mmod_Bend_Energy-OPLS-2005>
301.622436523438

> <r_mmod_Torsional_Energy-OPLS-2005>
144.952224731445

> <r_mmod_Improper_Torsional_Energy-OPLS-2005>
7.95354080200195

> <r_mmod_Van_der_Waal_Energy-OPLS-2005>
161.384017944336

> <r_mmod_Electrostatic_Energy-OPLS-2005>
-358.412170410156

> <r_mmod_Solvation_Energy-OPLS-2005>
-211.156188964844

> <b_mmod_Minimization_Converged-OPLS-2005>
0

> <r_mmod_RMS_Derivative-OPLS-2005>
5.2725043296814

$$$$
2
                    3D
 Structure written by MMmdl.
163172  0  0  1  0            999 V2000
  -30.5673  -15.0692   20.4334 C   0  0  0  0  0  0
  -30.4230  -12.6814   19.5232 C   0  0  0  0  0  0
  -29.5240  -12.5629   18.2714 C   0  0  0  0  0  0
  -28.0511  -12.3486   18.6701 C   0  0  0  0  0  0
  -27.6158  -13.2805   19.8288 C   0  0  2  0  0  0
  -28.6549  -13.3576   20.9661 C   0  0  0  0  0  0
  -25.2379  -13.8295   20.5776 C   0  0  0  0  0  0
  -24.1754  -13.0435   20.9317 C   0  0  0  0  0  0
  -24.6427  -11.6942   20.8776 C   0  0  0  0  0  0
  -23.9119  -10.4287   21.0369 C   0  0  0  0  0  0
  -24.3669   -9.4169   21.9124 C   0  0  0  0  0  0
  -23.6291   -8.2244   22.0721 C   0  0  0  0  0  0
  -22.4279   -8.0299   21.3512 C   0  0  0  0  0  0
  -21.9904   -9.0304   20.4675 C   0  0  0  0  0  0
  -22.7251  -10.2176   20.3060 C   0  0  0  0  0  0
  -21.6876   -6.0734   22.5253 C   0  0  0  0  0  0
  -21.4049   -6.5638   23.8186 C   0  0  0  0  0  0
  -21.3702   -5.6789   24.9154 C   0  0  0  0  0  0
  -21.6064   -4.3050   24.7222 C   0  0  0  0  0  0
  -21.8825   -3.8139   23.4340 C   0  0  0  0  0  0
  -21.9206   -4.6949   22.3387 C   0  0  0  0  0  0
  -22.7769  -13.5177   21.1908 C   0  0  0  0  0  0
  -22.1658   -4.2113   21.0948 F   0  0  0  0  0  0
  -21.5623   -3.4549   25.7748 F   0  0  0  0  0  0
  -29.9141  -13.8186   20.3618 N   0  0  0  0  0  0
  -26.2836  -12.9590   20.3237 N   0  0  0  0  0  0
  -25.9363  -11.6683   20.5735 N   0  0  0  0  0  0
  -22.0370  -12.8198   22.0444 N   0  0  0  0  0  0
  -25.3924  -15.2031   20.4174 N   0  0  0  0  0  0
  -31.7797  -15.0121   20.1876 O   0  0  0  0  0  0
  -21.6642   -6.8894   21.4226 O   0  0  0  0  0  0
  -22.3460  -14.5462   20.6708 O   0  0  0  0  0  0
  -24.6526  -31.8325   23.1777 C   0  0  0  0  0  0
  -25.9253  -32.4638   23.8219 C   0  0  1  0  0  0
  -27.2171  -27.0250   20.1934 C   0  0  0  0  0  0
  -25.5958  -33.8459   24.2126 N   0  0  0  0  0  0
  -23.4643  -30.4464   21.5243 C   0  0  2  0  0  0
  -24.9163  -28.8437   20.1225 C   0  0  0  0  0  0
  -22.7635  -29.4488   22.4814 C   0  0  0  0  0  0
  -18.0310  -28.1402   22.8461 C   0  0  0  0  0  0
  -24.1505  -36.7225   23.2633 C   0  0  0  0  0  0
  -26.0269  -30.6726   21.3937 C   0  0  0  0  0  0
  -26.0981  -29.2704   20.7429 C   0  0  0  0  0  0
  -27.2529  -28.3823   20.7494 C   0  0  0  0  0  0
  -26.0043  -26.7164   19.5428 C   0  0  0  0  0  0
  -24.8859  -27.5836   19.5051 C   0  0  0  0  0  0
  -23.7025  -29.7649   20.1503 C   0  0  0  0  0  0
  -25.4134  -36.2994   24.0303 C   0  0  1  0  0  0
  -20.5925  -28.3757   23.1202 C   0  0  2  0  0  0
  -20.6795  -26.9447   22.5407 C   0  0  0  0  0  0
  -19.5785  -26.6383   21.5205 C   0  0  0  0  0  0
  -18.1955  -26.7935   22.1605 C   0  0  0  0  0  0
  -19.1564  -28.8898   23.2818 C   0  0  0  0  0  0
  -18.9478  -30.1476   23.8873 C   0  0  0  0  0  0
  -17.6470  -30.6595   24.0553 C   0  0  0  0  0  0
  -25.9102  -34.9378   23.5028 C   0  0  0  0  0  0
  -16.5364  -29.9091   23.6314 C   0  0  0  0  0  0
  -16.7290  -28.6502   23.0352 C   0  0  0  0  0  0
  -26.4529  -31.6541   25.0700 C   0  0  0  0  0  0
  -25.3677  -31.3824   26.1378 C   0  0  0  0  0  0
  -27.0387  -30.2894   24.6397 C   0  0  0  0  0  0
  -27.6059  -32.4330   25.7488 C   0  0  0  0  0  0
  -27.5578  -37.1762   24.8457 C   0  0  0  0  0  0
  -21.4313  -29.3035   22.3558 N   0  0  0  0  0  0
  -26.4293  -37.3707   23.9387 N   0  0  0  0  0  0
  -24.7351  -31.0105   22.0856 N   0  0  0  0  0  0
  -23.4209  -28.8054   23.3037 O   0  0  0  0  0  0
  -28.2693  -26.0091   20.1521 O   0  0  0  0  0  0
  -26.5718  -34.8898   22.4627 O   0  0  0  0  0  0
  -23.5615  -32.1285   23.6897 O   0  0  0  0  0  0
  -30.0494  -18.8802   16.8710 C   0  0  0  0  0  0
  -30.3861  -17.5473   16.9887 C   0  0  0  0  0  0
  -29.6491  -19.5805   18.0079 C   0  0  0  0  0  0
  -30.2899  -16.9263   18.2330 C   0  0  0  0  0  0
  -29.5852  -19.0783   19.3486 C   0  0  0  0  0  0
  -29.9115  -17.5453   19.4720 C   0  0  0  0  0  0
  -29.3543  -21.7410   19.9567 C   0  0  0  0  0  0
  -29.7419  -16.7763   21.8300 C   0  0  0  0  0  0
  -27.9003  -20.3751   20.9934 C   0  0  0  0  0  0
  -28.1876  -22.8407   20.3482 C   0  0  1  0  0  0
  -27.6947  -21.8658   21.4779 C   0  0  1  0  0  0
  -30.4879  -17.9995   22.3724 C   0  0  0  0  0  0
  -26.2809  -22.0941   22.0328 C   0  0  0  0  0  0
  -28.2380  -24.5426   20.8012 C   0  0  0  0  0  0
  -29.1148  -20.3359   20.1813 N   0  0  0  0  0  0
  -29.9446  -16.3980   20.5513 N   0  0  0  0  0  0
  -30.4261  -22.1545   19.5044 O   0  0  0  0  0  0
  -28.9640  -16.2026   22.5953 O   0  0  0  0  0  0
  -31.4554  -12.8282   19.2054 H   0  0  0  0  0  0
  -30.4303  -11.7471   20.0889 H   0  0  0  0  0  0
  -29.8642  -11.7418   17.6383 H   0  0  0  0  0  0
  -29.6135  -13.4779   17.6830 H   0  0  0  0  0  0
  -27.9342  -11.3063   18.9672 H   0  0  0  0  0  0
  -27.3998  -12.4994   17.8047 H   0  0  0  0  0  0
  -27.5575  -14.2784   19.3927 H   0  0  0  0  0  0
  -28.7668  -12.3915   21.4597 H   0  0  0  0  0  0
  -28.3065  -14.0440   21.7312 H   0  0  0  0  0  0
  -25.2821   -9.5634   22.4675 H   0  0  0  0  0  0
  -23.9951   -7.4646   22.7476 H   0  0  0  0  0  0
  -21.0765   -8.8904   19.9075 H   0  0  0  0  0  0
  -22.3665  -10.9764   19.6241 H   0  0  0  0  0  0
  -21.2027   -7.6129   23.9698 H   0  0  0  0  0  0
  -21.1539   -6.0495   25.9065 H   0  0  0  0  0  0
  -22.0569   -2.7600   23.2837 H   0  0  0  0  0  0
  -22.3897  -11.9892   22.4958 H   0  0  0  0  0  0
  -21.1031  -13.1346   22.2600 H   0  0  0  0  0  0
  -24.6215  -15.8499   20.5399 H   0  0  0  0  0  0
  -26.2465  -15.6618   20.1256 H   0  0  0  0  0  0
  -26.7319  -32.5226   23.0942 H   0  0  0  0  0  0
  -25.0028  -33.9569   25.0223 H   0  0  0  0  0  0
  -22.7722  -31.2742   21.3577 H   0  0  0  0  0  0
  -23.3777  -35.9545   23.3288 H   0  0  0  0  0  0
  -24.3575  -36.8869   22.2043 H   0  0  0  0  0  0
  -23.7280  -37.6422   23.6694 H   0  0  0  0  0  0
  -26.2000  -31.4199   20.6185 H   0  0  0  0  0  0
  -26.8915  -30.7208   22.0447 H   0  0  0  0  0  0
  -28.1653  -28.7160   21.2258 H   0  0  0  0  0  0
  -25.9095  -25.7514   19.0638 H   0  0  0  0  0  0
  -23.9834  -27.2535   19.0058 H   0  0  0  0  0  0
  -23.8572  -30.5380   19.3971 H   0  0  0  0  0  0
  -22.8133  -29.2179   19.8316 H   0  0  0  0  0  0
  -25.1324  -36.1802   25.0800 H   0  0  0  0  0  0
  -20.9989  -28.3353   24.1327 H   0  0  0  0  0  0
  -20.5663  -26.2375   23.3638 H   0  0  0  0  0  0
  -21.6667  -26.7426   22.1219 H   0  0  0  0  0  0
  -19.6969  -25.6283   21.1267 H   0  0  0  0  0  0
  -19.6724  -27.3177   20.6723 H   0  0  0  0  0  0
  -17.4214  -26.6640   21.4017 H   0  0  0  0  0  0
  -18.0363  -26.0103   22.9034 H   0  0  0  0  0  0
  -19.7961  -30.7278   24.2251 H   0  0  0  0  0  0
  -17.5038  -31.6278   24.5163 H   0  0  0  0  0  0
  -15.5373  -30.2989   23.7670 H   0  0  0  0  0  0
  -15.8687  -28.0822   22.7088 H   0  0  0  0  0  0
  -24.5865  -30.7149   25.7714 H   0  0  0  0  0  0
  -24.8851  -32.3043   26.4645 H   0  0  0  0  0  0
  -25.7908  -30.9113   27.0257 H   0  0  0  0  0  0
  -26.3028  -29.6607   24.1368 H   0  0  0  0  0  0
  -27.3871  -29.7218   25.5034 H   0  0  0  0  0  0
  -27.9005  -30.4044   23.9823 H   0  0  0  0  0  0
  -27.2648  -33.3660   26.1995 H   0  0  0  0  0  0
  -28.3915  -32.6847   25.0349 H   0  0  0  0  0  0
  -28.0688  -31.8510   26.5462 H   0  0  0  0  0  0
  -28.2575  -38.0074   24.7477 H   0  0  0  0  0  0
  -28.1105  -36.2595   24.6320 H   0  0  0  0  0  0
  -27.2298  -37.1448   25.8865 H   0  0  0  0  0  0
  -20.9555  -29.8717   21.6689 H   0  0  0  0  0  0
  -26.0156  -38.2774   24.1392 H   0  0  0  0  0  0
  -30.0798  -19.3712   15.9058 H   0  0  0  0  0  0
  -30.6804  -16.9807   16.1142 H   0  0  0  0  0  0
  -29.3466  -20.5833   17.7582 H   0  0  0  0  0  0
  -30.5310  -15.8804   18.1406 H   0  0  0  0  0  0
  -27.0581  -20.0533   20.3774 H   0  0  0  0  0  0
  -27.9649  -19.6846   21.8308 H   0  0  0  0  0  0
  -27.4702  -22.7780   19.5285 H   0  0  0  0  0  0
  -28.3663  -22.0099   22.3285 H   0  0  0  0  0  0
  -29.7922  -18.7683   22.6956 H   0  0  0  0  0  0
  -31.1903  -18.4252   21.6575 H   0  0  0  0  0  0
  -31.0670  -17.7039   23.2472 H   0  0  0  0  0  0
  -25.5223  -22.0489   21.2517 H   0  0  0  0  0  0
  -26.2000  -23.0569   22.5413 H   0  0  0  0  0  0
  -26.0418  -21.3283   22.7752 H   0  0  0  0  0  0
  -29.0722  -24.5841   21.5026 H   0  0  0  0  0  0
  -27.3671  -24.6416   21.4460 H   0  0  0  0  0  0
  1 25  1  0  0  0
  1 30  2  0  0  0
  1 86  1  0  0  0
  2  3  1  0  0  0
  2 25  1  0  0  0
  2 89  1  0  0  0
  2 90  1  0  0  0
  3  4  1  0  0  0
  3 91  1  0  0  0
  3 92  1  0  0  0
  4  5  1  0  0  0
  4 93  1  0  0  0
  4 94  1  0  0  0
  5  6  1  0  0  0
  5 26  1  0  0  0
  5 95  1  0  0  0
  6 25  1  0  0  0
  6 96  1  0  0  0
  6 97  1  0  0  0
  7  8  2  0  0  0
  7 26  1  0  0  0
  7 29  1  0  0  0
  8  9  1  0  0  0
  8 22  1  0  0  0
  9 10  1  0  0  0
  9 27  2  0  0  0
 10 11  2  0  0  0
 10 15  1  0  0  0
 11 12  1  0  0  0
 11 98  1  0  0  0
 12 13  2  0  0  0
 12 99  1  0  0  0
 13 14  1  0  0  0
 13 31  1  0  0  0
 14 15  2  0  0  0
 14100  1  0  0  0
 15101  1  0  0  0
 16 17  2  0  0  0
 16 21  1  0  0  0
 16 31  1  0  0  0
 17 18  1  0  0  0
 17102  1  0  0  0
 18 19  2  0  0  0
 18103  1  0  0  0
 19 20  1  0  0  0
 19 24  1  0  0  0
 20 21  2  0  0  0
 20104  1  0  0  0
 21 23  1  0  0  0
 22 28  1  0  0  0
 22 32  2  0  0  0
 26 27  1  0  0  0
 28105  1  0  0  0
 28106  1  0  0  0
 29107  1  0  0  0
 29108  1  0  0  0
 33 34  1  0  0  0
 33 66  1  0  0  0
 33 70  2  0  0  0
 34 36  1  0  0  0
 34 59  1  0  0  0
 34109  1  0  0  0
 35 44  2  0  0  0
 35 45  1  0  0  0
 35 68  1  0  0  0
 36 56  1  0  0  0
 36110  1  0  0  0
 37 39  1  0  0  0
 37 47  1  0  0  0
 37 66  1  0  0  0
 37111  1  0  0  0
 38 43  2  0  0  0
 38 46  1  0  0  0
 38 47  1  0  0  0
 39 64  1  0  0  0
 39 67  2  0  0  0
 40 52  1  0  0  0
 40 53  2  0  0  0
 40 58  1  0  0  0
 41112  1  0  0  0
 41113  1  0  0  0
 41114  1  0  0  0
 41 48  1  0  0  0
 42 43  1  0  0  0
 42 66  1  0  0  0
 42115  1  0  0  0
 42116  1  0  0  0
 43 44  1  0  0  0
 44117  1  0  0  0
 45 46  2  0  0  0
 45118  1  0  0  0
 46119  1  0  0  0
 47120  1  0  0  0
 47121  1  0  0  0
 48 56  1  0  0  0
 48 65  1  0  0  0
 48122  1  0  0  0
 49 50  1  0  0  0
 49 53  1  0  0  0
 49 64  1  0  0  0
 49123  1  0  0  0
 50 51  1  0  0  0
 50124  1  0  0  0
 50125  1  0  0  0
 51 52  1  0  0  0
 51126  1  0  0  0
 51127  1  0  0  0
 52128  1  0  0  0
 52129  1  0  0  0
 53 54  1  0  0  0
 54 55  2  0  0  0
 54130  1  0  0  0
 55 57  1  0  0  0
 55131  1  0  0  0
 56 69  2  0  0  0
 57 58  2  0  0  0
 57132  1  0  0  0
 58133  1  0  0  0
 59 60  1  0  0  0
 59 61  1  0  0  0
 59 62  1  0  0  0
 60134  1  0  0  0
 60135  1  0  0  0
 60136  1  0  0  0
 61137  1  0  0  0
 61138  1  0  0  0
 61139  1  0  0  0
 62140  1  0  0  0
 62141  1  0  0  0
 62142  1  0  0  0
 63 65  1  0  0  0
 63143  1  0  0  0
 63144  1  0  0  0
 63145  1  0  0  0
 64146  1  0  0  0
 65147  1  0  0  0
 68 84  1  0  0  0
 71 72  2  0  0  0
 71 73  1  0  0  0
 71148  1  0  0  0
 72 74  1  0  0  0
 72149  1  0  0  0
 73 75  2  0  0  0
 73150  1  0  0  0
 74 76  2  0  0  0
 74151  1  0  0  0
 75 76  1  0  0  0
 75 85  1  0  0  0
 76 86  1  0  0  0
 77 80  1  0  0  0
 77 85  1  0  0  0
 77 87  2  0  0  0
 78 82  1  0  0  0
 78 86  1  0  0  0
 78 88  2  0  0  0
 79 81  1  0  0  0
 79 85  1  0  0  0
 79152  1  0  0  0
 79153  1  0  0  0
 80 81  1  0  0  0
 80 84  1  0  0  0
 80154  1  0  0  0
 81 83  1  0  0  0
 81155  1  0  0  0
 82156  1  0  0  0
 82157  1  0  0  0
 82158  1  0  0  0
 83159  1  0  0  0
 83160  1  0  0  0
 83161  1  0  0  0
 84162  1  0  0  0
 84163  1  0  0  0
M  ISO  4   1 100  68 101  84 101  86 100
M  END
> <chiral flag>
0

> <version>
0

> <s_m_source_file>
/data/baiqing/PycharmProjects/Reinvent-master-3.2/result/LINK_invent/BTK/process_docking_weight1_custom_product_contain_oxygen_bond_distance_aromatic_linkinvent_7_9_3/rearranged_h_0061.sdf

> <i_m_source_file_index>
3

> <r_mmod_Potential_Energy-OPLS-2005>
1304.1923828125

> <r_mmod_Stretch_Energy-OPLS-2005>
439.536834716797

> <r_mmod_Bend_Energy-OPLS-2005>
535.347229003906

> <r_mmod_Torsional_Energy-OPLS-2005>
419.757446289062

> <r_mmod_Improper_Torsional_Energy-OPLS-2005>
7.19686985015869

> <r_mmod_Van_der_Waal_Energy-OPLS-2005>
148.143478393555

> <r_mmod_Electrostatic_Energy-OPLS-2005>
-321.295562744141

> <r_mmod_Solvation_Energy-OPLS-2005>
-207.236328125

> <b_mmod_Minimization_Converged-OPLS-2005>
0

> <r_mmod_RMS_Derivative-OPLS-2005>
5.41582679748535

$$$$
3
                    3D
 Structure written by MMmdl.
164173  0  0  1  0            999 V2000
  -30.7576  -14.5926   20.2742 C   0  0  0  0  0  0
  -30.4141  -12.3448   19.3963 C   0  0  0  0  0  0
  -29.4680  -12.4248   18.1836 C   0  0  0  0  0  0
  -28.0027  -12.2988   18.6389 C   0  0  0  0  0  0
  -27.6433  -13.2188   19.8402 C   0  0  2  0  0  0
  -28.7302  -13.1836   20.9368 C   0  0  0  0  0  0
  -25.2561  -13.8236   20.5760 C   0  0  0  0  0  0
  -24.1803  -13.0475   20.9213 C   0  0  0  0  0  0
  -24.6388  -11.6960   20.8797 C   0  0  0  0  0  0
  -23.9067  -10.4328   21.0426 C   0  0  0  0  0  0
  -24.3620   -9.4232   21.9178 C   0  0  0  0  0  0
  -23.6296   -8.2258   22.0735 C   0  0  0  0  0  0
  -22.4280   -8.0289   21.3517 C   0  0  0  0  0  0
  -21.9920   -9.0282   20.4632 C   0  0  0  0  0  0
  -22.7253  -10.2167   20.3058 C   0  0  0  0  0  0
  -21.6853   -6.0735   22.5259 C   0  0  0  0  0  0
  -21.4015   -6.5629   23.8193 C   0  0  0  0  0  0
  -21.3661   -5.6773   24.9148 C   0  0  0  0  0  0
  -21.6054   -4.3033   24.7197 C   0  0  0  0  0  0
  -21.8832   -3.8142   23.4313 C   0  0  0  0  0  0
  -21.9199   -4.6965   22.3376 C   0  0  0  0  0  0
  -22.7822  -13.5262   21.1850 C   0  0  0  0  0  0
  -22.1668   -4.2154   21.0950 F   0  0  0  0  0  0
  -21.5637   -3.4517   25.7709 F   0  0  0  0  0  0
  -30.0194  -13.4432   20.2780 N   0  0  0  0  0  0
  -26.2995  -12.9402   20.3425 N   0  0  0  0  0  0
  -25.9332  -11.6566   20.5896 N   0  0  0  0  0  0
  -22.0469  -12.8219   22.0392 N   0  0  0  0  0  0
  -25.4277  -15.1950   20.4210 N   0  0  0  0  0  0
  -31.9522  -14.5681   20.5556 O   0  0  0  0  0  0
  -21.6641   -6.8883   21.4216 O   0  0  0  0  0  0
  -22.3505  -14.5568   20.6731 O   0  0  0  0  0  0
  -24.6171  -31.8664   23.2090 C   0  0  0  0  0  0
  -25.9099  -32.4780   23.8352 C   0  0  1  0  0  0
  -27.2349  -27.4100   20.0905 C   0  0  0  0  0  0
  -25.5979  -33.8582   24.2284 N   0  0  0  0  0  0
  -23.4037  -30.4887   21.5525 C   0  0  2  0  0  0
  -24.8495  -28.9511   20.1185 C   0  0  0  0  0  0
  -22.7419  -29.4671   22.5017 C   0  0  0  0  0  0
  -18.0250  -28.1368   22.8493 C   0  0  0  0  0  0
  -24.1514  -36.7286   23.2626 C   0  0  0  0  0  0
  -25.9362  -30.8226   21.3678 C   0  0  0  0  0  0
  -26.0129  -29.4575   20.7080 C   0  0  0  0  0  0
  -27.2064  -28.6964   20.6869 C   0  0  0  0  0  0
  -26.0445  -26.9210   19.5040 C   0  0  0  0  0  0
  -24.8617  -27.6818   19.5164 C   0  0  0  0  0  0
  -23.6117  -29.8199   20.1675 C   0  0  0  0  0  0
  -25.4136  -36.3078   24.0305 C   0  0  1  0  0  0
  -20.5842  -28.3666   23.1295 C   0  0  2  0  0  0
  -20.6792  -26.9402   22.5439 C   0  0  0  0  0  0
  -19.5751  -26.6302   21.5286 C   0  0  0  0  0  0
  -18.1940  -26.7868   22.1707 C   0  0  0  0  0  0
  -19.1489  -28.8845   23.2863 C   0  0  0  0  0  0
  -18.9402  -30.1467   23.8848 C   0  0  0  0  0  0
  -17.6390  -30.6571   24.0531 C   0  0  0  0  0  0
  -25.9055  -34.9447   23.5065 C   0  0  0  0  0  0
  -16.5289  -29.9045   23.6317 C   0  0  0  0  0  0
  -16.7226  -28.6471   23.0326 C   0  0  0  0  0  0
  -26.4525  -31.6584   25.0692 C   0  0  0  0  0  0
  -25.3773  -31.3733   26.1435 C   0  0  0  0  0  0
  -27.0343  -30.3001   24.6131 C   0  0  0  0  0  0
  -27.6081  -32.4314   25.7476 C   0  0  0  0  0  0
  -27.5584  -37.1806   24.8463 C   0  0  0  0  0  0
  -21.4142  -29.3032   22.3727 N   0  0  0  0  0  0
  -26.4305  -37.3767   23.9391 N   0  0  0  0  0  0
  -24.6692  -31.0751   22.0996 N   0  0  0  0  0  0
  -23.4182  -28.8229   23.3081 O   0  0  0  0  0  0
  -28.4179  -26.6880   20.1042 O   0  0  0  0  0  0
  -26.5584  -34.8911   22.4599 O   0  0  0  0  0  0
  -23.5374  -32.1448   23.7503 O   0  0  0  0  0  0
  -29.4920  -18.8890   21.0526 C   0  0  0  0  0  0
  -30.0796  -17.6180   20.8343 C   0  0  0  0  0  0
  -27.7989  -18.3788   19.4031 C   0  0  0  0  0  0
  -28.4023  -17.1321   19.1370 C   0  0  0  0  0  0
  -28.3451  -19.2992   20.3312 C   0  0  0  0  0  0
  -29.5675  -16.7274   19.8537 C   0  0  0  0  0  0
  -26.4353  -22.4423   20.3307 C   0  0  0  0  0  0
  -27.6225  -22.9370   20.6747 C   0  0  0  0  0  0
  -26.5130  -21.0038   20.2287 C   0  0  0  0  0  0
  -31.0825  -15.7856   18.2643 C   0  0  0  0  0  0
  -28.6140  -21.8076   20.8438 C   0  0  0  0  0  0
  -27.8554  -16.3650   17.9376 C   0  0  0  0  0  0
  -31.1760  -17.1782   17.6055 C   0  0  0  0  0  0
  -27.9172  -24.4087   20.9923 C   0  0  0  0  0  0
  -28.4213  -25.2722   19.8099 C   0  0  0  0  0  0
  -27.7996  -20.6320   20.4702 N   0  0  0  0  0  0
  -30.3501  -15.5929   19.4163 N   0  0  0  0  0  0
  -25.5570  -20.2551   20.0035 O   0  0  0  0  0  0
  -31.7012  -14.8846   17.6838 O   0  0  0  0  0  0
  -31.4548  -12.4263   19.0732 H   0  0  0  0  0  0
  -30.3235  -11.3879   19.9120 H   0  0  0  0  0  0
  -29.7109  -11.6414   17.4646 H   0  0  0  0  0  0
  -29.5978  -13.3650   17.6516 H   0  0  0  0  0  0
  -27.8468  -11.2564   18.9233 H   0  0  0  0  0  0
  -27.3306  -12.4888   17.8012 H   0  0  0  0  0  0
  -27.6248  -14.2336   19.4621 H   0  0  0  0  0  0
  -28.7498  -12.2128   21.4343 H   0  0  0  0  0  0
  -28.5283  -13.9353   21.7021 H   0  0  0  0  0  0
  -25.2772   -9.5701   22.4741 H   0  0  0  0  0  0
  -24.0020   -7.4648   22.7435 H   0  0  0  0  0  0
  -21.0867   -8.8818   19.8923 H   0  0  0  0  0  0
  -22.3725  -10.9708   19.6169 H   0  0  0  0  0  0
  -21.2002   -7.6137   23.9688 H   0  0  0  0  0  0
  -21.1461   -6.0495   25.9042 H   0  0  0  0  0  0
  -22.0613   -2.7603   23.2809 H   0  0  0  0  0  0
  -22.4131  -11.9900   22.4779 H   0  0  0  0  0  0
  -21.1062  -13.1172   22.2573 H   0  0  0  0  0  0
  -24.6742  -15.8617   20.5500 H   0  0  0  0  0  0
  -26.3013  -15.6383   20.1683 H   0  0  0  0  0  0
  -26.7136  -32.5521   23.1086 H   0  0  0  0  0  0
  -25.0266  -33.9733   25.0525 H   0  0  0  0  0  0
  -22.6906  -31.3038   21.4121 H   0  0  0  0  0  0
  -23.3763  -35.9628   23.3311 H   0  0  0  0  0  0
  -24.3625  -36.8897   22.2041 H   0  0  0  0  0  0
  -23.7300  -37.6503   23.6638 H   0  0  0  0  0  0
  -26.0624  -31.5937   20.6066 H   0  0  0  0  0  0
  -26.8184  -30.8671   21.9937 H   0  0  0  0  0  0
  -28.1077  -29.0846   21.1417 H   0  0  0  0  0  0
  -25.9947  -25.9522   19.0321 H   0  0  0  0  0  0
  -23.9655  -27.2764   19.0655 H   0  0  0  0  0  0
  -23.7202  -30.5963   19.4097 H   0  0  0  0  0  0
  -22.7363  -29.2372   19.8724 H   0  0  0  0  0  0
  -25.1328  -36.1909   25.0789 H   0  0  0  0  0  0
  -20.9885  -28.3229   24.1429 H   0  0  0  0  0  0
  -20.5852  -26.2262   23.3650 H   0  0  0  0  0  0
  -21.6640  -26.7573   22.1134 H   0  0  0  0  0  0
  -19.6936  -25.6193   21.1360 H   0  0  0  0  0  0
  -19.6692  -27.3057   20.6766 H   0  0  0  0  0  0
  -17.4222  -26.6545   21.4099 H   0  0  0  0  0  0
  -18.0382  -26.0069   22.9180 H   0  0  0  0  0  0
  -19.7868  -30.7338   24.2145 H   0  0  0  0  0  0
  -17.4914  -31.6275   24.5090 H   0  0  0  0  0  0
  -15.5283  -30.2912   23.7633 H   0  0  0  0  0  0
  -15.8633  -28.0792   22.7010 H   0  0  0  0  0  0
  -24.5908  -30.7124   25.7780 H   0  0  0  0  0  0
  -24.8999  -32.2898   26.4897 H   0  0  0  0  0  0
  -25.8093  -30.8883   27.0189 H   0  0  0  0  0  0
  -26.2869  -29.6773   24.1188 H   0  0  0  0  0  0
  -27.4074  -29.7270   25.4639 H   0  0  0  0  0  0
  -27.8750  -30.4266   23.9294 H   0  0  0  0  0  0
  -27.2650  -33.3588   26.2078 H   0  0  0  0  0  0
  -28.3874  -32.6929   25.0297 H   0  0  0  0  0  0
  -28.0767  -31.8432   26.5384 H   0  0  0  0  0  0
  -28.2590  -38.0121   24.7480 H   0  0  0  0  0  0
  -28.1079  -36.2626   24.6293 H   0  0  0  0  0  0
  -27.2279  -37.1464   25.8867 H   0  0  0  0  0  0
  -20.9309  -29.8733   21.6942 H   0  0  0  0  0  0
  -26.0185  -38.2829   24.1403 H   0  0  0  0  0  0
  -29.9574  -19.5631   21.7580 H   0  0  0  0  0  0
  -30.9985  -17.3823   21.3552 H   0  0  0  0  0  0
  -26.9483  -18.6554   18.7959 H   0  0  0  0  0  0
  -25.5322  -23.0115   20.1757 H   0  0  0  0  0  0
  -28.9419  -21.7425   21.8829 H   0  0  0  0  0  0
  -29.4795  -21.9245   20.1922 H   0  0  0  0  0  0
  -26.7831  -16.2019   18.0294 H   0  0  0  0  0  0
  -28.3328  -15.4022   17.7755 H   0  0  0  0  0  0
  -28.0138  -16.9533   17.0321 H   0  0  0  0  0  0
  -30.2098  -17.6053   17.3521 H   0  0  0  0  0  0
  -31.7321  -17.1222   16.6690 H   0  0  0  0  0  0
  -31.6991  -17.8809   18.2551 H   0  0  0  0  0  0
  -28.6182  -24.4616   21.8265 H   0  0  0  0  0  0
  -26.9858  -24.8433   21.3567 H   0  0  0  0  0  0
  -27.8841  -25.0453   18.8889 H   0  0  0  0  0  0
  -29.4551  -24.9948   19.5991 H   0  0  0  0  0  0
  1 25  1  0  0  0
  1 30  2  0  0  0
  1 87  1  0  0  0
  2  3  1  0  0  0
  2 25  1  0  0  0
  2 90  1  0  0  0
  2 91  1  0  0  0
  3  4  1  0  0  0
  3 92  1  0  0  0
  3 93  1  0  0  0
  4  5  1  0  0  0
  4 94  1  0  0  0
  4 95  1  0  0  0
  5  6  1  0  0  0
  5 26  1  0  0  0
  5 96  1  0  0  0
  6 25  1  0  0  0
  6 97  1  0  0  0
  6 98  1  0  0  0
  7  8  2  0  0  0
  7 26  1  0  0  0
  7 29  1  0  0  0
  8  9  1  0  0  0
  8 22  1  0  0  0
  9 10  1  0  0  0
  9 27  2  0  0  0
 10 11  2  0  0  0
 10 15  1  0  0  0
 11 12  1  0  0  0
 11 99  1  0  0  0
 12 13  2  0  0  0
 12100  1  0  0  0
 13 14  1  0  0  0
 13 31  1  0  0  0
 14 15  2  0  0  0
 14101  1  0  0  0
 15102  1  0  0  0
 16 17  2  0  0  0
 16 21  1  0  0  0
 16 31  1  0  0  0
 17 18  1  0  0  0
 17103  1  0  0  0
 18 19  2  0  0  0
 18104  1  0  0  0
 19 20  1  0  0  0
 19 24  1  0  0  0
 20 21  2  0  0  0
 20105  1  0  0  0
 21 23  1  0  0  0
 22 28  1  0  0  0
 22 32  2  0  0  0
 26 27  1  0  0  0
 28106  1  0  0  0
 28107  1  0  0  0
 29108  1  0  0  0
 29109  1  0  0  0
 33 34  1  0  0  0
 33 66  1  0  0  0
 33 70  2  0  0  0
 34 36  1  0  0  0
 34 59  1  0  0  0
 34110  1  0  0  0
 35 44  2  0  0  0
 35 45  1  0  0  0
 35 68  1  0  0  0
 36 56  1  0  0  0
 36111  1  0  0  0
 37 39  1  0  0  0
 37 47  1  0  0  0
 37 66  1  0  0  0
 37112  1  0  0  0
 38 43  2  0  0  0
 38 46  1  0  0  0
 38 47  1  0  0  0
 39 64  1  0  0  0
 39 67  2  0  0  0
 40 52  1  0  0  0
 40 53  2  0  0  0
 40 58  1  0  0  0
 41113  1  0  0  0
 41114  1  0  0  0
 41115  1  0  0  0
 41 48  1  0  0  0
 42 43  1  0  0  0
 42 66  1  0  0  0
 42116  1  0  0  0
 42117  1  0  0  0
 43 44  1  0  0  0
 44118  1  0  0  0
 45 46  2  0  0  0
 45119  1  0  0  0
 46120  1  0  0  0
 47121  1  0  0  0
 47122  1  0  0  0
 48 56  1  0  0  0
 48 65  1  0  0  0
 48123  1  0  0  0
 49 50  1  0  0  0
 49 53  1  0  0  0
 49 64  1  0  0  0
 49124  1  0  0  0
 50 51  1  0  0  0
 50125  1  0  0  0
 50126  1  0  0  0
 51 52  1  0  0  0
 51127  1  0  0  0
 51128  1  0  0  0
 52129  1  0  0  0
 52130  1  0  0  0
 53 54  1  0  0  0
 54 55  2  0  0  0
 54131  1  0  0  0
 55 57  1  0  0  0
 55132  1  0  0  0
 56 69  2  0  0  0
 57 58  2  0  0  0
 57133  1  0  0  0
 58134  1  0  0  0
 59 60  1  0  0  0
 59 61  1  0  0  0
 59 62  1  0  0  0
 60135  1  0  0  0
 60136  1  0  0  0
 60137  1  0  0  0
 61138  1  0  0  0
 61139  1  0  0  0
 61140  1  0  0  0
 62141  1  0  0  0
 62142  1  0  0  0
 62143  1  0  0  0
 63 65  1  0  0  0
 63144  1  0  0  0
 63145  1  0  0  0
 63146  1  0  0  0
 64147  1  0  0  0
 65148  1  0  0  0
 68 85  1  0  0  0
 71 72  2  0  0  0
 71 75  1  0  0  0
 71149  1  0  0  0
 72 76  1  0  0  0
 72150  1  0  0  0
 73 74  1  0  0  0
 73 75  2  0  0  0
 73151  1  0  0  0
 74 76  2  0  0  0
 74 82  1  0  0  0
 75 86  1  0  0  0
 76 87  1  0  0  0
 77 78  2  0  0  0
 77 79  1  0  0  0
 77152  1  0  0  0
 78 81  1  0  0  0
 78 84  1  0  0  0
 79 86  1  0  0  0
 79 88  2  0  0  0
 80 83  1  0  0  0
 80 87  1  0  0  0
 80 89  2  0  0  0
 81 86  1  0  0  0
 81153  1  0  0  0
 81154  1  0  0  0
 82155  1  0  0  0
 82156  1  0  0  0
 82157  1  0  0  0
 83158  1  0  0  0
 83159  1  0  0  0
 83160  1  0  0  0
 84 85  1  0  0  0
 84161  1  0  0  0
 84162  1  0  0  0
 85163  1  0  0  0
 85164  1  0  0  0
M  ISO  4   1 100  68 101  85 101  87 100
M  END
> <chiral flag>
0

> <version>
0

> <s_m_source_file>
/data/baiqing/PycharmProjects/Reinvent-master-3.2/result/LINK_invent/BTK/process_docking_weight1_custom_product_contain_oxygen_bond_distance_aromatic_linkinvent_7_9_3/rearranged_h_0061.sdf

> <i_m_source_file_index>
4

> <r_mmod_Potential_Energy-OPLS-2005>
336.467742919922

> <r_mmod_Stretch_Energy-OPLS-2005>
54.9397468566895

> <r_mmod_Bend_Energy-OPLS-2005>
171.874298095703

> <r_mmod_Torsional_Energy-OPLS-2005>
384.943145751953

> <r_mmod_Improper_Torsional_Energy-OPLS-2005>
24.1830081939697

> <r_mmod_Van_der_Waal_Energy-OPLS-2005>
160.803802490234

> <r_mmod_Electrostatic_Energy-OPLS-2005>
-330.654418945312

> <r_mmod_Solvation_Energy-OPLS-2005>
-207.309234619141

> <b_mmod_Minimization_Converged-OPLS-2005>
0

> <r_mmod_RMS_Derivative-OPLS-2005>
3.80049133300781

$$$$
4
                    3D
 Structure written by MMmdl.
166175  0  0  1  0            999 V2000
  -30.5862  -14.7781   20.4461 C   0  0  0  0  0  0
  -30.4395  -12.4815   19.4488 C   0  0  0  0  0  0
  -29.5049  -12.5044   18.2205 C   0  0  0  0  0  0
  -28.0322  -12.3257   18.6432 C   0  0  0  0  0  0
  -27.6366  -13.2284   19.8422 C   0  0  2  0  0  0
  -28.6899  -13.1791   20.9670 C   0  0  0  0  0  0
  -25.2503  -13.8182   20.5717 C   0  0  0  0  0  0
  -24.1791  -13.0418   20.9222 C   0  0  0  0  0  0
  -24.6390  -11.6905   20.8751 C   0  0  0  0  0  0
  -23.9061  -10.4279   21.0409 C   0  0  0  0  0  0
  -24.3609   -9.4201   21.9187 C   0  0  0  0  0  0
  -23.6289   -8.2235   22.0751 C   0  0  0  0  0  0
  -22.4271   -8.0272   21.3546 C   0  0  0  0  0  0
  -21.9911   -9.0243   20.4644 C   0  0  0  0  0  0
  -22.7237  -10.2127   20.3056 C   0  0  0  0  0  0
  -21.6851   -6.0733   22.5278 C   0  0  0  0  0  0
  -21.4013   -6.5634   23.8212 C   0  0  0  0  0  0
  -21.3663   -5.6787   24.9171 C   0  0  0  0  0  0
  -21.6042   -4.3049   24.7223 C   0  0  0  0  0  0
  -21.8821   -3.8147   23.4344 C   0  0  0  0  0  0
  -21.9195   -4.6963   22.3401 C   0  0  0  0  0  0
  -22.7821  -13.5213   21.1879 C   0  0  0  0  0  0
  -22.1665   -4.2146   21.0980 F   0  0  0  0  0  0
  -21.5630   -3.4538   25.7740 F   0  0  0  0  0  0
  -29.9743  -13.5475   20.3605 N   0  0  0  0  0  0
  -26.2918  -12.9382   20.3285 N   0  0  0  0  0  0
  -25.9318  -11.6528   20.5746 N   0  0  0  0  0  0
  -22.0467  -12.8184   22.0426 N   0  0  0  0  0  0
  -25.4156  -15.1908   20.4164 N   0  0  0  0  0  0
  -31.8029  -14.8696   20.2596 O   0  0  0  0  0  0
  -21.6640   -6.8874   21.4238 O   0  0  0  0  0  0
  -22.3515  -14.5531   20.6750 O   0  0  0  0  0  0
  -24.6308  -31.8550   23.1916 C   0  0  0  0  0  0
  -25.9125  -32.4768   23.8294 C   0  0  1  0  0  0
  -27.2236  -27.2436   20.1448 C   0  0  0  0  0  0
  -25.5913  -33.8560   24.2231 N   0  0  0  0  0  0
  -23.4310  -30.4719   21.5358 C   0  0  2  0  0  0
  -24.8838  -28.9131   20.1121 C   0  0  0  0  0  0
  -22.7518  -29.4588   22.4897 C   0  0  0  0  0  0
  -18.0297  -28.1383   22.8486 C   0  0  0  0  0  0
  -24.1493  -36.7270   23.2639 C   0  0  0  0  0  0
  -25.9760  -30.7655   21.3713 C   0  0  0  0  0  0
  -26.0555  -29.3827   20.7198 C   0  0  0  0  0  0
  -27.2326  -28.5634   20.7169 C   0  0  0  0  0  0
  -26.0321  -26.8441   19.5045 C   0  0  0  0  0  0
  -24.8782  -27.6539   19.4896 C   0  0  0  0  0  0
  -23.6521  -29.7989   20.1550 C   0  0  0  0  0  0
  -25.4126  -36.3071   24.0318 C   0  0  1  0  0  0
  -20.5899  -28.3698   23.1279 C   0  0  2  0  0  0
  -20.6787  -26.9414   22.5414 C   0  0  0  0  0  0
  -19.5773  -26.6384   21.5211 C   0  0  0  0  0  0
  -18.1945  -26.7931   22.1616 C   0  0  0  0  0  0
  -19.1553  -28.8860   23.2879 C   0  0  0  0  0  0
  -18.9476  -30.1452   23.8919 C   0  0  0  0  0  0
  -17.6477  -30.6594   24.0559 C   0  0  0  0  0  0
  -25.9056  -34.9447   23.5078 C   0  0  0  0  0  0
  -16.5372  -29.9089   23.6335 C   0  0  0  0  0  0
  -16.7280  -28.6493   23.0368 C   0  0  0  0  0  0
  -26.4482  -31.6588   25.0693 C   0  0  0  0  0  0
  -25.3666  -31.3735   26.1384 C   0  0  0  0  0  0
  -27.0325  -30.3016   24.6145 C   0  0  0  0  0  0
  -27.6056  -32.4307   25.7461 C   0  0  0  0  0  0
  -27.5581  -37.1798   24.8472 C   0  0  0  0  0  0
  -21.4219  -29.3046   22.3673 N   0  0  0  0  0  0
  -26.4305  -37.3769   23.9400 N   0  0  0  0  0  0
  -24.6985  -31.0497   22.0896 N   0  0  0  0  0  0
  -23.4229  -28.8133   23.2996 O   0  0  0  0  0  0
  -28.3152  -26.3434   20.1631 O   0  0  0  0  0  0
  -26.5638  -34.8913   22.4650 O   0  0  0  0  0  0
  -23.5456  -32.1387   23.7200 O   0  0  0  0  0  0
  -30.2722  -18.5872   22.9795 C   0  0  0  0  0  0
  -30.2859  -17.3617   22.2909 C   0  0  0  0  0  0
  -29.5737  -18.5576   20.2940 C   0  0  0  0  0  0
  -29.9410  -19.8105   22.3530 C   0  0  0  0  0  0
  -29.6177  -19.8626   20.9651 C   0  0  0  0  0  0
  -29.9189  -17.2826   20.9359 C   0  0  0  0  0  0
  -30.1882  -23.3662   19.9507 C   0  0  0  0  0  0
  -30.5402  -22.0729   20.1393 C   0  0  0  0  0  0
  -28.2965  -22.0996   20.4600 C   0  0  0  0  0  0
  -28.6912  -23.5804   19.9477 C   0  0  1  0  0  0
  -29.9555  -21.0536   23.2339 C   0  0  0  0  0  0
  -31.9737  -21.5745   20.2148 C   0  0  0  0  0  0
  -31.0394  -25.1808   18.3700 C   0  0  0  0  0  0
  -31.1341  -24.5441   19.7631 C   0  0  0  0  0  0
  -28.1079  -24.9298   20.6650 C   0  0  0  0  0  0
  -29.4810  -21.1722   20.3183 N   0  0  0  0  0  0
  -29.7751  -15.9107   20.3747 N   0  0  0  0  0  0
  -31.4730  -12.6353   19.1351 H   0  0  0  0  0  0
  -30.4124  -11.5097   19.9444 H   0  0  0  0  0  0
  -29.7878  -11.7232   17.5140 H   0  0  0  0  0  0
  -29.6196  -13.4521   17.6911 H   0  0  0  0  0  0
  -27.8907  -11.2776   18.9090 H   0  0  0  0  0  0
  -27.3712  -12.5154   17.7964 H   0  0  0  0  0  0
  -27.6202  -14.2464   19.4546 H   0  0  0  0  0  0
  -28.7425  -12.1850   21.4125 H   0  0  0  0  0  0
  -28.4288  -13.8666   21.7735 H   0  0  0  0  0  0
  -25.2751   -9.5681   22.4767 H   0  0  0  0  0  0
  -23.9999   -7.4627   22.7473 H   0  0  0  0  0  0
  -21.0845   -8.8761   19.8951 H   0  0  0  0  0  0
  -22.3691  -10.9664   19.6169 H   0  0  0  0  0  0
  -21.1999   -7.6142   23.9711 H   0  0  0  0  0  0
  -21.1486   -6.0519   25.9072 H   0  0  0  0  0  0
  -22.0600   -2.7609   23.2847 H   0  0  0  0  0  0
  -22.4075  -11.9819   22.4766 H   0  0  0  0  0  0
  -21.1096  -13.1216   22.2661 H   0  0  0  0  0  0
  -24.6462  -15.8386   20.5439 H   0  0  0  0  0  0
  -26.2597  -15.6438   20.0925 H   0  0  0  0  0  0
  -26.7197  -32.5437   23.1038 H   0  0  0  0  0  0
  -25.0087  -33.9717   25.0395 H   0  0  0  0  0  0
  -22.7268  -31.2926   21.3836 H   0  0  0  0  0  0
  -23.3775  -35.9582   23.3304 H   0  0  0  0  0  0
  -24.3586  -36.8892   22.2057 H   0  0  0  0  0  0
  -23.7226  -37.6457   23.6665 H   0  0  0  0  0  0
  -26.1029  -31.5219   20.5960 H   0  0  0  0  0  0
  -26.8561  -30.8288   21.9990 H   0  0  0  0  0  0
  -28.1377  -28.9179   21.1907 H   0  0  0  0  0  0
  -25.9857  -25.8785   19.0187 H   0  0  0  0  0  0
  -23.9818  -27.2948   19.0026 H   0  0  0  0  0  0
  -23.7708  -30.5724   19.3956 H   0  0  0  0  0  0
  -22.7739  -29.2260   19.8517 H   0  0  0  0  0  0
  -25.1295  -36.1920   25.0809 H   0  0  0  0  0  0
  -20.9986  -28.3255   24.1405 H   0  0  0  0  0  0
  -20.5684  -26.2290   23.3599 H   0  0  0  0  0  0
  -21.6647  -26.7417   22.1212 H   0  0  0  0  0  0
  -19.6916  -25.6288   21.1254 H   0  0  0  0  0  0
  -19.6724  -27.3191   20.6731 H   0  0  0  0  0  0
  -17.4209  -26.6700   21.4017 H   0  0  0  0  0  0
  -18.0330  -26.0060   22.8998 H   0  0  0  0  0  0
  -19.7952  -30.7259   24.2310 H   0  0  0  0  0  0
  -17.5035  -31.6283   24.5156 H   0  0  0  0  0  0
  -15.5381  -30.3006   23.7639 H   0  0  0  0  0  0
  -15.8671  -28.0816   22.7087 H   0  0  0  0  0  0
  -24.5940  -30.6965   25.7702 H   0  0  0  0  0  0
  -24.8731  -32.2891   26.4659 H   0  0  0  0  0  0
  -25.7957  -30.9054   27.0253 H   0  0  0  0  0  0
  -26.2896  -29.6791   24.1151 H   0  0  0  0  0  0
  -27.4022  -29.7240   25.4624 H   0  0  0  0  0  0
  -27.8745  -30.4314   23.9346 H   0  0  0  0  0  0
  -27.2728  -33.3690   26.1895 H   0  0  0  0  0  0
  -28.3935  -32.6711   25.0312 H   0  0  0  0  0  0
  -28.0617  -31.8500   26.5492 H   0  0  0  0  0  0
  -28.2579  -38.0112   24.7516 H   0  0  0  0  0  0
  -28.1095  -36.2635   24.6297 H   0  0  0  0  0  0
  -27.2299  -37.1428   25.8877 H   0  0  0  0  0  0
  -20.9413  -29.8810   21.6904 H   0  0  0  0  0  0
  -26.0185  -38.2834   24.1424 H   0  0  0  0  0  0
  -30.5252  -18.5758   24.0306 H   0  0  0  0  0  0
  -30.5298  -16.4636   22.8421 H   0  0  0  0  0  0
  -29.2917  -18.5433   19.2514 H   0  0  0  0  0  0
  -27.4463  -21.7163   19.8939 H   0  0  0  0  0  0
  -27.9879  -22.1384   21.5044 H   0  0  0  0  0  0
  -28.4029  -23.6438   18.8978 H   0  0  0  0  0  0
  -30.4030  -20.8410   24.2052 H   0  0  0  0  0  0
  -28.9370  -21.3918   23.4208 H   0  0  0  0  0  0
  -30.5272  -21.8683   22.7938 H   0  0  0  0  0  0
  -32.4625  -22.0075   21.0891 H   0  0  0  0  0  0
  -32.5230  -21.8918   19.3288 H   0  0  0  0  0  0
  -32.0592  -20.4904   20.2855 H   0  0  0  0  0  0
  -31.7151  -26.0335   18.2951 H   0  0  0  0  0  0
  -30.0336  -25.5434   18.1581 H   0  0  0  0  0  0
  -31.3101  -24.4696   17.5898 H   0  0  0  0  0  0
  -32.1606  -24.2277   19.9476 H   0  0  0  0  0  0
  -30.9156  -25.2934   20.5239 H   0  0  0  0  0  0
  -28.4891  -24.9366   21.6868 H   0  0  0  0  0  0
  -27.0395  -24.7605   20.7919 H   0  0  0  0  0  0
  -28.8389  -15.6976   20.0676 H   0  0  0  0  0  0
  1 25  1  0  0  0
  1 30  2  0  0  0
  1 87  1  0  0  0
  2  3  1  0  0  0
  2 25  1  0  0  0
  2 88  1  0  0  0
  2 89  1  0  0  0
  3  4  1  0  0  0
  3 90  1  0  0  0
  3 91  1  0  0  0
  4  5  1  0  0  0
  4 92  1  0  0  0
  4 93  1  0  0  0
  5  6  1  0  0  0
  5 26  1  0  0  0
  5 94  1  0  0  0
  6 25  1  0  0  0
  6 95  1  0  0  0
  6 96  1  0  0  0
  7  8  2  0  0  0
  7 26  1  0  0  0
  7 29  1  0  0  0
  8  9  1  0  0  0
  8 22  1  0  0  0
  9 10  1  0  0  0
  9 27  2  0  0  0
 10 11  2  0  0  0
 10 15  1  0  0  0
 11 12  1  0  0  0
 11 97  1  0  0  0
 12 13  2  0  0  0
 12 98  1  0  0  0
 13 14  1  0  0  0
 13 31  1  0  0  0
 14 15  2  0  0  0
 14 99  1  0  0  0
 15100  1  0  0  0
 16 17  2  0  0  0
 16 21  1  0  0  0
 16 31  1  0  0  0
 17 18  1  0  0  0
 17101  1  0  0  0
 18 19  2  0  0  0
 18102  1  0  0  0
 19 20  1  0  0  0
 19 24  1  0  0  0
 20 21  2  0  0  0
 20103  1  0  0  0
 21 23  1  0  0  0
 22 28  1  0  0  0
 22 32  2  0  0  0
 26 27  1  0  0  0
 28104  1  0  0  0
 28105  1  0  0  0
 29106  1  0  0  0
 29107  1  0  0  0
 33 34  1  0  0  0
 33 66  1  0  0  0
 33 70  2  0  0  0
 34 36  1  0  0  0
 34 59  1  0  0  0
 34108  1  0  0  0
 35 44  2  0  0  0
 35 45  1  0  0  0
 35 68  1  0  0  0
 36 56  1  0  0  0
 36109  1  0  0  0
 37 39  1  0  0  0
 37 47  1  0  0  0
 37 66  1  0  0  0
 37110  1  0  0  0
 38 43  2  0  0  0
 38 46  1  0  0  0
 38 47  1  0  0  0
 39 64  1  0  0  0
 39 67  2  0  0  0
 40 52  1  0  0  0
 40 53  2  0  0  0
 40 58  1  0  0  0
 41111  1  0  0  0
 41112  1  0  0  0
 41113  1  0  0  0
 41 48  1  0  0  0
 42 43  1  0  0  0
 42 66  1  0  0  0
 42114  1  0  0  0
 42115  1  0  0  0
 43 44  1  0  0  0
 44116  1  0  0  0
 45 46  2  0  0  0
 45117  1  0  0  0
 46118  1  0  0  0
 47119  1  0  0  0
 47120  1  0  0  0
 48 56  1  0  0  0
 48 65  1  0  0  0
 48121  1  0  0  0
 49 50  1  0  0  0
 49 53  1  0  0  0
 49 64  1  0  0  0
 49122  1  0  0  0
 50 51  1  0  0  0
 50123  1  0  0  0
 50124  1  0  0  0
 51 52  1  0  0  0
 51125  1  0  0  0
 51126  1  0  0  0
 52127  1  0  0  0
 52128  1  0  0  0
 53 54  1  0  0  0
 54 55  2  0  0  0
 54129  1  0  0  0
 55 57  1  0  0  0
 55130  1  0  0  0
 56 69  2  0  0  0
 57 58  2  0  0  0
 57131  1  0  0  0
 58132  1  0  0  0
 59 60  1  0  0  0
 59 61  1  0  0  0
 59 62  1  0  0  0
 60133  1  0  0  0
 60134  1  0  0  0
 60135  1  0  0  0
 61136  1  0  0  0
 61137  1  0  0  0
 61138  1  0  0  0
 62139  1  0  0  0
 62140  1  0  0  0
 62141  1  0  0  0
 63 65  1  0  0  0
 63142  1  0  0  0
 63143  1  0  0  0
 63144  1  0  0  0
 64145  1  0  0  0
 65146  1  0  0  0
 68 85  1  0  0  0
 71 72  2  0  0  0
 71 74  1  0  0  0
 71147  1  0  0  0
 72 76  1  0  0  0
 72148  1  0  0  0
 73 75  1  0  0  0
 73 76  2  0  0  0
 73149  1  0  0  0
 74 75  2  0  0  0
 74 81  1  0  0  0
 75 86  1  0  0  0
 76 87  1  0  0  0
 77 78  2  0  0  0
 77 80  1  0  0  0
 77 84  1  0  0  0
 78 82  1  0  0  0
 78 86  1  0  0  0
 79 80  1  0  0  0
 79 86  1  0  0  0
 79150  1  0  0  0
 79151  1  0  0  0
 80 85  1  0  0  0
 80152  1  0  0  0
 81153  1  0  0  0
 81154  1  0  0  0
 81155  1  0  0  0
 82156  1  0  0  0
 82157  1  0  0  0
 82158  1  0  0  0
 83 84  1  0  0  0
 83159  1  0  0  0
 83160  1  0  0  0
 83161  1  0  0  0
 84162  1  0  0  0
 84163  1  0  0  0
 85164  1  0  0  0
 85165  1  0  0  0
 87166  1  0  0  0
M  ISO  4   1 100  68 101  85 101  87 100
M  END
> <chiral flag>
0

> <version>
0

> <s_m_source_file>
/data/baiqing/PycharmProjects/Reinvent-master-3.2/result/LINK_invent/BTK/process_docking_weight1_custom_product_contain_oxygen_bond_distance_aromatic_linkinvent_7_9_3/rearranged_h_0061.sdf

> <i_m_source_file_index>
5

> <r_mmod_Potential_Energy-OPLS-2005>
346.624237060547

> <r_mmod_Stretch_Energy-OPLS-2005>
136.992706298828

> <r_mmod_Bend_Energy-OPLS-2005>
237.450408935547

> <r_mmod_Torsional_Energy-OPLS-2005>
306.985076904297

> <r_mmod_Improper_Torsional_Energy-OPLS-2005>
13.1736612319946

> <r_mmod_Van_der_Waal_Energy-OPLS-2005>
127.173652648926

> <r_mmod_Electrostatic_Energy-OPLS-2005>
-372.537811279297

> <r_mmod_Solvation_Energy-OPLS-2005>
-204.288925170898

> <b_mmod_Minimization_Converged-OPLS-2005>
0

> <r_mmod_RMS_Derivative-OPLS-2005>
2.44509196281433

$$$$
5
                    3D
 Structure written by MMmdl.
158166  0  0  1  0            999 V2000
  -30.7123  -14.4247   20.7081 C   0  0  0  0  0  0
  -30.4453  -12.3333   19.3982 C   0  0  0  0  0  0
  -29.4986  -12.5439   18.1999 C   0  0  0  0  0  0
  -28.0221  -12.3745   18.6117 C   0  0  0  0  0  0
  -27.6705  -13.1947   19.8803 C   0  0  2  0  0  0
  -28.7068  -12.9214   20.9912 C   0  0  0  0  0  0
  -25.2597  -13.8115   20.5630 C   0  0  0  0  0  0
  -24.1855  -13.0424   20.9175 C   0  0  0  0  0  0
  -24.6398  -11.6877   20.8741 C   0  0  0  0  0  0
  -23.9066  -10.4269   21.0424 C   0  0  0  0  0  0
  -24.3617   -9.4172   21.9196 C   0  0  0  0  0  0
  -23.6277   -8.2217   22.0774 C   0  0  0  0  0  0
  -22.4254   -8.0278   21.3570 C   0  0  0  0  0  0
  -21.9900   -9.0256   20.4674 C   0  0  0  0  0  0
  -22.7245  -10.2118   20.3072 C   0  0  0  0  0  0
  -21.6833   -6.0735   22.5293 C   0  0  0  0  0  0
  -21.4001   -6.5635   23.8227 C   0  0  0  0  0  0
  -21.3658   -5.6788   24.9184 C   0  0  0  0  0  0
  -21.6055   -4.3061   24.7233 C   0  0  0  0  0  0
  -21.8812   -3.8146   23.4348 C   0  0  0  0  0  0
  -21.9177   -4.6960   22.3407 C   0  0  0  0  0  0
  -22.7873  -13.5236   21.1855 C   0  0  0  0  0  0
  -22.1641   -4.2143   21.0981 F   0  0  0  0  0  0
  -21.5626   -3.4541   25.7749 F   0  0  0  0  0  0
  -30.0514  -13.2567   20.4720 N   0  0  0  0  0  0
  -26.3064  -12.9274   20.3370 N   0  0  0  0  0  0
  -25.9324  -11.6442   20.5770 N   0  0  0  0  0  0
  -22.0492  -12.8226   22.0402 N   0  0  0  0  0  0
  -25.4263  -15.1842   20.3959 N   0  0  0  0  0  0
  -31.7245  -14.7711   20.0887 O   0  0  0  0  0  0
  -21.6610   -6.8882   21.4262 O   0  0  0  0  0  0
  -22.3571  -14.5549   20.6703 O   0  0  0  0  0  0
  -24.6144  -31.8670   23.2092 C   0  0  0  0  0  0
  -25.9035  -32.4817   23.8386 C   0  0  1  0  0  0
  -27.2459  -27.4324   20.1043 C   0  0  0  0  0  0
  -25.5889  -33.8615   24.2313 N   0  0  0  0  0  0
  -23.4056  -30.4864   21.5488 C   0  0  2  0  0  0
  -24.8576  -28.9472   20.1213 C   0  0  0  0  0  0
  -22.7408  -29.4643   22.4997 C   0  0  0  0  0  0
  -18.0274  -28.1368   22.8494 C   0  0  0  0  0  0
  -24.1484  -36.7319   23.2636 C   0  0  0  0  0  0
  -25.9331  -30.8280   21.3678 C   0  0  0  0  0  0
  -26.0144  -29.4578   20.7252 C   0  0  0  0  0  0
  -27.2121  -28.7034   20.7246 C   0  0  0  0  0  0
  -26.0782  -26.9387   19.4906 C   0  0  0  0  0  0
  -24.8823  -27.6832   19.5048 C   0  0  0  0  0  0
  -23.6175  -29.8126   20.1658 C   0  0  0  0  0  0
  -25.4107  -36.3108   24.0331 C   0  0  1  0  0  0
  -20.5858  -28.3655   23.1320 C   0  0  2  0  0  0
  -20.6763  -26.9396   22.5415 C   0  0  0  0  0  0
  -19.5746  -26.6383   21.5206 C   0  0  0  0  0  0
  -18.1922  -26.7917   22.1619 C   0  0  0  0  0  0
  -19.1523  -28.8833   23.2897 C   0  0  0  0  0  0
  -18.9450  -30.1441   23.8903 C   0  0  0  0  0  0
  -17.6451  -30.6577   24.0561 C   0  0  0  0  0  0
  -25.9034  -34.9478   23.5121 C   0  0  0  0  0  0
  -16.5342  -29.9073   23.6327 C   0  0  0  0  0  0
  -16.7262  -28.6488   23.0354 C   0  0  0  0  0  0
  -26.4463  -31.6599   25.0717 C   0  0  0  0  0  0
  -25.3733  -31.3717   26.1467 C   0  0  0  0  0  0
  -27.0297  -30.3040   24.6103 C   0  0  0  0  0  0
  -27.6032  -32.4327   25.7479 C   0  0  0  0  0  0
  -27.5581  -37.1808   24.8461 C   0  0  0  0  0  0
  -21.4134  -29.3013   22.3722 N   0  0  0  0  0  0
  -26.4295  -37.3795   23.9402 N   0  0  0  0  0  0
  -24.6686  -31.0755   22.1009 N   0  0  0  0  0  0
  -23.4168  -28.8203   23.3067 O   0  0  0  0  0  0
  -28.3894  -26.6681   20.0302 O   0  0  0  0  0  0
  -26.5604  -34.8925   22.4684 O   0  0  0  0  0  0
  -23.5334  -32.1430   23.7466 O   0  0  0  0  0  0
  -30.6801  -17.5667   21.2948 C   0  0  0  0  0  0
  -30.1327  -19.1519   23.0818 C   0  0  0  0  0  0
  -29.7831  -16.7726   23.4250 C   0  0  0  0  0  0
  -30.5882  -18.9094   21.7659 C   0  0  0  0  0  0
  -30.2649  -16.4893   22.1274 C   0  0  0  0  0  0
  -29.7283  -18.0905   23.9033 C   0  0  0  0  0  0
  -30.9462  -20.0716   20.9306 C   0  0  0  0  0  0
  -30.3847  -22.4852   20.3942 C   0  0  0  0  0  0
  -29.3044  -23.5483   20.6996 C   0  0  0  0  0  0
  -29.8745  -24.9596   21.0127 C   0  0  0  0  0  0
  -28.8128  -26.0675   21.2557 C   0  0  0  0  0  0
  -30.2040  -15.1154   21.7428 N   0  0  0  0  0  0
  -30.1770  -21.1895   20.9964 N   0  0  0  0  0  0
  -32.0341  -19.9975   20.1567 N   0  3  0  0  0  0
  -31.3711  -22.7320   19.6908 O   0  0  0  0  0  0
  -29.2708  -18.3391   25.1542 F   0  0  0  0  0  0
  -31.4809  -12.4860   19.0907 H   0  0  0  0  0  0
  -30.3939  -11.3040   19.7543 H   0  0  0  0  0  0
  -29.7506  -11.8496   17.3966 H   0  0  0  0  0  0
  -29.6477  -13.5452   17.7915 H   0  0  0  0  0  0
  -27.8448  -11.3136   18.7963 H   0  0  0  0  0  0
  -27.3662  -12.6545   17.7867 H   0  0  0  0  0  0
  -27.7335  -14.2490   19.6124 H   0  0  0  0  0  0
  -28.6855  -11.8662   21.2695 H   0  0  0  0  0  0
  -28.4251  -13.4542   21.8991 H   0  0  0  0  0  0
  -25.2778   -9.5604   22.4758 H   0  0  0  0  0  0
  -24.0001   -7.4569   22.7459 H   0  0  0  0  0  0
  -21.0843   -8.8769   19.8947 H   0  0  0  0  0  0
  -22.3745  -10.9654   19.6158 H   0  0  0  0  0  0
  -21.1984   -7.6138   23.9741 H   0  0  0  0  0  0
  -21.1511   -6.0509   25.9095 H   0  0  0  0  0  0
  -22.0595   -2.7609   23.2845 H   0  0  0  0  0  0
  -22.4079  -11.9864   22.4783 H   0  0  0  0  0  0
  -21.1142  -13.1281   22.2686 H   0  0  0  0  0  0
  -24.6520  -15.8355   20.4837 H   0  0  0  0  0  0
  -26.2721  -15.6217   20.0520 H   0  0  0  0  0  0
  -26.7109  -32.5536   23.1153 H   0  0  0  0  0  0
  -25.0029  -33.9777   25.0453 H   0  0  0  0  0  0
  -22.6945  -31.3018   21.4041 H   0  0  0  0  0  0
  -23.3734  -35.9666   23.3321 H   0  0  0  0  0  0
  -24.3574  -36.8915   22.2046 H   0  0  0  0  0  0
  -23.7255  -37.6537   23.6640 H   0  0  0  0  0  0
  -26.0428  -31.5877   20.5923 H   0  0  0  0  0  0
  -26.8220  -30.8879   21.9835 H   0  0  0  0  0  0
  -28.1079  -29.0954   21.1857 H   0  0  0  0  0  0
  -26.0966  -25.9725   19.0063 H   0  0  0  0  0  0
  -23.9951  -27.2823   19.0323 H   0  0  0  0  0  0
  -23.7216  -30.5822   19.4005 H   0  0  0  0  0  0
  -22.7444  -29.2252   19.8748 H   0  0  0  0  0  0
  -25.1283  -36.1971   25.0827 H   0  0  0  0  0  0
  -20.9950  -28.3218   24.1443 H   0  0  0  0  0  0
  -20.5670  -26.2260   23.3596 H   0  0  0  0  0  0
  -21.6637  -26.7443   22.1205 H   0  0  0  0  0  0
  -19.6911  -25.6300   21.1223 H   0  0  0  0  0  0
  -19.6687  -27.3206   20.6749 H   0  0  0  0  0  0
  -17.4196  -26.6667   21.4018 H   0  0  0  0  0  0
  -18.0327  -26.0049   22.9008 H   0  0  0  0  0  0
  -19.7926  -30.7255   24.2270 H   0  0  0  0  0  0
  -17.5007  -31.6264   24.5153 H   0  0  0  0  0  0
  -15.5342  -30.2976   23.7657 H   0  0  0  0  0  0
  -15.8660  -28.0810   22.7070 H   0  0  0  0  0  0
  -24.5888  -30.7084   25.7807 H   0  0  0  0  0  0
  -24.8946  -32.2884   26.4925 H   0  0  0  0  0  0
  -25.8083  -30.8874   27.0218 H   0  0  0  0  0  0
  -26.2852  -29.6803   24.1144 H   0  0  0  0  0  0
  -27.4047  -29.7268   25.4563 H   0  0  0  0  0  0
  -27.8689  -30.4347   23.9268 H   0  0  0  0  0  0
  -27.2632  -33.3600   26.2100 H   0  0  0  0  0  0
  -28.3815  -32.6940   25.0299 H   0  0  0  0  0  0
  -28.0734  -31.8439   26.5361 H   0  0  0  0  0  0
  -28.2600  -38.0103   24.7510 H   0  0  0  0  0  0
  -28.1073  -36.2636   24.6281 H   0  0  0  0  0  0
  -27.2300  -37.1453   25.8865 H   0  0  0  0  0  0
  -20.9311  -29.8701   21.6903 H   0  0  0  0  0  0
  -26.0180  -38.2873   24.1409 H   0  0  0  0  0  0
  -31.0311  -17.3751   20.2901 H   0  0  0  0  0  0
  -30.0845  -20.1541   23.4847 H   0  0  0  0  0  0
  -29.4442  -15.9794   24.0745 H   0  0  0  0  0  0
  -28.6991  -23.2158   21.5438 H   0  0  0  0  0  0
  -28.6359  -23.6044   19.8406 H   0  0  0  0  0  0
  -30.5617  -25.2825   20.2299 H   0  0  0  0  0  0
  -30.4815  -24.8746   21.9166 H   0  0  0  0  0  0
  -29.2424  -26.8486   21.8849 H   0  0  0  0  0  0
  -27.9616  -25.6606   21.8048 H   0  0  0  0  0  0
  -29.5419  -14.5666   22.2717 H   0  0  0  0  0  0
  -29.3574  -21.0169   21.5551 H   0  0  0  0  0  0
  -32.6533  -19.2030   20.2138 H   0  0  0  0  0  0
  -32.2928  -20.7985   19.5973 H   0  0  0  0  0  0
  1 25  1  0  0  0
  1 30  2  0  0  0
  1 82  1  0  0  0
  2  3  1  0  0  0
  2 25  1  0  0  0
  2 87  1  0  0  0
  2 88  1  0  0  0
  3  4  1  0  0  0
  3 89  1  0  0  0
  3 90  1  0  0  0
  4  5  1  0  0  0
  4 91  1  0  0  0
  4 92  1  0  0  0
  5  6  1  0  0  0
  5 26  1  0  0  0
  5 93  1  0  0  0
  6 25  1  0  0  0
  6 94  1  0  0  0
  6 95  1  0  0  0
  7  8  2  0  0  0
  7 26  1  0  0  0
  7 29  1  0  0  0
  8  9  1  0  0  0
  8 22  1  0  0  0
  9 10  1  0  0  0
  9 27  2  0  0  0
 10 11  2  0  0  0
 10 15  1  0  0  0
 11 12  1  0  0  0
 11 96  1  0  0  0
 12 13  2  0  0  0
 12 97  1  0  0  0
 13 14  1  0  0  0
 13 31  1  0  0  0
 14 15  2  0  0  0
 14 98  1  0  0  0
 15 99  1  0  0  0
 16 17  2  0  0  0
 16 21  1  0  0  0
 16 31  1  0  0  0
 17 18  1  0  0  0
 17100  1  0  0  0
 18 19  2  0  0  0
 18101  1  0  0  0
 19 20  1  0  0  0
 19 24  1  0  0  0
 20 21  2  0  0  0
 20102  1  0  0  0
 21 23  1  0  0  0
 22 28  1  0  0  0
 22 32  2  0  0  0
 26 27  1  0  0  0
 28103  1  0  0  0
 28104  1  0  0  0
 29105  1  0  0  0
 29106  1  0  0  0
 33 34  1  0  0  0
 33 66  1  0  0  0
 33 70  2  0  0  0
 34 36  1  0  0  0
 34 59  1  0  0  0
 34107  1  0  0  0
 35 44  2  0  0  0
 35 45  1  0  0  0
 35 68  1  0  0  0
 36 56  1  0  0  0
 36108  1  0  0  0
 37 39  1  0  0  0
 37 47  1  0  0  0
 37 66  1  0  0  0
 37109  1  0  0  0
 38 43  2  0  0  0
 38 46  1  0  0  0
 38 47  1  0  0  0
 39 64  1  0  0  0
 39 67  2  0  0  0
 40 52  1  0  0  0
 40 53  2  0  0  0
 40 58  1  0  0  0
 41110  1  0  0  0
 41111  1  0  0  0
 41112  1  0  0  0
 41 48  1  0  0  0
 42 43  1  0  0  0
 42 66  1  0  0  0
 42113  1  0  0  0
 42114  1  0  0  0
 43 44  1  0  0  0
 44115  1  0  0  0
 45 46  2  0  0  0
 45116  1  0  0  0
 46117  1  0  0  0
 47118  1  0  0  0
 47119  1  0  0  0
 48 56  1  0  0  0
 48 65  1  0  0  0
 48120  1  0  0  0
 49 50  1  0  0  0
 49 53  1  0  0  0
 49 64  1  0  0  0
 49121  1  0  0  0
 50 51  1  0  0  0
 50122  1  0  0  0
 50123  1  0  0  0
 51 52  1  0  0  0
 51124  1  0  0  0
 51125  1  0  0  0
 52126  1  0  0  0
 52127  1  0  0  0
 53 54  1  0  0  0
 54 55  2  0  0  0
 54128  1  0  0  0
 55 57  1  0  0  0
 55129  1  0  0  0
 56 69  2  0  0  0
 57 58  2  0  0  0
 57130  1  0  0  0
 58131  1  0  0  0
 59 60  1  0  0  0
 59 61  1  0  0  0
 59 62  1  0  0  0
 60132  1  0  0  0
 60133  1  0  0  0
 60134  1  0  0  0
 61135  1  0  0  0
 61136  1  0  0  0
 61137  1  0  0  0
 62138  1  0  0  0
 62139  1  0  0  0
 62140  1  0  0  0
 63 65  1  0  0  0
 63141  1  0  0  0
 63142  1  0  0  0
 63143  1  0  0  0
 64144  1  0  0  0
 65145  1  0  0  0
 68 81  1  0  0  0
 71 74  2  0  0  0
 71 75  1  0  0  0
 71146  1  0  0  0
 72 74  1  0  0  0
 72 76  2  0  0  0
 72147  1  0  0  0
 73 75  2  0  0  0
 73 76  1  0  0  0
 73148  1  0  0  0
 74 77  1  0  0  0
 75 82  1  0  0  0
 76 86  1  0  0  0
 77 83  1  0  0  0
 77 84  2  0  0  0
 78 79  1  0  0  0
 78 83  1  0  0  0
 78 85  2  0  0  0
 79 80  1  0  0  0
 79149  1  0  0  0
 79150  1  0  0  0
 80 81  1  0  0  0
 80151  1  0  0  0
 80152  1  0  0  0
 81153  1  0  0  0
 81154  1  0  0  0
 82155  1  0  0  0
 83156  1  0  0  0
 84157  1  0  0  0
 84158  1  0  0  0
M  CHG  1  84   1
M  ISO  4   1 100  68 101  81 101  82 100
M  END
> <chiral flag>
0

> <version>
0

> <s_m_source_file>
/data/baiqing/PycharmProjects/Reinvent-master-3.2/result/LINK_invent/BTK/process_docking_weight1_custom_product_contain_oxygen_bond_distance_aromatic_linkinvent_7_9_3/rearranged_h_0061.sdf

> <i_m_source_file_index>
6

> <r_mmod_Potential_Energy-OPLS-2005>
-397.511291503906

> <r_mmod_Stretch_Energy-OPLS-2005>
39.3281326293945

> <r_mmod_Bend_Energy-OPLS-2005>
120.738571166992

> <r_mmod_Torsional_Energy-OPLS-2005>
234.672653198242

> <r_mmod_Improper_Torsional_Energy-OPLS-2005>
3.1547646522522

> <r_mmod_Van_der_Waal_Energy-OPLS-2005>
155.0048828125

> <r_mmod_Electrostatic_Energy-OPLS-2005>
-503.956115722656

> <r_mmod_Solvation_Energy-OPLS-2005>
-457.582427978516

> <b_mmod_Minimization_Converged-OPLS-2005>
0

> <r_mmod_RMS_Derivative-OPLS-2005>
2.83483290672302

$$$$
6
                    3D
 Structure written by MMmdl.
158167  0  0  1  0            999 V2000
  -30.6980  -14.6871   20.4843 C   0  0  0  0  0  0
  -30.4154  -12.4491   19.4364 C   0  0  0  0  0  0
  -29.4797  -12.5145   18.2114 C   0  0  0  0  0  0
  -28.0082  -12.3506   18.6365 C   0  0  0  0  0  0
  -27.6398  -13.2280   19.8626 C   0  0  2  0  0  0
  -28.7031  -13.0855   20.9694 C   0  0  0  0  0  0
  -25.2454  -13.8137   20.5654 C   0  0  0  0  0  0
  -24.1754  -13.0400   20.9161 C   0  0  0  0  0  0
  -24.6366  -11.6884   20.8749 C   0  0  0  0  0  0
  -23.9047  -10.4276   21.0397 C   0  0  0  0  0  0
  -24.3615   -9.4195   21.9172 C   0  0  0  0  0  0
  -23.6295   -8.2238   22.0748 C   0  0  0  0  0  0
  -22.4270   -8.0272   21.3548 C   0  0  0  0  0  0
  -21.9911   -9.0241   20.4640 C   0  0  0  0  0  0
  -22.7228  -10.2115   20.3043 C   0  0  0  0  0  0
  -21.6850   -6.0726   22.5280 C   0  0  0  0  0  0
  -21.4004   -6.5638   23.8207 C   0  0  0  0  0  0
  -21.3651   -5.6797   24.9178 C   0  0  0  0  0  0
  -21.6054   -4.3066   24.7228 C   0  0  0  0  0  0
  -21.8818   -3.8142   23.4359 C   0  0  0  0  0  0
  -21.9192   -4.6957   22.3399 C   0  0  0  0  0  0
  -22.7793  -13.5181   21.1863 C   0  0  0  0  0  0
  -22.1666   -4.2137   21.0980 F   0  0  0  0  0  0
  -21.5645   -3.4552   25.7746 F   0  0  0  0  0  0
  -29.9794  -13.5066   20.3826 N   0  0  0  0  0  0
  -26.2931  -12.9375   20.3416 N   0  0  0  0  0  0
  -25.9302  -11.6510   20.5837 N   0  0  0  0  0  0
  -22.0477  -12.8164   22.0435 N   0  0  0  0  0  0
  -25.4100  -15.1839   20.3985 N   0  0  0  0  0  0
  -31.9006  -14.6572   20.2163 O   0  0  0  0  0  0
  -21.6642   -6.8869   21.4238 O   0  0  0  0  0  0
  -22.3442  -14.5492   20.6725 O   0  0  0  0  0  0
  -24.6284  -31.8617   23.2026 C   0  0  0  0  0  0
  -25.9118  -32.4790   23.8383 C   0  0  1  0  0  0
  -27.2129  -27.3080   20.1194 C   0  0  0  0  0  0
  -25.5946  -33.8599   24.2356 N   0  0  0  0  0  0
  -23.4219  -30.4844   21.5467 C   0  0  2  0  0  0
  -24.8677  -28.9386   20.1121 C   0  0  0  0  0  0
  -22.7507  -29.4621   22.4989 C   0  0  0  0  0  0
  -18.0297  -28.1360   22.8702 C   0  0  0  0  0  0
  -24.1477  -36.7288   23.2634 C   0  0  0  0  0  0
  -25.9670  -30.7829   21.3829 C   0  0  0  0  0  0
  -26.0365  -29.4077   20.7285 C   0  0  0  0  0  0
  -27.2139  -28.6001   20.7299 C   0  0  0  0  0  0
  -26.0449  -26.9177   19.4359 C   0  0  0  0  0  0
  -24.8768  -27.7007   19.4536 C   0  0  0  0  0  0
  -23.6339  -29.8138   20.1648 C   0  0  0  0  0  0
  -25.4115  -36.3126   24.0337 C   0  0  1  0  0  0
  -20.5913  -28.3613   23.1209 C   0  0  2  0  0  0
  -20.6818  -26.9402   22.5120 C   0  0  0  0  0  0
  -19.5538  -26.6304   21.5220 C   0  0  0  0  0  0
  -18.1883  -26.7817   22.2000 C   0  0  0  0  0  0
  -19.1607  -28.8836   23.2860 C   0  0  0  0  0  0
  -18.9641  -30.1546   23.8640 C   0  0  0  0  0  0
  -17.6712  -30.6806   24.0311 C   0  0  0  0  0  0
  -25.9063  -34.9469   23.5167 C   0  0  0  0  0  0
  -16.5534  -29.9265   23.6396 C   0  0  0  0  0  0
  -16.7324  -28.6554   23.0644 C   0  0  0  0  0  0
  -26.4515  -31.6569   25.0735 C   0  0  0  0  0  0
  -25.3730  -31.3707   26.1458 C   0  0  0  0  0  0
  -27.0375  -30.2987   24.6190 C   0  0  0  0  0  0
  -27.6071  -32.4292   25.7496 C   0  0  0  0  0  0
  -27.5606  -37.1785   24.8483 C   0  0  0  0  0  0
  -21.4221  -29.3048   22.3717 N   0  0  0  0  0  0
  -26.4338  -37.3793   23.9407 N   0  0  0  0  0  0
  -24.6913  -31.0593   22.0998 N   0  0  0  0  0  0
  -23.4233  -28.8141   23.3043 O   0  0  0  0  0  0
  -28.3069  -26.4311   20.1236 O   0  0  0  0  0  0
  -26.5618  -34.8932   22.4723 O   0  0  0  0  0  0
  -23.5432  -32.1419   23.7337 O   0  0  0  0  0  0
  -29.0009  -18.7744   19.5131 C   0  0  0  0  0  0
  -28.7244  -20.1515   19.2367 C   0  0  0  0  0  0
  -29.2377  -20.7195   21.5019 C   0  0  0  0  0  0
  -29.3410  -18.2956   20.8115 C   0  0  0  0  0  0
  -29.5355  -19.3468   21.7837 C   0  0  0  0  0  0
  -28.7588  -21.1604   20.2450 C   0  0  0  0  0  0
  -26.7885  -22.5232   19.7820 C   0  0  0  0  0  0
  -29.3272  -16.7743   21.1370 C   0  0  0  0  0  0
  -28.9381  -23.8119   20.1908 C   0  0  0  0  0  0
  -26.9478  -24.7073   21.5492 C   0  0  0  0  0  0
  -28.2436  -25.1079   20.8244 C   0  0  2  0  0  0
  -30.0400  -19.0553   23.1953 C   0  0  0  0  0  0
  -28.1691  -22.5072   20.0588 N   0  0  0  0  0  0
  -30.1502  -15.9576   20.3844 N   0  0  0  0  0  0
  -26.1802  -21.6695   19.1276 O   0  0  0  0  0  0
  -28.3166  -16.2833   22.3793 S   0  0  0  0  0  0
  -25.7694  -23.8581   20.4681 S   0  0  0  0  0  0
  -31.4501  -12.5634   19.1087 H   0  0  0  0  0  0
  -30.3732  -11.4648   19.9008 H   0  0  0  0  0  0
  -29.7439  -11.7437   17.4860 H   0  0  0  0  0  0
  -29.6069  -13.4705   17.7014 H   0  0  0  0  0  0
  -27.8547  -11.2989   18.8797 H   0  0  0  0  0  0
  -27.3419  -12.5649   17.7983 H   0  0  0  0  0  0
  -27.6494  -14.2639   19.5216 H   0  0  0  0  0  0
  -28.7591  -12.0460   21.2967 H   0  0  0  0  0  0
  -28.4500  -13.6213   21.8716 H   0  0  0  0  0  0
  -25.2752   -9.5684   22.4759 H   0  0  0  0  0  0
  -24.0002   -7.4629   22.7470 H   0  0  0  0  0  0
  -21.0850   -8.8738   19.8955 H   0  0  0  0  0  0
  -22.3661  -10.9657   19.6165 H   0  0  0  0  0  0
  -21.1982   -7.6144   23.9692 H   0  0  0  0  0  0
  -21.1476   -6.0545   25.9076 H   0  0  0  0  0  0
  -22.0596   -2.7603   23.2861 H   0  0  0  0  0  0
  -22.4154  -11.9830   22.4798 H   0  0  0  0  0  0
  -21.1090  -13.1161   22.2658 H   0  0  0  0  0  0
  -24.6617  -15.8406   20.5874 H   0  0  0  0  0  0
  -26.3193  -15.6252   20.3411 H   0  0  0  0  0  0
  -26.7146  -32.5458   23.1110 H   0  0  0  0  0  0
  -25.0124  -33.9790   25.0527 H   0  0  0  0  0  0
  -22.7187  -31.3080   21.3999 H   0  0  0  0  0  0
  -23.3781  -35.9584   23.3317 H   0  0  0  0  0  0
  -24.3562  -36.8887   22.2046 H   0  0  0  0  0  0
  -23.7170  -37.6475   23.6612 H   0  0  0  0  0  0
  -26.1027  -31.5418   20.6095 H   0  0  0  0  0  0
  -26.8465  -30.8315   22.0152 H   0  0  0  0  0  0
  -28.1073  -28.9546   21.2254 H   0  0  0  0  0  0
  -26.0274  -25.9887   18.8861 H   0  0  0  0  0  0
  -23.9912  -27.3532   18.9411 H   0  0  0  0  0  0
  -23.7355  -30.5817   19.3961 H   0  0  0  0  0  0
  -22.7606  -29.2279   19.8789 H   0  0  0  0  0  0
  -25.1266  -36.2041   25.0820 H   0  0  0  0  0  0
  -20.9922  -28.3100   24.1345 H   0  0  0  0  0  0
  -20.6086  -26.2196   23.3238 H   0  0  0  0  0  0
  -21.6548  -26.7617   22.0508 H   0  0  0  0  0  0
  -19.6647  -25.6171   21.1351 H   0  0  0  0  0  0
  -19.6221  -27.3019   20.6650 H   0  0  0  0  0  0
  -17.3840  -26.6231   21.4817 H   0  0  0  0  0  0
  -18.0646  -26.0135   22.9643 H   0  0  0  0  0  0
  -19.8163  -30.7466   24.1669 H   0  0  0  0  0  0
  -17.5416  -31.6667   24.4587 H   0  0  0  0  0  0
  -15.5594  -30.3331   23.7807 H   0  0  0  0  0  0
  -15.8634  -28.0917   22.7601 H   0  0  0  0  0  0
  -24.5891  -30.7109   25.7766 H   0  0  0  0  0  0
  -24.8960  -32.2874   26.4898 H   0  0  0  0  0  0
  -25.8041  -30.8846   27.0214 H   0  0  0  0  0  0
  -26.2990  -29.6718   24.1190 H   0  0  0  0  0  0
  -27.4074  -29.7257   25.4702 H   0  0  0  0  0  0
  -27.8832  -30.4325   23.9443 H   0  0  0  0  0  0
  -27.2706  -33.3583   26.2103 H   0  0  0  0  0  0
  -28.3848  -32.6866   25.0299 H   0  0  0  0  0  0
  -28.0753  -31.8389   26.5391 H   0  0  0  0  0  0
  -28.2625  -38.0083   24.7544 H   0  0  0  0  0  0
  -28.1098  -36.2612   24.6290 H   0  0  0  0  0  0
  -27.2303  -37.1391   25.8883 H   0  0  0  0  0  0
  -20.9459  -29.8609   21.6743 H   0  0  0  0  0  0
  -26.0248  -38.2891   24.1382 H   0  0  0  0  0  0
  -28.8637  -18.0592   18.7118 H   0  0  0  0  0  0
  -28.3997  -20.4227   18.2382 H   0  0  0  0  0  0
  -29.3041  -21.4439   22.2997 H   0  0  0  0  0  0
  -29.8284  -23.5945   20.7839 H   0  0  0  0  0  0
  -29.3267  -24.0729   19.2051 H   0  0  0  0  0  0
  -26.4684  -25.5588   22.0291 H   0  0  0  0  0  0
  -27.1973  -24.0203   22.3595 H   0  0  0  0  0  0
  -28.9019  -25.3512   21.6565 H   0  0  0  0  0  0
  -30.6088  -19.8952   23.5949 H   0  0  0  0  0  0
  -30.6949  -18.1836   23.2244 H   0  0  0  0  0  0
  -29.2033  -18.8777   23.8718 H   0  0  0  0  0  0
  -30.7718  -16.5220   19.8290 H   0  0  0  0  0  0
  1 25  1  0  0  0
  1 30  2  0  0  0
  1 84  1  0  0  0
  2  3  1  0  0  0
  2 25  1  0  0  0
  2 88  1  0  0  0
  2 89  1  0  0  0
  3  4  1  0  0  0
  3 90  1  0  0  0
  3 91  1  0  0  0
  4  5  1  0  0  0
  4 92  1  0  0  0
  4 93  1  0  0  0
  5  6  1  0  0  0
  5 26  1  0  0  0
  5 94  1  0  0  0
  6 25  1  0  0  0
  6 95  1  0  0  0
  6 96  1  0  0  0
  7  8  2  0  0  0
  7 26  1  0  0  0
  7 29  1  0  0  0
  8  9  1  0  0  0
  8 22  1  0  0  0
  9 10  1  0  0  0
  9 27  2  0  0  0
 10 11  2  0  0  0
 10 15  1  0  0  0
 11 12  1  0  0  0
 11 97  1  0  0  0
 12 13  2  0  0  0
 12 98  1  0  0  0
 13 14  1  0  0  0
 13 31  1  0  0  0
 14 15  2  0  0  0
 14 99  1  0  0  0
 15100  1  0  0  0
 16 17  2  0  0  0
 16 21  1  0  0  0
 16 31  1  0  0  0
 17 18  1  0  0  0
 17101  1  0  0  0
 18 19  2  0  0  0
 18102  1  0  0  0
 19 20  1  0  0  0
 19 24  1  0  0  0
 20 21  2  0  0  0
 20103  1  0  0  0
 21 23  1  0  0  0
 22 28  1  0  0  0
 22 32  2  0  0  0
 26 27  1  0  0  0
 28104  1  0  0  0
 28105  1  0  0  0
 29106  1  0  0  0
 29107  1  0  0  0
 33 34  1  0  0  0
 33 66  1  0  0  0
 33 70  2  0  0  0
 34 36  1  0  0  0
 34 59  1  0  0  0
 34108  1  0  0  0
 35 44  2  0  0  0
 35 45  1  0  0  0
 35 68  1  0  0  0
 36 56  1  0  0  0
 36109  1  0  0  0
 37 39  1  0  0  0
 37 47  1  0  0  0
 37 66  1  0  0  0
 37110  1  0  0  0
 38 43  2  0  0  0
 38 46  1  0  0  0
 38 47  1  0  0  0
 39 64  1  0  0  0
 39 67  2  0  0  0
 40 52  1  0  0  0
 40 53  2  0  0  0
 40 58  1  0  0  0
 41111  1  0  0  0
 41112  1  0  0  0
 41113  1  0  0  0
 41 48  1  0  0  0
 42 43  1  0  0  0
 42 66  1  0  0  0
 42114  1  0  0  0
 42115  1  0  0  0
 43 44  1  0  0  0
 44116  1  0  0  0
 45 46  2  0  0  0
 45117  1  0  0  0
 46118  1  0  0  0
 47119  1  0  0  0
 47120  1  0  0  0
 48 56  1  0  0  0
 48 65  1  0  0  0
 48121  1  0  0  0
 49 50  1  0  0  0
 49 53  1  0  0  0
 49 64  1  0  0  0
 49122  1  0  0  0
 50 51  1  0  0  0
 50123  1  0  0  0
 50124  1  0  0  0
 51 52  1  0  0  0
 51125  1  0  0  0
 51126  1  0  0  0
 52127  1  0  0  0
 52128  1  0  0  0
 53 54  1  0  0  0
 54 55  2  0  0  0
 54129  1  0  0  0
 55 57  1  0  0  0
 55130  1  0  0  0
 56 69  2  0  0  0
 57 58  2  0  0  0
 57131  1  0  0  0
 58132  1  0  0  0
 59 60  1  0  0  0
 59 61  1  0  0  0
 59 62  1  0  0  0
 60133  1  0  0  0
 60134  1  0  0  0
 60135  1  0  0  0
 61136  1  0  0  0
 61137  1  0  0  0
 61138  1  0  0  0
 62139  1  0  0  0
 62140  1  0  0  0
 62141  1  0  0  0
 63 65  1  0  0  0
 63142  1  0  0  0
 63143  1  0  0  0
 63144  1  0  0  0
 64145  1  0  0  0
 65146  1  0  0  0
 68 81  1  0  0  0
 71 72  2  0  0  0
 71 74  1  0  0  0
 71147  1  0  0  0
 72 76  1  0  0  0
 72148  1  0  0  0
 73 75  1  0  0  0
 73 76  2  0  0  0
 73149  1  0  0  0
 74 75  2  0  0  0
 74 78  1  0  0  0
 75 82  1  0  0  0
 76 83  1  0  0  0
 77 83  1  0  0  0
 77 85  2  0  0  0
 77 87  1  0  0  0
 78 84  1  0  0  0
 78 86  2  0  0  0
 79 81  1  0  0  0
 79 83  1  0  0  0
 79150  1  0  0  0
 79151  1  0  0  0
 80 81  1  0  0  0
 80 87  1  0  0  0
 80152  1  0  0  0
 80153  1  0  0  0
 81154  1  0  0  0
 82155  1  0  0  0
 82156  1  0  0  0
 82157  1  0  0  0
 84158  1  0  0  0
M  ISO  4   1 100  68 101  81 101  84 100
M  END
> <chiral flag>
0

> <version>
0

> <s_m_source_file>
/data/baiqing/PycharmProjects/Reinvent-master-3.2/result/LINK_invent/BTK/process_docking_weight1_custom_product_contain_oxygen_bond_distance_aromatic_linkinvent_7_9_3/rearranged_h_0061.sdf

> <i_m_source_file_index>
7

> <r_mmod_Potential_Energy-OPLS-2005>
342.384857177734

> <r_mmod_Stretch_Energy-OPLS-2005>
106.390365600586

> <r_mmod_Bend_Energy-OPLS-2005>
234.646835327148

> <r_mmod_Torsional_Energy-OPLS-2005>
395.167846679688

> <r_mmod_Improper_Torsional_Energy-OPLS-2005>
19.6764659881592

> <r_mmod_Van_der_Waal_Energy-OPLS-2005>
159.884552001953

> <r_mmod_Electrostatic_Energy-OPLS-2005>
-407.505249023438

> <r_mmod_Solvation_Energy-OPLS-2005>
-229.994171142578

> <b_mmod_Minimization_Converged-OPLS-2005>
0

> <r_mmod_RMS_Derivative-OPLS-2005>
5.48169040679932

$$$$
7
                    3D
 Structure written by MMmdl.
162171  0  0  1  0            999 V2000
  -30.7584  -14.4544   20.6667 C   0  0  0  0  0  0
  -30.4154  -12.3341   19.4165 C   0  0  0  0  0  0
  -29.4927  -12.5306   18.1985 C   0  0  0  0  0  0
  -28.0221  -12.3386   18.6089 C   0  0  0  0  0  0
  -27.6516  -13.1892   19.8458 C   0  0  2  0  0  0
  -28.6864  -13.0220   20.9797 C   0  0  0  0  0  0
  -25.2526  -13.8072   20.5574 C   0  0  0  0  0  0
  -24.1800  -13.0386   20.9166 C   0  0  0  0  0  0
  -24.6354  -11.6855   20.8715 C   0  0  0  0  0  0
  -23.9018  -10.4260   21.0417 C   0  0  0  0  0  0
  -24.3576   -9.4188   21.9188 C   0  0  0  0  0  0
  -23.6267   -8.2214   22.0751 C   0  0  0  0  0  0
  -22.4255   -8.0254   21.3540 C   0  0  0  0  0  0
  -21.9880   -9.0226   20.4640 C   0  0  0  0  0  0
  -22.7198  -10.2106   20.3057 C   0  0  0  0  0  0
  -21.6841   -6.0718   22.5279 C   0  0  0  0  0  0
  -21.3996   -6.5624   23.8213 C   0  0  0  0  0  0
  -21.3656   -5.6777   24.9178 C   0  0  0  0  0  0
  -21.6055   -4.3041   24.7227 C   0  0  0  0  0  0
  -21.8822   -3.8131   23.4345 C   0  0  0  0  0  0
  -21.9186   -4.6951   22.3403 C   0  0  0  0  0  0
  -22.7836  -13.5203   21.1872 C   0  0  0  0  0  0
  -22.1659   -4.2142   21.0980 F   0  0  0  0  0  0
  -21.5644   -3.4523   25.7734 F   0  0  0  0  0  0
  -30.0345  -13.3121   20.4531 N   0  0  0  0  0  0
  -26.2941  -12.9234   20.3157 N   0  0  0  0  0  0
  -25.9256  -11.6413   20.5656 N   0  0  0  0  0  0
  -22.0459  -12.8205   22.0436 N   0  0  0  0  0  0
  -25.4156  -15.1776   20.3939 N   0  0  0  0  0  0
  -31.7693  -14.7177   20.0056 O   0  0  0  0  0  0
  -21.6619   -6.8851   21.4241 O   0  0  0  0  0  0
  -22.3535  -14.5514   20.6730 O   0  0  0  0  0  0
  -24.6154  -31.8654   23.2071 C   0  0  0  0  0  0
  -25.9049  -32.4801   23.8362 C   0  0  1  0  0  0
  -27.2369  -27.4092   20.1178 C   0  0  0  0  0  0
  -25.5906  -33.8601   24.2290 N   0  0  0  0  0  0
  -23.4040  -30.4881   21.5474 C   0  0  2  0  0  0
  -24.8519  -28.9452   20.1203 C   0  0  0  0  0  0
  -22.7403  -29.4649   22.4976 C   0  0  0  0  0  0
  -18.0267  -28.1363   22.8491 C   0  0  0  0  0  0
  -24.1475  -36.7283   23.2643 C   0  0  0  0  0  0
  -25.9340  -30.8268   21.3612 C   0  0  0  0  0  0
  -26.0129  -29.4575   20.7119 C   0  0  0  0  0  0
  -27.2096  -28.7004   20.6991 C   0  0  0  0  0  0
  -26.0561  -26.9146   19.5202 C   0  0  0  0  0  0
  -24.8691  -27.6734   19.5214 C   0  0  0  0  0  0
  -23.6144  -29.8140   20.1649 C   0  0  0  0  0  0
  -25.4100  -36.3089   24.0341 C   0  0  1  0  0  0
  -20.5861  -28.3650   23.1310 C   0  0  2  0  0  0
  -20.6749  -26.9386   22.5418 C   0  0  0  0  0  0
  -19.5738  -26.6372   21.5204 C   0  0  0  0  0  0
  -18.1909  -26.7915   22.1611 C   0  0  0  0  0  0
  -19.1518  -28.8821   23.2897 C   0  0  0  0  0  0
  -18.9456  -30.1427   23.8897 C   0  0  0  0  0  0
  -17.6468  -30.6587   24.0551 C   0  0  0  0  0  0
  -25.9042  -34.9463   23.5109 C   0  0  0  0  0  0
  -16.5348  -29.9093   23.6332 C   0  0  0  0  0  0
  -16.7256  -28.6499   23.0361 C   0  0  0  0  0  0
  -26.4467  -31.6605   25.0712 C   0  0  0  0  0  0
  -25.3727  -31.3737   26.1459 C   0  0  0  0  0  0
  -27.0320  -30.3049   24.6121 C   0  0  0  0  0  0
  -27.6017  -32.4341   25.7497 C   0  0  0  0  0  0
  -27.5573  -37.1787   24.8456 C   0  0  0  0  0  0
  -21.4129  -29.3030   22.3720 N   0  0  0  0  0  0
  -26.4262  -37.3798   23.9431 N   0  0  0  0  0  0
  -24.6693  -31.0747   22.0975 N   0  0  0  0  0  0
  -23.4165  -28.8194   23.3022 O   0  0  0  0  0  0
  -28.4068  -26.6706   20.1049 O   0  0  0  0  0  0
  -26.5612  -34.8932   22.4674 O   0  0  0  0  0  0
  -23.5344  -32.1398   23.7473 O   0  0  0  0  0  0
  -31.3213  -18.8600   22.3639 C   0  0  0  0  0  0
  -31.3333  -17.4474   22.3471 C   0  0  0  0  0  0
  -29.4288  -18.8682   20.8677 C   0  0  0  0  0  0
  -29.4277  -17.4483   20.8580 C   0  0  0  0  0  0
  -30.3527  -19.6064   21.6427 C   0  0  0  0  0  0
  -30.3873  -16.7042   21.6015 C   0  0  0  0  0  0
  -30.6055  -23.2365   22.2562 C   0  0  0  0  0  0
  -29.9402  -23.2840   21.1031 C   0  0  0  0  0  0
  -30.7820  -21.8603   22.6670 C   0  0  0  0  0  0
  -29.6279  -21.8762   20.6462 C   0  0  0  0  0  0
  -28.3181  -16.7591   20.1040 C   0  0  0  0  0  0
  -30.6275  -14.6904   23.0362 C   0  0  0  0  0  0
  -29.6607  -24.5515   20.2786 C   0  0  0  0  0  0
  -28.3434  -25.3106   20.5947 C   0  0  0  0  0  0
  -30.2923  -21.0567   21.6830 N   0  0  0  0  0  0
  -30.3805  -15.2559   21.7007 N   0  0  0  0  0  0
  -31.2760  -21.4971   23.7390 O   0  0  0  0  0  0
  -31.4626  -12.4234   19.1178 H   0  0  0  0  0  0
  -30.3089  -11.3202   19.8070 H   0  0  0  0  0  0
  -29.7569  -11.8308   17.4047 H   0  0  0  0  0  0
  -29.6334  -13.5302   17.7839 H   0  0  0  0  0  0
  -27.8664  -11.2808   18.8231 H   0  0  0  0  0  0
  -27.3623  -12.5794   17.7745 H   0  0  0  0  0  0
  -27.6769  -14.2140   19.4932 H   0  0  0  0  0  0
  -28.6654  -12.0055   21.3756 H   0  0  0  0  0  0
  -28.3961  -13.6703   21.8057 H   0  0  0  0  0  0
  -25.2731   -9.5673   22.4748 H   0  0  0  0  0  0
  -23.9997   -7.4596   22.7457 H   0  0  0  0  0  0
  -21.0815   -8.8718   19.8936 H   0  0  0  0  0  0
  -22.3655  -10.9631   19.6146 H   0  0  0  0  0  0
  -21.1973   -7.6125   23.9712 H   0  0  0  0  0  0
  -21.1485   -6.0504   25.9084 H   0  0  0  0  0  0
  -22.0607   -2.7596   23.2829 H   0  0  0  0  0  0
  -22.4038  -11.9827   22.4777 H   0  0  0  0  0  0
  -21.1106  -13.1286   22.2676 H   0  0  0  0  0  0
  -24.6487  -15.8311   20.5056 H   0  0  0  0  0  0
  -26.2664  -15.6140   20.0676 H   0  0  0  0  0  0
  -26.7113  -32.5497   23.1117 H   0  0  0  0  0  0
  -25.0047  -33.9751   25.0427 H   0  0  0  0  0  0
  -22.6931  -31.3051   21.4050 H   0  0  0  0  0  0
  -23.3756  -35.9594   23.3286 H   0  0  0  0  0  0
  -24.3564  -36.8923   22.2061 H   0  0  0  0  0  0
  -23.7202  -37.6473   23.6665 H   0  0  0  0  0  0
  -26.0482  -31.5917   20.5922 H   0  0  0  0  0  0
  -26.8207  -30.8783   21.9821 H   0  0  0  0  0  0
  -28.1072  -29.0982   21.1516 H   0  0  0  0  0  0
  -26.0454  -25.9456   19.0426 H   0  0  0  0  0  0
  -23.9754  -27.2711   19.0645 H   0  0  0  0  0  0
  -23.7225  -30.5828   19.3995 H   0  0  0  0  0  0
  -22.7381  -29.2331   19.8735 H   0  0  0  0  0  0
  -25.1274  -36.1931   25.0833 H   0  0  0  0  0  0
  -20.9955  -28.3212   24.1431 H   0  0  0  0  0  0
  -20.5626  -26.2265   23.3609 H   0  0  0  0  0  0
  -21.6619  -26.7407   22.1228 H   0  0  0  0  0  0
  -19.6900  -25.6285   21.1233 H   0  0  0  0  0  0
  -19.6695  -27.3174   20.6728 H   0  0  0  0  0  0
  -17.4196  -26.6674   21.3997 H   0  0  0  0  0  0
  -18.0301  -26.0037   22.8987 H   0  0  0  0  0  0
  -19.7945  -30.7219   24.2268 H   0  0  0  0  0  0
  -17.5045  -31.6275   24.5152 H   0  0  0  0  0  0
  -15.5353  -30.3004   23.7662 H   0  0  0  0  0  0
  -15.8655  -28.0825   22.7090 H   0  0  0  0  0  0
  -24.5864  -30.7133   25.7790 H   0  0  0  0  0  0
  -24.8960  -32.2915   26.4911 H   0  0  0  0  0  0
  -25.8067  -30.8883   27.0210 H   0  0  0  0  0  0
  -26.2890  -29.6807   24.1148 H   0  0  0  0  0  0
  -27.4057  -29.7299   25.4603 H   0  0  0  0  0  0
  -27.8724  -30.4366   23.9304 H   0  0  0  0  0  0
  -27.2602  -33.3622   26.2089 H   0  0  0  0  0  0
  -28.3831  -32.6940   25.0349 H   0  0  0  0  0  0
  -28.0676  -31.8462   26.5417 H   0  0  0  0  0  0
  -28.2553  -38.0123   24.7564 H   0  0  0  0  0  0
  -28.1097  -36.2654   24.6185 H   0  0  0  0  0  0
  -27.2300  -37.1337   25.8860 H   0  0  0  0  0  0
  -20.9288  -29.8751   21.6947 H   0  0  0  0  0  0
  -26.0137  -38.2851   24.1501 H   0  0  0  0  0  0
  -32.0807  -19.3492   22.9536 H   0  0  0  0  0  0
  -32.0845  -16.9368   22.9315 H   0  0  0  0  0  0
  -28.6705  -19.3919   20.3031 H   0  0  0  0  0  0
  -31.0003  -24.0866   22.7919 H   0  0  0  0  0  0
  -30.0511  -21.6728   19.6621 H   0  0  0  0  0  0
  -28.5510  -21.7099   20.6258 H   0  0  0  0  0  0
  -27.4868  -17.4391   19.9103 H   0  0  0  0  0  0
  -27.9362  -15.9544   20.7248 H   0  0  0  0  0  0
  -28.6770  -16.3659   19.1530 H   0  0  0  0  0  0
  -31.6990  -14.6172   23.2260 H   0  0  0  0  0  0
  -30.2133  -13.6894   23.1606 H   0  0  0  0  0  0
  -30.1838  -15.3133   23.8126 H   0  0  0  0  0  0
  -29.7131  -24.3131   19.2160 H   0  0  0  0  0  0
  -30.4908  -25.2337   20.4673 H   0  0  0  0  0  0
  -28.1918  -25.3462   21.6742 H   0  0  0  0  0  0
  -27.5053  -24.7507   20.1812 H   0  0  0  0  0  0
  1 25  1  0  0  0
  1 30  2  0  0  0
  1 86  1  0  0  0
  2  3  1  0  0  0
  2 25  1  0  0  0
  2 88  1  0  0  0
  2 89  1  0  0  0
  3  4  1  0  0  0
  3 90  1  0  0  0
  3 91  1  0  0  0
  4  5  1  0  0  0
  4 92  1  0  0  0
  4 93  1  0  0  0
  5  6  1  0  0  0
  5 26  1  0  0  0
  5 94  1  0  0  0
  6 25  1  0  0  0
  6 95  1  0  0  0
  6 96  1  0  0  0
  7  8  2  0  0  0
  7 26  1  0  0  0
  7 29  1  0  0  0
  8  9  1  0  0  0
  8 22  1  0  0  0
  9 10  1  0  0  0
  9 27  2  0  0  0
 10 11  2  0  0  0
 10 15  1  0  0  0
 11 12  1  0  0  0
 11 97  1  0  0  0
 12 13  2  0  0  0
 12 98  1  0  0  0
 13 14  1  0  0  0
 13 31  1  0  0  0
 14 15  2  0  0  0
 14 99  1  0  0  0
 15100  1  0  0  0
 16 17  2  0  0  0
 16 21  1  0  0  0
 16 31  1  0  0  0
 17 18  1  0  0  0
 17101  1  0  0  0
 18 19  2  0  0  0
 18102  1  0  0  0
 19 20  1  0  0  0
 19 24  1  0  0  0
 20 21  2  0  0  0
 20103  1  0  0  0
 21 23  1  0  0  0
 22 28  1  0  0  0
 22 32  2  0  0  0
 26 27  1  0  0  0
 28104  1  0  0  0
 28105  1  0  0  0
 29106  1  0  0  0
 29107  1  0  0  0
 33 34  1  0  0  0
 33 66  1  0  0  0
 33 70  2  0  0  0
 34 36  1  0  0  0
 34 59  1  0  0  0
 34108  1  0  0  0
 35 44  2  0  0  0
 35 45  1  0  0  0
 35 68  1  0  0  0
 36 56  1  0  0  0
 36109  1  0  0  0
 37 39  1  0  0  0
 37 47  1  0  0  0
 37 66  1  0  0  0
 37110  1  0  0  0
 38 43  2  0  0  0
 38 46  1  0  0  0
 38 47  1  0  0  0
 39 64  1  0  0  0
 39 67  2  0  0  0
 40 52  1  0  0  0
 40 53  2  0  0  0
 40 58  1  0  0  0
 41111  1  0  0  0
 41112  1  0  0  0
 41113  1  0  0  0
 41 48  1  0  0  0
 42 43  1  0  0  0
 42 66  1  0  0  0
 42114  1  0  0  0
 42115  1  0  0  0
 43 44  1  0  0  0
 44116  1  0  0  0
 45 46  2  0  0  0
 45117  1  0  0  0
 46118  1  0  0  0
 47119  1  0  0  0
 47120  1  0  0  0
 48 56  1  0  0  0
 48 65  1  0  0  0
 48121  1  0  0  0
 49 50  1  0  0  0
 49 53  1  0  0  0
 49 64  1  0  0  0
 49122  1  0  0  0
 50 51  1  0  0  0
 50123  1  0  0  0
 50124  1  0  0  0
 51 52  1  0  0  0
 51125  1  0  0  0
 51126  1  0  0  0
 52127  1  0  0  0
 52128  1  0  0  0
 53 54  1  0  0  0
 54 55  2  0  0  0
 54129  1  0  0  0
 55 57  1  0  0  0
 55130  1  0  0  0
 56 69  2  0  0  0
 57 58  2  0  0  0
 57131  1  0  0  0
 58132  1  0  0  0
 59 60  1  0  0  0
 59 61  1  0  0  0
 59 62  1  0  0  0
 60133  1  0  0  0
 60134  1  0  0  0
 60135  1  0  0  0
 61136  1  0  0  0
 61137  1  0  0  0
 61138  1  0  0  0
 62139  1  0  0  0
 62140  1  0  0  0
 62141  1  0  0  0
 63 65  1  0  0  0
 63142  1  0  0  0
 63143  1  0  0  0
 63144  1  0  0  0
 64145  1  0  0  0
 65146  1  0  0  0
 68 84  1  0  0  0
 71 72  2  0  0  0
 71 75  1  0  0  0
 71147  1  0  0  0
 72 76  1  0  0  0
 72148  1  0  0  0
 73 74  1  0  0  0
 73 75  2  0  0  0
 73149  1  0  0  0
 74 76  2  0  0  0
 74 81  1  0  0  0
 75 85  1  0  0  0
 76 86  1  0  0  0
 77 78  2  0  0  0
 77 79  1  0  0  0
 77150  1  0  0  0
 78 80  1  0  0  0
 78 83  1  0  0  0
 79 85  1  0  0  0
 79 87  2  0  0  0
 80 85  1  0  0  0
 80151  1  0  0  0
 80152  1  0  0  0
 81153  1  0  0  0
 81154  1  0  0  0
 81155  1  0  0  0
 82 86  1  0  0  0
 82156  1  0  0  0
 82157  1  0  0  0
 82158  1  0  0  0
 83 84  1  0  0  0
 83159  1  0  0  0
 83160  1  0  0  0
 84161  1  0  0  0
 84162  1  0  0  0
M  ISO  4   1 100  68 101  84 101  86 100
M  END
> <chiral flag>
0

> <version>
0

> <s_m_source_file>
/data/baiqing/PycharmProjects/Reinvent-master-3.2/result/LINK_invent/BTK/process_docking_weight1_custom_product_contain_oxygen_bond_distance_aromatic_linkinvent_7_9_3/rearranged_h_0061.sdf

> <i_m_source_file_index>
8

> <r_mmod_Potential_Energy-OPLS-2005>
245.076446533203

> <r_mmod_Stretch_Energy-OPLS-2005>
50.8266944885254

> <r_mmod_Bend_Energy-OPLS-2005>
155.770462036133

> <r_mmod_Torsional_Energy-OPLS-2005>
347.691284179688

> <r_mmod_Improper_Torsional_Energy-OPLS-2005>
4.85507726669312

> <r_mmod_Van_der_Waal_Energy-OPLS-2005>
153.177001953125

> <r_mmod_Electrostatic_Energy-OPLS-2005>
-278.265289306641

> <r_mmod_Solvation_Energy-OPLS-2005>
-203.035766601562

> <b_mmod_Minimization_Converged-OPLS-2005>
0

> <r_mmod_RMS_Derivative-OPLS-2005>
2.38441157341003

$$$$
8
                    3D
 Structure written by MMmdl.
162171  0  0  1  0            999 V2000
  -30.6400  -14.5287   20.6343 C   0  0  0  0  0  0
  -30.4524  -12.3671   19.4184 C   0  0  0  0  0  0
  -29.5052  -12.5510   18.2124 C   0  0  0  0  0  0
  -28.0263  -12.3793   18.6224 C   0  0  0  0  0  0
  -27.6699  -13.1997   19.8902 C   0  0  2  0  0  0
  -28.7133  -12.9380   20.9984 C   0  0  0  0  0  0
  -25.2596  -13.8121   20.5638 C   0  0  0  0  0  0
  -24.1846  -13.0425   20.9209 C   0  0  0  0  0  0
  -24.6375  -11.6889   20.8745 C   0  0  0  0  0  0
  -23.9007  -10.4297   21.0394 C   0  0  0  0  0  0
  -24.3568   -9.4223   21.9168 C   0  0  0  0  0  0
  -23.6274   -8.2238   22.0729 C   0  0  0  0  0  0
  -22.4268   -8.0248   21.3515 C   0  0  0  0  0  0
  -21.9879   -9.0217   20.4614 C   0  0  0  0  0  0
  -22.7184  -10.2115   20.3045 C   0  0  0  0  0  0
  -21.6857   -6.0697   22.5258 C   0  0  0  0  0  0
  -21.4006   -6.5612   23.8188 C   0  0  0  0  0  0
  -21.3677   -5.6772   24.9161 C   0  0  0  0  0  0
  -21.6063   -4.3036   24.7222 C   0  0  0  0  0  0
  -21.8823   -3.8110   23.4342 C   0  0  0  0  0  0
  -21.9198   -4.6925   22.3391 C   0  0  0  0  0  0
  -22.7859  -13.5230   21.1871 C   0  0  0  0  0  0
  -22.1658   -4.2110   21.0972 F   0  0  0  0  0  0
  -21.5662   -3.4520   25.7737 F   0  0  0  0  0  0
  -30.0434  -13.3089   20.4746 N   0  0  0  0  0  0
  -26.3061  -12.9279   20.3427 N   0  0  0  0  0  0
  -25.9317  -11.6448   20.5800 N   0  0  0  0  0  0
  -22.0475  -12.8245   22.0430 N   0  0  0  0  0  0
  -25.4298  -15.1804   20.3866 N   0  0  0  0  0  0
  -31.6904  -14.8368   20.0606 O   0  0  0  0  0  0
  -21.6638   -6.8832   21.4215 O   0  0  0  0  0  0
  -22.3551  -14.5525   20.6698 O   0  0  0  0  0  0
  -24.6220  -31.8626   23.2085 C   0  0  0  0  0  0
  -25.9094  -32.4783   23.8385 C   0  0  1  0  0  0
  -27.2271  -27.3650   20.0962 C   0  0  0  0  0  0
  -25.5929  -33.8591   24.2312 N   0  0  0  0  0  0
  -23.4122  -30.4893   21.5508 C   0  0  2  0  0  0
  -24.8562  -28.9521   20.1132 C   0  0  0  0  0  0
  -22.7453  -29.4642   22.4974 C   0  0  0  0  0  0
  -18.0279  -28.1384   22.8488 C   0  0  0  0  0  0
  -24.1482  -36.7293   23.2640 C   0  0  0  0  0  0
  -25.9511  -30.8065   21.3726 C   0  0  0  0  0  0
  -26.0248  -29.4392   20.7115 C   0  0  0  0  0  0
  -27.2132  -28.6576   20.6930 C   0  0  0  0  0  0
  -26.0287  -26.9169   19.4879 C   0  0  0  0  0  0
  -24.8571  -27.6936   19.4963 C   0  0  0  0  0  0
  -23.6229  -29.8280   20.1641 C   0  0  0  0  0  0
  -25.4107  -36.3086   24.0333 C   0  0  1  0  0  0
  -20.5876  -28.3678   23.1299 C   0  0  2  0  0  0
  -20.6773  -26.9409   22.5417 C   0  0  0  0  0  0
  -19.5751  -26.6386   21.5220 C   0  0  0  0  0  0
  -18.1928  -26.7930   22.1625 C   0  0  0  0  0  0
  -19.1528  -28.8849   23.2888 C   0  0  0  0  0  0
  -18.9454  -30.1453   23.8897 C   0  0  0  0  0  0
  -17.6456  -30.6588   24.0559 C   0  0  0  0  0  0
  -25.9041  -34.9454   23.5112 C   0  0  0  0  0  0
  -16.5345  -29.9089   23.6330 C   0  0  0  0  0  0
  -16.7261  -28.6504   23.0348 C   0  0  0  0  0  0
  -26.4502  -31.6585   25.0742 C   0  0  0  0  0  0
  -25.3753  -31.3720   26.1482 C   0  0  0  0  0  0
  -27.0345  -30.3006   24.6185 C   0  0  0  0  0  0
  -27.6056  -32.4328   25.7513 C   0  0  0  0  0  0
  -27.5575  -37.1800   24.8467 C   0  0  0  0  0  0
  -21.4173  -29.3035   22.3700 N   0  0  0  0  0  0
  -26.4283  -37.3783   23.9414 N   0  0  0  0  0  0
  -24.6804  -31.0685   22.1005 N   0  0  0  0  0  0
  -23.4194  -28.8171   23.3027 O   0  0  0  0  0  0
  -28.3693  -26.5591   20.1252 O   0  0  0  0  0  0
  -26.5602  -34.8911   22.4675 O   0  0  0  0  0  0
  -23.5398  -32.1416   23.7435 O   0  0  0  0  0  0
  -28.4117  -19.3139   21.5433 C   0  0  0  0  0  0
  -27.8438  -18.2717   22.2852 C   0  0  0  0  0  0
  -30.1181  -17.7739   20.7077 C   0  0  0  0  0  0
  -29.5675  -19.0979   20.7682 C   0  0  0  0  0  0
  -28.4141  -16.9855   22.2758 C   0  0  0  0  0  0
  -29.5476  -16.7003   21.4646 C   0  0  0  0  0  0
  -30.4349  -23.2872   22.3451 C   0  0  0  0  0  0
  -29.8942  -24.3000   21.6426 C   0  0  0  0  0  0
  -30.6378  -21.9481   21.8003 C   0  0  0  0  0  0
  -29.1018  -22.6402   19.9438 C   0  0  0  0  0  0
  -29.3885  -24.1627   20.2278 C   0  0  1  0  0  0
  -27.7654  -15.9303   23.1599 C   0  0  0  0  0  0
  -30.1746  -20.3055   20.0099 C   0  0  0  0  0  0
  -28.1781  -25.1200   19.9330 C   0  0  0  0  0  0
  -30.0025  -21.6627   20.6300 N   0  0  0  0  0  0
  -30.0144  -15.3336   21.5238 N   0  0  0  0  0  0
  -31.3595  -21.1260   22.3728 O   0  0  0  0  0  0
  -31.4875  -12.5289   19.1128 H   0  0  0  0  0  0
  -30.4076  -11.3428   19.7912 H   0  0  0  0  0  0
  -29.7606  -11.8478   17.4190 H   0  0  0  0  0  0
  -29.6506  -13.5479   17.7922 H   0  0  0  0  0  0
  -27.8540  -11.3184   18.8060 H   0  0  0  0  0  0
  -27.3671  -12.6531   17.7986 H   0  0  0  0  0  0
  -27.7249  -14.2558   19.6230 H   0  0  0  0  0  0
  -28.7140  -11.8809   21.2696 H   0  0  0  0  0  0
  -28.4479  -13.4529   21.9189 H   0  0  0  0  0  0
  -25.2704   -9.5729   22.4735 H   0  0  0  0  0  0
  -24.0000   -7.4631   22.7437 H   0  0  0  0  0  0
  -21.0822   -8.8718   19.8903 H   0  0  0  0  0  0
  -22.3623  -10.9643   19.6153 H   0  0  0  0  0  0
  -21.1969   -7.6112   23.9687 H   0  0  0  0  0  0
  -21.1515   -6.0492   25.9070 H   0  0  0  0  0  0
  -22.0594   -2.7567   23.2852 H   0  0  0  0  0  0
  -22.4083  -11.9950   22.4909 H   0  0  0  0  0  0
  -21.1049  -13.1217   22.2531 H   0  0  0  0  0  0
  -24.6635  -15.8375   20.4794 H   0  0  0  0  0  0
  -26.2831  -15.6106   20.0530 H   0  0  0  0  0  0
  -26.7164  -32.5460   23.1137 H   0  0  0  0  0  0
  -25.0085  -33.9746   25.0457 H   0  0  0  0  0  0
  -22.7033  -31.3082   21.4140 H   0  0  0  0  0  0
  -23.3741  -35.9628   23.3310 H   0  0  0  0  0  0
  -24.3571  -36.8903   22.2054 H   0  0  0  0  0  0
  -23.7239  -37.6499   23.6655 H   0  0  0  0  0  0
  -26.0814  -31.5740   20.6081 H   0  0  0  0  0  0
  -26.8314  -30.8488   22.0028 H   0  0  0  0  0  0
  -28.1121  -29.0319   21.1624 H   0  0  0  0  0  0
  -25.9612  -25.9558   19.0020 H   0  0  0  0  0  0
  -23.9595  -27.3139   19.0279 H   0  0  0  0  0  0
  -23.7380  -30.6071   19.4097 H   0  0  0  0  0  0
  -22.7423  -29.2573   19.8634 H   0  0  0  0  0  0
  -25.1287  -36.1938   25.0826 H   0  0  0  0  0  0
  -20.9958  -28.3249   24.1422 H   0  0  0  0  0  0
  -20.5696  -26.2282   23.3609 H   0  0  0  0  0  0
  -21.6640  -26.7460   22.1192 H   0  0  0  0  0  0
  -19.6911  -25.6300   21.1243 H   0  0  0  0  0  0
  -19.6690  -27.3198   20.6753 H   0  0  0  0  0  0
  -17.4201  -26.6672   21.4024 H   0  0  0  0  0  0
  -18.0319  -26.0074   22.9020 H   0  0  0  0  0  0
  -19.7932  -30.7271   24.2261 H   0  0  0  0  0  0
  -17.5011  -31.6267   24.5164 H   0  0  0  0  0  0
  -15.5346  -30.2986   23.7663 H   0  0  0  0  0  0
  -15.8663  -28.0828   22.7063 H   0  0  0  0  0  0
  -24.5898  -30.7099   25.7825 H   0  0  0  0  0  0
  -24.8980  -32.2886   26.4956 H   0  0  0  0  0  0
  -25.8084  -30.8866   27.0232 H   0  0  0  0  0  0
  -26.2919  -29.6756   24.1206 H   0  0  0  0  0  0
  -27.4042  -29.7264   25.4693 H   0  0  0  0  0  0
  -27.8791  -30.4298   23.9411 H   0  0  0  0  0  0
  -27.2649  -33.3604   26.2127 H   0  0  0  0  0  0
  -28.3849  -32.6928   25.0338 H   0  0  0  0  0  0
  -28.0748  -31.8439   26.5408 H   0  0  0  0  0  0
  -28.2591  -38.0097   24.7506 H   0  0  0  0  0  0
  -28.1068  -36.2625   24.6295 H   0  0  0  0  0  0
  -27.2289  -37.1451   25.8868 H   0  0  0  0  0  0
  -20.9345  -29.8751   21.6912 H   0  0  0  0  0  0
  -26.0161  -38.2849   24.1431 H   0  0  0  0  0  0
  -27.9517  -20.2909   21.5898 H   0  0  0  0  0  0
  -26.9647  -18.4723   22.8812 H   0  0  0  0  0  0
  -30.9903  -17.5927   20.0944 H   0  0  0  0  0  0
  -30.7708  -23.4775   23.3533 H   0  0  0  0  0  0
  -29.8079  -25.2768   22.0963 H   0  0  0  0  0  0
  -29.0979  -22.4628   18.8681 H   0  0  0  0  0  0
  -28.0923  -22.4072   20.2839 H   0  0  0  0  0  0
  -30.2121  -24.4754   19.5833 H   0  0  0  0  0  0
  -27.1333  -16.3928   23.9187 H   0  0  0  0  0  0
  -28.5046  -15.3356   23.6972 H   0  0  0  0  0  0
  -27.1321  -15.2697   22.5682 H   0  0  0  0  0  0
  -29.7540  -20.3012   19.0041 H   0  0  0  0  0  0
  -31.2416  -20.1226   19.8727 H   0  0  0  0  0  0
  -27.3407  -24.7933   20.5525 H   0  0  0  0  0  0
  -27.8890  -24.9480   18.8963 H   0  0  0  0  0  0
  -29.4270  -14.7729   22.1212 H   0  0  0  0  0  0
  1 25  1  0  0  0
  1 30  2  0  0  0
  1 86  1  0  0  0
  2  3  1  0  0  0
  2 25  1  0  0  0
  2 88  1  0  0  0
  2 89  1  0  0  0
  3  4  1  0  0  0
  3 90  1  0  0  0
  3 91  1  0  0  0
  4  5  1  0  0  0
  4 92  1  0  0  0
  4 93  1  0  0  0
  5  6  1  0  0  0
  5 26  1  0  0  0
  5 94  1  0  0  0
  6 25  1  0  0  0
  6 95  1  0  0  0
  6 96  1  0  0  0
  7  8  2  0  0  0
  7 26  1  0  0  0
  7 29  1  0  0  0
  8  9  1  0  0  0
  8 22  1  0  0  0
  9 10  1  0  0  0
  9 27  2  0  0  0
 10 11  2  0  0  0
 10 15  1  0  0  0
 11 12  1  0  0  0
 11 97  1  0  0  0
 12 13  2  0  0  0
 12 98  1  0  0  0
 13 14  1  0  0  0
 13 31  1  0  0  0
 14 15  2  0  0  0
 14 99  1  0  0  0
 15100  1  0  0  0
 16 17  2  0  0  0
 16 21  1  0  0  0
 16 31  1  0  0  0
 17 18  1  0  0  0
 17101  1  0  0  0
 18 19  2  0  0  0
 18102  1  0  0  0
 19 20  1  0  0  0
 19 24  1  0  0  0
 20 21  2  0  0  0
 20103  1  0  0  0
 21 23  1  0  0  0
 22 28  1  0  0  0
 22 32  2  0  0  0
 26 27  1  0  0  0
 28104  1  0  0  0
 28105  1  0  0  0
 29106  1  0  0  0
 29107  1  0  0  0
 33 34  1  0  0  0
 33 66  1  0  0  0
 33 70  2  0  0  0
 34 36  1  0  0  0
 34 59  1  0  0  0
 34108  1  0  0  0
 35 44  2  0  0  0
 35 45  1  0  0  0
 35 68  1  0  0  0
 36 56  1  0  0  0
 36109  1  0  0  0
 37 39  1  0  0  0
 37 47  1  0  0  0
 37 66  1  0  0  0
 37110  1  0  0  0
 38 43  2  0  0  0
 38 46  1  0  0  0
 38 47  1  0  0  0
 39 64  1  0  0  0
 39 67  2  0  0  0
 40 52  1  0  0  0
 40 53  2  0  0  0
 40 58  1  0  0  0
 41111  1  0  0  0
 41112  1  0  0  0
 41113  1  0  0  0
 41 48  1  0  0  0
 42 43  1  0  0  0
 42 66  1  0  0  0
 42114  1  0  0  0
 42115  1  0  0  0
 43 44  1  0  0  0
 44116  1  0  0  0
 45 46  2  0  0  0
 45117  1  0  0  0
 46118  1  0  0  0
 47119  1  0  0  0
 47120  1  0  0  0
 48 56  1  0  0  0
 48 65  1  0  0  0
 48121  1  0  0  0
 49 50  1  0  0  0
 49 53  1  0  0  0
 49 64  1  0  0  0
 49122  1  0  0  0
 50 51  1  0  0  0
 50123  1  0  0  0
 50124  1  0  0  0
 51 52  1  0  0  0
 51125  1  0  0  0
 51126  1  0  0  0
 52127  1  0  0  0
 52128  1  0  0  0
 53 54  1  0  0  0
 54 55  2  0  0  0
 54129  1  0  0  0
 55 57  1  0  0  0
 55130  1  0  0  0
 56 69  2  0  0  0
 57 58  2  0  0  0
 57131  1  0  0  0
 58132  1  0  0  0
 59 60  1  0  0  0
 59 61  1  0  0  0
 59 62  1  0  0  0
 60133  1  0  0  0
 60134  1  0  0  0
 60135  1  0  0  0
 61136  1  0  0  0
 61137  1  0  0  0
 61138  1  0  0  0
 62139  1  0  0  0
 62140  1  0  0  0
 62141  1  0  0  0
 63 65  1  0  0  0
 63142  1  0  0  0
 63143  1  0  0  0
 63144  1  0  0  0
 64145  1  0  0  0
 65146  1  0  0  0
 68 84  1  0  0  0
 71 72  2  0  0  0
 71 74  1  0  0  0
 71147  1  0  0  0
 72 75  1  0  0  0
 72148  1  0  0  0
 73 74  2  0  0  0
 73 76  1  0  0  0
 73149  1  0  0  0
 74 83  1  0  0  0
 75 76  2  0  0  0
 75 82  1  0  0  0
 76 86  1  0  0  0
 77 78  2  0  0  0
 77 79  1  0  0  0
 77150  1  0  0  0
 78 81  1  0  0  0
 78151  1  0  0  0
 79 85  1  0  0  0
 79 87  2  0  0  0
 80 81  1  0  0  0
 80 85  1  0  0  0
 80152  1  0  0  0
 80153  1  0  0  0
 81 84  1  0  0  0
 81154  1  0  0  0
 82155  1  0  0  0
 82156  1  0  0  0
 82157  1  0  0  0
 83 85  1  0  0  0
 83158  1  0  0  0
 83159  1  0  0  0
 84160  1  0  0  0
 84161  1  0  0  0
 86162  1  0  0  0
M  ISO  4   1 100  68 101  84 101  86 100
M  END
> <chiral flag>
0

> <version>
0

> <s_m_source_file>
/data/baiqing/PycharmProjects/Reinvent-master-3.2/result/LINK_invent/BTK/process_docking_weight1_custom_product_contain_oxygen_bond_distance_aromatic_linkinvent_7_9_3/rearranged_h_0061.sdf

> <i_m_source_file_index>
9

> <r_mmod_Potential_Energy-OPLS-2005>
1.15783369541168

> <r_mmod_Stretch_Energy-OPLS-2005>
63.7420349121094

> <r_mmod_Bend_Energy-OPLS-2005>
133.085647583008

> <r_mmod_Torsional_Energy-OPLS-2005>
230.514694213867

> <r_mmod_Improper_Torsional_Energy-OPLS-2005>
4.86337089538574

> <r_mmod_Van_der_Waal_Energy-OPLS-2005>
161.792877197266

> <r_mmod_Electrostatic_Energy-OPLS-2005>
-391.064331054688

> <r_mmod_Solvation_Energy-OPLS-2005>
-228.986770629883

> <b_mmod_Minimization_Converged-OPLS-2005>
0

> <r_mmod_RMS_Derivative-OPLS-2005>
2.11662840843201

$$$$
9
                    3D
 Structure written by MMmdl.
153161  0  0  1  0            999 V2000
  -30.5926  -14.7802   20.4531 C   0  0  0  0  0  0
  -30.4367  -12.4794   19.4670 C   0  0  0  0  0  0
  -29.5107  -12.5123   18.2314 C   0  0  0  0  0  0
  -28.0376  -12.3273   18.6477 C   0  0  0  0  0  0
  -27.6379  -13.2318   19.8437 C   0  0  2  0  0  0
  -28.6850  -13.1815   20.9766 C   0  0  0  0  0  0
  -25.2496  -13.8181   20.5700 C   0  0  0  0  0  0
  -24.1794  -13.0427   20.9217 C   0  0  0  0  0  0
  -24.6391  -11.6908   20.8747 C   0  0  0  0  0  0
  -23.9066  -10.4287   21.0400 C   0  0  0  0  0  0
  -24.3615   -9.4204   21.9181 C   0  0  0  0  0  0
  -23.6291   -8.2241   22.0752 C   0  0  0  0  0  0
  -22.4272   -8.0279   21.3541 C   0  0  0  0  0  0
  -21.9905   -9.0252   20.4644 C   0  0  0  0  0  0
  -22.7234  -10.2132   20.3052 C   0  0  0  0  0  0
  -21.6856   -6.0734   22.5279 C   0  0  0  0  0  0
  -21.4015   -6.5637   23.8213 C   0  0  0  0  0  0
  -21.3658   -5.6788   24.9173 C   0  0  0  0  0  0
  -21.6043   -4.3052   24.7223 C   0  0  0  0  0  0
  -21.8820   -3.8145   23.4345 C   0  0  0  0  0  0
  -21.9194   -4.6961   22.3402 C   0  0  0  0  0  0
  -22.7818  -13.5215   21.1870 C   0  0  0  0  0  0
  -22.1664   -4.2148   21.0980 F   0  0  0  0  0  0
  -21.5627   -3.4537   25.7737 F   0  0  0  0  0  0
  -29.9783  -13.5469   20.3856 N   0  0  0  0  0  0
  -26.2921  -12.9392   20.3253 N   0  0  0  0  0  0
  -25.9318  -11.6536   20.5733 N   0  0  0  0  0  0
  -22.0460  -12.8209   22.0426 N   0  0  0  0  0  0
  -25.4146  -15.1909   20.4125 N   0  0  0  0  0  0
  -31.7962  -14.8692   20.1915 O   0  0  0  0  0  0
  -21.6637   -6.8877   21.4241 O   0  0  0  0  0  0
  -22.3505  -14.5521   20.6714 O   0  0  0  0  0  0
  -24.6328  -31.8529   23.1949 C   0  0  0  0  0  0
  -25.9146  -32.4741   23.8308 C   0  0  1  0  0  0
  -27.2227  -27.2440   20.1433 C   0  0  0  0  0  0
  -25.5937  -33.8542   24.2240 N   0  0  0  0  0  0
  -23.4310  -30.4726   21.5386 C   0  0  2  0  0  0
  -24.8799  -28.9087   20.1164 C   0  0  0  0  0  0
  -22.7513  -29.4586   22.4905 C   0  0  0  0  0  0
  -18.0297  -28.1388   22.8483 C   0  0  0  0  0  0
  -24.1489  -36.7269   23.2639 C   0  0  0  0  0  0
  -25.9769  -30.7623   21.3745 C   0  0  0  0  0  0
  -26.0522  -29.3803   20.7216 C   0  0  0  0  0  0
  -27.2303  -28.5630   20.7159 C   0  0  0  0  0  0
  -26.0280  -26.8350   19.5181 C   0  0  0  0  0  0
  -24.8731  -27.6450   19.5022 C   0  0  0  0  0  0
  -23.6519  -29.8002   20.1574 C   0  0  0  0  0  0
  -25.4114  -36.3058   24.0326 C   0  0  1  0  0  0
  -20.5902  -28.3698   23.1269 C   0  0  2  0  0  0
  -20.6783  -26.9413   22.5410 C   0  0  0  0  0  0
  -19.5755  -26.6385   21.5215 C   0  0  0  0  0  0
  -18.1938  -26.7929   22.1629 C   0  0  0  0  0  0
  -19.1551  -28.8861   23.2871 C   0  0  0  0  0  0
  -18.9469  -30.1465   23.8885 C   0  0  0  0  0  0
  -17.6466  -30.6585   24.0562 C   0  0  0  0  0  0
  -25.9059  -34.9431   23.5087 C   0  0  0  0  0  0
  -16.5358  -29.9081   23.6336 C   0  0  0  0  0  0
  -16.7284  -28.6503   23.0349 C   0  0  0  0  0  0
  -26.4508  -31.6566   25.0700 C   0  0  0  0  0  0
  -25.3729  -31.3729   26.1422 C   0  0  0  0  0  0
  -27.0352  -30.2981   24.6191 C   0  0  0  0  0  0
  -27.6065  -32.4301   25.7477 C   0  0  0  0  0  0
  -27.5578  -37.1786   24.8463 C   0  0  0  0  0  0
  -21.4218  -29.3037   22.3651 N   0  0  0  0  0  0
  -26.4284  -37.3763   23.9418 N   0  0  0  0  0  0
  -24.6996  -31.0478   22.0929 N   0  0  0  0  0  0
  -23.4203  -28.8138   23.3021 O   0  0  0  0  0  0
  -28.3206  -26.3523   20.1342 O   0  0  0  0  0  0
  -26.5632  -34.8910   22.4657 O   0  0  0  0  0  0
  -23.5475  -32.1353   23.7239 O   0  0  0  0  0  0
  -31.5389  -19.0934   21.6934 C   0  0  0  0  0  0
  -30.7446  -20.1481   21.1975 C   0  0  0  0  0  0
  -31.2253  -17.7420   21.4422 C   0  0  0  0  0  0
  -29.5868  -19.9088   20.4257 C   0  0  0  0  0  0
  -29.2625  -18.4843   20.1983 C   0  0  0  0  0  0
  -30.0866  -17.3732   20.6946 C   0  0  0  0  0  0
  -28.8864  -21.1580   19.7622 C   0  0  0  0  0  0
  -28.4643  -23.6651   19.8266 C   0  0  0  0  0  0
  -28.0244  -18.1246   19.3879 C   0  0  0  0  0  0
  -28.1807  -24.9674   20.7330 C   0  0  0  0  0  0
  -29.7825  -15.9145   20.5436 N   0  0  0  0  0  0
  -28.8314  -22.4203   20.3643 N   0  0  0  0  0  0
  -28.3847  -20.9717   18.6496 O   0  0  0  0  0  0
  -28.3199  -23.8260   18.6090 O   0  0  0  0  0  0
  -31.4752  -12.6165   19.1610 H   0  0  0  0  0  0
  -30.3943  -11.5065   19.9595 H   0  0  0  0  0  0
  -29.7991  -11.7370   17.5206 H   0  0  0  0  0  0
  -29.6279  -13.4642   17.7104 H   0  0  0  0  0  0
  -27.9019  -11.2798   18.9184 H   0  0  0  0  0  0
  -27.3783  -12.5091   17.7982 H   0  0  0  0  0  0
  -27.6244  -14.2492   19.4526 H   0  0  0  0  0  0
  -28.7322  -12.1863   21.4220 H   0  0  0  0  0  0
  -28.4168  -13.8667   21.7823 H   0  0  0  0  0  0
  -25.2760   -9.5685   22.4757 H   0  0  0  0  0  0
  -24.0002   -7.4633   22.7469 H   0  0  0  0  0  0
  -21.0838   -8.8770   19.8950 H   0  0  0  0  0  0
  -22.3690  -10.9671   19.6163 H   0  0  0  0  0  0
  -21.2009   -7.6144   23.9715 H   0  0  0  0  0  0
  -21.1477   -6.0518   25.9077 H   0  0  0  0  0  0
  -22.0599   -2.7607   23.2844 H   0  0  0  0  0  0
  -22.4073  -11.9878   22.4829 H   0  0  0  0  0  0
  -21.1076  -13.1235   22.2619 H   0  0  0  0  0  0
  -24.6397  -15.8358   20.5242 H   0  0  0  0  0  0
  -26.2485  -15.6351   20.0560 H   0  0  0  0  0  0
  -26.7212  -32.5393   23.1048 H   0  0  0  0  0  0
  -25.0093  -33.9669   25.0392 H   0  0  0  0  0  0
  -22.7281  -31.2948   21.3889 H   0  0  0  0  0  0
  -23.3754  -35.9597   23.3292 H   0  0  0  0  0  0
  -24.3585  -36.8899   22.2056 H   0  0  0  0  0  0
  -23.7231  -37.6464   23.6665 H   0  0  0  0  0  0
  -26.1136  -31.5209   20.6022 H   0  0  0  0  0  0
  -26.8548  -30.8167   22.0068 H   0  0  0  0  0  0
  -28.1334  -28.9245   21.1876 H   0  0  0  0  0  0
  -25.9837  -25.8644   19.0441 H   0  0  0  0  0  0
  -23.9758  -27.2790   19.0223 H   0  0  0  0  0  0
  -23.7807  -30.5733   19.3987 H   0  0  0  0  0  0
  -22.7696  -29.2351   19.8519 H   0  0  0  0  0  0
  -25.1295  -36.1900   25.0818 H   0  0  0  0  0  0
  -21.0000  -28.3278   24.1389 H   0  0  0  0  0  0
  -20.5688  -26.2303   23.3614 H   0  0  0  0  0  0
  -21.6651  -26.7435   22.1201 H   0  0  0  0  0  0
  -19.6912  -25.6297   21.1245 H   0  0  0  0  0  0
  -19.6691  -27.3196   20.6745 H   0  0  0  0  0  0
  -17.4207  -26.6678   21.4034 H   0  0  0  0  0  0
  -18.0337  -26.0077   22.9034 H   0  0  0  0  0  0
  -19.7944  -30.7291   24.2241 H   0  0  0  0  0  0
  -17.5018  -31.6264   24.5168 H   0  0  0  0  0  0
  -15.5354  -30.2975   23.7663 H   0  0  0  0  0  0
  -15.8689  -28.0819   22.7056 H   0  0  0  0  0  0
  -24.5891  -30.7095   25.7745 H   0  0  0  0  0  0
  -24.8940  -32.2909   26.4840 H   0  0  0  0  0  0
  -25.8043  -30.8900   27.0200 H   0  0  0  0  0  0
  -26.2935  -29.6723   24.1215 H   0  0  0  0  0  0
  -27.4033  -29.7249   25.4709 H   0  0  0  0  0  0
  -27.8813  -30.4246   23.9433 H   0  0  0  0  0  0
  -27.2679  -33.3609   26.2039 H   0  0  0  0  0  0
  -28.3888  -32.6843   25.0313 H   0  0  0  0  0  0
  -28.0716  -31.8431   26.5406 H   0  0  0  0  0  0
  -28.2579  -38.0100   24.7535 H   0  0  0  0  0  0
  -28.1093  -36.2632   24.6257 H   0  0  0  0  0  0
  -27.2306  -37.1399   25.8868 H   0  0  0  0  0  0
  -20.9407  -29.8742   21.6838 H   0  0  0  0  0  0
  -26.0158  -38.2832   24.1436 H   0  0  0  0  0  0
  -32.4232  -19.3276   22.2704 H   0  0  0  0  0  0
  -31.0665  -21.1635   21.3862 H   0  0  0  0  0  0
  -31.8743  -16.9823   21.8555 H   0  0  0  0  0  0
  -27.1734  -18.7376   19.6847 H   0  0  0  0  0  0
  -27.7259  -17.0862   19.5178 H   0  0  0  0  0  0
  -28.2112  -18.2824   18.3255 H   0  0  0  0  0  0
  -28.8607  -24.9211   21.5832 H   0  0  0  0  0  0
  -27.1821  -24.8534   21.1565 H   0  0  0  0  0  0
  -28.8004  -15.6940   20.5175 H   0  0  0  0  0  0
  -29.0864  -22.4310   21.3390 H   0  0  0  0  0  0
  1 25  1  0  0  0
  1 30  2  0  0  0
  1 81  1  0  0  0
  2  3  1  0  0  0
  2 25  1  0  0  0
  2 85  1  0  0  0
  2 86  1  0  0  0
  3  4  1  0  0  0
  3 87  1  0  0  0
  3 88  1  0  0  0
  4  5  1  0  0  0
  4 89  1  0  0  0
  4 90  1  0  0  0
  5  6  1  0  0  0
  5 26  1  0  0  0
  5 91  1  0  0  0
  6 25  1  0  0  0
  6 92  1  0  0  0
  6 93  1  0  0  0
  7  8  2  0  0  0
  7 26  1  0  0  0
  7 29  1  0  0  0
  8  9  1  0  0  0
  8 22  1  0  0  0
  9 10  1  0  0  0
  9 27  2  0  0  0
 10 11  2  0  0  0
 10 15  1  0  0  0
 11 12  1  0  0  0
 11 94  1  0  0  0
 12 13  2  0  0  0
 12 95  1  0  0  0
 13 14  1  0  0  0
 13 31  1  0  0  0
 14 15  2  0  0  0
 14 96  1  0  0  0
 15 97  1  0  0  0
 16 17  2  0  0  0
 16 21  1  0  0  0
 16 31  1  0  0  0
 17 18  1  0  0  0
 17 98  1  0  0  0
 18 19  2  0  0  0
 18 99  1  0  0  0
 19 20  1  0  0  0
 19 24  1  0  0  0
 20 21  2  0  0  0
 20100  1  0  0  0
 21 23  1  0  0  0
 22 28  1  0  0  0
 22 32  2  0  0  0
 26 27  1  0  0  0
 28101  1  0  0  0
 28102  1  0  0  0
 29103  1  0  0  0
 29104  1  0  0  0
 33 34  1  0  0  0
 33 66  1  0  0  0
 33 70  2  0  0  0
 34 36  1  0  0  0
 34 59  1  0  0  0
 34105  1  0  0  0
 35 44  2  0  0  0
 35 45  1  0  0  0
 35 68  1  0  0  0
 36 56  1  0  0  0
 36106  1  0  0  0
 37 39  1  0  0  0
 37 47  1  0  0  0
 37 66  1  0  0  0
 37107  1  0  0  0
 38 43  2  0  0  0
 38 46  1  0  0  0
 38 47  1  0  0  0
 39 64  1  0  0  0
 39 67  2  0  0  0
 40 52  1  0  0  0
 40 53  2  0  0  0
 40 58  1  0  0  0
 41108  1  0  0  0
 41109  1  0  0  0
 41110  1  0  0  0
 41 48  1  0  0  0
 42 43  1  0  0  0
 42 66  1  0  0  0
 42111  1  0  0  0
 42112  1  0  0  0
 43 44  1  0  0  0
 44113  1  0  0  0
 45 46  2  0  0  0
 45114  1  0  0  0
 46115  1  0  0  0
 47116  1  0  0  0
 47117  1  0  0  0
 48 56  1  0  0  0
 48 65  1  0  0  0
 48118  1  0  0  0
 49 50  1  0  0  0
 49 53  1  0  0  0
 49 64  1  0  0  0
 49119  1  0  0  0
 50 51  1  0  0  0
 50120  1  0  0  0
 50121  1  0  0  0
 51 52  1  0  0  0
 51122  1  0  0  0
 51123  1  0  0  0
 52124  1  0  0  0
 52125  1  0  0  0
 53 54  1  0  0  0
 54 55  2  0  0  0
 54126  1  0  0  0
 55 57  1  0  0  0
 55127  1  0  0  0
 56 69  2  0  0  0
 57 58  2  0  0  0
 57128  1  0  0  0
 58129  1  0  0  0
 59 60  1  0  0  0
 59 61  1  0  0  0
 59 62  1  0  0  0
 60130  1  0  0  0
 60131  1  0  0  0
 60132  1  0  0  0
 61133  1  0  0  0
 61134  1  0  0  0
 61135  1  0  0  0
 62136  1  0  0  0
 62137  1  0  0  0
 62138  1  0  0  0
 63 65  1  0  0  0
 63139  1  0  0  0
 63140  1  0  0  0
 63141  1  0  0  0
 64142  1  0  0  0
 65143  1  0  0  0
 68 80  1  0  0  0
 71 72  2  0  0  0
 71 73  1  0  0  0
 71144  1  0  0  0
 72 74  1  0  0  0
 72145  1  0  0  0
 73 76  2  0  0  0
 73146  1  0  0  0
 74 75  2  0  0  0
 74 77  1  0  0  0
 75 76  1  0  0  0
 75 79  1  0  0  0
 76 81  1  0  0  0
 77 82  1  0  0  0
 77 83  2  0  0  0
 78 80  1  0  0  0
 78 82  1  0  0  0
 78 84  2  0  0  0
 79147  1  0  0  0
 79148  1  0  0  0
 79149  1  0  0  0
 80150  1  0  0  0
 80151  1  0  0  0
 81152  1  0  0  0
 82153  1  0  0  0
M  ISO  4   1 100  68 101  80 101  81 100
M  END
> <chiral flag>
0

> <version>
0

> <s_m_source_file>
/data/baiqing/PycharmProjects/Reinvent-master-3.2/result/LINK_invent/BTK/process_docking_weight1_custom_product_contain_oxygen_bond_distance_aromatic_linkinvent_7_9_3/rearranged_h_0061.sdf

> <i_m_source_file_index>
10

> <r_mmod_Potential_Energy-OPLS-2005>
64.5078048706055

> <r_mmod_Stretch_Energy-OPLS-2005>
144.99641418457

> <r_mmod_Bend_Energy-OPLS-2005>
167.945571899414

> <r_mmod_Torsional_Energy-OPLS-2005>
256.594909667969

> <r_mmod_Improper_Torsional_Energy-OPLS-2005>
7.22938823699951

> <r_mmod_Van_der_Waal_Energy-OPLS-2005>
137.327865600586

> <r_mmod_Electrostatic_Energy-OPLS-2005>
-466.445465087891

> <r_mmod_Solvation_Energy-OPLS-2005>
-280.805206298828

> <b_mmod_Minimization_Converged-OPLS-2005>
0

> <r_mmod_RMS_Derivative-OPLS-2005>
0.740475952625275

$$$$
10
                    3D
 Structure written by MMmdl.
157166  0  0  1  0            999 V2000
  -30.5839  -14.7207   20.4520 C   0  0  0  0  0  0
  -30.4472  -12.4386   19.4557 C   0  0  0  0  0  0
  -29.5163  -12.5343   18.2244 C   0  0  0  0  0  0
  -28.0385  -12.3663   18.6332 C   0  0  0  0  0  0
  -27.6529  -13.2339   19.8617 C   0  0  2  0  0  0
  -28.6982  -13.1072   20.9912 C   0  0  0  0  0  0
  -25.2521  -13.8223   20.5680 C   0  0  0  0  0  0
  -24.1818  -13.0456   20.9217 C   0  0  0  0  0  0
  -24.6409  -11.6936   20.8759 C   0  0  0  0  0  0
  -23.9074  -10.4319   21.0421 C   0  0  0  0  0  0
  -24.3645   -9.4205   21.9176 C   0  0  0  0  0  0
  -23.6317   -8.2243   22.0742 C   0  0  0  0  0  0
  -22.4282   -8.0297   21.3551 C   0  0  0  0  0  0
  -21.9925   -9.0253   20.4630 C   0  0  0  0  0  0
  -22.7262  -10.2118   20.3040 C   0  0  0  0  0  0
  -21.6842   -6.0758   22.5287 C   0  0  0  0  0  0
  -21.3976   -6.5624   23.8232 C   0  0  0  0  0  0
  -21.3671   -5.6775   24.9193 C   0  0  0  0  0  0
  -21.6093   -4.3051   24.7234 C   0  0  0  0  0  0
  -21.8801   -3.8132   23.4337 C   0  0  0  0  0  0
  -21.9182   -4.6975   22.3400 C   0  0  0  0  0  0
  -22.7820  -13.5221   21.1900 C   0  0  0  0  0  0
  -22.1660   -4.2147   21.0995 F   0  0  0  0  0  0
  -21.5683   -3.4538   25.7745 F   0  0  0  0  0  0
  -30.0119  -13.4697   20.4263 N   0  0  0  0  0  0
  -26.2979  -12.9452   20.3296 N   0  0  0  0  0  0
  -25.9341  -11.6592   20.5702 N   0  0  0  0  0  0
  -22.0445  -12.8195   22.0434 N   0  0  0  0  0  0
  -25.4208  -15.1970   20.4125 N   0  0  0  0  0  0
  -31.7400  -14.8948   20.0548 O   0  0  0  0  0  0
  -21.6648   -6.8892   21.4246 O   0  0  0  0  0  0
  -22.3487  -14.5546   20.6765 O   0  0  0  0  0  0
  -24.6295  -31.8554   23.1952 C   0  0  0  0  0  0
  -25.9141  -32.4755   23.8326 C   0  0  1  0  0  0
  -27.2421  -27.2972   20.0928 C   0  0  0  0  0  0
  -25.5932  -33.8549   24.2236 N   0  0  0  0  0  0
  -23.4267  -30.4728   21.5344 C   0  0  2  0  0  0
  -24.8760  -28.9192   20.1005 C   0  0  0  0  0  0
  -22.7498  -29.4619   22.4899 C   0  0  0  0  0  0
  -18.0295  -28.1391   22.8504 C   0  0  0  0  0  0
  -24.1480  -36.7266   23.2630 C   0  0  0  0  0  0
  -25.9675  -30.7727   21.3720 C   0  0  0  0  0  0
  -26.0416  -29.3962   20.7145 C   0  0  0  0  0  0
  -27.2189  -28.5884   20.7126 C   0  0  0  0  0  0
  -26.0553  -26.8711   19.4617 C   0  0  0  0  0  0
  -24.8864  -27.6626   19.4673 C   0  0  0  0  0  0
  -23.6408  -29.7973   20.1531 C   0  0  0  0  0  0
  -25.4111  -36.3059   24.0327 C   0  0  1  0  0  0
  -20.5901  -28.3696   23.1272 C   0  0  2  0  0  0
  -20.6770  -26.9431   22.5405 C   0  0  0  0  0  0
  -19.5751  -26.6398   21.5208 C   0  0  0  0  0  0
  -18.1925  -26.7943   22.1618 C   0  0  0  0  0  0
  -19.1543  -28.8861   23.2894 C   0  0  0  0  0  0
  -18.9468  -30.1454   23.8929 C   0  0  0  0  0  0
  -17.6461  -30.6586   24.0570 C   0  0  0  0  0  0
  -25.9076  -34.9443   23.5097 C   0  0  0  0  0  0
  -16.5350  -29.9086   23.6323 C   0  0  0  0  0  0
  -16.7283  -28.6490   23.0371 C   0  0  0  0  0  0
  -26.4500  -31.6583   25.0709 C   0  0  0  0  0  0
  -25.3714  -31.3713   26.1411 C   0  0  0  0  0  0
  -27.0334  -30.3007   24.6191 C   0  0  0  0  0  0
  -27.6072  -32.4306   25.7484 C   0  0  0  0  0  0
  -27.5607  -37.1739   24.8421 C   0  0  0  0  0  0
  -21.4203  -29.3037   22.3630 N   0  0  0  0  0  0
  -26.4245  -37.3802   23.9477 N   0  0  0  0  0  0
  -24.6926  -31.0519   22.0920 N   0  0  0  0  0  0
  -23.4187  -28.8173   23.3028 O   0  0  0  0  0  0
  -28.3675  -26.4570   20.1780 O   0  0  0  0  0  0
  -26.5662  -34.8933   22.4670 O   0  0  0  0  0  0
  -23.5441  -32.1368   23.7236 O   0  0  0  0  0  0
  -30.0861  -19.3690   19.3731 C   0  0  0  0  0  0
  -30.3495  -17.9677   19.5979 C   0  0  0  0  0  0
  -28.5168  -19.3633   21.1781 C   0  0  0  0  0  0
  -27.2327  -23.1138   19.1330 C   0  0  0  0  0  0
  -28.7746  -17.9755   21.4130 C   0  0  0  0  0  0
  -28.4147  -23.8100   19.5246 C   0  0  0  0  0  0
  -29.1349  -20.1083   20.1425 C   0  0  0  0  0  0
  -29.6826  -17.2162   20.6134 C   0  0  0  0  0  0
  -27.4038  -21.7649   19.3082 C   0  0  0  0  0  0
  -29.2520  -22.7693   19.9646 C   0  0  0  0  0  0
  -28.0232  -17.2936   22.5451 C   0  0  0  0  0  0
  -28.6532  -25.3573   19.2269 C   0  0  0  0  0  0
  -28.6607  -21.4768   19.8361 N   0  0  0  0  0  0
  -29.7560  -15.7527   20.8399 N   0  0  0  0  0  0
  -26.5350  -20.7629   18.9834 O   0  0  0  0  0  0
  -30.5357  -22.8589   20.4204 O   0  0  0  0  0  0
  -31.4882  -12.5724   19.1585 H   0  0  0  0  0  0
  -30.3855  -11.4430   19.9000 H   0  0  0  0  0  0
  -29.7981  -11.7787   17.4870 H   0  0  0  0  0  0
  -29.6501  -13.5006   17.7345 H   0  0  0  0  0  0
  -27.8728  -11.3133   18.8604 H   0  0  0  0  0  0
  -27.3881  -12.6031   17.7895 H   0  0  0  0  0  0
  -27.6660  -14.2685   19.5197 H   0  0  0  0  0  0
  -28.7204  -12.0834   21.3724 H   0  0  0  0  0  0
  -28.4283  -13.7411   21.8358 H   0  0  0  0  0  0
  -25.2783   -9.5685   22.4751 H   0  0  0  0  0  0
  -24.0036   -7.4626   22.7448 H   0  0  0  0  0  0
  -21.0874   -8.8756   19.8940 H   0  0  0  0  0  0
  -22.3729  -10.9663   19.6135 H   0  0  0  0  0  0
  -21.1909   -7.6118   23.9720 H   0  0  0  0  0  0
  -21.1544   -6.0511   25.9102 H   0  0  0  0  0  0
  -22.0570   -2.7589   23.2840 H   0  0  0  0  0  0
  -22.4018  -11.9822   22.4811 H   0  0  0  0  0  0
  -21.1044  -13.1202   22.2656 H   0  0  0  0  0  0
  -24.6509  -15.8484   20.5145 H   0  0  0  0  0  0
  -26.2628  -15.6320   20.0578 H   0  0  0  0  0  0
  -26.7220  -32.5401   23.1064 H   0  0  0  0  0  0
  -25.0040  -33.9699   25.0344 H   0  0  0  0  0  0
  -22.7256  -31.2956   21.3833 H   0  0  0  0  0  0
  -23.3796  -35.9530   23.3129 H   0  0  0  0  0  0
  -24.3635  -36.9051   22.2088 H   0  0  0  0  0  0
  -23.7125  -37.6373   23.6744 H   0  0  0  0  0  0
  -26.1072  -31.5341   20.6026 H   0  0  0  0  0  0
  -26.8490  -30.8243   22.0023 H   0  0  0  0  0  0
  -28.1085  -28.9412   21.2129 H   0  0  0  0  0  0
  -26.0063  -25.8999   18.9904 H   0  0  0  0  0  0
  -23.9927  -27.2905   18.9804 H   0  0  0  0  0  0
  -23.7478  -30.5647   19.3877 H   0  0  0  0  0  0
  -22.7653  -29.2132   19.8618 H   0  0  0  0  0  0
  -25.1267  -36.1868   25.0811 H   0  0  0  0  0  0
  -21.0039  -28.3261   24.1386 H   0  0  0  0  0  0
  -20.5613  -26.2336   23.3612 H   0  0  0  0  0  0
  -21.6626  -26.7414   22.1212 H   0  0  0  0  0  0
  -19.6887  -25.6286   21.1257 H   0  0  0  0  0  0
  -19.6675  -27.3190   20.6726 H   0  0  0  0  0  0
  -17.4199  -26.6697   21.4017 H   0  0  0  0  0  0
  -18.0335  -26.0065   22.9008 H   0  0  0  0  0  0
  -19.7941  -30.7265   24.2308 H   0  0  0  0  0  0
  -17.5014  -31.6268   24.5154 H   0  0  0  0  0  0
  -15.5349  -30.3007   23.7620 H   0  0  0  0  0  0
  -15.8674  -28.0807   22.7112 H   0  0  0  0  0  0
  -24.5903  -30.7069   25.7678 H   0  0  0  0  0  0
  -24.8877  -32.2867   26.4851 H   0  0  0  0  0  0
  -25.8008  -30.8846   27.0179 H   0  0  0  0  0  0
  -26.2891  -29.6770   24.1227 H   0  0  0  0  0  0
  -27.4016  -29.7283   25.4713 H   0  0  0  0  0  0
  -27.8784  -30.4280   23.9423 H   0  0  0  0  0  0
  -27.2730  -33.3639   26.2050 H   0  0  0  0  0  0
  -28.3912  -32.6828   25.0313 H   0  0  0  0  0  0
  -28.0729  -31.8432   26.5412 H   0  0  0  0  0  0
  -28.2430  -38.0226   24.7778 H   0  0  0  0  0  0
  -28.1307  -36.2794   24.5834 H   0  0  0  0  0  0
  -27.2403  -37.0870   25.8821 H   0  0  0  0  0  0
  -20.9363  -29.8793   21.6862 H   0  0  0  0  0  0
  -26.0099  -38.2822   24.1658 H   0  0  0  0  0  0
  -30.5903  -19.8656   18.5563 H   0  0  0  0  0  0
  -31.0441  -17.4660   18.9377 H   0  0  0  0  0  0
  -27.7748  -19.8749   21.7747 H   0  0  0  0  0  0
  -26.3584  -23.5705   18.6888 H   0  0  0  0  0  0
  -27.3513  -17.9851   23.0510 H   0  0  0  0  0  0
  -28.7246  -16.9216   23.2895 H   0  0  0  0  0  0
  -27.4248  -16.4619   22.1771 H   0  0  0  0  0  0
  -28.1906  -25.6049   18.2688 H   0  0  0  0  0  0
  -29.7175  -25.4427   19.0100 H   0  0  0  0  0  0
  -28.9386  -15.3962   21.3074 H   0  0  0  0  0  0
  -25.8387  -21.1361   18.4506 H   0  0  0  0  0  0
  -30.7786  -23.7781   20.4513 H   0  0  0  0  0  0
  1 25  1  0  0  0
  1 30  2  0  0  0
  1 84  1  0  0  0
  2  3  1  0  0  0
  2 25  1  0  0  0
  2 87  1  0  0  0
  2 88  1  0  0  0
  3  4  1  0  0  0
  3 89  1  0  0  0
  3 90  1  0  0  0
  4  5  1  0  0  0
  4 91  1  0  0  0
  4 92  1  0  0  0
  5  6  1  0  0  0
  5 26  1  0  0  0
  5 93  1  0  0  0
  6 25  1  0  0  0
  6 94  1  0  0  0
  6 95  1  0  0  0
  7  8  2  0  0  0
  7 26  1  0  0  0
  7 29  1  0  0  0
  8  9  1  0  0  0
  8 22  1  0  0  0
  9 10  1  0  0  0
  9 27  2  0  0  0
 10 11  2  0  0  0
 10 15  1  0  0  0
 11 12  1  0  0  0
 11 96  1  0  0  0
 12 13  2  0  0  0
 12 97  1  0  0  0
 13 14  1  0  0  0
 13 31  1  0  0  0
 14 15  2  0  0  0
 14 98  1  0  0  0
 15 99  1  0  0  0
 16 17  2  0  0  0
 16 21  1  0  0  0
 16 31  1  0  0  0
 17 18  1  0  0  0
 17100  1  0  0  0
 18 19  2  0  0  0
 18101  1  0  0  0
 19 20  1  0  0  0
 19 24  1  0  0  0
 20 21  2  0  0  0
 20102  1  0  0  0
 21 23  1  0  0  0
 22 28  1  0  0  0
 22 32  2  0  0  0
 26 27  1  0  0  0
 28103  1  0  0  0
 28104  1  0  0  0
 29105  1  0  0  0
 29106  1  0  0  0
 33 34  1  0  0  0
 33 66  1  0  0  0
 33 70  2  0  0  0
 34 36  1  0  0  0
 34 59  1  0  0  0
 34107  1  0  0  0
 35 44  2  0  0  0
 35 45  1  0  0  0
 35 68  1  0  0  0
 36 56  1  0  0  0
 36108  1  0  0  0
 37 39  1  0  0  0
 37 47  1  0  0  0
 37 66  1  0  0  0
 37109  1  0  0  0
 38 43  2  0  0  0
 38 46  1  0  0  0
 38 47  1  0  0  0
 39 64  1  0  0  0
 39 67  2  0  0  0
 40 52  1  0  0  0
 40 53  2  0  0  0
 40 58  1  0  0  0
 41110  1  0  0  0
 41111  1  0  0  0
 41112  1  0  0  0
 41 48  1  0  0  0
 42 43  1  0  0  0
 42 66  1  0  0  0
 42113  1  0  0  0
 42114  1  0  0  0
 43 44  1  0  0  0
 44115  1  0  0  0
 45 46  2  0  0  0
 45116  1  0  0  0
 46117  1  0  0  0
 47118  1  0  0  0
 47119  1  0  0  0
 48 56  1  0  0  0
 48 65  1  0  0  0
 48120  1  0  0  0
 49 50  1  0  0  0
 49 53  1  0  0  0
 49 64  1  0  0  0
 49121  1  0  0  0
 50 51  1  0  0  0
 50122  1  0  0  0
 50123  1  0  0  0
 51 52  1  0  0  0
 51124  1  0  0  0
 51125  1  0  0  0
 52126  1  0  0  0
 52127  1  0  0  0
 53 54  1  0  0  0
 54 55  2  0  0  0
 54128  1  0  0  0
 55 57  1  0  0  0
 55129  1  0  0  0
 56 69  2  0  0  0
 57 58  2  0  0  0
 57130  1  0  0  0
 58131  1  0  0  0
 59 60  1  0  0  0
 59 61  1  0  0  0
 59 62  1  0  0  0
 60132  1  0  0  0
 60133  1  0  0  0
 60134  1  0  0  0
 61135  1  0  0  0
 61136  1  0  0  0
 61137  1  0  0  0
 62138  1  0  0  0
 62139  1  0  0  0
 62140  1  0  0  0
 63 65  1  0  0  0
 63141  1  0  0  0
 63142  1  0  0  0
 63143  1  0  0  0
 64144  1  0  0  0
 65145  1  0  0  0
 68 82  1  0  0  0
 71 72  2  0  0  0
 71 77  1  0  0  0
 71146  1  0  0  0
 72 78  1  0  0  0
 72147  1  0  0  0
 73 75  1  0  0  0
 73 77  2  0  0  0
 73148  1  0  0  0
 74 76  1  0  0  0
 74 79  2  0  0  0
 74149  1  0  0  0
 75 78  2  0  0  0
 75 81  1  0  0  0
 76 80  2  0  0  0
 76 82  1  0  0  0
 77 83  1  0  0  0
 78 84  1  0  0  0
 79 83  1  0  0  0
 79 85  1  0  0  0
 80 83  1  0  0  0
 80 86  1  0  0  0
 81150  1  0  0  0
 81151  1  0  0  0
 81152  1  0  0  0
 82153  1  0  0  0
 82154  1  0  0  0
 84155  1  0  0  0
 85156  1  0  0  0
 86157  1  0  0  0
M  ISO  4   1 100  68 101  82 101  84 100
M  END
> <chiral flag>
0

> <version>
0

> <s_m_source_file>
/data/baiqing/PycharmProjects/Reinvent-master-3.2/result/LINK_invent/BTK/process_docking_weight1_custom_product_contain_oxygen_bond_distance_aromatic_linkinvent_7_9_3/rearranged_h_0061.sdf

> <i_m_source_file_index>
11

> <r_mmod_Potential_Energy-OPLS-2005>
141.218811035156

> <r_mmod_Stretch_Energy-OPLS-2005>
100.441703796387

> <r_mmod_Bend_Energy-OPLS-2005>
181.134963989258

> <r_mmod_Torsional_Energy-OPLS-2005>
249.827499389648

> <r_mmod_Improper_Torsional_Energy-OPLS-2005>
6.25873994827271

> <r_mmod_Van_der_Waal_Energy-OPLS-2005>
125.488494873047

> <r_mmod_Electrostatic_Energy-OPLS-2005>
-355.916137695312

> <r_mmod_Solvation_Energy-OPLS-2005>
-236.348968505859

> <b_mmod_Minimization_Converged-OPLS-2005>
0

> <r_mmod_RMS_Derivative-OPLS-2005>
5.34301948547363

$$$$
11
                    3D
 Structure written by MMmdl.
159167  0  0  1  0            999 V2000
  -29.8109  -16.8978   20.2584 C   0  0  0  0  0  0
  -30.2626  -14.0414   19.5256 C   0  0  0  0  0  0
  -29.5686  -13.0828   18.4475 C   0  0  0  0  0  0
  -28.2801  -12.4401   18.9579 C   0  0  0  0  0  0
  -27.5742  -13.4800   19.8350 C   0  0  2  0  0  0
  -28.4827  -14.2960   20.8560 C   0  0  0  0  0  0
  -25.2125  -13.8574   20.6012 C   0  0  0  0  0  0
  -24.1675  -13.0494   20.9369 C   0  0  0  0  0  0
  -24.6604  -11.7079   20.8733 C   0  0  0  0  0  0
  -23.9310  -10.4346   21.0311 C   0  0  0  0  0  0
  -24.3764   -9.4245   21.9132 C   0  0  0  0  0  0
  -23.6379   -8.2297   22.0740 C   0  0  0  0  0  0
  -22.4353   -8.0332   21.3535 C   0  0  0  0  0  0
  -22.0040   -9.0316   20.4616 C   0  0  0  0  0  0
  -22.7436  -10.2169   20.2997 C   0  0  0  0  0  0
  -21.6890   -6.0757   22.5268 C   0  0  0  0  0  0
  -21.4040   -6.5651   23.8203 C   0  0  0  0  0  0
  -21.3675   -5.6800   24.9163 C   0  0  0  0  0  0
  -21.6048   -4.3063   24.7217 C   0  0  0  0  0  0
  -21.8808   -3.8154   23.4338 C   0  0  0  0  0  0
  -21.9204   -4.6975   22.3394 C   0  0  0  0  0  0
  -22.7634  -13.5072   21.1944 C   0  0  0  0  0  0
  -22.1662   -4.2160   21.0969 F   0  0  0  0  0  0
  -21.5625   -3.4544   25.7726 F   0  0  0  0  0  0
  -29.4322  -15.3034   20.1460 N   0  0  0  0  0  0
  -26.2849  -13.0278   20.3611 N   0  0  0  0  0  0
  -25.9646  -11.7138   20.5685 N   0  0  0  0  0  0
  -22.0354  -12.7997   22.0487 N   0  0  0  0  0  0
  -25.3436  -15.2337   20.4380 N   0  0  0  0  0  0
  -31.0625  -16.6281   20.1983 O   0  0  0  0  0  0
  -21.6694   -6.8929   21.4241 O   0  0  0  0  0  0
  -22.3242  -14.5348   20.6785 O   0  0  0  0  0  0
  -24.7680  -31.6900   23.0825 C   0  0  0  0  0  0
  -25.9833  -32.3922   23.7684 C   0  0  1  0  0  0
  -27.2854  -25.8379   20.2744 C   0  0  0  0  0  0
  -25.6048  -33.7799   24.1474 N   0  0  0  0  0  0
  -23.6328  -30.2525   21.4548 C   0  0  2  0  0  0
  -25.1074  -28.4118   20.1430 C   0  0  0  0  0  0
  -22.8133  -29.3738   22.4469 C   0  0  0  0  0  0
  -18.0391  -28.1446   22.8391 C   0  0  0  0  0  0
  -24.1499  -36.6938   23.2667 C   0  0  0  0  0  0
  -26.2361  -30.1319   21.4882 C   0  0  0  0  0  0
  -26.2989  -28.5987   20.8559 C   0  0  0  0  0  0
  -27.3205  -27.3677   20.8870 C   0  0  0  0  0  0
  -26.0838  -26.1108   19.4767 C   0  0  0  0  0  0
  -25.0930  -27.1963   19.4245 C   0  0  0  0  0  0
  -23.9354  -29.4645   20.1299 C   0  0  0  0  0  0
  -25.4171  -36.2576   24.0223 C   0  0  1  0  0  0
  -20.6063  -28.3839   23.0961 C   0  0  2  0  0  0
  -20.6774  -26.9412   22.5399 C   0  0  0  0  0  0
  -19.5776  -26.6332   21.5185 C   0  0  0  0  0  0
  -18.1973  -26.7956   22.1585 C   0  0  0  0  0  0
  -19.1675  -28.8987   23.2634 C   0  0  0  0  0  0
  -18.9580  -30.1544   23.8725 C   0  0  0  0  0  0
  -17.6560  -30.6599   24.0524 C   0  0  0  0  0  0
  -25.9204  -34.8983   23.4745 C   0  0  0  0  0  0
  -16.5441  -29.9069   23.6356 C   0  0  0  0  0  0
  -16.7372  -28.6497   23.0370 C   0  0  0  0  0  0
  -26.4741  -31.6342   25.0666 C   0  0  0  0  0  0
  -25.3596  -31.3921   26.1137 C   0  0  0  0  0  0
  -27.0803  -30.2595   24.7189 C   0  0  0  0  0  0
  -27.6013  -32.4403   25.7536 C   0  0  0  0  0  0
  -27.5540  -37.1612   24.8464 C   0  0  0  0  0  0
  -21.4707  -29.2919   22.3194 N   0  0  0  0  0  0
  -26.4219  -37.3447   23.9418 N   0  0  0  0  0  0
  -24.9141  -30.7446   22.0610 N   0  0  0  0  0  0
  -23.4158  -28.7512   23.3226 O   0  0  0  0  0  0
  -27.9860  -24.1363   20.2310 O   0  0  0  0  0  0
  -26.5951  -34.8734   22.4439 O   0  0  0  0  0  0
  -23.6529  -32.0368   23.5234 O   0  0  0  0  0  0
  -27.4141  -23.1858   22.0582 C   0  0  0  0  0  0
  -28.8666  -24.3574   22.0900 C   0  0  0  0  0  0
  -27.5088  -21.6736   21.0917 C   0  0  0  0  0  0
  -29.7397  -22.1456   19.9722 C   0  0  0  0  0  0
  -30.0193  -23.7508   20.7442 C   0  0  0  0  0  0
  -28.7893  -20.7260   20.3567 C   0  0  0  0  0  0
  -31.3388  -24.4078   20.5926 C   0  0  0  0  0  0
  -33.4100  -22.2314   22.7980 C   0  0  0  0  0  0
  -33.8801  -20.7866   22.8913 C   0  0  0  0  0  0
  -30.8990  -22.5140   22.9413 C   0  0  0  0  0  0
  -29.4407  -22.2421   22.2956 C   0  0  0  0  0  0
  -32.1380  -22.4915   21.9829 C   0  0  1  0  0  0
  -29.0458  -18.5981   20.2907 N   0  0  0  0  0  0
  -32.3064  -23.7584   21.2444 N   0  0  0  0  0  0
  -31.4877  -25.4730   19.9954 O   0  0  0  0  0  0
  -34.0514  -23.1252   23.3567 O   0  0  0  0  0  0
  -31.1346  -14.4578   19.0217 H   0  0  0  0  0  0
  -30.7073  -13.4378   20.3193 H   0  0  0  0  0  0
  -30.2671  -12.3126   18.1142 H   0  0  0  0  0  0
  -29.3315  -13.6776   17.5633 H   0  0  0  0  0  0
  -28.5310  -11.5690   19.5642 H   0  0  0  0  0  0
  -27.6446  -12.0967   18.1396 H   0  0  0  0  0  0
  -27.2912  -14.2313   19.0955 H   0  0  0  0  0  0
  -28.9888  -13.6326   21.5607 H   0  0  0  0  0  0
  -27.8392  -14.9017   21.4938 H   0  0  0  0  0  0
  -25.2886   -9.5700   22.4750 H   0  0  0  0  0  0
  -24.0046   -7.4697   22.7497 H   0  0  0  0  0  0
  -21.0961   -8.8862   19.8933 H   0  0  0  0  0  0
  -22.3885  -10.9696   19.6104 H   0  0  0  0  0  0
  -21.2046   -7.6162   23.9713 H   0  0  0  0  0  0
  -21.1507   -6.0528   25.9067 H   0  0  0  0  0  0
  -22.0577   -2.7616   23.2839 H   0  0  0  0  0  0
  -22.4055  -11.9696   22.4872 H   0  0  0  0  0  0
  -21.0929  -13.0891   22.2665 H   0  0  0  0  0  0
  -24.5647  -15.8752   20.5298 H   0  0  0  0  0  0
  -26.1905  -15.6807   20.1129 H   0  0  0  0  0  0
  -26.8027  -32.4239   23.0479 H   0  0  0  0  0  0
  -24.9994  -33.8686   24.9501 H   0  0  0  0  0  0
  -23.0155  -31.1128   21.1891 H   0  0  0  0  0  0
  -23.3791  -35.9229   23.3166 H   0  0  0  0  0  0
  -24.3553  -36.8810   22.2115 H   0  0  0  0  0  0
  -23.7231  -37.6030   23.6920 H   0  0  0  0  0  0
  -26.5202  -30.7977   20.6720 H   0  0  0  0  0  0
  -27.0607  -30.2259   22.1792 H   0  0  0  0  0  0
  -28.1893  -27.5542   21.5020 H   0  0  0  0  0  0
  -25.7994  -25.2663   18.8642 H   0  0  0  0  0  0
  -24.2394  -27.0217   18.7824 H   0  0  0  0  0  0
  -24.1702  -30.1862   19.3462 H   0  0  0  0  0  0
  -23.0261  -28.9653   19.7883 H   0  0  0  0  0  0
  -25.1410  -36.1211   25.0708 H   0  0  0  0  0  0
  -21.0114  -28.3506   24.1106 H   0  0  0  0  0  0
  -20.5469  -26.2511   23.3748 H   0  0  0  0  0  0
  -21.6635  -26.7148   22.1335 H   0  0  0  0  0  0
  -19.6897  -25.6204   21.1308 H   0  0  0  0  0  0
  -19.6726  -27.3049   20.6642 H   0  0  0  0  0  0
  -17.4231  -26.6700   21.3996 H   0  0  0  0  0  0
  -18.0340  -26.0135   22.9015 H   0  0  0  0  0  0
  -19.8069  -30.7377   24.2031 H   0  0  0  0  0  0
  -17.5119  -31.6259   24.5159 H   0  0  0  0  0  0
  -15.5433  -30.2920   23.7770 H   0  0  0  0  0  0
  -15.8783  -28.0758   22.7177 H   0  0  0  0  0  0
  -24.5867  -30.7165   25.7463 H   0  0  0  0  0  0
  -24.8725  -32.3225   26.4063 H   0  0  0  0  0  0
  -25.7591  -30.9446   27.0243 H   0  0  0  0  0  0
  -26.3664  -29.5893   24.2394 H   0  0  0  0  0  0
  -27.4095  -29.7448   25.6227 H   0  0  0  0  0  0
  -27.9683  -30.3519   24.0934 H   0  0  0  0  0  0
  -27.2438  -33.3873   26.1575 H   0  0  0  0  0  0
  -28.4087  -32.6675   25.0569 H   0  0  0  0  0  0
  -28.0366  -31.8918   26.5901 H   0  0  0  0  0  0
  -28.2444  -38.0010   24.7534 H   0  0  0  0  0  0
  -28.1143  -36.2518   24.6244 H   0  0  0  0  0  0
  -27.2260  -37.1155   25.8864 H   0  0  0  0  0  0
  -21.0221  -29.8506   21.6065 H   0  0  0  0  0  0
  -25.9964  -38.2445   24.1471 H   0  0  0  0  0  0
  -26.5217  -23.4092   22.6271 H   0  0  0  0  0  0
  -28.9696  -25.2651   22.6678 H   0  0  0  0  0  0
  -26.6318  -21.0698   21.2793 H   0  0  0  0  0  0
  -30.5817  -21.8914   19.3450 H   0  0  0  0  0  0
  -33.0282  -20.1096   22.8442 H   0  0  0  0  0  0
  -34.4116  -20.6080   23.8256 H   0  0  0  0  0  0
  -34.5450  -20.5570   22.0581 H   0  0  0  0  0  0
  -31.0541  -21.7458   23.7042 H   0  0  0  0  0  0
  -30.8999  -23.4413   23.5163 H   0  0  0  0  0  0
  -29.5395  -21.1594   22.3333 H   0  0  0  0  0  0
  -28.9743  -22.2180   23.3001 H   0  0  0  0  0  0
  -32.0382  -21.6728   21.2687 H   0  0  0  0  0  0
  -28.0897  -18.2708   20.3466 H   0  0  0  0  0  0
  -33.2378  -24.1515   21.2353 H   0  0  0  0  0  0
  1 25  1  0  0  0
  1 30  2  0  0  0
  1 83  1  0  0  0
  2  3  1  0  0  0
  2 25  1  0  0  0
  2 87  1  0  0  0
  2 88  1  0  0  0
  3  4  1  0  0  0
  3 89  1  0  0  0
  3 90  1  0  0  0
  4  5  1  0  0  0
  4 91  1  0  0  0
  4 92  1  0  0  0
  5  6  1  0  0  0
  5 26  1  0  0  0
  5 93  1  0  0  0
  6 25  1  0  0  0
  6 94  1  0  0  0
  6 95  1  0  0  0
  7  8  2  0  0  0
  7 26  1  0  0  0
  7 29  1  0  0  0
  8  9  1  0  0  0
  8 22  1  0  0  0
  9 10  1  0  0  0
  9 27  2  0  0  0
 10 11  2  0  0  0
 10 15  1  0  0  0
 11 12  1  0  0  0
 11 96  1  0  0  0
 12 13  2  0  0  0
 12 97  1  0  0  0
 13 14  1  0  0  0
 13 31  1  0  0  0
 14 15  2  0  0  0
 14 98  1  0  0  0
 15 99  1  0  0  0
 16 17  2  0  0  0
 16 21  1  0  0  0
 16 31  1  0  0  0
 17 18  1  0  0  0
 17100  1  0  0  0
 18 19  2  0  0  0
 18101  1  0  0  0
 19 20  1  0  0  0
 19 24  1  0  0  0
 20 21  2  0  0  0
 20102  1  0  0  0
 21 23  1  0  0  0
 22 28  1  0  0  0
 22 32  2  0  0  0
 26 27  1  0  0  0
 28103  1  0  0  0
 28104  1  0  0  0
 29105  1  0  0  0
 29106  1  0  0  0
 33 34  1  0  0  0
 33 66  1  0  0  0
 33 70  2  0  0  0
 34 36  1  0  0  0
 34 59  1  0  0  0
 34107  1  0  0  0
 35 44  2  0  0  0
 35 45  1  0  0  0
 35 68  1  0  0  0
 36 56  1  0  0  0
 36108  1  0  0  0
 37 39  1  0  0  0
 37 47  1  0  0  0
 37 66  1  0  0  0
 37109  1  0  0  0
 38 43  2  0  0  0
 38 46  1  0  0  0
 38 47  1  0  0  0
 39 64  1  0  0  0
 39 67  2  0  0  0
 40 52  1  0  0  0
 40 53  2  0  0  0
 40 58  1  0  0  0
 41110  1  0  0  0
 41111  1  0  0  0
 41112  1  0  0  0
 41 48  1  0  0  0
 42 43  1  0  0  0
 42 66  1  0  0  0
 42113  1  0  0  0
 42114  1  0  0  0
 43 44  1  0  0  0
 44115  1  0  0  0
 45 46  2  0  0  0
 45116  1  0  0  0
 46117  1  0  0  0
 47118  1  0  0  0
 47119  1  0  0  0
 48 56  1  0  0  0
 48 65  1  0  0  0
 48120  1  0  0  0
 49 50  1  0  0  0
 49 53  1  0  0  0
 49 64  1  0  0  0
 49121  1  0  0  0
 50 51  1  0  0  0
 50122  1  0  0  0
 50123  1  0  0  0
 51 52  1  0  0  0
 51124  1  0  0  0
 51125  1  0  0  0
 52126  1  0  0  0
 52127  1  0  0  0
 53 54  1  0  0  0
 54 55  2  0  0  0
 54128  1  0  0  0
 55 57  1  0  0  0
 55129  1  0  0  0
 56 69  2  0  0  0
 57 58  2  0  0  0
 57130  1  0  0  0
 58131  1  0  0  0
 59 60  1  0  0  0
 59 61  1  0  0  0
 59 62  1  0  0  0
 60132  1  0  0  0
 60133  1  0  0  0
 60134  1  0  0  0
 61135  1  0  0  0
 61136  1  0  0  0
 61137  1  0  0  0
 62138  1  0  0  0
 62139  1  0  0  0
 62140  1  0  0  0
 63 65  1  0  0  0
 63141  1  0  0  0
 63142  1  0  0  0
 63143  1  0  0  0
 64144  1  0  0  0
 65145  1  0  0  0
 68 81  1  0  0  0
 71 72  2  0  0  0
 71 73  1  0  0  0
 71146  1  0  0  0
 72 75  1  0  0  0
 72147  1  0  0  0
 73 76  2  0  0  0
 73148  1  0  0  0
 74 75  2  0  0  0
 74 76  1  0  0  0
 74149  1  0  0  0
 75 77  1  0  0  0
 76 83  1  0  0  0
 77 84  1  0  0  0
 77 85  2  0  0  0
 78 79  1  0  0  0
 78 82  1  0  0  0
 78 86  2  0  0  0
 79150  1  0  0  0
 79151  1  0  0  0
 79152  1  0  0  0
 80 81  1  0  0  0
 80153  1  0  0  0
 80154  1  0  0  0
 80 82  1  0  0  0
 81155  1  0  0  0
 81156  1  0  0  0
 82 84  1  0  0  0
 82157  1  0  0  0
 83158  1  0  0  0
 84159  1  0  0  0
M  ISO  4   1 100  68 101  81 101  83 100
M  END
> <chiral flag>
0

> <version>
0

> <s_m_source_file>
/data/baiqing/PycharmProjects/Reinvent-master-3.2/result/LINK_invent/BTK/process_docking_weight1_custom_product_contain_oxygen_bond_distance_aromatic_linkinvent_7_9_3/rearranged_h_0061.sdf

> <i_m_source_file_index>
12

> <r_mmod_Potential_Energy-OPLS-2005>
15159.4921875

> <r_mmod_Stretch_Energy-OPLS-2005>
8495.8935546875

> <r_mmod_Bend_Energy-OPLS-2005>
1141.99597167969

> <r_mmod_Torsional_Energy-OPLS-2005>
369.011749267578

> <r_mmod_Improper_Torsional_Energy-OPLS-2005>
11.0296583175659

> <r_mmod_Van_der_Waal_Energy-OPLS-2005>
2071.03491210938

> <r_mmod_Electrostatic_Energy-OPLS-2005>
-477.571807861328

> <r_mmod_Solvation_Energy-OPLS-2005>
-276.026611328125

> <b_mmod_Minimization_Converged-OPLS-2005>
0

> <r_mmod_RMS_Derivative-OPLS-2005>
4.18378114700317

$$$$
12
                    3D
 Structure written by MMmdl.
154162  0  0  1  0            999 V2000
  -30.6120  -14.6657   20.4807 C   0  0  0  0  0  0
  -30.4422  -12.4028   19.4603 C   0  0  0  0  0  0
  -29.5111  -12.4977   18.2300 C   0  0  0  0  0  0
  -28.0341  -12.3362   18.6415 C   0  0  0  0  0  0
  -27.6531  -13.2157   19.8625 C   0  0  2  0  0  0
  -28.6986  -13.0826   20.9927 C   0  0  0  0  0  0
  -25.2563  -13.8163   20.5689 C   0  0  0  0  0  0
  -24.1827  -13.0428   20.9192 C   0  0  0  0  0  0
  -24.6392  -11.6903   20.8751 C   0  0  0  0  0  0
  -23.9048  -10.4290   21.0406 C   0  0  0  0  0  0
  -24.3609   -9.4200   21.9182 C   0  0  0  0  0  0
  -23.6289   -8.2241   22.0756 C   0  0  0  0  0  0
  -22.4270   -8.0281   21.3543 C   0  0  0  0  0  0
  -21.9895   -9.0252   20.4643 C   0  0  0  0  0  0
  -22.7224  -10.2131   20.3053 C   0  0  0  0  0  0
  -21.6851   -6.0734   22.5277 C   0  0  0  0  0  0
  -21.4012   -6.5639   23.8214 C   0  0  0  0  0  0
  -21.3656   -5.6792   24.9177 C   0  0  0  0  0  0
  -21.6049   -4.3055   24.7225 C   0  0  0  0  0  0
  -21.8815   -3.8143   23.4347 C   0  0  0  0  0  0
  -21.9193   -4.6962   22.3402 C   0  0  0  0  0  0
  -22.7848  -13.5237   21.1850 C   0  0  0  0  0  0
  -22.1658   -4.2145   21.0979 F   0  0  0  0  0  0
  -21.5626   -3.4541   25.7736 F   0  0  0  0  0  0
  -30.0120  -13.4317   20.4280 N   0  0  0  0  0  0
  -26.2990  -12.9341   20.3321 N   0  0  0  0  0  0
  -25.9318  -11.6498   20.5765 N   0  0  0  0  0  0
  -22.0489  -12.8242   22.0417 N   0  0  0  0  0  0
  -25.4270  -15.1886   20.4103 N   0  0  0  0  0  0
  -31.7739  -14.8241   20.0961 O   0  0  0  0  0  0
  -21.6638   -6.8874   21.4243 O   0  0  0  0  0  0
  -22.3538  -14.5552   20.6708 O   0  0  0  0  0  0
  -24.6275  -31.8580   23.2004 C   0  0  0  0  0  0
  -25.9118  -32.4760   23.8328 C   0  0  1  0  0  0
  -27.2226  -27.2970   20.1212 C   0  0  0  0  0  0
  -25.5928  -33.8572   24.2246 N   0  0  0  0  0  0
  -23.4238  -30.4821   21.5420 C   0  0  2  0  0  0
  -24.8698  -28.9347   20.1105 C   0  0  0  0  0  0
  -22.7496  -29.4629   22.4915 C   0  0  0  0  0  0
  -18.0291  -28.1410   22.8494 C   0  0  0  0  0  0
  -24.1491  -36.7291   23.2646 C   0  0  0  0  0  0
  -25.9671  -30.7818   21.3752 C   0  0  0  0  0  0
  -26.0407  -29.4089   20.7153 C   0  0  0  0  0  0
  -27.2213  -28.6036   20.7074 C   0  0  0  0  0  0
  -26.0240  -26.8804   19.4948 C   0  0  0  0  0  0
  -24.8640  -27.6767   19.4912 C   0  0  0  0  0  0
  -23.6393  -29.8176   20.1578 C   0  0  0  0  0  0
  -25.4119  -36.3070   24.0326 C   0  0  1  0  0  0
  -20.5896  -28.3710   23.1272 C   0  0  2  0  0  0
  -20.6791  -26.9433   22.5416 C   0  0  0  0  0  0
  -19.5769  -26.6394   21.5236 C   0  0  0  0  0  0
  -18.1938  -26.7954   22.1623 C   0  0  0  0  0  0
  -19.1546  -28.8876   23.2876 C   0  0  0  0  0  0
  -18.9478  -30.1477   23.8893 C   0  0  0  0  0  0
  -17.6483  -30.6608   24.0575 C   0  0  0  0  0  0
  -25.9055  -34.9448   23.5077 C   0  0  0  0  0  0
  -16.5370  -29.9112   23.6340 C   0  0  0  0  0  0
  -16.7279  -28.6533   23.0345 C   0  0  0  0  0  0
  -26.4489  -31.6590   25.0719 C   0  0  0  0  0  0
  -25.3710  -31.3809   26.1450 C   0  0  0  0  0  0
  -27.0304  -30.2986   24.6212 C   0  0  0  0  0  0
  -27.6053  -32.4328   25.7471 C   0  0  0  0  0  0
  -27.5580  -37.1783   24.8462 C   0  0  0  0  0  0
  -21.4202  -29.3054   22.3653 N   0  0  0  0  0  0
  -26.4287  -37.3771   23.9412 N   0  0  0  0  0  0
  -24.6922  -31.0573   22.0962 N   0  0  0  0  0  0
  -23.4200  -28.8182   23.3015 O   0  0  0  0  0  0
  -28.3347  -26.4320   20.1723 O   0  0  0  0  0  0
  -26.5633  -34.8924   22.4649 O   0  0  0  0  0  0
  -23.5427  -32.1391   23.7304 O   0  0  0  0  0  0
  -30.8067  -19.2669   19.6862 C   0  0  0  0  0  0
  -30.7887  -17.8427   19.7916 C   0  0  0  0  0  0
  -28.9916  -18.0288   21.3669 C   0  0  0  0  0  0
  -29.9325  -20.1307   20.4156 C   0  0  0  0  0  0
  -29.8922  -17.1765   20.6634 C   0  0  0  0  0  0
  -28.9888  -19.4701   21.2594 C   0  0  0  0  0  0
  -30.1937  -21.6666   20.3910 C   0  0  0  0  0  0
  -29.3342  -24.0103   20.3241 C   0  0  0  0  0  0
  -27.0856  -19.6308   22.7258 C   0  0  0  0  0  0
  -28.0885  -24.9588   20.0861 C   0  0  0  0  0  0
  -29.8010  -15.7177   20.8364 N   0  0  0  0  0  0
  -29.2012  -22.6258   20.3309 N   0  0  0  0  0  0
  -31.3904  -21.9807   20.3843 O   0  0  0  0  0  0
  -30.4195  -24.5811   20.4903 O   0  0  0  0  0  0
  -28.1152  -20.2655   21.9734 O   0  0  0  0  0  0
  -31.4825  -12.5349   19.1585 H   0  0  0  0  0  0
  -30.3889  -11.4101   19.9115 H   0  0  0  0  0  0
  -29.7797  -11.7340   17.4992 H   0  0  0  0  0  0
  -29.6491  -13.4593   17.7319 H   0  0  0  0  0  0
  -27.8767  -11.2840   18.8840 H   0  0  0  0  0  0
  -27.3788  -12.5517   17.7969 H   0  0  0  0  0  0
  -27.6683  -14.2482   19.5141 H   0  0  0  0  0  0
  -28.7127  -12.0611   21.3787 H   0  0  0  0  0  0
  -28.4408  -13.7177   21.8406 H   0  0  0  0  0  0
  -25.2750   -9.5696   22.4751 H   0  0  0  0  0  0
  -23.9999   -7.4628   22.7472 H   0  0  0  0  0  0
  -21.0823   -8.8761   19.8949 H   0  0  0  0  0  0
  -22.3669  -10.9674   19.6164 H   0  0  0  0  0  0
  -21.2000   -7.6143   23.9719 H   0  0  0  0  0  0
  -21.1483   -6.0519   25.9080 H   0  0  0  0  0  0
  -22.0599   -2.7603   23.2845 H   0  0  0  0  0  0
  -22.4088  -11.9903   22.4819 H   0  0  0  0  0  0
  -21.1115  -13.1293   22.2616 H   0  0  0  0  0  0
  -24.6555  -15.8402   20.5067 H   0  0  0  0  0  0
  -26.2676  -15.6258   20.0553 H   0  0  0  0  0  0
  -26.7193  -32.5396   23.1070 H   0  0  0  0  0  0
  -25.0059  -33.9720   25.0381 H   0  0  0  0  0  0
  -22.7199  -31.3036   21.3953 H   0  0  0  0  0  0
  -23.3775  -35.9597   23.3286 H   0  0  0  0  0  0
  -24.3587  -36.8924   22.2062 H   0  0  0  0  0  0
  -23.7204  -37.6476   23.6678 H   0  0  0  0  0  0
  -26.1026  -31.5475   20.6102 H   0  0  0  0  0  0
  -26.8462  -30.8227   22.0075 H   0  0  0  0  0  0
  -28.1207  -28.9637   21.1883 H   0  0  0  0  0  0
  -25.9476  -25.9213   19.0076 H   0  0  0  0  0  0
  -23.9660  -27.3098   19.0120 H   0  0  0  0  0  0
  -23.7623  -30.5948   19.4021 H   0  0  0  0  0  0
  -22.7584  -29.2479   19.8544 H   0  0  0  0  0  0
  -25.1298  -36.1901   25.0817 H   0  0  0  0  0  0
  -20.9973  -28.3287   24.1397 H   0  0  0  0  0  0
  -20.5724  -26.2329   23.3620 H   0  0  0  0  0  0
  -21.6646  -26.7469   22.1181 H   0  0  0  0  0  0
  -19.6947  -25.6310   21.1258 H   0  0  0  0  0  0
  -19.6717  -27.3210   20.6778 H   0  0  0  0  0  0
  -17.4216  -26.6710   21.4025 H   0  0  0  0  0  0
  -18.0322  -26.0097   22.9014 H   0  0  0  0  0  0
  -19.7963  -30.7295   24.2237 H   0  0  0  0  0  0
  -17.5052  -31.6287   24.5183 H   0  0  0  0  0  0
  -15.5374  -30.3021   23.7703 H   0  0  0  0  0  0
  -15.8671  -28.0877   22.7034 H   0  0  0  0  0  0
  -24.5820  -30.7229   25.7792 H   0  0  0  0  0  0
  -24.9011  -32.3036   26.4882 H   0  0  0  0  0  0
  -25.8008  -30.8956   27.0216 H   0  0  0  0  0  0
  -26.2876  -29.6748   24.1228 H   0  0  0  0  0  0
  -27.3957  -29.7232   25.4726 H   0  0  0  0  0  0
  -27.8775  -30.4248   23.9462 H   0  0  0  0  0  0
  -27.2676  -33.3650   26.2016 H   0  0  0  0  0  0
  -28.3890  -32.6831   25.0309 H   0  0  0  0  0  0
  -28.0696  -31.8469   26.5409 H   0  0  0  0  0  0
  -28.2574  -38.0104   24.7500 H   0  0  0  0  0  0
  -28.1077  -36.2616   24.6264 H   0  0  0  0  0  0
  -27.2299  -37.1407   25.8868 H   0  0  0  0  0  0
  -20.9389  -29.8752   21.6842 H   0  0  0  0  0  0
  -26.0161  -38.2827   24.1459 H   0  0  0  0  0  0
  -31.5453  -19.7159   19.0368 H   0  0  0  0  0  0
  -31.4863  -17.2693   19.1977 H   0  0  0  0  0  0
  -28.2934  -17.5387   22.0286 H   0  0  0  0  0  0
  -26.3967  -20.3823   23.1101 H   0  0  0  0  0  0
  -27.4952  -19.0911   23.5814 H   0  0  0  0  0  0
  -26.5019  -18.9439   22.1108 H   0  0  0  0  0  0
  -27.3175  -24.6784   20.8050 H   0  0  0  0  0  0
  -27.7189  -24.7131   19.0910 H   0  0  0  0  0  0
  -28.9259  -15.3997   21.2252 H   0  0  0  0  0  0
  -28.2639  -22.2603   20.2627 H   0  0  0  0  0  0
  1 25  1  0  0  0
  1 30  2  0  0  0
  1 81  1  0  0  0
  2  3  1  0  0  0
  2 25  1  0  0  0
  2 86  1  0  0  0
  2 87  1  0  0  0
  3  4  1  0  0  0
  3 88  1  0  0  0
  3 89  1  0  0  0
  4  5  1  0  0  0
  4 90  1  0  0  0
  4 91  1  0  0  0
  5  6  1  0  0  0
  5 26  1  0  0  0
  5 92  1  0  0  0
  6 25  1  0  0  0
  6 93  1  0  0  0
  6 94  1  0  0  0
  7  8  2  0  0  0
  7 26  1  0  0  0
  7 29  1  0  0  0
  8  9  1  0  0  0
  8 22  1  0  0  0
  9 10  1  0  0  0
  9 27  2  0  0  0
 10 11  2  0  0  0
 10 15  1  0  0  0
 11 12  1  0  0  0
 11 95  1  0  0  0
 12 13  2  0  0  0
 12 96  1  0  0  0
 13 14  1  0  0  0
 13 31  1  0  0  0
 14 15  2  0  0  0
 14 97  1  0  0  0
 15 98  1  0  0  0
 16 17  2  0  0  0
 16 21  1  0  0  0
 16 31  1  0  0  0
 17 18  1  0  0  0
 17 99  1  0  0  0
 18 19  2  0  0  0
 18100  1  0  0  0
 19 20  1  0  0  0
 19 24  1  0  0  0
 20 21  2  0  0  0
 20101  1  0  0  0
 21 23  1  0  0  0
 22 28  1  0  0  0
 22 32  2  0  0  0
 26 27  1  0  0  0
 28102  1  0  0  0
 28103  1  0  0  0
 29104  1  0  0  0
 29105  1  0  0  0
 33 34  1  0  0  0
 33 66  1  0  0  0
 33 70  2  0  0  0
 34 36  1  0  0  0
 34 59  1  0  0  0
 34106  1  0  0  0
 35 44  2  0  0  0
 35 45  1  0  0  0
 35 68  1  0  0  0
 36 56  1  0  0  0
 36107  1  0  0  0
 37 39  1  0  0  0
 37 47  1  0  0  0
 37 66  1  0  0  0
 37108  1  0  0  0
 38 43  2  0  0  0
 38 46  1  0  0  0
 38 47  1  0  0  0
 39 64  1  0  0  0
 39 67  2  0  0  0
 40 52  1  0  0  0
 40 53  2  0  0  0
 40 58  1  0  0  0
 41109  1  0  0  0
 41110  1  0  0  0
 41111  1  0  0  0
 41 48  1  0  0  0
 42 43  1  0  0  0
 42 66  1  0  0  0
 42112  1  0  0  0
 42113  1  0  0  0
 43 44  1  0  0  0
 44114  1  0  0  0
 45 46  2  0  0  0
 45115  1  0  0  0
 46116  1  0  0  0
 47117  1  0  0  0
 47118  1  0  0  0
 48 56  1  0  0  0
 48 65  1  0  0  0
 48119  1  0  0  0
 49 50  1  0  0  0
 49 53  1  0  0  0
 49 64  1  0  0  0
 49120  1  0  0  0
 50 51  1  0  0  0
 50121  1  0  0  0
 50122  1  0  0  0
 51 52  1  0  0  0
 51123  1  0  0  0
 51124  1  0  0  0
 52125  1  0  0  0
 52126  1  0  0  0
 53 54  1  0  0  0
 54 55  2  0  0  0
 54127  1  0  0  0
 55 57  1  0  0  0
 55128  1  0  0  0
 56 69  2  0  0  0
 57 58  2  0  0  0
 57129  1  0  0  0
 58130  1  0  0  0
 59 60  1  0  0  0
 59 61  1  0  0  0
 59 62  1  0  0  0
 60131  1  0  0  0
 60132  1  0  0  0
 60133  1  0  0  0
 61134  1  0  0  0
 61135  1  0  0  0
 61136  1  0  0  0
 62137  1  0  0  0
 62138  1  0  0  0
 62139  1  0  0  0
 63 65  1  0  0  0
 63140  1  0  0  0
 63141  1  0  0  0
 63142  1  0  0  0
 64143  1  0  0  0
 65144  1  0  0  0
 68 80  1  0  0  0
 71 72  2  0  0  0
 71 74  1  0  0  0
 71145  1  0  0  0
 72 75  1  0  0  0
 72146  1  0  0  0
 73 75  2  0  0  0
 73 76  1  0  0  0
 73147  1  0  0  0
 74 76  2  0  0  0
 74 77  1  0  0  0
 75 81  1  0  0  0
 76 85  1  0  0  0
 77 82  1  0  0  0
 77 83  2  0  0  0
 78 80  1  0  0  0
 78 82  1  0  0  0
 78 84  2  0  0  0
 79 85  1  0  0  0
 79148  1  0  0  0
 79149  1  0  0  0
 79150  1  0  0  0
 80151  1  0  0  0
 80152  1  0  0  0
 81153  1  0  0  0
 82154  1  0  0  0
M  ISO  4   1 100  68 101  80 101  81 100
M  END
> <chiral flag>
0

> <version>
0

> <s_m_source_file>
/data/baiqing/PycharmProjects/Reinvent-master-3.2/result/LINK_invent/BTK/process_docking_weight1_custom_product_contain_oxygen_bond_distance_aromatic_linkinvent_7_9_3/rearranged_h_0061.sdf

> <i_m_source_file_index>
13

> <r_mmod_Potential_Energy-OPLS-2005>
-5.43457126617432

> <r_mmod_Stretch_Energy-OPLS-2005>
95.2327651977539

> <r_mmod_Bend_Energy-OPLS-2005>
154.997467041016

> <r_mmod_Torsional_Energy-OPLS-2005>
228.319152832031

> <r_mmod_Improper_Torsional_Energy-OPLS-2005>
4.80784702301025

> <r_mmod_Van_der_Waal_Energy-OPLS-2005>
157.786880493164

> <r_mmod_Electrostatic_Energy-OPLS-2005>
-414.391479492188

> <r_mmod_Solvation_Energy-OPLS-2005>
-290.677520751953

> <b_mmod_Minimization_Converged-OPLS-2005>
0

> <r_mmod_RMS_Derivative-OPLS-2005>
2.29280090332031

$$$$
13
                    3D
 Structure written by MMmdl.
153161  0  0  1  0            999 V2000
  -30.5975  -14.6799   20.4879 C   0  0  0  0  0  0
  -30.4419  -12.4143   19.4614 C   0  0  0  0  0  0
  -29.5115  -12.5075   18.2306 C   0  0  0  0  0  0
  -28.0349  -12.3404   18.6414 C   0  0  0  0  0  0
  -27.6523  -13.2172   19.8630 C   0  0  2  0  0  0
  -28.6952  -13.0866   20.9954 C   0  0  0  0  0  0
  -25.2559  -13.8171   20.5681 C   0  0  0  0  0  0
  -24.1826  -13.0439   20.9190 C   0  0  0  0  0  0
  -24.6392  -11.6908   20.8739 C   0  0  0  0  0  0
  -23.9065  -10.4294   21.0407 C   0  0  0  0  0  0
  -24.3618   -9.4211   21.9184 C   0  0  0  0  0  0
  -23.6294   -8.2245   22.0756 C   0  0  0  0  0  0
  -22.4276   -8.0283   21.3545 C   0  0  0  0  0  0
  -21.9912   -9.0257   20.4647 C   0  0  0  0  0  0
  -22.7240  -10.2138   20.3056 C   0  0  0  0  0  0
  -21.6852   -6.0738   22.5277 C   0  0  0  0  0  0
  -21.4013   -6.5640   23.8212 C   0  0  0  0  0  0
  -21.3659   -5.6793   24.9174 C   0  0  0  0  0  0
  -21.6044   -4.3057   24.7223 C   0  0  0  0  0  0
  -21.8819   -3.8149   23.4343 C   0  0  0  0  0  0
  -21.9194   -4.6964   22.3401 C   0  0  0  0  0  0
  -22.7851  -13.5236   21.1856 C   0  0  0  0  0  0
  -22.1662   -4.2153   21.0977 F   0  0  0  0  0  0
  -21.5631   -3.4539   25.7735 F   0  0  0  0  0  0
  -30.0073  -13.4407   20.4324 N   0  0  0  0  0  0
  -26.2982  -12.9347   20.3313 N   0  0  0  0  0  0
  -25.9320  -11.6502   20.5756 N   0  0  0  0  0  0
  -22.0492  -12.8225   22.0407 N   0  0  0  0  0  0
  -25.4279  -15.1893   20.4087 N   0  0  0  0  0  0
  -31.7571  -14.8459   20.0970 O   0  0  0  0  0  0
  -21.6643   -6.8879   21.4239 O   0  0  0  0  0  0
  -22.3538  -14.5543   20.6705 O   0  0  0  0  0  0
  -24.6274  -31.8587   23.2004 C   0  0  0  0  0  0
  -25.9111  -32.4773   23.8341 C   0  0  1  0  0  0
  -27.2240  -27.3024   20.1211 C   0  0  0  0  0  0
  -25.5918  -33.8572   24.2272 N   0  0  0  0  0  0
  -23.4227  -30.4827   21.5427 C   0  0  2  0  0  0
  -24.8699  -28.9362   20.1093 C   0  0  0  0  0  0
  -22.7487  -29.4620   22.4909 C   0  0  0  0  0  0
  -18.0294  -28.1397   22.8498 C   0  0  0  0  0  0
  -24.1486  -36.7285   23.2638 C   0  0  0  0  0  0
  -25.9653  -30.7862   21.3732 C   0  0  0  0  0  0
  -26.0400  -29.4128   20.7134 C   0  0  0  0  0  0
  -27.2209  -28.6092   20.7072 C   0  0  0  0  0  0
  -26.0301  -26.8841   19.4885 C   0  0  0  0  0  0
  -24.8681  -27.6785   19.4868 C   0  0  0  0  0  0
  -23.6390  -29.8186   20.1574 C   0  0  0  0  0  0
  -25.4114  -36.3077   24.0327 C   0  0  1  0  0  0
  -20.5898  -28.3689   23.1281 C   0  0  2  0  0  0
  -20.6783  -26.9408   22.5415 C   0  0  0  0  0  0
  -19.5755  -26.6390   21.5222 C   0  0  0  0  0  0
  -18.1934  -26.7941   22.1632 C   0  0  0  0  0  0
  -19.1549  -28.8863   23.2888 C   0  0  0  0  0  0
  -18.9468  -30.1469   23.8896 C   0  0  0  0  0  0
  -17.6467  -30.6596   24.0574 C   0  0  0  0  0  0
  -25.9056  -34.9447   23.5103 C   0  0  0  0  0  0
  -16.5359  -29.9098   23.6339 C   0  0  0  0  0  0
  -16.7280  -28.6516   23.0354 C   0  0  0  0  0  0
  -26.4492  -31.6591   25.0717 C   0  0  0  0  0  0
  -25.3722  -31.3753   26.1445 C   0  0  0  0  0  0
  -27.0330  -30.3008   24.6184 C   0  0  0  0  0  0
  -27.6040  -32.4333   25.7498 C   0  0  0  0  0  0
  -27.5584  -37.1796   24.8459 C   0  0  0  0  0  0
  -21.4195  -29.3047   22.3672 N   0  0  0  0  0  0
  -26.4288  -37.3778   23.9417 N   0  0  0  0  0  0
  -24.6905  -31.0595   22.0952 N   0  0  0  0  0  0
  -23.4205  -28.8152   23.2989 O   0  0  0  0  0  0
  -28.3361  -26.4419   20.1801 O   0  0  0  0  0  0
  -26.5622  -34.8919   22.4669 O   0  0  0  0  0  0
  -23.5435  -32.1373   23.7332 O   0  0  0  0  0  0
  -30.7064  -19.3034   19.7184 C   0  0  0  0  0  0
  -30.6910  -17.8756   19.7962 C   0  0  0  0  0  0
  -29.0207  -18.0293   21.5006 C   0  0  0  0  0  0
  -29.9275  -20.1660   20.5569 C   0  0  0  0  0  0
  -29.0512  -19.4647   21.4444 C   0  0  0  0  0  0
  -29.8634  -17.1877   20.7187 C   0  0  0  0  0  0
  -30.2436  -21.6851   20.6285 C   0  0  0  0  0  0
  -29.2994  -24.0482   20.5415 C   0  0  0  0  0  0
  -28.1724  -20.2316   22.4219 C   0  0  0  0  0  0
  -28.1207  -24.9699   20.0262 C   0  0  0  0  0  0
  -29.7834  -15.7239   20.8669 N   0  0  0  0  0  0
  -29.2619  -22.6564   20.4021 N   0  0  0  0  0  0
  -30.2280  -24.6576   21.0863 O   0  0  0  0  0  0
  -31.8615  -21.9983   20.9925 S   0  0  0  0  0  0
  -31.4808  -12.5517   19.1563 H   0  0  0  0  0  0
  -30.3926  -11.4210   19.9102 H   0  0  0  0  0  0
  -29.7817  -11.7481   17.4954 H   0  0  0  0  0  0
  -29.6490  -13.4715   17.7380 H   0  0  0  0  0  0
  -27.8772  -11.2879   18.8794 H   0  0  0  0  0  0
  -27.3807  -12.5620   17.7972 H   0  0  0  0  0  0
  -27.6666  -14.2501   19.5149 H   0  0  0  0  0  0
  -28.7147  -12.0687   21.3862 H   0  0  0  0  0  0
  -28.4320  -13.7230   21.8414 H   0  0  0  0  0  0
  -25.2761   -9.5687   22.4762 H   0  0  0  0  0  0
  -24.0004   -7.4634   22.7474 H   0  0  0  0  0  0
  -21.0846   -8.8769   19.8952 H   0  0  0  0  0  0
  -22.3692  -10.9674   19.6167 H   0  0  0  0  0  0
  -21.2003   -7.6148   23.9712 H   0  0  0  0  0  0
  -21.1483   -6.0526   25.9076 H   0  0  0  0  0  0
  -22.0598   -2.7612   23.2840 H   0  0  0  0  0  0
  -22.4102  -11.9879   22.4784 H   0  0  0  0  0  0
  -21.1112  -13.1250   22.2619 H   0  0  0  0  0  0
  -24.6607  -15.8438   20.5146 H   0  0  0  0  0  0
  -26.2743  -15.6253   20.0642 H   0  0  0  0  0  0
  -26.7181  -32.5440   23.1095 H   0  0  0  0  0  0
  -25.0068  -33.9717   25.0417 H   0  0  0  0  0  0
  -22.7175  -31.3038   21.3997 H   0  0  0  0  0  0
  -23.3750  -35.9614   23.3290 H   0  0  0  0  0  0
  -24.3584  -36.8914   22.2053 H   0  0  0  0  0  0
  -23.7229  -37.6482   23.6664 H   0  0  0  0  0  0
  -26.1028  -31.5513   20.6076 H   0  0  0  0  0  0
  -26.8431  -30.8319   22.0059 H   0  0  0  0  0  0
  -28.1188  -28.9722   21.1890 H   0  0  0  0  0  0
  -25.9673  -25.9243   18.9975 H   0  0  0  0  0  0
  -23.9715  -27.3097   19.0078 H   0  0  0  0  0  0
  -23.7612  -30.5960   19.4014 H   0  0  0  0  0  0
  -22.7581  -29.2504   19.8535 H   0  0  0  0  0  0
  -25.1299  -36.1925   25.0818 H   0  0  0  0  0  0
  -21.0010  -28.3264   24.1394 H   0  0  0  0  0  0
  -20.5690  -26.2295   23.3615 H   0  0  0  0  0  0
  -21.6649  -26.7445   22.1202 H   0  0  0  0  0  0
  -19.6902  -25.6300   21.1251 H   0  0  0  0  0  0
  -19.6691  -27.3205   20.6755 H   0  0  0  0  0  0
  -17.4209  -26.6700   21.4027 H   0  0  0  0  0  0
  -18.0319  -26.0091   22.9034 H   0  0  0  0  0  0
  -19.7943  -30.7302   24.2245 H   0  0  0  0  0  0
  -17.5019  -31.6270   24.5188 H   0  0  0  0  0  0
  -15.5359  -30.3004   23.7656 H   0  0  0  0  0  0
  -15.8683  -28.0846   22.7051 H   0  0  0  0  0  0
  -24.5890  -30.7106   25.7787 H   0  0  0  0  0  0
  -24.8923  -32.2931   26.4850 H   0  0  0  0  0  0
  -25.8043  -30.8951   27.0231 H   0  0  0  0  0  0
  -26.2906  -29.6769   24.1191 H   0  0  0  0  0  0
  -27.3999  -29.7263   25.4700 H   0  0  0  0  0  0
  -27.8790  -30.4292   23.9428 H   0  0  0  0  0  0
  -27.2630  -33.3625   26.2082 H   0  0  0  0  0  0
  -28.3850  -32.6910   25.0330 H   0  0  0  0  0  0
  -28.0704  -31.8454   26.5417 H   0  0  0  0  0  0
  -28.2586  -38.0112   24.7546 H   0  0  0  0  0  0
  -28.1101  -36.2646   24.6237 H   0  0  0  0  0  0
  -27.2313  -37.1388   25.8865 H   0  0  0  0  0  0
  -20.9358  -29.8770   21.6892 H   0  0  0  0  0  0
  -26.0162  -38.2845   24.1442 H   0  0  0  0  0  0
  -31.4026  -19.7523   19.0230 H   0  0  0  0  0  0
  -31.3413  -17.3141   19.1403 H   0  0  0  0  0  0
  -28.3488  -17.5609   22.2064 H   0  0  0  0  0  0
  -27.6967  -19.5644   23.1412 H   0  0  0  0  0  0
  -27.3827  -20.7661   21.8933 H   0  0  0  0  0  0
  -28.7575  -20.9534   22.9932 H   0  0  0  0  0  0
  -27.2248  -24.6692   20.5704 H   0  0  0  0  0  0
  -27.9573  -24.7446   18.9718 H   0  0  0  0  0  0
  -28.9207  -15.3980   21.2751 H   0  0  0  0  0  0
  -28.3851  -22.2958   20.0585 H   0  0  0  0  0  0
  1 25  1  0  0  0
  1 30  2  0  0  0
  1 81  1  0  0  0
  2  3  1  0  0  0
  2 25  1  0  0  0
  2 85  1  0  0  0
  2 86  1  0  0  0
  3  4  1  0  0  0
  3 87  1  0  0  0
  3 88  1  0  0  0
  4  5  1  0  0  0
  4 89  1  0  0  0
  4 90  1  0  0  0
  5  6  1  0  0  0
  5 26  1  0  0  0
  5 91  1  0  0  0
  6 25  1  0  0  0
  6 92  1  0  0  0
  6 93  1  0  0  0
  7  8  2  0  0  0
  7 26  1  0  0  0
  7 29  1  0  0  0
  8  9  1  0  0  0
  8 22  1  0  0  0
  9 10  1  0  0  0
  9 27  2  0  0  0
 10 11  2  0  0  0
 10 15  1  0  0  0
 11 12  1  0  0  0
 11 94  1  0  0  0
 12 13  2  0  0  0
 12 95  1  0  0  0
 13 14  1  0  0  0
 13 31  1  0  0  0
 14 15  2  0  0  0
 14 96  1  0  0  0
 15 97  1  0  0  0
 16 17  2  0  0  0
 16 21  1  0  0  0
 16 31  1  0  0  0
 17 18  1  0  0  0
 17 98  1  0  0  0
 18 19  2  0  0  0
 18 99  1  0  0  0
 19 20  1  0  0  0
 19 24  1  0  0  0
 20 21  2  0  0  0
 20100  1  0  0  0
 21 23  1  0  0  0
 22 28  1  0  0  0
 22 32  2  0  0  0
 26 27  1  0  0  0
 28101  1  0  0  0
 28102  1  0  0  0
 29103  1  0  0  0
 29104  1  0  0  0
 33 34  1  0  0  0
 33 66  1  0  0  0
 33 70  2  0  0  0
 34 36  1  0  0  0
 34 59  1  0  0  0
 34105  1  0  0  0
 35 44  2  0  0  0
 35 45  1  0  0  0
 35 68  1  0  0  0
 36 56  1  0  0  0
 36106  1  0  0  0
 37 39  1  0  0  0
 37 47  1  0  0  0
 37 66  1  0  0  0
 37107  1  0  0  0
 38 43  2  0  0  0
 38 46  1  0  0  0
 38 47  1  0  0  0
 39 64  1  0  0  0
 39 67  2  0  0  0
 40 52  1  0  0  0
 40 53  2  0  0  0
 40 58  1  0  0  0
 41108  1  0  0  0
 41109  1  0  0  0
 41110  1  0  0  0
 41 48  1  0  0  0
 42 43  1  0  0  0
 42 66  1  0  0  0
 42111  1  0  0  0
 42112  1  0  0  0
 43 44  1  0  0  0
 44113  1  0  0  0
 45 46  2  0  0  0
 45114  1  0  0  0
 46115  1  0  0  0
 47116  1  0  0  0
 47117  1  0  0  0
 48 56  1  0  0  0
 48 65  1  0  0  0
 48118  1  0  0  0
 49 50  1  0  0  0
 49 53  1  0  0  0
 49 64  1  0  0  0
 49119  1  0  0  0
 50 51  1  0  0  0
 50120  1  0  0  0
 50121  1  0  0  0
 51 52  1  0  0  0
 51122  1  0  0  0
 51123  1  0  0  0
 52124  1  0  0  0
 52125  1  0  0  0
 53 54  1  0  0  0
 54 55  2  0  0  0
 54126  1  0  0  0
 55 57  1  0  0  0
 55127  1  0  0  0
 56 69  2  0  0  0
 57 58  2  0  0  0
 57128  1  0  0  0
 58129  1  0  0  0
 59 60  1  0  0  0
 59 61  1  0  0  0
 59 62  1  0  0  0
 60130  1  0  0  0
 60131  1  0  0  0
 60132  1  0  0  0
 61133  1  0  0  0
 61134  1  0  0  0
 61135  1  0  0  0
 62136  1  0  0  0
 62137  1  0  0  0
 62138  1  0  0  0
 63 65  1  0  0  0
 63139  1  0  0  0
 63140  1  0  0  0
 63141  1  0  0  0
 64142  1  0  0  0
 65143  1  0  0  0
 68 80  1  0  0  0
 71 72  2  0  0  0
 71 74  1  0  0  0
 71144  1  0  0  0
 72 76  1  0  0  0
 72145  1  0  0  0
 73 75  1  0  0  0
 73 76  2  0  0  0
 73146  1  0  0  0
 74 75  2  0  0  0
 74 77  1  0  0  0
 75 79  1  0  0  0
 76 81  1  0  0  0
 77 82  1  0  0  0
 77 84  2  0  0  0
 78 80  1  0  0  0
 78 82  1  0  0  0
 78 83  2  0  0  0
 79147  1  0  0  0
 79148  1  0  0  0
 79149  1  0  0  0
 80150  1  0  0  0
 80151  1  0  0  0
 81152  1  0  0  0
 82153  1  0  0  0
M  ISO  4   1 100  68 101  80 101  81 100
M  END
> <chiral flag>
0

> <version>
0

> <s_m_source_file>
/data/baiqing/PycharmProjects/Reinvent-master-3.2/result/LINK_invent/BTK/process_docking_weight1_custom_product_contain_oxygen_bond_distance_aromatic_linkinvent_7_9_3/rearranged_h_0061.sdf

> <i_m_source_file_index>
14

> <r_mmod_Potential_Energy-OPLS-2005>
66.3732299804688

> <r_mmod_Stretch_Energy-OPLS-2005>
102.485649108887

> <r_mmod_Bend_Energy-OPLS-2005>
152.355361938477

> <r_mmod_Torsional_Energy-OPLS-2005>
239.887054443359

> <r_mmod_Improper_Torsional_Energy-OPLS-2005>
4.99781608581543

> <r_mmod_Van_der_Waal_Energy-OPLS-2005>
164.010986328125

> <r_mmod_Electrostatic_Energy-OPLS-2005>
-370.031829833984

> <r_mmod_Solvation_Energy-OPLS-2005>
-287.184967041016

> <b_mmod_Minimization_Converged-OPLS-2005>
0

> <r_mmod_RMS_Derivative-OPLS-2005>
1.29318857192993

$$$$
14
                    3D
 Structure written by MMmdl.
157165  0  0  1  0            999 V2000
  -30.6727  -14.5156   20.4952 C   0  0  0  0  0  0
  -30.4213  -12.3066   19.4459 C   0  0  0  0  0  0
  -29.5004  -12.4926   18.2216 C   0  0  0  0  0  0
  -28.0214  -12.3534   18.6303 C   0  0  0  0  0  0
  -27.6592  -13.2102   19.8742 C   0  0  2  0  0  0
  -28.7000  -13.0253   21.0027 C   0  0  0  0  0  0
  -25.2568  -13.8169   20.5678 C   0  0  0  0  0  0
  -24.1828  -13.0434   20.9171 C   0  0  0  0  0  0
  -24.6381  -11.6905   20.8731 C   0  0  0  0  0  0
  -23.9054  -10.4288   21.0420 C   0  0  0  0  0  0
  -24.3615   -9.4208   21.9195 C   0  0  0  0  0  0
  -23.6290   -8.2242   22.0775 C   0  0  0  0  0  0
  -22.4273   -8.0277   21.3555 C   0  0  0  0  0  0
  -21.9908   -9.0248   20.4654 C   0  0  0  0  0  0
  -22.7237  -10.2131   20.3058 C   0  0  0  0  0  0
  -21.6841   -6.0730   22.5274 C   0  0  0  0  0  0
  -21.4016   -6.5643   23.8210 C   0  0  0  0  0  0
  -21.3664   -5.6809   24.9180 C   0  0  0  0  0  0
  -21.6046   -4.3066   24.7231 C   0  0  0  0  0  0
  -21.8823   -3.8141   23.4354 C   0  0  0  0  0  0
  -21.9192   -4.6956   22.3407 C   0  0  0  0  0  0
  -22.7843  -13.5234   21.1827 C   0  0  0  0  0  0
  -22.1665   -4.2143   21.0986 F   0  0  0  0  0  0
  -21.5620   -3.4552   25.7741 F   0  0  0  0  0  0
  -30.0318  -13.3153   20.4450 N   0  0  0  0  0  0
  -26.3015  -12.9347   20.3368 N   0  0  0  0  0  0
  -25.9314  -11.6503   20.5774 N   0  0  0  0  0  0
  -22.0495  -12.8221   22.0391 N   0  0  0  0  0  0
  -25.4268  -15.1886   20.4064 N   0  0  0  0  0  0
  -31.8398  -14.6611   20.1236 O   0  0  0  0  0  0
  -21.6639   -6.8866   21.4238 O   0  0  0  0  0  0
  -22.3526  -14.5540   20.6693 O   0  0  0  0  0  0
  -24.6173  -31.8676   23.2095 C   0  0  0  0  0  0
  -25.9070  -32.4812   23.8384 C   0  0  1  0  0  0
  -27.2283  -27.4019   20.0866 C   0  0  0  0  0  0
  -25.5927  -33.8611   24.2319 N   0  0  0  0  0  0
  -23.4041  -30.4941   21.5510 C   0  0  2  0  0  0
  -24.8467  -28.9596   20.1149 C   0  0  0  0  0  0
  -22.7411  -29.4671   22.4975 C   0  0  0  0  0  0
  -18.0282  -28.1382   22.8495 C   0  0  0  0  0  0
  -24.1503  -36.7298   23.2633 C   0  0  0  0  0  0
  -25.9391  -30.8203   21.3710 C   0  0  0  0  0  0
  -26.0098  -29.4542   20.7144 C   0  0  0  0  0  0
  -27.1980  -28.6820   20.6995 C   0  0  0  0  0  0
  -26.0357  -26.9366   19.4785 C   0  0  0  0  0  0
  -24.8569  -27.7014   19.4967 C   0  0  0  0  0  0
  -23.6122  -29.8312   20.1644 C   0  0  0  0  0  0
  -25.4126  -36.3100   24.0334 C   0  0  1  0  0  0
  -20.5875  -28.3686   23.1299 C   0  0  2  0  0  0
  -20.6783  -26.9426   22.5406 C   0  0  0  0  0  0
  -19.5756  -26.6399   21.5208 C   0  0  0  0  0  0
  -18.1929  -26.7929   22.1619 C   0  0  0  0  0  0
  -19.1531  -28.8848   23.2897 C   0  0  0  0  0  0
  -18.9460  -30.1452   23.8911 C   0  0  0  0  0  0
  -17.6460  -30.6591   24.0563 C   0  0  0  0  0  0
  -25.9059  -34.9469   23.5122 C   0  0  0  0  0  0
  -16.5351  -29.9092   23.6321 C   0  0  0  0  0  0
  -16.7272  -28.6506   23.0353 C   0  0  0  0  0  0
  -26.4486  -31.6579   25.0713 C   0  0  0  0  0  0
  -25.3732  -31.3671   26.1435 C   0  0  0  0  0  0
  -27.0328  -30.3015   24.6109 C   0  0  0  0  0  0
  -27.6060  -32.4283   25.7485 C   0  0  0  0  0  0
  -27.5593  -37.1807   24.8463 C   0  0  0  0  0  0
  -21.4138  -29.3049   22.3698 N   0  0  0  0  0  0
  -26.4305  -37.3793   23.9409 N   0  0  0  0  0  0
  -24.6714  -31.0759   22.1010 N   0  0  0  0  0  0
  -23.4179  -28.8212   23.3022 O   0  0  0  0  0  0
  -28.4177  -26.6815   20.1075 O   0  0  0  0  0  0
  -26.5613  -34.8921   22.4679 O   0  0  0  0  0  0
  -23.5365  -32.1440   23.7481 O   0  0  0  0  0  0
  -29.4351  -18.0106   20.8877 C   0  0  0  0  0  0
  -30.1514  -18.2906   18.2064 C   0  0  0  0  0  0
  -29.3287  -19.2958   20.2786 C   0  0  0  0  0  0
  -29.6950  -19.4255   18.9105 C   0  0  0  0  0  0
  -29.8949  -16.8666   20.1814 C   0  0  0  0  0  0
  -30.2341  -17.0256   18.8147 C   0  0  0  0  0  0
  -28.3876  -22.9062   20.7150 C   0  0  0  0  0  0
  -29.5725  -20.7312   18.1395 C   0  0  0  0  0  0
  -28.7165  -20.4440   21.1143 C   0  0  0  0  0  0
  -29.0113  -24.3223   20.7494 C   0  0  0  0  0  0
  -28.4963  -25.3051   19.6545 C   0  0  0  0  0  0
  -29.9016  -15.5770   20.8242 N   0  0  0  0  0  0
  -29.1844  -21.8293   20.8929 N   0  0  0  0  0  0
  -27.1685  -22.7899   20.5740 O   0  0  0  0  0  0
  -30.5756  -15.9661   18.0399 F   0  0  0  0  0  0
  -31.4679  -12.3933   19.1508 H   0  0  0  0  0  0
  -30.3111  -11.3040   19.8617 H   0  0  0  0  0  0
  -29.7433  -11.7618   17.4495 H   0  0  0  0  0  0
  -29.6685  -13.4738   17.7773 H   0  0  0  0  0  0
  -27.8364  -11.2988   18.8388 H   0  0  0  0  0  0
  -27.3750  -12.6158   17.7936 H   0  0  0  0  0  0
  -27.6926  -14.2523   19.5549 H   0  0  0  0  0  0
  -28.6732  -12.0039   21.3868 H   0  0  0  0  0  0
  -28.4666  -13.6629   21.8575 H   0  0  0  0  0  0
  -25.2768   -9.5685   22.4760 H   0  0  0  0  0  0
  -23.9997   -7.4634   22.7510 H   0  0  0  0  0  0
  -21.0840   -8.8772   19.8948 H   0  0  0  0  0  0
  -22.3704  -10.9675   19.6162 H   0  0  0  0  0  0
  -21.2026   -7.6149   23.9714 H   0  0  0  0  0  0
  -21.1482   -6.0536   25.9084 H   0  0  0  0  0  0
  -22.0594   -2.7593   23.2865 H   0  0  0  0  0  0
  -22.4132  -11.9874   22.4748 H   0  0  0  0  0  0
  -21.1109  -13.1243   22.2626 H   0  0  0  0  0  0
  -24.6504  -15.8360   20.4810 H   0  0  0  0  0  0
  -26.2752  -15.6266   20.0697 H   0  0  0  0  0  0
  -26.7139  -32.5514   23.1140 H   0  0  0  0  0  0
  -25.0082  -33.9771   25.0467 H   0  0  0  0  0  0
  -22.6947  -31.3136   21.4147 H   0  0  0  0  0  0
  -23.3776  -35.9618   23.3280 H   0  0  0  0  0  0
  -24.3602  -36.8929   22.2050 H   0  0  0  0  0  0
  -23.7248  -37.6493   23.6662 H   0  0  0  0  0  0
  -26.0677  -31.5898   20.6076 H   0  0  0  0  0  0
  -26.8214  -30.8625   21.9986 H   0  0  0  0  0  0
  -28.0955  -29.0616   21.1676 H   0  0  0  0  0  0
  -25.9584  -25.9927   18.9670 H   0  0  0  0  0  0
  -23.9635  -27.3163   19.0245 H   0  0  0  0  0  0
  -23.7245  -30.6078   19.4070 H   0  0  0  0  0  0
  -22.7328  -29.2570   19.8668 H   0  0  0  0  0  0
  -25.1302  -36.1954   25.0830 H   0  0  0  0  0  0
  -20.9979  -28.3270   24.1415 H   0  0  0  0  0  0
  -20.5722  -26.2293   23.3594 H   0  0  0  0  0  0
  -21.6650  -26.7490   22.1185 H   0  0  0  0  0  0
  -19.6926  -25.6317   21.1223 H   0  0  0  0  0  0
  -19.6675  -27.3222   20.6749 H   0  0  0  0  0  0
  -17.4201  -26.6689   21.4017 H   0  0  0  0  0  0
  -18.0324  -26.0060   22.9010 H   0  0  0  0  0  0
  -19.7935  -30.7269   24.2282 H   0  0  0  0  0  0
  -17.5019  -31.6276   24.5167 H   0  0  0  0  0  0
  -15.5357  -30.3012   23.7632 H   0  0  0  0  0  0
  -15.8669  -28.0836   22.7068 H   0  0  0  0  0  0
  -24.5930  -30.7001   25.7739 H   0  0  0  0  0  0
  -24.8894  -32.2821   26.4860 H   0  0  0  0  0  0
  -25.8067  -30.8838   27.0199 H   0  0  0  0  0  0
  -26.2888  -29.6759   24.1156 H   0  0  0  0  0  0
  -27.4083  -29.7255   25.4578 H   0  0  0  0  0  0
  -27.8729  -30.4314   23.9282 H   0  0  0  0  0  0
  -27.2691  -33.3573   26.2092 H   0  0  0  0  0  0
  -28.3867  -32.6846   25.0313 H   0  0  0  0  0  0
  -28.0730  -31.8377   26.5379 H   0  0  0  0  0  0
  -28.2590  -38.0123   24.7555 H   0  0  0  0  0  0
  -28.1117  -36.2661   24.6250 H   0  0  0  0  0  0
  -27.2307  -37.1401   25.8861 H   0  0  0  0  0  0
  -20.9302  -29.8753   21.6898 H   0  0  0  0  0  0
  -26.0184  -38.2865   24.1416 H   0  0  0  0  0  0
  -29.1289  -17.8969   21.9173 H   0  0  0  0  0  0
  -30.4090  -18.3697   17.1606 H   0  0  0  0  0  0
  -29.7133  -20.5776   17.0679 H   0  0  0  0  0  0
  -30.3274  -21.4481   18.4655 H   0  0  0  0  0  0
  -28.5851  -21.1733   18.2708 H   0  0  0  0  0  0
  -28.8921  -20.2285   22.1698 H   0  0  0  0  0  0
  -27.6347  -20.3759   20.9860 H   0  0  0  0  0  0
  -30.0990  -24.2582   20.7083 H   0  0  0  0  0  0
  -28.7732  -24.7369   21.7290 H   0  0  0  0  0  0
  -27.5894  -24.9108   19.2138 H   0  0  0  0  0  0
  -29.2111  -25.2929   18.8317 H   0  0  0  0  0  0
  -29.0768  -15.3565   21.3597 H   0  0  0  0  0  0
  -30.1768  -21.9901   21.0082 H   0  0  0  0  0  0
  1 25  1  0  0  0
  1 30  2  0  0  0
  1 82  1  0  0  0
  2  3  1  0  0  0
  2 25  1  0  0  0
  2 86  1  0  0  0
  2 87  1  0  0  0
  3  4  1  0  0  0
  3 88  1  0  0  0
  3 89  1  0  0  0
  4  5  1  0  0  0
  4 90  1  0  0  0
  4 91  1  0  0  0
  5  6  1  0  0  0
  5 26  1  0  0  0
  5 92  1  0  0  0
  6 25  1  0  0  0
  6 93  1  0  0  0
  6 94  1  0  0  0
  7  8  2  0  0  0
  7 26  1  0  0  0
  7 29  1  0  0  0
  8  9  1  0  0  0
  8 22  1  0  0  0
  9 10  1  0  0  0
  9 27  2  0  0  0
 10 11  2  0  0  0
 10 15  1  0  0  0
 11 12  1  0  0  0
 11 95  1  0  0  0
 12 13  2  0  0  0
 12 96  1  0  0  0
 13 14  1  0  0  0
 13 31  1  0  0  0
 14 15  2  0  0  0
 14 97  1  0  0  0
 15 98  1  0  0  0
 16 17  2  0  0  0
 16 21  1  0  0  0
 16 31  1  0  0  0
 17 18  1  0  0  0
 17 99  1  0  0  0
 18 19  2  0  0  0
 18100  1  0  0  0
 19 20  1  0  0  0
 19 24  1  0  0  0
 20 21  2  0  0  0
 20101  1  0  0  0
 21 23  1  0  0  0
 22 28  1  0  0  0
 22 32  2  0  0  0
 26 27  1  0  0  0
 28102  1  0  0  0
 28103  1  0  0  0
 29104  1  0  0  0
 29105  1  0  0  0
 33 34  1  0  0  0
 33 66  1  0  0  0
 33 70  2  0  0  0
 34 36  1  0  0  0
 34 59  1  0  0  0
 34106  1  0  0  0
 35 44  2  0  0  0
 35 45  1  0  0  0
 35 68  1  0  0  0
 36 56  1  0  0  0
 36107  1  0  0  0
 37 39  1  0  0  0
 37 47  1  0  0  0
 37 66  1  0  0  0
 37108  1  0  0  0
 38 43  2  0  0  0
 38 46  1  0  0  0
 38 47  1  0  0  0
 39 64  1  0  0  0
 39 67  2  0  0  0
 40 52  1  0  0  0
 40 53  2  0  0  0
 40 58  1  0  0  0
 41109  1  0  0  0
 41110  1  0  0  0
 41111  1  0  0  0
 41 48  1  0  0  0
 42 43  1  0  0  0
 42 66  1  0  0  0
 42112  1  0  0  0
 42113  1  0  0  0
 43 44  1  0  0  0
 44114  1  0  0  0
 45 46  2  0  0  0
 45115  1  0  0  0
 46116  1  0  0  0
 47117  1  0  0  0
 47118  1  0  0  0
 48 56  1  0  0  0
 48 65  1  0  0  0
 48119  1  0  0  0
 49 50  1  0  0  0
 49 53  1  0  0  0
 49 64  1  0  0  0
 49120  1  0  0  0
 50 51  1  0  0  0
 50121  1  0  0  0
 50122  1  0  0  0
 51 52  1  0  0  0
 51123  1  0  0  0
 51124  1  0  0  0
 52125  1  0  0  0
 52126  1  0  0  0
 53 54  1  0  0  0
 54 55  2  0  0  0
 54127  1  0  0  0
 55 57  1  0  0  0
 55128  1  0  0  0
 56 69  2  0  0  0
 57 58  2  0  0  0
 57129  1  0  0  0
 58130  1  0  0  0
 59 60  1  0  0  0
 59 61  1  0  0  0
 59 62  1  0  0  0
 60131  1  0  0  0
 60132  1  0  0  0
 60133  1  0  0  0
 61134  1  0  0  0
 61135  1  0  0  0
 61136  1  0  0  0
 62137  1  0  0  0
 62138  1  0  0  0
 62139  1  0  0  0
 63 65  1  0  0  0
 63140  1  0  0  0
 63141  1  0  0  0
 63142  1  0  0  0
 64143  1  0  0  0
 65144  1  0  0  0
 68 81  1  0  0  0
 71 73  2  0  0  0
 71 75  1  0  0  0
 71145  1  0  0  0
 72 74  2  0  0  0
 72 76  1  0  0  0
 72146  1  0  0  0
 73 74  1  0  0  0
 73 79  1  0  0  0
 74 78  1  0  0  0
 75 76  2  0  0  0
 75 82  1  0  0  0
 76 85  1  0  0  0
 77 80  1  0  0  0
 77 83  1  0  0  0
 77 84  2  0  0  0
 78147  1  0  0  0
 78148  1  0  0  0
 78149  1  0  0  0
 79 83  1  0  0  0
 79150  1  0  0  0
 79151  1  0  0  0
 80 81  1  0  0  0
 80152  1  0  0  0
 80153  1  0  0  0
 81154  1  0  0  0
 81155  1  0  0  0
 82156  1  0  0  0
 83157  1  0  0  0
M  ISO  4   1 100  68 101  81 101  82 100
M  END
> <chiral flag>
0

> <version>
0

> <s_m_source_file>
/data/baiqing/PycharmProjects/Reinvent-master-3.2/result/LINK_invent/BTK/process_docking_weight1_custom_product_contain_oxygen_bond_distance_aromatic_linkinvent_7_9_3/rearranged_h_0061.sdf

> <i_m_source_file_index>
15

> <r_mmod_Potential_Energy-OPLS-2005>
-118.931831359863

> <r_mmod_Stretch_Energy-OPLS-2005>
46.4609832763672

> <r_mmod_Bend_Energy-OPLS-2005>
115.957679748535

> <r_mmod_Torsional_Energy-OPLS-2005>
231.931243896484

> <r_mmod_Improper_Torsional_Energy-OPLS-2005>
6.00484657287598

> <r_mmod_Van_der_Waal_Energy-OPLS-2005>
162.784622192383

> <r_mmod_Electrostatic_Energy-OPLS-2005>
-463.982788085938

> <r_mmod_Solvation_Energy-OPLS-2005>
-238.096466064453

> <b_mmod_Minimization_Converged-OPLS-2005>
0

> <r_mmod_RMS_Derivative-OPLS-2005>
2.07222557067871

$$$$
15
                    3D
 Structure written by MMmdl.
159168  0  0  1  0            999 V2000
  -30.5717  -14.7463   20.4924 C   0  0  0  0  0  0
  -30.4416  -12.4748   19.4396 C   0  0  0  0  0  0
  -29.5009  -12.5193   18.2128 C   0  0  0  0  0  0
  -28.0228  -12.3507   18.6241 C   0  0  0  0  0  0
  -27.6383  -13.2241   19.8482 C   0  0  2  0  0  0
  -28.6872  -13.1240   20.9735 C   0  0  0  0  0  0
  -25.2463  -13.8158   20.5570 C   0  0  0  0  0  0
  -24.1785  -13.0405   20.9193 C   0  0  0  0  0  0
  -24.6376  -11.6899   20.8788 C   0  0  0  0  0  0
  -23.9053  -10.4271   21.0463 C   0  0  0  0  0  0
  -24.3603   -9.4192   21.9217 C   0  0  0  0  0  0
  -23.6284   -8.2228   22.0743 C   0  0  0  0  0  0
  -22.4282   -8.0256   21.3539 C   0  0  0  0  0  0
  -21.9922   -9.0254   20.4659 C   0  0  0  0  0  0
  -22.7235  -10.2126   20.3109 C   0  0  0  0  0  0
  -21.6830   -6.0746   22.5303 C   0  0  0  0  0  0
  -21.4002   -6.5640   23.8244 C   0  0  0  0  0  0
  -21.3672   -5.6790   24.9183 C   0  0  0  0  0  0
  -21.6056   -4.3069   24.7230 C   0  0  0  0  0  0
  -21.8812   -3.8150   23.4348 C   0  0  0  0  0  0
  -21.9200   -4.6968   22.3408 C   0  0  0  0  0  0
  -22.7819  -13.5192   21.1879 C   0  0  0  0  0  0
  -22.1658   -4.2156   21.0993 F   0  0  0  0  0  0
  -21.5644   -3.4546   25.7739 F   0  0  0  0  0  0
  -29.9795  -13.5115   20.3921 N   0  0  0  0  0  0
  -26.2892  -12.9344   20.3246 N   0  0  0  0  0  0
  -25.9317  -11.6497   20.5825 N   0  0  0  0  0  0
  -22.0480  -12.8209   22.0436 N   0  0  0  0  0  0
  -25.4133  -15.1811   20.3698 N   0  0  0  0  0  0
  -31.7722  -14.8811   20.2215 O   0  0  0  0  0  0
  -21.6629   -6.8871   21.4251 O   0  0  0  0  0  0
  -22.3571  -14.5493   20.6647 O   0  0  0  0  0  0
  -24.6275  -31.8569   23.2140 C   0  0  0  0  0  0
  -25.9073  -32.4780   23.8401 C   0  0  1  0  0  0
  -27.2048  -27.2759   20.1084 C   0  0  0  0  0  0
  -25.5911  -33.8603   24.2306 N   0  0  0  0  0  0
  -23.4218  -30.4792   21.5543 C   0  0  2  0  0  0
  -24.8656  -28.9288   20.1114 C   0  0  0  0  0  0
  -22.7560  -29.4529   22.5005 C   0  0  0  0  0  0
  -18.0315  -28.1525   22.8674 C   0  0  0  0  0  0
  -24.1494  -36.7317   23.2629 C   0  0  0  0  0  0
  -25.9620  -30.7716   21.3873 C   0  0  0  0  0  0
  -26.0392  -29.3965   20.7201 C   0  0  0  0  0  0
  -27.2159  -28.5823   20.7054 C   0  0  0  0  0  0
  -26.0137  -26.8719   19.4838 C   0  0  0  0  0  0
  -24.8555  -27.6761   19.4868 C   0  0  0  0  0  0
  -23.6419  -29.8235   20.1646 C   0  0  0  0  0  0
  -25.4103  -36.3117   24.0314 C   0  0  1  0  0  0
  -20.5902  -28.3861   23.1660 C   0  0  2  0  0  0
  -20.6729  -26.9468   22.6208 C   0  0  0  0  0  0
  -19.6045  -26.6599   21.5583 C   0  0  0  0  0  0
  -18.2132  -26.7996   22.1983 C   0  0  0  0  0  0
  -19.1585  -28.9076   23.2980 C   0  0  0  0  0  0
  -18.9465  -30.1712   23.8868 C   0  0  0  0  0  0
  -17.6441  -30.6787   24.0482 C   0  0  0  0  0  0
  -25.9025  -34.9470   23.5105 C   0  0  0  0  0  0
  -16.5293  -29.9186   23.6553 C   0  0  0  0  0  0
  -16.7281  -28.6522   23.0756 C   0  0  0  0  0  0
  -26.4498  -31.6597   25.0774 C   0  0  0  0  0  0
  -25.3803  -31.3673   26.1551 C   0  0  0  0  0  0
  -27.0299  -30.3000   24.6238 C   0  0  0  0  0  0
  -27.6041  -32.4350   25.7515 C   0  0  0  0  0  0
  -27.5578  -37.1814   24.8462 C   0  0  0  0  0  0
  -21.4233  -29.3114   22.3897 N   0  0  0  0  0  0
  -26.4298  -37.3802   23.9404 N   0  0  0  0  0  0
  -24.6904  -31.0518   22.1088 N   0  0  0  0  0  0
  -23.4288  -28.7907   23.2918 O   0  0  0  0  0  0
  -28.3150  -26.4126   20.0109 O   0  0  0  0  0  0
  -26.5610  -34.8905   22.4726 O   0  0  0  0  0  0
  -23.5377  -32.1353   23.7414 O   0  0  0  0  0  0
  -30.6842  -18.7562   22.8318 C   0  0  0  0  0  0
  -30.1777  -19.8928   22.1591 C   0  0  0  0  0  0
  -30.5803  -17.4620   22.2783 C   0  0  0  0  0  0
  -29.3858  -18.4347   20.3944 C   0  0  0  0  0  0
  -29.4829  -19.7992   20.9207 C   0  0  0  0  0  0
  -29.9389  -17.2454   21.0375 C   0  0  0  0  0  0
  -27.3971  -21.9495   18.4830 C   0  0  0  0  0  0
  -27.4708  -23.4250   18.9664 C   0  0  0  0  0  0
  -27.6512  -20.8302   19.5287 C   0  0  0  0  0  0
  -29.2035  -22.4488   20.6647 C   0  0  0  0  0  0
  -28.1116  -23.6013   20.3559 C   0  0  1  0  0  0
  -28.4035  -25.1507   20.8043 C   0  0  0  0  0  0
  -28.8846  -21.0028   20.3108 N   0  0  0  0  0  0
  -29.7218  -15.8409   20.6066 N   0  0  0  0  0  0
  -31.4653  -12.6484   19.1226 H   0  0  0  0  0  0
  -30.4263  -11.4884   19.9076 H   0  0  0  0  0  0
  -29.7819  -11.7446   17.4962 H   0  0  0  0  0  0
  -29.6320  -13.4728   17.6949 H   0  0  0  0  0  0
  -27.8625  -11.2963   18.8475 H   0  0  0  0  0  0
  -27.3748  -12.5858   17.7804 H   0  0  0  0  0  0
  -27.6339  -14.2544   19.4901 H   0  0  0  0  0  0
  -28.7279  -12.1048   21.3621 H   0  0  0  0  0  0
  -28.4146  -13.7594   21.8181 H   0  0  0  0  0  0
  -25.2727   -9.5666   22.4828 H   0  0  0  0  0  0
  -24.0023   -7.4583   22.7415 H   0  0  0  0  0  0
  -21.0885   -8.8753   19.8911 H   0  0  0  0  0  0
  -22.3686  -10.9684   19.6248 H   0  0  0  0  0  0
  -21.1953   -7.6151   23.9731 H   0  0  0  0  0  0
  -21.1526   -6.0530   25.9096 H   0  0  0  0  0  0
  -22.0578   -2.7619   23.2852 H   0  0  0  0  0  0
  -22.4132  -11.9852   22.4795 H   0  0  0  0  0  0
  -21.1109  -13.1206   22.2654 H   0  0  0  0  0  0
  -24.6185  -15.8133   20.3993 H   0  0  0  0  0  0
  -26.1861  -15.5596   19.8356 H   0  0  0  0  0  0
  -26.7093  -32.5369   23.1089 H   0  0  0  0  0  0
  -25.0104  -33.9770   25.0450 H   0  0  0  0  0  0
  -22.7153  -31.3001   21.4182 H   0  0  0  0  0  0
  -23.3754  -35.9672   23.3307 H   0  0  0  0  0  0
  -24.3562  -36.8915   22.2045 H   0  0  0  0  0  0
  -23.7242  -37.6509   23.6649 H   0  0  0  0  0  0
  -26.0986  -31.5369   20.6237 H   0  0  0  0  0  0
  -26.8369  -30.8127   22.0146 H   0  0  0  0  0  0
  -28.1165  -28.9517   21.1797 H   0  0  0  0  0  0
  -25.9854  -25.9319   18.9611 H   0  0  0  0  0  0
  -23.9671  -27.3157   18.9911 H   0  0  0  0  0  0
  -23.7703  -30.6129   19.4225 H   0  0  0  0  0  0
  -22.7548  -29.2803   19.8473 H   0  0  0  0  0  0
  -25.1295  -36.1969   25.0792 H   0  0  0  0  0  0
  -20.9855  -28.3662   24.1828 H   0  0  0  0  0  0
  -21.6789  -26.7015   22.2872 H   0  0  0  0  0  0
  -20.4834  -26.2688   23.4572 H   0  0  0  0  0  0
  -19.7503  -25.6529   21.1533 H   0  0  0  0  0  0
  -19.7119  -27.3617   20.7305 H   0  0  0  0  0  0
  -18.0693  -26.0435   22.9675 H   0  0  0  0  0  0
  -17.4343  -26.6278   21.4539 H   0  0  0  0  0  0
  -19.7918  -30.7636   24.2095 H   0  0  0  0  0  0
  -17.4915  -31.6639   24.4769 H   0  0  0  0  0  0
  -15.5239  -30.3032   23.7909 H   0  0  0  0  0  0
  -15.8731  -28.0586   22.7894 H   0  0  0  0  0  0
  -24.6047  -30.6900   25.7952 H   0  0  0  0  0  0
  -24.8927  -32.2793   26.5026 H   0  0  0  0  0  0
  -25.8263  -30.8907   27.0281 H   0  0  0  0  0  0
  -26.2819  -29.6762   24.1318 H   0  0  0  0  0  0
  -27.3981  -29.7274   25.4745 H   0  0  0  0  0  0
  -27.8742  -30.4219   23.9438 H   0  0  0  0  0  0
  -27.2661  -33.3645   26.2100 H   0  0  0  0  0  0
  -28.3878  -32.6904   25.0384 H   0  0  0  0  0  0
  -28.0714  -31.8497   26.5430 H   0  0  0  0  0  0
  -28.2611  -38.0090   24.7515 H   0  0  0  0  0  0
  -28.1058  -36.2633   24.6310 H   0  0  0  0  0  0
  -27.2305  -37.1485   25.8862 H   0  0  0  0  0  0
  -20.9289  -29.9220   21.7451 H   0  0  0  0  0  0
  -26.0177  -38.2880   24.1397 H   0  0  0  0  0  0
  -31.1563  -18.8607   23.8004 H   0  0  0  0  0  0
  -30.3311  -20.8438   22.6594 H   0  0  0  0  0  0
  -30.9900  -16.6325   22.8374 H   0  0  0  0  0  0
  -28.8719  -18.2866   19.4538 H   0  0  0  0  0  0
  -28.0431  -21.8191   17.6128 H   0  0  0  0  0  0
  -26.3874  -21.7791   18.0974 H   0  0  0  0  0  0
  -26.4494  -23.8147   19.0055 H   0  0  0  0  0  0
  -27.9818  -24.0396   18.2252 H   0  0  0  0  0  0
  -27.6681  -19.8861   18.9872 H   0  0  0  0  0  0
  -26.8166  -20.7645   20.2241 H   0  0  0  0  0  0
  -29.4494  -22.5218   21.7195 H   0  0  0  0  0  0
  -30.1153  -22.7096   20.1289 H   0  0  0  0  0  0
  -27.3025  -23.3254   21.0320 H   0  0  0  0  0  0
  -29.4363  -25.1685   21.1661 H   0  0  0  0  0  0
  -27.8183  -25.3391   21.7042 H   0  0  0  0  0  0
  -28.7473  -15.5781   20.5603 H   0  0  0  0  0  0
  1 25  1  0  0  0
  1 30  2  0  0  0
  1 84  1  0  0  0
  2  3  1  0  0  0
  2 25  1  0  0  0
  2 85  1  0  0  0
  2 86  1  0  0  0
  3  4  1  0  0  0
  3 87  1  0  0  0
  3 88  1  0  0  0
  4  5  1  0  0  0
  4 89  1  0  0  0
  4 90  1  0  0  0
  5  6  1  0  0  0
  5 26  1  0  0  0
  5 91  1  0  0  0
  6 25  1  0  0  0
  6 92  1  0  0  0
  6 93  1  0  0  0
  7  8  2  0  0  0
  7 26  1  0  0  0
  7 29  1  0  0  0
  8  9  1  0  0  0
  8 22  1  0  0  0
  9 10  1  0  0  0
  9 27  2  0  0  0
 10 11  2  0  0  0
 10 15  1  0  0  0
 11 12  1  0  0  0
 11 94  1  0  0  0
 12 13  2  0  0  0
 12 95  1  0  0  0
 13 14  1  0  0  0
 13 31  1  0  0  0
 14 15  2  0  0  0
 14 96  1  0  0  0
 15 97  1  0  0  0
 16 17  2  0  0  0
 16 21  1  0  0  0
 16 31  1  0  0  0
 17 18  1  0  0  0
 17 98  1  0  0  0
 18 19  2  0  0  0
 18 99  1  0  0  0
 19 20  1  0  0  0
 19 24  1  0  0  0
 20 21  2  0  0  0
 20100  1  0  0  0
 21 23  1  0  0  0
 22 28  1  0  0  0
 22 32  2  0  0  0
 26 27  1  0  0  0
 28101  1  0  0  0
 28102  1  0  0  0
 29103  1  0  0  0
 29104  1  0  0  0
 33 34  1  0  0  0
 33 66  1  0  0  0
 33 70  2  0  0  0
 34 36  1  0  0  0
 34 59  1  0  0  0
 34105  1  0  0  0
 35 44  2  0  0  0
 35 45  1  0  0  0
 35 68  1  0  0  0
 36 56  1  0  0  0
 36106  1  0  0  0
 37 39  1  0  0  0
 37 47  1  0  0  0
 37 66  1  0  0  0
 37107  1  0  0  0
 38 43  2  0  0  0
 38 46  1  0  0  0
 38 47  1  0  0  0
 39 64  1  0  0  0
 39 67  2  0  0  0
 40 52  1  0  0  0
 40 53  2  0  0  0
 40 58  1  0  0  0
 41108  1  0  0  0
 41109  1  0  0  0
 41110  1  0  0  0
 41 48  1  0  0  0
 42 43  1  0  0  0
 42 66  1  0  0  0
 42111  1  0  0  0
 42112  1  0  0  0
 43 44  1  0  0  0
 44113  1  0  0  0
 45 46  2  0  0  0
 45114  1  0  0  0
 46115  1  0  0  0
 47116  1  0  0  0
 47117  1  0  0  0
 48 56  1  0  0  0
 48 65  1  0  0  0
 48118  1  0  0  0
 49 50  1  0  0  0
 49 53  1  0  0  0
 49 64  1  0  0  0
 49119  1  0  0  0
 50 51  1  0  0  0
 50120  1  0  0  0
 50121  1  0  0  0
 51 52  1  0  0  0
 51122  1  0  0  0
 51123  1  0  0  0
 52124  1  0  0  0
 52125  1  0  0  0
 53 54  1  0  0  0
 54 55  2  0  0  0
 54126  1  0  0  0
 55 57  1  0  0  0
 55127  1  0  0  0
 56 69  2  0  0  0
 57 58  2  0  0  0
 57128  1  0  0  0
 58129  1  0  0  0
 59 60  1  0  0  0
 59 61  1  0  0  0
 59 62  1  0  0  0
 60130  1  0  0  0
 60131  1  0  0  0
 60132  1  0  0  0
 61133  1  0  0  0
 61134  1  0  0  0
 61135  1  0  0  0
 62136  1  0  0  0
 62137  1  0  0  0
 62138  1  0  0  0
 63 65  1  0  0  0
 63139  1  0  0  0
 63140  1  0  0  0
 63141  1  0  0  0
 64142  1  0  0  0
 65143  1  0  0  0
 68 82  1  0  0  0
 71 72  2  0  0  0
 71 73  1  0  0  0
 71144  1  0  0  0
 72 75  1  0  0  0
 72145  1  0  0  0
 73 76  2  0  0  0
 73146  1  0  0  0
 74 75  2  0  0  0
 74 76  1  0  0  0
 74147  1  0  0  0
 75 83  1  0  0  0
 76 84  1  0  0  0
 77 78  1  0  0  0
 77 79  1  0  0  0
 77148  1  0  0  0
 77149  1  0  0  0
 78 81  1  0  0  0
 78150  1  0  0  0
 78151  1  0  0  0
 79 83  1  0  0  0
 79152  1  0  0  0
 79153  1  0  0  0
 80 81  1  0  0  0
 80 83  1  0  0  0
 80154  1  0  0  0
 80155  1  0  0  0
 81 82  1  0  0  0
 81156  1  0  0  0
 82157  1  0  0  0
 82158  1  0  0  0
 84159  1  0  0  0
M  ISO  4   1 100  68 101  82 101  84 100
M  END
> <chiral flag>
0

> <version>
0

> <s_m_source_file>
/data/baiqing/PycharmProjects/Reinvent-master-3.2/result/LINK_invent/BTK/process_docking_weight1_custom_product_contain_oxygen_bond_distance_aromatic_linkinvent_7_9_3/rearranged_h_0061.sdf

> <i_m_source_file_index>
16

> <r_mmod_Potential_Energy-OPLS-2005>
336.629211425781

> <r_mmod_Stretch_Energy-OPLS-2005>
131.748748779297

> <r_mmod_Bend_Energy-OPLS-2005>
208.887008666992

> <r_mmod_Torsional_Energy-OPLS-2005>
328.723114013672

> <r_mmod_Improper_Torsional_Energy-OPLS-2005>
10.8847208023071

> <r_mmod_Van_der_Waal_Energy-OPLS-2005>
138.487823486328

> <r_mmod_Electrostatic_Energy-OPLS-2005>
-336.887084960938

> <r_mmod_Solvation_Energy-OPLS-2005>
-226.660171508789

> <b_mmod_Minimization_Converged-OPLS-2005>
0

> <r_mmod_RMS_Derivative-OPLS-2005>
11.7199182510376

$$$$
16
                    3D
 Structure written by MMmdl.
159167  0  0  1  0            999 V2000
  -29.5577  -15.9023   20.2884 C   0  0  0  0  0  0
  -30.2942  -13.3387   19.5667 C   0  0  0  0  0  0
  -29.5148  -12.7228   18.3608 C   0  0  0  0  0  0
  -28.1095  -12.2661   18.7854 C   0  0  0  0  0  0
  -27.5012  -13.2732   19.7799 C   0  0  2  0  0  0
  -28.4226  -13.6203   20.9340 C   0  0  0  0  0  0
  -25.1936  -13.8154   20.5673 C   0  0  0  0  0  0
  -24.1374  -13.0360   20.9304 C   0  0  0  0  0  0
  -24.6057  -11.6856   20.8765 C   0  0  0  0  0  0
  -23.8867  -10.4237   21.0465 C   0  0  0  0  0  0
  -24.3515   -9.4188   21.9216 C   0  0  0  0  0  0
  -23.6248   -8.2200   22.0746 C   0  0  0  0  0  0
  -22.4235   -8.0223   21.3531 C   0  0  0  0  0  0
  -21.9832   -9.0177   20.4641 C   0  0  0  0  0  0
  -22.7088  -10.2075   20.3084 C   0  0  0  0  0  0
  -21.6840   -6.0701   22.5284 C   0  0  0  0  0  0
  -21.3995   -6.5620   23.8209 C   0  0  0  0  0  0
  -21.3653   -5.6780   24.9173 C   0  0  0  0  0  0
  -21.6042   -4.3042   24.7230 C   0  0  0  0  0  0
  -21.8834   -3.8131   23.4355 C   0  0  0  0  0  0
  -21.9193   -4.6937   22.3408 C   0  0  0  0  0  0
  -22.7454  -13.5153   21.2003 C   0  0  0  0  0  0
  -22.1668   -4.2125   21.0985 F   0  0  0  0  0  0
  -21.5634   -3.4534   25.7749 F   0  0  0  0  0  0
  -29.4435  -14.4250   20.2861 N   0  0  0  0  0  0
  -26.2114  -12.9317   20.2903 N   0  0  0  0  0  0
  -25.8909  -11.6464   20.5566 N   0  0  0  0  0  0
  -22.0172  -12.8134   22.0583 N   0  0  0  0  0  0
  -25.3758  -15.1882   20.4165 N   0  0  0  0  0  0
  -30.8164  -16.0160   20.2034 O   0  0  0  0  0  0
  -21.6615   -6.8815   21.4231 O   0  0  0  0  0  0
  -22.3198  -14.5485   20.6858 O   0  0  0  0  0  0
  -24.7552  -31.7379   22.6763 C   0  0  0  0  0  0
  -25.9719  -32.3829   23.5433 C   0  0  1  0  0  0
  -26.3090  -28.2292   21.6885 C   0  0  0  0  0  0
  -25.5781  -33.7516   23.9987 N   0  0  0  0  0  0
  -24.1122  -29.3154   20.8024 C   0  0  2  0  0  0
  -25.5488  -28.9101   19.3690 C   0  0  0  0  0  0
  -23.6654  -27.4920   22.3364 C   0  0  0  0  0  0
  -18.1795  -28.0850   22.8240 C   0  0  0  0  0  0
  -24.1446  -36.6947   23.2743 C   0  0  0  0  0  0
  -26.0120  -31.0762   20.6625 C   0  0  0  0  0  0
  -26.4549  -29.7255   20.1377 C   0  0  0  0  0  0
  -27.2431  -29.0335   21.0469 C   0  0  0  0  0  0
  -26.0551  -27.1484   20.7236 C   0  0  0  0  0  0
  -25.5953  -27.5225   19.4585 C   0  0  0  0  0  0
  -24.1812  -29.3339   19.3282 C   0  0  0  0  0  0
  -25.4203  -36.2431   24.0059 C   0  0  1  0  0  0
  -20.7740  -27.6050   23.2651 C   0  0  2  0  0  0
  -20.4116  -26.2642   22.6866 C   0  0  0  0  0  0
  -19.3505  -26.2262   21.6121 C   0  0  0  0  0  0
  -18.0609  -26.7141   22.2176 C   0  0  0  0  0  0
  -19.4627  -28.6409   23.2190 C   0  0  0  0  0  0
  -19.3093  -29.9487   23.8027 C   0  0  0  0  0  0
  -18.0371  -30.6003   23.9607 C   0  0  0  0  0  0
  -25.9289  -34.9058   23.4140 C   0  0  0  0  0  0
  -16.8310  -29.9820   23.5937 C   0  0  0  0  0  0
  -16.9153  -28.7148   23.0137 C   0  0  0  0  0  0
  -26.4397  -31.6331   24.8988 C   0  0  0  0  0  0
  -25.3136  -31.3736   25.9331 C   0  0  0  0  0  0
  -27.1133  -30.2777   24.6187 C   0  0  0  0  0  0
  -27.5309  -32.4618   25.6420 C   0  0  0  0  0  0
  -27.5515  -37.1532   24.8436 C   0  0  0  0  0  0
  -22.3633  -27.4207   23.1192 N   0  0  0  0  0  0
  -26.4172  -37.3404   23.9422 N   0  0  0  0  0  0
  -24.7637  -30.9242   21.3949 N   0  0  0  0  0  0
  -24.2806  -27.1709   23.3302 O   0  0  0  0  0  0
  -25.2941  -29.0770   22.6291 O   0  0  0  0  0  0
  -26.6394  -34.9199   22.4083 O   0  0  0  0  0  0
  -23.7129  -32.0842   23.2898 O   0  0  0  0  0  0
  -25.2092  -22.1247   18.1284 C   0  0  0  0  0  0
  -24.5151  -23.2300   18.7535 C   0  0  0  0  0  0
  -25.9666  -21.0483   18.7276 C   0  0  0  0  0  0
  -25.4178  -22.2367   20.7414 C   0  0  0  0  0  0
  -24.4939  -23.5247   20.1413 C   0  0  0  0  0  0
  -26.2136  -20.8752   20.1140 C   0  0  0  0  0  0
  -22.6720  -26.3734   20.1404 C   0  0  0  0  0  0
  -25.6336  -22.3790   22.2278 C   0  0  0  0  0  0
  -26.3646  -18.2687   21.7910 C   0  0  0  0  0  0
  -21.9654  -28.2511   20.8655 C   0  0  0  0  0  0
  -22.9871  -29.6669   22.6584 C   0  0  0  0  0  0
  -28.3037  -17.1605   20.1660 N   0  0  0  0  0  0
  -23.6108  -25.0853   20.5957 N   0  0  0  0  0  0
  -22.2960  -26.2351   18.9735 O   0  0  0  0  0  0
  -28.6192  -19.5909   21.5759 O   0  0  0  0  0  0
  -27.6527  -18.9178   20.6901 S   0  0  1  0  0  0
  -31.2222  -13.7789   19.1885 H   0  0  0  0  0  0
  -30.6130  -12.5609   20.2689 H   0  0  0  0  0  0
  -30.0732  -11.8946   17.9238 H   0  0  0  0  0  0
  -29.4200  -13.4808   17.5856 H   0  0  0  0  0  0
  -28.1929  -11.2914   19.2667 H   0  0  0  0  0  0
  -27.4595  -12.1345   17.9206 H   0  0  0  0  0  0
  -27.3435  -14.1730   19.1844 H   0  0  0  0  0  0
  -28.8000  -12.7390   21.4572 H   0  0  0  0  0  0
  -27.9172  -14.2354   21.6834 H   0  0  0  0  0  0
  -25.2665   -9.5706   22.4764 H   0  0  0  0  0  0
  -23.9988   -7.4594   22.7445 H   0  0  0  0  0  0
  -21.0773   -8.8665   19.8945 H   0  0  0  0  0  0
  -22.3545  -10.9610   19.6197 H   0  0  0  0  0  0
  -21.1980   -7.6130   23.9695 H   0  0  0  0  0  0
  -21.1455   -6.0514   25.9065 H   0  0  0  0  0  0
  -22.0621   -2.7597   23.2866 H   0  0  0  0  0  0
  -22.3854  -11.9805   22.4916 H   0  0  0  0  0  0
  -21.0809  -13.1118   22.2847 H   0  0  0  0  0  0
  -24.6196  -15.8543   20.5328 H   0  0  0  0  0  0
  -26.2523  -15.6151   20.1335 H   0  0  0  0  0  0
  -26.8659  -32.4862   22.9334 H   0  0  0  0  0  0
  -24.9203  -33.7847   24.7635 H   0  0  0  0  0  0
  -23.2848  -29.9806   20.5121 H   0  0  0  0  0  0
  -23.3759  -35.9229   23.3135 H   0  0  0  0  0  0
  -24.3405  -36.9090   22.2239 H   0  0  0  0  0  0
  -23.7242  -37.5926   23.7263 H   0  0  0  0  0  0
  -25.8205  -31.7157   19.8016 H   0  0  0  0  0  0
  -26.8394  -31.5321   21.1823 H   0  0  0  0  0  0
  -27.7930  -29.6830   21.6996 H   0  0  0  0  0  0
  -25.7714  -26.1738   21.0829 H   0  0  0  0  0  0
  -25.0020  -26.8273   18.8810 H   0  0  0  0  0  0
  -24.1273  -30.3094   18.8337 H   0  0  0  0  0  0
  -23.5596  -28.6445   18.7531 H   0  0  0  0  0  0
  -25.1578  -36.0733   25.0536 H   0  0  0  0  0  0
  -20.7633  -27.4631   24.3505 H   0  0  0  0  0  0
  -20.0258  -25.6817   23.5352 H   0  0  0  0  0  0
  -21.2465  -25.6417   22.3473 H   0  0  0  0  0  0
  -19.1884  -25.1807   21.3560 H   0  0  0  0  0  0
  -19.5949  -26.6920   20.6660 H   0  0  0  0  0  0
  -17.2462  -26.6624   21.4923 H   0  0  0  0  0  0
  -17.7694  -26.0450   23.0323 H   0  0  0  0  0  0
  -20.1910  -30.4611   24.1688 H   0  0  0  0  0  0
  -17.9997  -31.5916   24.3951 H   0  0  0  0  0  0
  -15.8756  -30.4707   23.7279 H   0  0  0  0  0  0
  -16.0042  -28.2133   22.7266 H   0  0  0  0  0  0
  -24.5301  -30.7457   25.5105 H   0  0  0  0  0  0
  -24.8408  -32.2987   26.2608 H   0  0  0  0  0  0
  -25.6873  -30.8591   26.8201 H   0  0  0  0  0  0
  -26.3992  -29.4665   24.5344 H   0  0  0  0  0  0
  -27.7566  -29.9647   25.4433 H   0  0  0  0  0  0
  -27.7473  -30.3139   23.7373 H   0  0  0  0  0  0
  -27.1535  -33.4189   26.0058 H   0  0  0  0  0  0
  -28.3796  -32.6734   24.9886 H   0  0  0  0  0  0
  -27.9192  -31.9395   26.5185 H   0  0  0  0  0  0
  -28.2372  -37.9974   24.7580 H   0  0  0  0  0  0
  -28.1148  -36.2485   24.6087 H   0  0  0  0  0  0
  -27.2257  -37.0955   25.8840 H   0  0  0  0  0  0
  -22.6650  -26.9689   23.9743 H   0  0  0  0  0  0
  -25.9833  -38.2338   24.1598 H   0  0  0  0  0  0
  -25.2044  -22.1397   17.0531 H   0  0  0  0  0  0
  -24.0124  -23.9278   18.0985 H   0  0  0  0  0  0
  -26.4593  -20.3615   18.0490 H   0  0  0  0  0  0
  -26.6869  -22.6151   22.3720 H   0  0  0  0  0  0
  -25.3909  -21.4612   22.7643 H   0  0  0  0  0  0
  -25.0357  -23.1897   22.6432 H   0  0  0  0  0  0
  -25.5243  -17.9876   21.1580 H   0  0  0  0  0  0
  -26.0436  -19.0685   22.4515 H   0  0  0  0  0  0
  -26.7238  -17.4075   22.3564 H   0  0  0  0  0  0
  -20.9008  -28.2533   21.0022 H   0  0  0  0  0  0
  -21.8122  -28.7812   19.9275 H   0  0  0  0  0  0
  -22.5768  -29.6580   23.6720 H   0  0  0  0  0  0
  -22.5174  -30.5746   22.2812 H   0  0  0  0  0  0
  -23.8169  -25.2489   21.5709 H   0  0  0  0  0  0
  1 25  1  0  0  0
  1 30  2  0  0  0
  1 82  1  0  0  0
  2  3  1  0  0  0
  2 25  1  0  0  0
  2 87  1  0  0  0
  2 88  1  0  0  0
  3  4  1  0  0  0
  3 89  1  0  0  0
  3 90  1  0  0  0
  4  5  1  0  0  0
  4 91  1  0  0  0
  4 92  1  0  0  0
  5  6  1  0  0  0
  5 26  1  0  0  0
  5 93  1  0  0  0
  6 25  1  0  0  0
  6 94  1  0  0  0
  6 95  1  0  0  0
  7  8  2  0  0  0
  7 26  1  0  0  0
  7 29  1  0  0  0
  8  9  1  0  0  0
  8 22  1  0  0  0
  9 10  1  0  0  0
  9 27  2  0  0  0
 10 11  2  0  0  0
 10 15  1  0  0  0
 11 12  1  0  0  0
 11 96  1  0  0  0
 12 13  2  0  0  0
 12 97  1  0  0  0
 13 14  1  0  0  0
 13 31  1  0  0  0
 14 15  2  0  0  0
 14 98  1  0  0  0
 15 99  1  0  0  0
 16 17  2  0  0  0
 16 21  1  0  0  0
 16 31  1  0  0  0
 17 18  1  0  0  0
 17100  1  0  0  0
 18 19  2  0  0  0
 18101  1  0  0  0
 19 20  1  0  0  0
 19 24  1  0  0  0
 20 21  2  0  0  0
 20102  1  0  0  0
 21 23  1  0  0  0
 22 28  1  0  0  0
 22 32  2  0  0  0
 26 27  1  0  0  0
 28103  1  0  0  0
 28104  1  0  0  0
 29105  1  0  0  0
 29106  1  0  0  0
 33 34  1  0  0  0
 33 66  1  0  0  0
 33 70  2  0  0  0
 34 36  1  0  0  0
 34 59  1  0  0  0
 34107  1  0  0  0
 35 44  2  0  0  0
 35 45  1  0  0  0
 35 68  1  0  0  0
 36 56  1  0  0  0
 36108  1  0  0  0
 37 39  1  0  0  0
 37 47  1  0  0  0
 37 66  1  0  0  0
 37109  1  0  0  0
 38 43  2  0  0  0
 38 46  1  0  0  0
 38 47  1  0  0  0
 39 64  1  0  0  0
 39 67  2  0  0  0
 40 52  1  0  0  0
 40 53  2  0  0  0
 40 58  1  0  0  0
 41110  1  0  0  0
 41111  1  0  0  0
 41112  1  0  0  0
 41 48  1  0  0  0
 42 43  1  0  0  0
 42 66  1  0  0  0
 42113  1  0  0  0
 42114  1  0  0  0
 43 44  1  0  0  0
 44115  1  0  0  0
 45 46  2  0  0  0
 45116  1  0  0  0
 46117  1  0  0  0
 47118  1  0  0  0
 47119  1  0  0  0
 48 56  1  0  0  0
 48 65  1  0  0  0
 48120  1  0  0  0
 49 50  1  0  0  0
 49 53  1  0  0  0
 49 64  1  0  0  0
 49121  1  0  0  0
 50 51  1  0  0  0
 50122  1  0  0  0
 50123  1  0  0  0
 51 52  1  0  0  0
 51124  1  0  0  0
 51125  1  0  0  0
 52126  1  0  0  0
 52127  1  0  0  0
 53 54  1  0  0  0
 54 55  2  0  0  0
 54128  1  0  0  0
 55 57  1  0  0  0
 55129  1  0  0  0
 56 69  2  0  0  0
 57 58  2  0  0  0
 57130  1  0  0  0
 58131  1  0  0  0
 59 60  1  0  0  0
 59 61  1  0  0  0
 59 62  1  0  0  0
 60132  1  0  0  0
 60133  1  0  0  0
 60134  1  0  0  0
 61135  1  0  0  0
 61136  1  0  0  0
 61137  1  0  0  0
 62138  1  0  0  0
 62139  1  0  0  0
 62140  1  0  0  0
 63 65  1  0  0  0
 63141  1  0  0  0
 63142  1  0  0  0
 63143  1  0  0  0
 64144  1  0  0  0
 65145  1  0  0  0
 68 81  1  0  0  0
 71 72  2  0  0  0
 71 73  1  0  0  0
 71146  1  0  0  0
 72 75  1  0  0  0
 72147  1  0  0  0
 73 76  2  0  0  0
 73148  1  0  0  0
 74 75  2  0  0  0
 74 76  1  0  0  0
 74 78  1  0  0  0
 75 83  1  0  0  0
 76 86  1  0  0  0
 77 80  1  0  0  0
 77 83  1  0  0  0
 77 84  2  0  0  0
 78149  1  0  0  0
 78150  1  0  0  0
 78151  1  0  0  0
 79152  1  0  0  0
 79153  1  0  0  0
 79154  1  0  0  0
 79 86  1  0  0  0
 80 81  1  0  0  0
 80155  1  0  0  0
 80156  1  0  0  0
 81157  1  0  0  0
 81158  1  0  0  0
 82 86  2  0  0  0
 83159  1  0  0  0
 85 86  2  0  0  0
M  ISO  4   1 100  68 101  81 101  82 100
M  END
> <chiral flag>
0

> <version>
0

> <s_m_source_file>
/data/baiqing/PycharmProjects/Reinvent-master-3.2/result/LINK_invent/BTK/process_docking_weight1_custom_product_contain_oxygen_bond_distance_aromatic_linkinvent_7_9_3/rearranged_h_0061.sdf

> <i_m_source_file_index>
17

> <r_mmod_Potential_Energy-OPLS-2005>
16627.033203125

> <r_mmod_Stretch_Energy-OPLS-2005>
6462.39208984375

> <r_mmod_Bend_Energy-OPLS-2005>
1868.94909667969

> <r_mmod_Torsional_Energy-OPLS-2005>
622.154968261719

> <r_mmod_Improper_Torsional_Energy-OPLS-2005>
105.893249511719

> <r_mmod_Van_der_Waal_Energy-OPLS-2005>
2122.1162109375

> <r_mmod_Electrostatic_Energy-OPLS-2005>
-469.801666259766

> <r_mmod_Solvation_Energy-OPLS-2005>
-230.061874389648

> <b_mmod_Minimization_Converged-OPLS-2005>
0

> <r_mmod_RMS_Derivative-OPLS-2005>
17.8885860443115

$$$$
17
                    3D
 Structure written by MMmdl.
154162  0  0  1  0            999 V2000
  -30.6868  -14.4666   20.5947 C   0  0  0  0  0  0
  -30.4258  -12.3118   19.4297 C   0  0  0  0  0  0
  -29.4982  -12.5232   18.2139 C   0  0  0  0  0  0
  -28.0186  -12.3731   18.6201 C   0  0  0  0  0  0
  -27.6634  -13.2033   19.8813 C   0  0  2  0  0  0
  -28.6989  -12.9711   21.0055 C   0  0  0  0  0  0
  -25.2594  -13.8143   20.5676 C   0  0  0  0  0  0
  -24.1833  -13.0429   20.9152 C   0  0  0  0  0  0
  -24.6378  -11.6894   20.8709 C   0  0  0  0  0  0
  -23.9034  -10.4283   21.0393 C   0  0  0  0  0  0
  -24.3588   -9.4202   21.9171 C   0  0  0  0  0  0
  -23.6273   -8.2237   22.0753 C   0  0  0  0  0  0
  -22.4258   -8.0270   21.3541 C   0  0  0  0  0  0
  -21.9876   -9.0241   20.4647 C   0  0  0  0  0  0
  -22.7203  -10.2120   20.3045 C   0  0  0  0  0  0
  -21.6848   -6.0729   22.5277 C   0  0  0  0  0  0
  -21.4018   -6.5629   23.8217 C   0  0  0  0  0  0
  -21.3663   -5.6775   24.9175 C   0  0  0  0  0  0
  -21.6056   -4.3046   24.7214 C   0  0  0  0  0  0
  -21.8823   -3.8130   23.4336 C   0  0  0  0  0  0
  -21.9189   -4.6951   22.3392 C   0  0  0  0  0  0
  -22.7865  -13.5236   21.1820 C   0  0  0  0  0  0
  -22.1658   -4.2145   21.0965 F   0  0  0  0  0  0
  -21.5633   -3.4530   25.7721 F   0  0  0  0  0  0
  -30.0361  -13.2796   20.4670 N   0  0  0  0  0  0
  -26.3028  -12.9306   20.3375 N   0  0  0  0  0  0
  -25.9301  -11.6475   20.5751 N   0  0  0  0  0  0
  -22.0493  -12.8249   22.0392 N   0  0  0  0  0  0
  -25.4337  -15.1861   20.4094 N   0  0  0  0  0  0
  -31.7983  -14.6697   20.0952 O   0  0  0  0  0  0
  -21.6617   -6.8876   21.4246 O   0  0  0  0  0  0
  -22.3579  -14.5553   20.6675 O   0  0  0  0  0  0
  -24.6115  -31.8693   23.2090 C   0  0  0  0  0  0
  -25.9017  -32.4835   23.8380 C   0  0  1  0  0  0
  -27.2350  -27.4440   20.0839 C   0  0  0  0  0  0
  -25.5889  -33.8637   24.2318 N   0  0  0  0  0  0
  -23.3980  -30.4915   21.5512 C   0  0  2  0  0  0
  -24.8419  -28.9567   20.1160 C   0  0  0  0  0  0
  -22.7386  -29.4663   22.5014 C   0  0  0  0  0  0
  -18.0268  -28.1370   22.8497 C   0  0  0  0  0  0
  -24.1487  -36.7320   23.2632 C   0  0  0  0  0  0
  -25.9254  -30.8353   21.3608 C   0  0  0  0  0  0
  -26.0005  -29.4688   20.7118 C   0  0  0  0  0  0
  -27.1949  -28.7165   20.6981 C   0  0  0  0  0  0
  -26.0526  -26.9409   19.4903 C   0  0  0  0  0  0
  -24.8626  -27.6920   19.5048 C   0  0  0  0  0  0
  -23.6021  -29.8194   20.1671 C   0  0  0  0  0  0
  -25.4109  -36.3126   24.0335 C   0  0  1  0  0  0
  -20.5852  -28.3653   23.1335 C   0  0  2  0  0  0
  -20.6759  -26.9397   22.5417 C   0  0  0  0  0  0
  -19.5740  -26.6387   21.5208 C   0  0  0  0  0  0
  -18.1920  -26.7916   22.1621 C   0  0  0  0  0  0
  -19.1513  -28.8827   23.2915 C   0  0  0  0  0  0
  -18.9441  -30.1436   23.8919 C   0  0  0  0  0  0
  -17.6445  -30.6579   24.0565 C   0  0  0  0  0  0
  -25.9039  -34.9492   23.5128 C   0  0  0  0  0  0
  -16.5338  -29.9080   23.6332 C   0  0  0  0  0  0
  -16.7259  -28.6497   23.0358 C   0  0  0  0  0  0
  -26.4444  -31.6618   25.0713 C   0  0  0  0  0  0
  -25.3707  -31.3736   26.1470 C   0  0  0  0  0  0
  -27.0252  -30.3058   24.6075 C   0  0  0  0  0  0
  -27.6036  -32.4327   25.7470 C   0  0  0  0  0  0
  -27.5595  -37.1800   24.8451 C   0  0  0  0  0  0
  -21.4117  -29.3029   22.3752 N   0  0  0  0  0  0
  -26.4297  -37.3807   23.9412 N   0  0  0  0  0  0
  -24.6636  -31.0790   22.0991 N   0  0  0  0  0  0
  -23.4172  -28.8215   23.3057 O   0  0  0  0  0  0
  -28.4352  -26.7608   20.0937 O   0  0  0  0  0  0
  -26.5600  -34.8936   22.4689 O   0  0  0  0  0  0
  -23.5313  -32.1449   23.7493 O   0  0  0  0  0  0
  -30.6301  -18.8477   19.7421 C   0  0  0  0  0  0
  -30.8721  -17.5345   20.1940 C   0  0  0  0  0  0
  -28.6498  -17.4707   21.1749 C   0  0  0  0  0  0
  -29.3820  -19.4684   19.9603 C   0  0  0  0  0  0
  -29.8643  -16.8064   20.8741 C   0  0  0  0  0  0
  -28.4042  -18.7834   20.7148 C   0  0  0  0  0  0
  -28.0215  -22.9838   19.6185 C   0  0  0  0  0  0
  -29.0583  -20.7791   19.2432 C   0  0  0  0  0  0
  -28.0519  -24.3171   20.3791 C   0  0  0  0  0  0
  -28.5376  -25.4753   19.4719 C   0  0  0  0  0  0
  -29.9921  -15.4274   21.2416 N   0  0  0  0  0  0
  -28.7672  -21.9584   20.0660 N   0  0  0  0  0  0
  -27.3412  -22.9005   18.5927 O   0  0  0  0  0  0
  -27.2038  -19.3629   20.9542 F   0  0  0  0  0  0
  -31.4709  -12.4176   19.1327 H   0  0  0  0  0  0
  -30.3302  -11.2956   19.8150 H   0  0  0  0  0  0
  -29.7479  -11.8149   17.4237 H   0  0  0  0  0  0
  -29.6611  -13.5181   17.7956 H   0  0  0  0  0  0
  -27.8287  -11.3150   18.8050 H   0  0  0  0  0  0
  -27.3694  -12.6604   17.7920 H   0  0  0  0  0  0
  -27.7126  -14.2527   19.5916 H   0  0  0  0  0  0
  -28.6719  -11.9314   21.3345 H   0  0  0  0  0  0
  -28.4470  -13.5569   21.8908 H   0  0  0  0  0  0
  -25.2734   -9.5680   22.4735 H   0  0  0  0  0  0
  -24.0000   -7.4632   22.7464 H   0  0  0  0  0  0
  -21.0806   -8.8750   19.8950 H   0  0  0  0  0  0
  -22.3666  -10.9650   19.6141 H   0  0  0  0  0  0
  -21.2029   -7.6144   23.9723 H   0  0  0  0  0  0
  -21.1482   -6.0498   25.9081 H   0  0  0  0  0  0
  -22.0602   -2.7596   23.2811 H   0  0  0  0  0  0
  -22.4087  -11.9899   22.4785 H   0  0  0  0  0  0
  -21.1136  -13.1332   22.2625 H   0  0  0  0  0  0
  -24.6637  -15.8371   20.5084 H   0  0  0  0  0  0
  -26.2797  -15.6193   20.0621 H   0  0  0  0  0  0
  -26.7085  -32.5543   23.1144 H   0  0  0  0  0  0
  -25.0034  -33.9804   25.0459 H   0  0  0  0  0  0
  -22.6861  -31.3076   21.4123 H   0  0  0  0  0  0
  -23.3765  -35.9635   23.3271 H   0  0  0  0  0  0
  -24.3591  -36.8955   22.2052 H   0  0  0  0  0  0
  -23.7213  -37.6508   23.6656 H   0  0  0  0  0  0
  -26.0327  -31.5987   20.5887 H   0  0  0  0  0  0
  -26.8154  -30.8914   21.9760 H   0  0  0  0  0  0
  -28.0899  -29.1109   21.1578 H   0  0  0  0  0  0
  -26.0213  -25.9739   19.0096 H   0  0  0  0  0  0
  -23.9709  -27.2935   19.0403 H   0  0  0  0  0  0
  -23.6965  -30.5881   19.3991 H   0  0  0  0  0  0
  -22.7288  -29.2284   19.8855 H   0  0  0  0  0  0
  -25.1281  -36.1992   25.0825 H   0  0  0  0  0  0
  -20.9950  -28.3207   24.1451 H   0  0  0  0  0  0
  -20.5664  -26.2255   23.3589 H   0  0  0  0  0  0
  -21.6631  -26.7450   22.1204 H   0  0  0  0  0  0
  -19.6904  -25.6304   21.1220 H   0  0  0  0  0  0
  -19.6687  -27.3210   20.6745 H   0  0  0  0  0  0
  -17.4193  -26.6674   21.4021 H   0  0  0  0  0  0
  -18.0328  -26.0055   22.9011 H   0  0  0  0  0  0
  -19.7921  -30.7245   24.2297 H   0  0  0  0  0  0
  -17.5004  -31.6267   24.5155 H   0  0  0  0  0  0
  -15.5335  -30.2988   23.7645 H   0  0  0  0  0  0
  -15.8659  -28.0816   22.7068 H   0  0  0  0  0  0
  -24.5856  -30.7119   25.7797 H   0  0  0  0  0  0
  -24.8928  -32.2902   26.4938 H   0  0  0  0  0  0
  -25.8047  -30.8875   27.0215 H   0  0  0  0  0  0
  -26.2781  -29.6860   24.1106 H   0  0  0  0  0  0
  -27.3993  -29.7264   25.4523 H   0  0  0  0  0  0
  -27.8631  -30.4374   23.9227 H   0  0  0  0  0  0
  -27.2669  -33.3623   26.2071 H   0  0  0  0  0  0
  -28.3828  -32.6892   25.0281 H   0  0  0  0  0  0
  -28.0720  -31.8433   26.5364 H   0  0  0  0  0  0
  -28.2580  -38.0132   24.7568 H   0  0  0  0  0  0
  -28.1124  -36.2668   24.6189 H   0  0  0  0  0  0
  -27.2323  -37.1348   25.8855 H   0  0  0  0  0  0
  -20.9268  -29.8750   21.6978 H   0  0  0  0  0  0
  -26.0193  -38.2882   24.1443 H   0  0  0  0  0  0
  -31.3973  -19.3547   19.1730 H   0  0  0  0  0  0
  -31.8307  -17.0901   19.9661 H   0  0  0  0  0  0
  -27.8656  -16.9574   21.7124 H   0  0  0  0  0  0
  -28.2134  -20.5580   18.5881 H   0  0  0  0  0  0
  -29.8846  -21.0396   18.5805 H   0  0  0  0  0  0
  -28.6845  -24.2432   21.2646 H   0  0  0  0  0  0
  -27.0420  -24.5146   20.7374 H   0  0  0  0  0  0
  -28.0563  -25.4720   18.4929 H   0  0  0  0  0  0
  -29.5946  -25.3142   19.2570 H   0  0  0  0  0  0
  -29.2037  -15.0519   21.7475 H   0  0  0  0  0  0
  -29.2857  -22.0714   20.9268 H   0  0  0  0  0  0
  1 25  1  0  0  0
  1 30  2  0  0  0
  1 81  1  0  0  0
  2  3  1  0  0  0
  2 25  1  0  0  0
  2 85  1  0  0  0
  2 86  1  0  0  0
  3  4  1  0  0  0
  3 87  1  0  0  0
  3 88  1  0  0  0
  4  5  1  0  0  0
  4 89  1  0  0  0
  4 90  1  0  0  0
  5  6  1  0  0  0
  5 26  1  0  0  0
  5 91  1  0  0  0
  6 25  1  0  0  0
  6 92  1  0  0  0
  6 93  1  0  0  0
  7  8  2  0  0  0
  7 26  1  0  0  0
  7 29  1  0  0  0
  8  9  1  0  0  0
  8 22  1  0  0  0
  9 10  1  0  0  0
  9 27  2  0  0  0
 10 11  2  0  0  0
 10 15  1  0  0  0
 11 12  1  0  0  0
 11 94  1  0  0  0
 12 13  2  0  0  0
 12 95  1  0  0  0
 13 14  1  0  0  0
 13 31  1  0  0  0
 14 15  2  0  0  0
 14 96  1  0  0  0
 15 97  1  0  0  0
 16 17  2  0  0  0
 16 21  1  0  0  0
 16 31  1  0  0  0
 17 18  1  0  0  0
 17 98  1  0  0  0
 18 19  2  0  0  0
 18 99  1  0  0  0
 19 20  1  0  0  0
 19 24  1  0  0  0
 20 21  2  0  0  0
 20100  1  0  0  0
 21 23  1  0  0  0
 22 28  1  0  0  0
 22 32  2  0  0  0
 26 27  1  0  0  0
 28101  1  0  0  0
 28102  1  0  0  0
 29103  1  0  0  0
 29104  1  0  0  0
 33 34  1  0  0  0
 33 66  1  0  0  0
 33 70  2  0  0  0
 34 36  1  0  0  0
 34 59  1  0  0  0
 34105  1  0  0  0
 35 44  2  0  0  0
 35 45  1  0  0  0
 35 68  1  0  0  0
 36 56  1  0  0  0
 36106  1  0  0  0
 37 39  1  0  0  0
 37 47  1  0  0  0
 37 66  1  0  0  0
 37107  1  0  0  0
 38 43  2  0  0  0
 38 46  1  0  0  0
 38 47  1  0  0  0
 39 64  1  0  0  0
 39 67  2  0  0  0
 40 52  1  0  0  0
 40 53  2  0  0  0
 40 58  1  0  0  0
 41108  1  0  0  0
 41109  1  0  0  0
 41110  1  0  0  0
 41 48  1  0  0  0
 42 43  1  0  0  0
 42 66  1  0  0  0
 42111  1  0  0  0
 42112  1  0  0  0
 43 44  1  0  0  0
 44113  1  0  0  0
 45 46  2  0  0  0
 45114  1  0  0  0
 46115  1  0  0  0
 47116  1  0  0  0
 47117  1  0  0  0
 48 56  1  0  0  0
 48 65  1  0  0  0
 48118  1  0  0  0
 49 50  1  0  0  0
 49 53  1  0  0  0
 49 64  1  0  0  0
 49119  1  0  0  0
 50 51  1  0  0  0
 50120  1  0  0  0
 50121  1  0  0  0
 51 52  1  0  0  0
 51122  1  0  0  0
 51123  1  0  0  0
 52124  1  0  0  0
 52125  1  0  0  0
 53 54  1  0  0  0
 54 55  2  0  0  0
 54126  1  0  0  0
 55 57  1  0  0  0
 55127  1  0  0  0
 56 69  2  0  0  0
 57 58  2  0  0  0
 57128  1  0  0  0
 58129  1  0  0  0
 59 60  1  0  0  0
 59 61  1  0  0  0
 59 62  1  0  0  0
 60130  1  0  0  0
 60131  1  0  0  0
 60132  1  0  0  0
 61133  1  0  0  0
 61134  1  0  0  0
 61135  1  0  0  0
 62136  1  0  0  0
 62137  1  0  0  0
 62138  1  0  0  0
 63 65  1  0  0  0
 63139  1  0  0  0
 63140  1  0  0  0
 63141  1  0  0  0
 64142  1  0  0  0
 65143  1  0  0  0
 68 80  1  0  0  0
 71 72  2  0  0  0
 71 74  1  0  0  0
 71144  1  0  0  0
 72 75  1  0  0  0
 72145  1  0  0  0
 73 75  2  0  0  0
 73 76  1  0  0  0
 73146  1  0  0  0
 74 76  2  0  0  0
 74 78  1  0  0  0
 75 81  1  0  0  0
 76 84  1  0  0  0
 77 79  1  0  0  0
 77 82  1  0  0  0
 77 83  2  0  0  0
 78 82  1  0  0  0
 78147  1  0  0  0
 78148  1  0  0  0
 79 80  1  0  0  0
 79149  1  0  0  0
 79150  1  0  0  0
 80151  1  0  0  0
 80152  1  0  0  0
 81153  1  0  0  0
 82154  1  0  0  0
M  ISO  4   1 100  68 101  80 101  81 100
M  END
> <chiral flag>
0

> <version>
0

> <s_m_source_file>
/data/baiqing/PycharmProjects/Reinvent-master-3.2/result/LINK_invent/BTK/process_docking_weight1_custom_product_contain_oxygen_bond_distance_aromatic_linkinvent_7_9_3/rearranged_h_0061.sdf

> <i_m_source_file_index>
18

> <r_mmod_Potential_Energy-OPLS-2005>
-108.075798034668

> <r_mmod_Stretch_Energy-OPLS-2005>
35.9390144348145

> <r_mmod_Bend_Energy-OPLS-2005>
101.949905395508

> <r_mmod_Torsional_Energy-OPLS-2005>
219.325820922852

> <r_mmod_Improper_Torsional_Energy-OPLS-2005>
5.6434850692749

> <r_mmod_Van_der_Waal_Energy-OPLS-2005>
157.343124389648

> <r_mmod_Electrostatic_Energy-OPLS-2005>
-412.191772460938

> <r_mmod_Solvation_Energy-OPLS-2005>
-227.518447875977

> <b_mmod_Minimization_Converged-OPLS-2005>
0

> <r_mmod_RMS_Derivative-OPLS-2005>
2.26894950866699

$$$$
18
                    3D
 Structure written by MMmdl.
157165  0  0  1  0            999 V2000
  -30.6128  -14.7510   20.4623 C   0  0  0  0  0  0
  -30.4334  -12.4591   19.4763 C   0  0  0  0  0  0
  -29.5124  -12.5065   18.2386 C   0  0  0  0  0  0
  -28.0395  -12.3259   18.6522 C   0  0  0  0  0  0
  -27.6411  -13.2312   19.8495 C   0  0  2  0  0  0
  -28.6845  -13.1727   20.9869 C   0  0  0  0  0  0
  -25.2508  -13.8179   20.5691 C   0  0  0  0  0  0
  -24.1799  -13.0424   20.9210 C   0  0  0  0  0  0
  -24.6402  -11.6909   20.8760 C   0  0  0  0  0  0
  -23.9081  -10.4288   21.0414 C   0  0  0  0  0  0
  -24.3628   -9.4200   21.9187 C   0  0  0  0  0  0
  -23.6296   -8.2242   22.0754 C   0  0  0  0  0  0
  -22.4278   -8.0286   21.3544 C   0  0  0  0  0  0
  -21.9927   -9.0264   20.4646 C   0  0  0  0  0  0
  -22.7259  -10.2139   20.3057 C   0  0  0  0  0  0
  -21.6855   -6.0741   22.5276 C   0  0  0  0  0  0
  -21.4018   -6.5642   23.8211 C   0  0  0  0  0  0
  -21.3660   -5.6788   24.9171 C   0  0  0  0  0  0
  -21.6046   -4.3053   24.7214 C   0  0  0  0  0  0
  -21.8816   -3.8147   23.4337 C   0  0  0  0  0  0
  -21.9192   -4.6970   22.3397 C   0  0  0  0  0  0
  -22.7822  -13.5221   21.1849 C   0  0  0  0  0  0
  -22.1656   -4.2162   21.0973 F   0  0  0  0  0  0
  -21.5633   -3.4530   25.7725 F   0  0  0  0  0  0
  -29.9847  -13.5262   20.4022 N   0  0  0  0  0  0
  -26.2936  -12.9392   20.3272 N   0  0  0  0  0  0
  -25.9330  -11.6536   20.5752 N   0  0  0  0  0  0
  -22.0453  -12.8231   22.0414 N   0  0  0  0  0  0
  -25.4157  -15.1892   20.4088 N   0  0  0  0  0  0
  -31.8052  -14.8261   20.1527 O   0  0  0  0  0  0
  -21.6633   -6.8893   21.4240 O   0  0  0  0  0  0
  -22.3518  -14.5529   20.6692 O   0  0  0  0  0  0
  -24.6307  -31.8555   23.1952 C   0  0  0  0  0  0
  -25.9132  -32.4749   23.8317 C   0  0  1  0  0  0
  -27.2282  -27.2665   20.1187 C   0  0  0  0  0  0
  -25.5933  -33.8551   24.2257 N   0  0  0  0  0  0
  -23.4279  -30.4753   21.5394 C   0  0  2  0  0  0
  -24.8732  -28.9171   20.1102 C   0  0  0  0  0  0
  -22.7505  -29.4605   22.4918 C   0  0  0  0  0  0
  -18.0303  -28.1397   22.8492 C   0  0  0  0  0  0
  -24.1490  -36.7276   23.2643 C   0  0  0  0  0  0
  -25.9718  -30.7676   21.3733 C   0  0  0  0  0  0
  -26.0425  -29.3888   20.7180 C   0  0  0  0  0  0
  -27.2177  -28.5744   20.7122 C   0  0  0  0  0  0
  -26.0292  -26.8525   19.4966 C   0  0  0  0  0  0
  -24.8708  -27.6567   19.4913 C   0  0  0  0  0  0
  -23.6443  -29.8043   20.1570 C   0  0  0  0  0  0
  -25.4116  -36.3063   24.0331 C   0  0  1  0  0  0
  -20.5904  -28.3710   23.1276 C   0  0  2  0  0  0
  -20.6801  -26.9430   22.5412 C   0  0  0  0  0  0
  -19.5767  -26.6395   21.5226 C   0  0  0  0  0  0
  -18.1946  -26.7941   22.1626 C   0  0  0  0  0  0
  -19.1555  -28.8870   23.2878 C   0  0  0  0  0  0
  -18.9467  -30.1468   23.8898 C   0  0  0  0  0  0
  -17.6464  -30.6595   24.0572 C   0  0  0  0  0  0
  -25.9059  -34.9436   23.5100 C   0  0  0  0  0  0
  -16.5359  -29.9096   23.6327 C   0  0  0  0  0  0
  -16.7287  -28.6509   23.0360 C   0  0  0  0  0  0
  -26.4510  -31.6557   25.0694 C   0  0  0  0  0  0
  -25.3743  -31.3698   26.1424 C   0  0  0  0  0  0
  -27.0359  -30.2974   24.6153 C   0  0  0  0  0  0
  -27.6063  -32.4300   25.7470 C   0  0  0  0  0  0
  -27.5579  -37.1797   24.8470 C   0  0  0  0  0  0
  -21.4214  -29.3049   22.3659 N   0  0  0  0  0  0
  -26.4290  -37.3762   23.9411 N   0  0  0  0  0  0
  -24.6960  -31.0524   22.0923 N   0  0  0  0  0  0
  -23.4199  -28.8163   23.3034 O   0  0  0  0  0  0
  -28.3676  -26.4311   20.1747 O   0  0  0  0  0  0
  -26.5629  -34.8921   22.4667 O   0  0  0  0  0  0
  -23.5453  -32.1381   23.7239 O   0  0  0  0  0  0
  -31.8669  -19.0997   21.0229 C   0  0  0  0  0  0
  -30.9245  -20.1352   20.8747 C   0  0  0  0  0  0
  -31.4968  -17.7442   20.9371 C   0  0  0  0  0  0
  -29.5620  -19.8691   20.6144 C   0  0  0  0  0  0
  -29.2030  -18.4431   20.4966 C   0  0  0  0  0  0
  -30.1658  -17.3498   20.6680 C   0  0  0  0  0  0
  -28.5739  -21.0921   20.6330 C   0  0  0  0  0  0
  -27.7679  -18.0521   20.1706 C   0  0  0  0  0  0
  -27.0442  -23.7245   21.4269 C   0  0  0  0  0  0
  -28.4321  -25.0043   19.6983 C   0  0  0  0  0  0
  -28.4248  -23.7788   20.7521 C   0  0  2  0  0  0
  -29.8305  -15.8917   20.6386 N   0  0  0  0  0  0
  -28.9916  -22.3922   20.3580 N   0  0  0  0  0  0
  -27.4052  -20.8782   20.9551 O   0  0  0  0  0  0
  -31.4742  -12.5829   19.1715 H   0  0  0  0  0  0
  -30.3789  -11.4832   19.9628 H   0  0  0  0  0  0
  -29.7997  -11.7323   17.5266 H   0  0  0  0  0  0
  -29.6355  -13.4587   17.7207 H   0  0  0  0  0  0
  -27.9035  -11.2768   18.9196 H   0  0  0  0  0  0
  -27.3830  -12.5102   17.8013 H   0  0  0  0  0  0
  -27.6328  -14.2514   19.4654 H   0  0  0  0  0  0
  -28.7211  -12.1762   21.4291 H   0  0  0  0  0  0
  -28.4183  -13.8574   21.7946 H   0  0  0  0  0  0
  -25.2777   -9.5670   22.4756 H   0  0  0  0  0  0
  -24.0001   -7.4632   22.7471 H   0  0  0  0  0  0
  -21.0863   -8.8790   19.8950 H   0  0  0  0  0  0
  -22.3727  -10.9679   19.6162 H   0  0  0  0  0  0
  -21.2007   -7.6147   23.9729 H   0  0  0  0  0  0
  -21.1487   -6.0508   25.9080 H   0  0  0  0  0  0
  -22.0597   -2.7609   23.2822 H   0  0  0  0  0  0
  -22.4074  -11.9920   22.4841 H   0  0  0  0  0  0
  -21.1062  -13.1260   22.2574 H   0  0  0  0  0  0
  -24.6408  -15.8341   20.5185 H   0  0  0  0  0  0
  -26.2466  -15.6289   20.0386 H   0  0  0  0  0  0
  -26.7199  -32.5402   23.1063 H   0  0  0  0  0  0
  -25.0106  -33.9685   25.0422 H   0  0  0  0  0  0
  -22.7246  -31.2970   21.3906 H   0  0  0  0  0  0
  -23.3748  -35.9612   23.3299 H   0  0  0  0  0  0
  -24.3596  -36.8893   22.2058 H   0  0  0  0  0  0
  -23.7243  -37.6475   23.6673 H   0  0  0  0  0  0
  -26.1117  -31.5247   20.6000 H   0  0  0  0  0  0
  -26.8502  -30.8183   22.0054 H   0  0  0  0  0  0
  -28.1147  -28.9351   21.1952 H   0  0  0  0  0  0
  -25.9471  -25.8880   19.0219 H   0  0  0  0  0  0
  -23.9722  -27.2879   19.0162 H   0  0  0  0  0  0
  -23.7701  -30.5785   19.3995 H   0  0  0  0  0  0
  -22.7626  -29.2372   19.8522 H   0  0  0  0  0  0
  -25.1300  -36.1916   25.0822 H   0  0  0  0  0  0
  -21.0003  -28.3300   24.1395 H   0  0  0  0  0  0
  -20.5736  -26.2326   23.3624 H   0  0  0  0  0  0
  -21.6669  -26.7484   22.1185 H   0  0  0  0  0  0
  -19.6941  -25.6309   21.1256 H   0  0  0  0  0  0
  -19.6695  -27.3217   20.6762 H   0  0  0  0  0  0
  -17.4227  -26.6703   21.4013 H   0  0  0  0  0  0
  -18.0313  -26.0085   22.9011 H   0  0  0  0  0  0
  -19.7946  -30.7288   24.2261 H   0  0  0  0  0  0
  -17.5023  -31.6273   24.5186 H   0  0  0  0  0  0
  -15.5360  -30.3004   23.7647 H   0  0  0  0  0  0
  -15.8688  -28.0829   22.7077 H   0  0  0  0  0  0
  -24.5944  -30.7009   25.7769 H   0  0  0  0  0  0
  -24.8906  -32.2856   26.4825 H   0  0  0  0  0  0
  -25.8077  -30.8915   27.0216 H   0  0  0  0  0  0
  -26.2928  -29.6703   24.1209 H   0  0  0  0  0  0
  -27.4098  -29.7243   25.4646 H   0  0  0  0  0  0
  -27.8786  -30.4251   23.9355 H   0  0  0  0  0  0
  -27.2675  -33.3621   26.2007 H   0  0  0  0  0  0
  -28.3899  -32.6813   25.0310 H   0  0  0  0  0  0
  -28.0712  -31.8448   26.5415 H   0  0  0  0  0  0
  -28.2599  -38.0092   24.7520 H   0  0  0  0  0  0
  -28.1073  -36.2623   24.6300 H   0  0  0  0  0  0
  -27.2309  -37.1456   25.8877 H   0  0  0  0  0  0
  -20.9410  -29.8722   21.6814 H   0  0  0  0  0  0
  -26.0162  -38.2836   24.1398 H   0  0  0  0  0  0
  -32.8971  -19.3491   21.2364 H   0  0  0  0  0  0
  -31.2643  -21.1540   21.0062 H   0  0  0  0  0  0
  -32.2695  -17.0093   21.1071 H   0  0  0  0  0  0
  -27.1645  -18.0005   21.0775 H   0  0  0  0  0  0
  -27.3122  -18.7685   19.4883 H   0  0  0  0  0  0
  -27.7180  -17.0868   19.6695 H   0  0  0  0  0  0
  -26.7494  -24.7132   21.7801 H   0  0  0  0  0  0
  -27.0482  -23.0697   22.2975 H   0  0  0  0  0  0
  -26.2727  -23.3819   20.7374 H   0  0  0  0  0  0
  -27.7103  -24.8065   18.9089 H   0  0  0  0  0  0
  -29.3883  -24.9519   19.1767 H   0  0  0  0  0  0
  -29.1180  -24.0997   21.5303 H   0  0  0  0  0  0
  -28.8507  -15.6811   20.7403 H   0  0  0  0  0  0
  -29.9383  -22.4356   20.0058 H   0  0  0  0  0  0
  1 25  1  0  0  0
  1 30  2  0  0  0
  1 82  1  0  0  0
  2  3  1  0  0  0
  2 25  1  0  0  0
  2 85  1  0  0  0
  2 86  1  0  0  0
  3  4  1  0  0  0
  3 87  1  0  0  0
  3 88  1  0  0  0
  4  5  1  0  0  0
  4 89  1  0  0  0
  4 90  1  0  0  0
  5  6  1  0  0  0
  5 26  1  0  0  0
  5 91  1  0  0  0
  6 25  1  0  0  0
  6 92  1  0  0  0
  6 93  1  0  0  0
  7  8  2  0  0  0
  7 26  1  0  0  0
  7 29  1  0  0  0
  8  9  1  0  0  0
  8 22  1  0  0  0
  9 10  1  0  0  0
  9 27  2  0  0  0
 10 11  2  0  0  0
 10 15  1  0  0  0
 11 12  1  0  0  0
 11 94  1  0  0  0
 12 13  2  0  0  0
 12 95  1  0  0  0
 13 14  1  0  0  0
 13 31  1  0  0  0
 14 15  2  0  0  0
 14 96  1  0  0  0
 15 97  1  0  0  0
 16 17  2  0  0  0
 16 21  1  0  0  0
 16 31  1  0  0  0
 17 18  1  0  0  0
 17 98  1  0  0  0
 18 19  2  0  0  0
 18 99  1  0  0  0
 19 20  1  0  0  0
 19 24  1  0  0  0
 20 21  2  0  0  0
 20100  1  0  0  0
 21 23  1  0  0  0
 22 28  1  0  0  0
 22 32  2  0  0  0
 26 27  1  0  0  0
 28101  1  0  0  0
 28102  1  0  0  0
 29103  1  0  0  0
 29104  1  0  0  0
 33 34  1  0  0  0
 33 66  1  0  0  0
 33 70  2  0  0  0
 34 36  1  0  0  0
 34 59  1  0  0  0
 34105  1  0  0  0
 35 44  2  0  0  0
 35 45  1  0  0  0
 35 68  1  0  0  0
 36 56  1  0  0  0
 36106  1  0  0  0
 37 39  1  0  0  0
 37 47  1  0  0  0
 37 66  1  0  0  0
 37107  1  0  0  0
 38 43  2  0  0  0
 38 46  1  0  0  0
 38 47  1  0  0  0
 39 64  1  0  0  0
 39 67  2  0  0  0
 40 52  1  0  0  0
 40 53  2  0  0  0
 40 58  1  0  0  0
 41108  1  0  0  0
 41109  1  0  0  0
 41110  1  0  0  0
 41 48  1  0  0  0
 42 43  1  0  0  0
 42 66  1  0  0  0
 42111  1  0  0  0
 42112  1  0  0  0
 43 44  1  0  0  0
 44113  1  0  0  0
 45 46  2  0  0  0
 45114  1  0  0  0
 46115  1  0  0  0
 47116  1  0  0  0
 47117  1  0  0  0
 48 56  1  0  0  0
 48 65  1  0  0  0
 48118  1  0  0  0
 49 50  1  0  0  0
 49 53  1  0  0  0
 49 64  1  0  0  0
 49119  1  0  0  0
 50 51  1  0  0  0
 50120  1  0  0  0
 50121  1  0  0  0
 51 52  1  0  0  0
 51122  1  0  0  0
 51123  1  0  0  0
 52124  1  0  0  0
 52125  1  0  0  0
 53 54  1  0  0  0
 54 55  2  0  0  0
 54126  1  0  0  0
 55 57  1  0  0  0
 55127  1  0  0  0
 56 69  2  0  0  0
 57 58  2  0  0  0
 57128  1  0  0  0
 58129  1  0  0  0
 59 60  1  0  0  0
 59 61  1  0  0  0
 59 62  1  0  0  0
 60130  1  0  0  0
 60131  1  0  0  0
 60132  1  0  0  0
 61133  1  0  0  0
 61134  1  0  0  0
 61135  1  0  0  0
 62136  1  0  0  0
 62137  1  0  0  0
 62138  1  0  0  0
 63 65  1  0  0  0
 63139  1  0  0  0
 63140  1  0  0  0
 63141  1  0  0  0
 64142  1  0  0  0
 65143  1  0  0  0
 68 80  1  0  0  0
 71 72  2  0  0  0
 71 73  1  0  0  0
 71144  1  0  0  0
 72 74  1  0  0  0
 72145  1  0  0  0
 73 76  2  0  0  0
 73146  1  0  0  0
 74 75  2  0  0  0
 74 77  1  0  0  0
 75 76  1  0  0  0
 75 78  1  0  0  0
 76 82  1  0  0  0
 77 83  1  0  0  0
 77 84  2  0  0  0
 78147  1  0  0  0
 78148  1  0  0  0
 78149  1  0  0  0
 79150  1  0  0  0
 79151  1  0  0  0
 79152  1  0  0  0
 79 81  1  0  0  0
 80 81  1  0  0  0
 80153  1  0  0  0
 80154  1  0  0  0
 81 83  1  0  0  0
 81155  1  0  0  0
 82156  1  0  0  0
 83157  1  0  0  0
M  ISO  4   1 100  68 101  80 101  82 100
M  END
> <chiral flag>
0

> <version>
0

> <s_m_source_file>
/data/baiqing/PycharmProjects/Reinvent-master-3.2/result/LINK_invent/BTK/process_docking_weight1_custom_product_contain_oxygen_bond_distance_aromatic_linkinvent_7_9_3/rearranged_h_0061.sdf

> <i_m_source_file_index>
19

> <r_mmod_Potential_Energy-OPLS-2005>
114.525993347168

> <r_mmod_Stretch_Energy-OPLS-2005>
136.829666137695

> <r_mmod_Bend_Energy-OPLS-2005>
183.188842773438

> <r_mmod_Torsional_Energy-OPLS-2005>
221.563110351562

> <r_mmod_Improper_Torsional_Energy-OPLS-2005>
6.76495504379272

> <r_mmod_Van_der_Waal_Energy-OPLS-2005>
144.665176391602

> <r_mmod_Electrostatic_Energy-OPLS-2005>
-434.056854248047

> <r_mmod_Solvation_Energy-OPLS-2005>
-225.651824951172

> <b_mmod_Minimization_Converged-OPLS-2005>
0

> <r_mmod_RMS_Derivative-OPLS-2005>
1.54150676727295

$$$$
19
                    3D
 Structure written by MMmdl.
163172  0  0  1  0            999 V2000
  -30.6535  -14.7364   20.4403 C   0  0  0  0  0  0
  -30.4288  -12.4426   19.4834 C   0  0  0  0  0  0
  -29.5117  -12.4740   18.2439 C   0  0  0  0  0  0
  -28.0448  -12.2851   18.6677 C   0  0  0  0  0  0
  -27.6417  -13.2199   19.8377 C   0  0  2  0  0  0
  -28.6840  -13.2063   20.9787 C   0  0  0  0  0  0
  -25.2551  -13.8175   20.5649 C   0  0  0  0  0  0
  -24.1824  -13.0451   20.9175 C   0  0  0  0  0  0
  -24.6385  -11.6924   20.8730 C   0  0  0  0  0  0
  -23.9044  -10.4313   21.0401 C   0  0  0  0  0  0
  -24.3598   -9.4216   21.9170 C   0  0  0  0  0  0
  -23.6277   -8.2245   22.0761 C   0  0  0  0  0  0
  -22.4254   -8.0281   21.3549 C   0  0  0  0  0  0
  -21.9888   -9.0245   20.4634 C   0  0  0  0  0  0
  -22.7218  -10.2128   20.3038 C   0  0  0  0  0  0
  -21.6861   -6.0720   22.5265 C   0  0  0  0  0  0
  -21.4027   -6.5632   23.8192 C   0  0  0  0  0  0
  -21.3649   -5.6795   24.9162 C   0  0  0  0  0  0
  -21.6041   -4.3057   24.7228 C   0  0  0  0  0  0
  -21.8810   -3.8137   23.4357 C   0  0  0  0  0  0
  -21.9195   -4.6945   22.3402 C   0  0  0  0  0  0
  -22.7838  -13.5240   21.1834 C   0  0  0  0  0  0
  -22.1658   -4.2137   21.0980 F   0  0  0  0  0  0
  -21.5617   -3.4538   25.7739 F   0  0  0  0  0  0
  -29.9871  -13.5306   20.3881 N   0  0  0  0  0  0
  -26.2944  -12.9349   20.3207 N   0  0  0  0  0  0
  -25.9308  -11.6520   20.5736 N   0  0  0  0  0  0
  -22.0503  -12.8220   22.0401 N   0  0  0  0  0  0
  -25.4351  -15.1878   20.4015 N   0  0  0  0  0  0
  -31.8446  -14.7563   20.1291 O   0  0  0  0  0  0
  -21.6636   -6.8861   21.4227 O   0  0  0  0  0  0
  -22.3519  -14.5566   20.6719 O   0  0  0  0  0  0
  -24.6293  -31.8575   23.1951 C   0  0  0  0  0  0
  -25.9120  -32.4762   23.8300 C   0  0  1  0  0  0
  -27.2205  -27.2656   20.1194 C   0  0  0  0  0  0
  -25.5948  -33.8573   24.2236 N   0  0  0  0  0  0
  -23.4241  -30.4752   21.5412 C   0  0  2  0  0  0
  -24.8678  -28.9131   20.1113 C   0  0  0  0  0  0
  -22.7508  -29.4599   22.4949 C   0  0  0  0  0  0
  -18.0287  -28.1415   22.8451 C   0  0  0  0  0  0
  -24.1532  -36.7347   23.2629 C   0  0  0  0  0  0
  -25.9669  -30.7685   21.3709 C   0  0  0  0  0  0
  -26.0387  -29.3887   20.7159 C   0  0  0  0  0  0
  -27.2130  -28.5729   20.7114 C   0  0  0  0  0  0
  -26.0249  -26.8507   19.4937 C   0  0  0  0  0  0
  -24.8636  -27.6521   19.4926 C   0  0  0  0  0  0
  -23.6381  -29.7989   20.1605 C   0  0  0  0  0  0
  -25.4149  -36.3085   24.0321 C   0  0  1  0  0  0
  -20.5895  -28.3725   23.1316 C   0  0  2  0  0  0
  -20.6785  -26.9467   22.5402 C   0  0  0  0  0  0
  -19.5753  -26.6359   21.5220 C   0  0  0  0  0  0
  -18.1909  -26.7937   22.1620 C   0  0  0  0  0  0
  -19.1542  -28.8878   23.2844 C   0  0  0  0  0  0
  -18.9481  -30.1472   23.8864 C   0  0  0  0  0  0
  -17.6483  -30.6604   24.0557 C   0  0  0  0  0  0
  -25.9097  -34.9459   23.5087 C   0  0  0  0  0  0
  -16.5371  -29.9091   23.6349 C   0  0  0  0  0  0
  -16.7273  -28.6533   23.0317 C   0  0  0  0  0  0
  -26.4475  -31.6628   25.0721 C   0  0  0  0  0  0
  -25.3674  -31.3809   26.1452 C   0  0  0  0  0  0
  -27.0364  -30.3065   24.6191 C   0  0  0  0  0  0
  -27.6026  -32.4368   25.7503 C   0  0  0  0  0  0
  -27.5613  -37.1820   24.8448 C   0  0  0  0  0  0
  -21.4203  -29.3122   22.3777 N   0  0  0  0  0  0
  -26.4335  -37.3774   23.9400 N   0  0  0  0  0  0
  -24.6932  -31.0521   22.0920 N   0  0  0  0  0  0
  -23.4230  -28.8062   23.2964 O   0  0  0  0  0  0
  -28.3524  -26.4250   20.2014 O   0  0  0  0  0  0
  -26.5647  -34.8907   22.4642 O   0  0  0  0  0  0
  -23.5438  -32.1412   23.7257 O   0  0  0  0  0  0
  -32.1806  -19.0173   20.6703 C   0  0  0  0  0  0
  -31.7355  -17.6833   20.6027 C   0  0  0  0  0  0
  -29.4566  -18.4933   20.6114 C   0  0  0  0  0  0
  -31.2914  -20.1083   20.7626 C   0  0  0  0  0  0
  -29.8803  -19.8967   20.6936 C   0  0  0  0  0  0
  -30.3606  -17.3498   20.5971 C   0  0  0  0  0  0
  -27.9940  -21.0196   21.8062 C   0  0  0  0  0  0
  -31.9411  -21.4301   20.9877 C   0  0  0  0  0  0
  -27.1063  -22.2435   22.1225 C   0  0  0  0  0  0
  -27.0652  -23.3722   21.0765 C   0  0  0  0  0  0
  -29.0210  -22.3267   19.9686 C   0  0  0  0  0  0
  -28.4674  -23.7143   20.5765 C   0  0  1  0  0  0
  -31.8439  -22.0031   22.4018 C   0  0  0  0  0  0
  -28.4436  -25.0350   19.6448 C   0  0  0  0  0  0
  -28.9405  -21.0585   20.8271 N   0  0  0  0  0  0
  -29.9318  -15.9158   20.6138 N   0  0  0  0  0  0
  -27.8189  -20.0274   22.5221 O   0  0  0  0  0  0
  -32.5832  -22.0289   20.1187 O   0  0  0  0  0  0
  -31.4724  -12.5456   19.1771 H   0  0  0  0  0  0
  -30.3681  -11.4786   19.9901 H   0  0  0  0  0  0
  -29.8050  -11.6901   17.5426 H   0  0  0  0  0  0
  -29.6265  -13.4213   17.7132 H   0  0  0  0  0  0
  -27.9367  -11.2458   18.9849 H   0  0  0  0  0  0
  -27.3760  -12.4109   17.8166 H   0  0  0  0  0  0
  -27.6270  -14.2257   19.4179 H   0  0  0  0  0  0
  -28.7145  -12.2328   21.4684 H   0  0  0  0  0  0
  -28.4165  -13.9304   21.7508 H   0  0  0  0  0  0
  -25.2737   -9.5692   22.4752 H   0  0  0  0  0  0
  -23.9983   -7.4638   22.7493 H   0  0  0  0  0  0
  -21.0825   -8.8732   19.8941 H   0  0  0  0  0  0
  -22.3651  -10.9655   19.6152 H   0  0  0  0  0  0
  -21.2033   -7.6144   23.9695 H   0  0  0  0  0  0
  -21.1480   -6.0529   25.9063 H   0  0  0  0  0  0
  -22.0607   -2.7606   23.2855 H   0  0  0  0  0  0
  -22.4136  -11.9854   22.4732 H   0  0  0  0  0  0
  -21.1125  -13.1236   22.2651 H   0  0  0  0  0  0
  -24.6819  -15.8584   20.4994 H   0  0  0  0  0  0
  -26.2870  -15.6056   20.0502 H   0  0  0  0  0  0
  -26.7208  -32.5397   23.1046 H   0  0  0  0  0  0
  -25.0136  -33.9730   25.0412 H   0  0  0  0  0  0
  -22.7207  -31.2954   21.3853 H   0  0  0  0  0  0
  -23.3756  -35.9718   23.3239 H   0  0  0  0  0  0
  -24.3624  -36.9052   22.2055 H   0  0  0  0  0  0
  -23.7328  -37.6546   23.6704 H   0  0  0  0  0  0
  -26.1048  -31.5285   20.5987 H   0  0  0  0  0  0
  -26.8470  -30.8178   22.0017 H   0  0  0  0  0  0
  -28.1074  -28.9208   21.2095 H   0  0  0  0  0  0
  -25.9419  -25.8823   19.0285 H   0  0  0  0  0  0
  -23.9641  -27.2790   19.0223 H   0  0  0  0  0  0
  -23.7570  -30.5705   19.3986 H   0  0  0  0  0  0
  -22.7565  -29.2295   19.8615 H   0  0  0  0  0  0
  -25.1295  -36.1935   25.0804 H   0  0  0  0  0  0
  -20.9917  -28.3266   24.1471 H   0  0  0  0  0  0
  -20.5771  -26.2331   23.3608 H   0  0  0  0  0  0
  -21.6627  -26.7556   22.1157 H   0  0  0  0  0  0
  -19.6952  -25.6218   21.1366 H   0  0  0  0  0  0
  -19.6704  -27.3083   20.6671 H   0  0  0  0  0  0
  -17.4205  -26.6762   21.3960 H   0  0  0  0  0  0
  -18.0239  -26.0076   22.9013 H   0  0  0  0  0  0
  -19.7967  -30.7282   24.2202 H   0  0  0  0  0  0
  -17.5052  -31.6280   24.5140 H   0  0  0  0  0  0
  -15.5373  -30.2977   23.7648 H   0  0  0  0  0  0
  -15.8701  -28.0848   22.6983 H   0  0  0  0  0  0
  -24.5852  -30.7150   25.7756 H   0  0  0  0  0  0
  -24.8849  -32.3004   26.4791 H   0  0  0  0  0  0
  -25.7945  -30.9039   27.0292 H   0  0  0  0  0  0
  -26.2990  -29.6788   24.1178 H   0  0  0  0  0  0
  -27.4056  -29.7321   25.4697 H   0  0  0  0  0  0
  -27.8827  -30.4368   23.9447 H   0  0  0  0  0  0
  -27.2664  -33.3722   26.1990 H   0  0  0  0  0  0
  -28.3876  -32.6882   25.0349 H   0  0  0  0  0  0
  -28.0657  -31.8569   26.5502 H   0  0  0  0  0  0
  -28.2536  -38.0193   24.7483 H   0  0  0  0  0  0
  -28.1192  -36.2703   24.6242 H   0  0  0  0  0  0
  -27.2331  -37.1407   25.8848 H   0  0  0  0  0  0
  -20.9355  -29.9140   21.7291 H   0  0  0  0  0  0
  -26.0222  -38.2862   24.1313 H   0  0  0  0  0  0
  -33.2466  -19.1963   20.7091 H   0  0  0  0  0  0
  -32.5085  -16.9316   20.5943 H   0  0  0  0  0  0
  -28.3953  -18.2871   20.5878 H   0  0  0  0  0  0
  -27.4826  -22.6591   23.0577 H   0  0  0  0  0  0
  -26.0911  -21.8942   22.3246 H   0  0  0  0  0  0
  -26.5878  -24.2545   21.5046 H   0  0  0  0  0  0
  -26.4368  -23.0803   20.2314 H   0  0  0  0  0  0
  -30.0182  -22.4862   19.5688 H   0  0  0  0  0  0
  -28.4254  -22.0930   19.0867 H   0  0  0  0  0  0
  -29.1000  -23.9576   21.4328 H   0  0  0  0  0  0
  -31.0584  -21.5124   22.9714 H   0  0  0  0  0  0
  -31.6281  -23.0701   22.3793 H   0  0  0  0  0  0
  -32.7838  -21.8526   22.9345 H   0  0  0  0  0  0
  -27.7459  -24.8782   18.8271 H   0  0  0  0  0  0
  -29.4098  -25.0404   19.1427 H   0  0  0  0  0  0
  -28.9432  -15.7651   20.7582 H   0  0  0  0  0  0
  1 25  1  0  0  0
  1 30  2  0  0  0
  1 86  1  0  0  0
  2  3  1  0  0  0
  2 25  1  0  0  0
  2 89  1  0  0  0
  2 90  1  0  0  0
  3  4  1  0  0  0
  3 91  1  0  0  0
  3 92  1  0  0  0
  4  5  1  0  0  0
  4 93  1  0  0  0
  4 94  1  0  0  0
  5  6  1  0  0  0
  5 26  1  0  0  0
  5 95  1  0  0  0
  6 25  1  0  0  0
  6 96  1  0  0  0
  6 97  1  0  0  0
  7  8  2  0  0  0
  7 26  1  0  0  0
  7 29  1  0  0  0
  8  9  1  0  0  0
  8 22  1  0  0  0
  9 10  1  0  0  0
  9 27  2  0  0  0
 10 11  2  0  0  0
 10 15  1  0  0  0
 11 12  1  0  0  0
 11 98  1  0  0  0
 12 13  2  0  0  0
 12 99  1  0  0  0
 13 14  1  0  0  0
 13 31  1  0  0  0
 14 15  2  0  0  0
 14100  1  0  0  0
 15101  1  0  0  0
 16 17  2  0  0  0
 16 21  1  0  0  0
 16 31  1  0  0  0
 17 18  1  0  0  0
 17102  1  0  0  0
 18 19  2  0  0  0
 18103  1  0  0  0
 19 20  1  0  0  0
 19 24  1  0  0  0
 20 21  2  0  0  0
 20104  1  0  0  0
 21 23  1  0  0  0
 22 28  1  0  0  0
 22 32  2  0  0  0
 26 27  1  0  0  0
 28105  1  0  0  0
 28106  1  0  0  0
 29107  1  0  0  0
 29108  1  0  0  0
 33 34  1  0  0  0
 33 66  1  0  0  0
 33 70  2  0  0  0
 34 36  1  0  0  0
 34 59  1  0  0  0
 34109  1  0  0  0
 35 44  2  0  0  0
 35 45  1  0  0  0
 35 68  1  0  0  0
 36 56  1  0  0  0
 36110  1  0  0  0
 37 39  1  0  0  0
 37 47  1  0  0  0
 37 66  1  0  0  0
 37111  1  0  0  0
 38 43  2  0  0  0
 38 46  1  0  0  0
 38 47  1  0  0  0
 39 64  1  0  0  0
 39 67  2  0  0  0
 40 52  1  0  0  0
 40 53  2  0  0  0
 40 58  1  0  0  0
 41112  1  0  0  0
 41113  1  0  0  0
 41114  1  0  0  0
 41 48  1  0  0  0
 42 43  1  0  0  0
 42 66  1  0  0  0
 42115  1  0  0  0
 42116  1  0  0  0
 43 44  1  0  0  0
 44117  1  0  0  0
 45 46  2  0  0  0
 45118  1  0  0  0
 46119  1  0  0  0
 47120  1  0  0  0
 47121  1  0  0  0
 48 56  1  0  0  0
 48 65  1  0  0  0
 48122  1  0  0  0
 49 50  1  0  0  0
 49 53  1  0  0  0
 49 64  1  0  0  0
 49123  1  0  0  0
 50 51  1  0  0  0
 50124  1  0  0  0
 50125  1  0  0  0
 51 52  1  0  0  0
 51126  1  0  0  0
 51127  1  0  0  0
 52128  1  0  0  0
 52129  1  0  0  0
 53 54  1  0  0  0
 54 55  2  0  0  0
 54130  1  0  0  0
 55 57  1  0  0  0
 55131  1  0  0  0
 56 69  2  0  0  0
 57 58  2  0  0  0
 57132  1  0  0  0
 58133  1  0  0  0
 59 60  1  0  0  0
 59 61  1  0  0  0
 59 62  1  0  0  0
 60134  1  0  0  0
 60135  1  0  0  0
 60136  1  0  0  0
 61137  1  0  0  0
 61138  1  0  0  0
 61139  1  0  0  0
 62140  1  0  0  0
 62141  1  0  0  0
 62142  1  0  0  0
 63 65  1  0  0  0
 63143  1  0  0  0
 63144  1  0  0  0
 63145  1  0  0  0
 64146  1  0  0  0
 65147  1  0  0  0
 68 84  1  0  0  0
 71 72  2  0  0  0
 71 74  1  0  0  0
 71148  1  0  0  0
 72 76  1  0  0  0
 72149  1  0  0  0
 73 75  1  0  0  0
 73 76  2  0  0  0
 73150  1  0  0  0
 74 75  2  0  0  0
 74 78  1  0  0  0
 75 85  1  0  0  0
 76 86  1  0  0  0
 77 79  1  0  0  0
 77 85  1  0  0  0
 77 87  2  0  0  0
 78 83  1  0  0  0
 78 88  2  0  0  0
 79 80  1  0  0  0
 79151  1  0  0  0
 79152  1  0  0  0
 80 82  1  0  0  0
 80153  1  0  0  0
 80154  1  0  0  0
 81 82  1  0  0  0
 81 85  1  0  0  0
 81155  1  0  0  0
 81156  1  0  0  0
 82 84  1  0  0  0
 82157  1  0  0  0
 83158  1  0  0  0
 83159  1  0  0  0
 83160  1  0  0  0
 84161  1  0  0  0
 84162  1  0  0  0
 86163  1  0  0  0
M  ISO  4   1 100  68 101  84 101  86 100
M  END
> <chiral flag>
0

> <version>
0

> <s_m_source_file>
/data/baiqing/PycharmProjects/Reinvent-master-3.2/result/LINK_invent/BTK/process_docking_weight1_custom_product_contain_oxygen_bond_distance_aromatic_linkinvent_7_9_3/rearranged_h_0061.sdf

> <i_m_source_file_index>
20

> <r_mmod_Potential_Energy-OPLS-2005>
310.543151855469

> <r_mmod_Stretch_Energy-OPLS-2005>
134.708938598633

> <r_mmod_Bend_Energy-OPLS-2005>
185.255523681641

> <r_mmod_Torsional_Energy-OPLS-2005>
317.744049072266

> <r_mmod_Improper_Torsional_Energy-OPLS-2005>
6.05074453353882

> <r_mmod_Van_der_Waal_Energy-OPLS-2005>
153.970199584961

> <r_mmod_Electrostatic_Energy-OPLS-2005>
-341.608764648438

> <r_mmod_Solvation_Energy-OPLS-2005>
-228.419296264648

> <b_mmod_Minimization_Converged-OPLS-2005>
0

> <r_mmod_RMS_Derivative-OPLS-2005>
4.83670949935913

$$$$
20
                    3D
 Structure written by MMmdl.
164173  0  0  1  0            999 V2000
  -30.7411  -14.7693   20.4661 C   0  0  0  0  0  0
  -30.3868  -12.4898   19.4894 C   0  0  0  0  0  0
  -29.5118  -12.4999   18.2137 C   0  0  0  0  0  0
  -28.0132  -12.7429   18.5093 C   0  0  0  0  0  0
  -27.7095  -12.7776   20.0126 C   0  0  2  0  0  0
  -28.6741  -13.4451   20.9902 C   0  0  0  0  0  0
  -25.3043  -13.7530   20.5588 C   0  0  0  0  0  0
  -24.1850  -13.0354   20.9102 C   0  0  0  0  0  0
  -24.5793  -11.6668   20.8896 C   0  0  0  0  0  0
  -23.8495  -10.4209   21.0624 C   0  0  0  0  0  0
  -24.3253   -9.4138   21.9292 C   0  0  0  0  0  0
  -23.6082   -8.2105   22.0745 C   0  0  0  0  0  0
  -22.4087   -8.0147   21.3497 C   0  0  0  0  0  0
  -21.9635   -9.0091   20.4623 C   0  0  0  0  0  0
  -22.6813  -10.2034   20.3145 C   0  0  0  0  0  0
  -21.6768   -6.0649   22.5278 C   0  0  0  0  0  0
  -21.3958   -6.5595   23.8207 C   0  0  0  0  0  0
  -21.3674   -5.6778   24.9188 C   0  0  0  0  0  0
  -21.6063   -4.3037   24.7256 C   0  0  0  0  0  0
  -21.8838   -3.8113   23.4392 C   0  0  0  0  0  0
  -21.9163   -4.6902   22.3425 C   0  0  0  0  0  0
  -22.7997  -13.5488   21.1782 C   0  0  0  0  0  0
  -22.1641   -4.2094   21.1004 F   0  0  0  0  0  0
  -21.5685   -3.4533   25.7781 F   0  0  0  0  0  0
  -29.9825  -13.6311   20.3563 N   0  0  0  0  0  0
  -26.3052  -12.7936   20.3817 N   0  0  0  0  0  0
  -25.8441  -11.5540   20.5971 N   0  0  0  0  0  0
  -22.0506  -12.8586   22.0342 N   0  0  0  0  0  0
  -25.5372  -15.1143   20.3826 N   0  0  0  0  0  0
  -31.9147  -14.7504   20.0952 O   0  0  0  0  0  0
  -21.6521   -6.8723   21.4204 O   0  0  0  0  0  0
  -22.3839  -14.5816   20.6574 O   0  0  0  0  0  0
  -24.6311  -31.8595   23.1977 C   0  0  0  0  0  0
  -25.9139  -32.4785   23.8325 C   0  0  1  0  0  0
  -27.2193  -27.2703   20.1155 C   0  0  0  0  0  0
  -25.5961  -33.8591   24.2255 N   0  0  0  0  0  0
  -23.4300  -30.4835   21.5401 C   0  0  2  0  0  0
  -24.8782  -28.9376   20.1082 C   0  0  0  0  0  0
  -22.7515  -29.4646   22.4885 C   0  0  0  0  0  0
  -18.0307  -28.1418   22.8488 C   0  0  0  0  0  0
  -24.1506  -36.7272   23.2640 C   0  0  0  0  0  0
  -25.9789  -30.7695   21.3876 C   0  0  0  0  0  0
  -26.0505  -29.3976   20.7207 C   0  0  0  0  0  0
  -27.2243  -28.5754   20.7148 C   0  0  0  0  0  0
  -26.0226  -26.8863   19.4666 C   0  0  0  0  0  0
  -24.8699  -27.6910   19.4702 C   0  0  0  0  0  0
  -23.6522  -29.8260   20.1544 C   0  0  0  0  0  0
  -25.4141  -36.3077   24.0311 C   0  0  1  0  0  0
  -20.5912  -28.3730   23.1262 C   0  0  2  0  0  0
  -20.6811  -26.9442   22.5409 C   0  0  0  0  0  0
  -19.5777  -26.6400   21.5230 C   0  0  0  0  0  0
  -18.1953  -26.7960   22.1639 C   0  0  0  0  0  0
  -19.1557  -28.8888   23.2883 C   0  0  0  0  0  0
  -18.9471  -30.1491   23.8896 C   0  0  0  0  0  0
  -17.6463  -30.6604   24.0570 C   0  0  0  0  0  0
  -25.9068  -34.9458   23.5071 C   0  0  0  0  0  0
  -16.5360  -29.9095   23.6335 C   0  0  0  0  0  0
  -16.7290  -28.6529   23.0331 C   0  0  0  0  0  0
  -26.4502  -31.6629   25.0724 C   0  0  0  0  0  0
  -25.3688  -31.3785   26.1401 C   0  0  0  0  0  0
  -27.0380  -30.3042   24.6278 C   0  0  0  0  0  0
  -27.6056  -32.4384   25.7487 C   0  0  0  0  0  0
  -27.5596  -37.1793   24.8466 C   0  0  0  0  0  0
  -21.4220  -29.3071   22.3638 N   0  0  0  0  0  0
  -26.4326  -37.3760   23.9384 N   0  0  0  0  0  0
  -24.6978  -31.0545   22.0976 N   0  0  0  0  0  0
  -23.4219  -28.8179   23.2976 O   0  0  0  0  0  0
  -28.3078  -26.3657   20.1762 O   0  0  0  0  0  0
  -26.5608  -34.8919   22.4621 O   0  0  0  0  0  0
  -23.5454  -32.1462   23.7234 O   0  0  0  0  0  0
  -27.7907  -17.7621   18.6796 C   0  0  0  0  0  0
  -28.5019  -16.7453   19.3397 C   0  0  0  0  0  0
  -29.7829  -18.4772   20.4719 C   0  0  0  0  0  0
  -28.0827  -19.1356   18.8613 C   0  0  0  0  0  0
  -29.0873  -19.5631   19.7833 C   0  0  0  0  0  0
  -29.5278  -17.0592   20.2490 C   0  0  0  0  0  0
  -30.7002  -21.3514   19.3988 C   0  0  0  0  0  0
  -30.8646  -22.7327   18.7451 C   0  0  0  0  0  0
  -28.4989  -22.1958   20.0197 C   0  0  0  0  0  0
  -30.4409  -23.9186   19.6332 C   0  0  1  0  0  0
  -29.0511  -23.7045   20.2852 C   0  0  1  0  0  0
  -27.3301  -20.0934   17.9508 C   0  0  0  0  0  0
  -31.5201  -24.2781   20.6703 C   0  0  0  0  0  0
  -28.0394  -24.9100   19.9160 C   0  0  0  0  0  0
  -29.4727  -21.0155   19.8702 N   0  0  0  0  0  0
  -30.2311  -15.9642   20.9427 N   0  0  0  0  0  0
  -31.6789  -20.5982   19.4287 O   0  0  0  0  0  0
  -31.4406  -12.5154   19.2081 H   0  0  0  0  0  0
  -30.2575  -11.5530   20.0353 H   0  0  0  0  0  0
  -29.6409  -11.5561   17.6822 H   0  0  0  0  0  0
  -29.8658  -13.2741   17.5303 H   0  0  0  0  0  0
  -27.4095  -11.9734   18.0275 H   0  0  0  0  0  0
  -27.7027  -13.6887   18.0614 H   0  0  0  0  0  0
  -28.0146  -11.7483   20.2204 H   0  0  0  0  0  0
  -28.7751  -12.8643   21.9066 H   0  0  0  0  0  0
  -28.2530  -14.4017   21.2953 H   0  0  0  0  0  0
  -25.2426   -9.5621   22.4828 H   0  0  0  0  0  0
  -23.9845   -7.4444   22.7344 H   0  0  0  0  0  0
  -21.0628   -8.8525   19.8854 H   0  0  0  0  0  0
  -22.3294  -10.9572   19.6239 H   0  0  0  0  0  0
  -21.1928   -7.6101   23.9669 H   0  0  0  0  0  0
  -21.1494   -6.0540   25.9072 H   0  0  0  0  0  0
  -22.0637   -2.7582   23.2908 H   0  0  0  0  0  0
  -22.3942  -12.0175   22.4742 H   0  0  0  0  0  0
  -21.1153  -13.1755   22.2489 H   0  0  0  0  0  0
  -24.8066  -15.8087   20.4822 H   0  0  0  0  0  0
  -26.4265  -15.5111   20.1108 H   0  0  0  0  0  0
  -26.7208  -32.5447   23.1068 H   0  0  0  0  0  0
  -25.0160  -33.9758   25.0437 H   0  0  0  0  0  0
  -22.7261  -31.3048   21.3935 H   0  0  0  0  0  0
  -23.3791  -35.9584   23.3309 H   0  0  0  0  0  0
  -24.3597  -36.8888   22.2055 H   0  0  0  0  0  0
  -23.7240  -37.6461   23.6666 H   0  0  0  0  0  0
  -26.1342  -31.5390   20.6297 H   0  0  0  0  0  0
  -26.8498  -30.8042   22.0305 H   0  0  0  0  0  0
  -28.1182  -28.9175   21.2174 H   0  0  0  0  0  0
  -25.9383  -25.9379   18.9591 H   0  0  0  0  0  0
  -23.9759  -27.3391   18.9731 H   0  0  0  0  0  0
  -23.7823  -30.6097   19.4064 H   0  0  0  0  0  0
  -22.7723  -29.2613   19.8409 H   0  0  0  0  0  0
  -25.1341  -36.1921   25.0805 H   0  0  0  0  0  0
  -21.0017  -28.3301   24.1375 H   0  0  0  0  0  0
  -20.5751  -26.2317   23.3605 H   0  0  0  0  0  0
  -21.6668  -26.7488   22.1162 H   0  0  0  0  0  0
  -19.6930  -25.6300   21.1277 H   0  0  0  0  0  0
  -19.6719  -27.3195   20.6743 H   0  0  0  0  0  0
  -17.4220  -26.6711   21.4043 H   0  0  0  0  0  0
  -18.0345  -26.0122   22.9054 H   0  0  0  0  0  0
  -19.7937  -30.7336   24.2244 H   0  0  0  0  0  0
  -17.5002  -31.6274   24.5186 H   0  0  0  0  0  0
  -15.5356  -30.2984   23.7666 H   0  0  0  0  0  0
  -15.8705  -28.0862   22.6994 H   0  0  0  0  0  0
  -24.5845  -30.7190   25.7659 H   0  0  0  0  0  0
  -24.8903  -32.2965   26.4828 H   0  0  0  0  0  0
  -25.7946  -30.8910   27.0178 H   0  0  0  0  0  0
  -26.2971  -29.6708   24.1380 H   0  0  0  0  0  0
  -27.4119  -29.7395   25.4834 H   0  0  0  0  0  0
  -27.8831  -30.4312   23.9506 H   0  0  0  0  0  0
  -27.2671  -33.3679   26.2078 H   0  0  0  0  0  0
  -28.3839  -32.6966   25.0292 H   0  0  0  0  0  0
  -28.0759  -31.8514   26.5384 H   0  0  0  0  0  0
  -28.2605  -38.0094   24.7502 H   0  0  0  0  0  0
  -28.1097  -36.2617   24.6327 H   0  0  0  0  0  0
  -27.2292  -37.1462   25.8863 H   0  0  0  0  0  0
  -20.9386  -29.8787   21.6861 H   0  0  0  0  0  0
  -26.0210  -38.2843   24.1355 H   0  0  0  0  0  0
  -27.0161  -17.4658   17.9838 H   0  0  0  0  0  0
  -28.2472  -15.7180   19.1273 H   0  0  0  0  0  0
  -30.5661  -18.7477   21.1654 H   0  0  0  0  0  0
  -30.2570  -22.7301   17.8399 H   0  0  0  0  0  0
  -31.8925  -22.8601   18.4020 H   0  0  0  0  0  0
  -27.9182  -22.2817   19.1077 H   0  0  0  0  0  0
  -27.7768  -21.9407   20.7973 H   0  0  0  0  0  0
  -30.3626  -24.7793   18.9660 H   0  0  0  0  0  0
  -29.1877  -23.7675   21.3653 H   0  0  0  0  0  0
  -26.5292  -20.5886   18.5007 H   0  0  0  0  0  0
  -26.8753  -19.5734   17.1063 H   0  0  0  0  0  0
  -27.9990  -20.8358   17.5152 H   0  0  0  0  0  0
  -31.6958  -23.4666   21.3762 H   0  0  0  0  0  0
  -31.2284  -25.1602   21.2426 H   0  0  0  0  0  0
  -32.4740  -24.5126   20.1963 H   0  0  0  0  0  0
  -27.1066  -24.6575   20.4217 H   0  0  0  0  0  0
  -27.8395  -24.8205   18.8483 H   0  0  0  0  0  0
  -30.9258  -16.3560   21.5632 H   0  0  0  0  0  0
  1 25  1  0  0  0
  1 30  2  0  0  0
  1 86  1  0  0  0
  2  3  1  0  0  0
  2 25  1  0  0  0
  2 88  1  0  0  0
  2 89  1  0  0  0
  3  4  1  0  0  0
  3 90  1  0  0  0
  3 91  1  0  0  0
  4  5  1  0  0  0
  4 92  1  0  0  0
  4 93  1  0  0  0
  5  6  1  0  0  0
  5 26  1  0  0  0
  5 94  1  0  0  0
  6 25  1  0  0  0
  6 95  1  0  0  0
  6 96  1  0  0  0
  7  8  2  0  0  0
  7 26  1  0  0  0
  7 29  1  0  0  0
  8  9  1  0  0  0
  8 22  1  0  0  0
  9 10  1  0  0  0
  9 27  2  0  0  0
 10 11  2  0  0  0
 10 15  1  0  0  0
 11 12  1  0  0  0
 11 97  1  0  0  0
 12 13  2  0  0  0
 12 98  1  0  0  0
 13 14  1  0  0  0
 13 31  1  0  0  0
 14 15  2  0  0  0
 14 99  1  0  0  0
 15100  1  0  0  0
 16 17  2  0  0  0
 16 21  1  0  0  0
 16 31  1  0  0  0
 17 18  1  0  0  0
 17101  1  0  0  0
 18 19  2  0  0  0
 18102  1  0  0  0
 19 20  1  0  0  0
 19 24  1  0  0  0
 20 21  2  0  0  0
 20103  1  0  0  0
 21 23  1  0  0  0
 22 28  1  0  0  0
 22 32  2  0  0  0
 26 27  1  0  0  0
 28104  1  0  0  0
 28105  1  0  0  0
 29106  1  0  0  0
 29107  1  0  0  0
 33 34  1  0  0  0
 33 66  1  0  0  0
 33 70  2  0  0  0
 34 36  1  0  0  0
 34 59  1  0  0  0
 34108  1  0  0  0
 35 44  2  0  0  0
 35 45  1  0  0  0
 35 68  1  0  0  0
 36 56  1  0  0  0
 36109  1  0  0  0
 37 39  1  0  0  0
 37 47  1  0  0  0
 37 66  1  0  0  0
 37110  1  0  0  0
 38 43  2  0  0  0
 38 46  1  0  0  0
 38 47  1  0  0  0
 39 64  1  0  0  0
 39 67  2  0  0  0
 40 52  1  0  0  0
 40 53  2  0  0  0
 40 58  1  0  0  0
 41111  1  0  0  0
 41112  1  0  0  0
 41113  1  0  0  0
 41 48  1  0  0  0
 42 43  1  0  0  0
 42 66  1  0  0  0
 42114  1  0  0  0
 42115  1  0  0  0
 43 44  1  0  0  0
 44116  1  0  0  0
 45 46  2  0  0  0
 45117  1  0  0  0
 46118  1  0  0  0
 47119  1  0  0  0
 47120  1  0  0  0
 48 56  1  0  0  0
 48 65  1  0  0  0
 48121  1  0  0  0
 49 50  1  0  0  0
 49 53  1  0  0  0
 49 64  1  0  0  0
 49122  1  0  0  0
 50 51  1  0  0  0
 50123  1  0  0  0
 50124  1  0  0  0
 51 52  1  0  0  0
 51125  1  0  0  0
 51126  1  0  0  0
 52127  1  0  0  0
 52128  1  0  0  0
 53 54  1  0  0  0
 54 55  2  0  0  0
 54129  1  0  0  0
 55 57  1  0  0  0
 55130  1  0  0  0
 56 69  2  0  0  0
 57 58  2  0  0  0
 57131  1  0  0  0
 58132  1  0  0  0
 59 60  1  0  0  0
 59 61  1  0  0  0
 59 62  1  0  0  0
 60133  1  0  0  0
 60134  1  0  0  0
 60135  1  0  0  0
 61136  1  0  0  0
 61137  1  0  0  0
 61138  1  0  0  0
 62139  1  0  0  0
 62140  1  0  0  0
 62141  1  0  0  0
 63 65  1  0  0  0
 63142  1  0  0  0
 63143  1  0  0  0
 63144  1  0  0  0
 64145  1  0  0  0
 65146  1  0  0  0
 68 84  1  0  0  0
 71 72  2  0  0  0
 71 74  1  0  0  0
 71147  1  0  0  0
 72 76  1  0  0  0
 72148  1  0  0  0
 73 75  1  0  0  0
 73 76  2  0  0  0
 73149  1  0  0  0
 74 75  2  0  0  0
 74 82  1  0  0  0
 75 85  1  0  0  0
 76 86  1  0  0  0
 77 78  1  0  0  0
 77 85  1  0  0  0
 77 87  2  0  0  0
 78 80  1  0  0  0
 78150  1  0  0  0
 78151  1  0  0  0
 79 81  1  0  0  0
 79 85  1  0  0  0
 79152  1  0  0  0
 79153  1  0  0  0
 80 81  1  0  0  0
 80 83  1  0  0  0
 80154  1  0  0  0
 81 84  1  0  0  0
 81155  1  0  0  0
 82156  1  0  0  0
 82157  1  0  0  0
 82158  1  0  0  0
 83159  1  0  0  0
 83160  1  0  0  0
 83161  1  0  0  0
 84162  1  0  0  0
 84163  1  0  0  0
 86164  1  0  0  0
M  ISO  4   1 100  68 101  84 101  86 100
M  END
> <chiral flag>
0

> <version>
0

> <s_m_source_file>
/data/baiqing/PycharmProjects/Reinvent-master-3.2/result/LINK_invent/BTK/process_docking_weight1_custom_product_contain_oxygen_bond_distance_aromatic_linkinvent_7_9_3/rearranged_h_0061.sdf

> <i_m_source_file_index>
21

> <r_mmod_Potential_Energy-OPLS-2005>
498.228820800781

> <r_mmod_Stretch_Energy-OPLS-2005>
130.502456665039

> <r_mmod_Bend_Energy-OPLS-2005>
224.701507568359

> <r_mmod_Torsional_Energy-OPLS-2005>
362.06396484375

> <r_mmod_Improper_Torsional_Energy-OPLS-2005>
6.95857191085815

> <r_mmod_Van_der_Waal_Energy-OPLS-2005>
165.226715087891

> <r_mmod_Electrostatic_Energy-OPLS-2005>
-334.091461181641

> <r_mmod_Solvation_Energy-OPLS-2005>
-212.893447875977

> <b_mmod_Minimization_Converged-OPLS-2005>
0

> <r_mmod_RMS_Derivative-OPLS-2005>
3.72926783561707

$$$$
21
                    3D
 Structure written by MMmdl.
158166  0  0  1  0            999 V2000
  -30.7139  -14.6260   20.4860 C   0  0  0  0  0  0
  -30.4070  -12.3883   19.4515 C   0  0  0  0  0  0
  -29.4849  -12.4981   18.2183 C   0  0  0  0  0  0
  -28.0159  -12.3365   18.6456 C   0  0  0  0  0  0
  -27.6452  -13.2310   19.8580 C   0  0  2  0  0  0
  -28.6965  -13.1489   20.9903 C   0  0  0  0  0  0
  -25.2497  -13.8190   20.5683 C   0  0  0  0  0  0
  -24.1814  -13.0460   20.9190 C   0  0  0  0  0  0
  -24.6413  -11.6919   20.8778 C   0  0  0  0  0  0
  -23.9100  -10.4309   21.0431 C   0  0  0  0  0  0
  -24.3628   -9.4217   21.9217 C   0  0  0  0  0  0
  -23.6292   -8.2263   22.0784 C   0  0  0  0  0  0
  -22.4290   -8.0292   21.3549 C   0  0  0  0  0  0
  -21.9956   -9.0267   20.4634 C   0  0  0  0  0  0
  -22.7303  -10.2132   20.3051 C   0  0  0  0  0  0
  -21.6850   -6.0747   22.5282 C   0  0  0  0  0  0
  -21.4012   -6.5645   23.8211 C   0  0  0  0  0  0
  -21.3652   -5.6809   24.9173 C   0  0  0  0  0  0
  -21.6039   -4.3077   24.7236 C   0  0  0  0  0  0
  -21.8815   -3.8158   23.4361 C   0  0  0  0  0  0
  -21.9190   -4.6973   22.3408 C   0  0  0  0  0  0
  -22.7807  -13.5203   21.1844 C   0  0  0  0  0  0
  -22.1663   -4.2155   21.0989 F   0  0  0  0  0  0
  -21.5623   -3.4560   25.7744 F   0  0  0  0  0  0
  -30.0074  -13.4497   20.4031 N   0  0  0  0  0  0
  -26.2970  -12.9429   20.3375 N   0  0  0  0  0  0
  -25.9347  -11.6571   20.5834 N   0  0  0  0  0  0
  -22.0437  -12.8159   22.0346 N   0  0  0  0  0  0
  -25.4204  -15.1920   20.3992 N   0  0  0  0  0  0
  -31.8762  -14.6543   20.0793 O   0  0  0  0  0  0
  -21.6644   -6.8895   21.4249 O   0  0  0  0  0  0
  -22.3496  -14.5547   20.6712 O   0  0  0  0  0  0
  -24.6281  -31.8562   23.2020 C   0  0  0  0  0  0
  -25.9124  -32.4741   23.8347 C   0  0  1  0  0  0
  -27.2330  -27.3348   20.1346 C   0  0  0  0  0  0
  -25.5945  -33.8541   24.2261 N   0  0  0  0  0  0
  -23.4208  -30.4780   21.5441 C   0  0  2  0  0  0
  -24.8728  -28.9298   20.1239 C   0  0  0  0  0  0
  -22.7477  -29.4589   22.4932 C   0  0  0  0  0  0
  -18.0266  -28.1372   22.8472 C   0  0  0  0  0  0
  -24.1431  -36.7131   23.2658 C   0  0  0  0  0  0
  -25.9626  -30.8014   21.3676 C   0  0  0  0  0  0
  -26.0436  -29.4315   20.7069 C   0  0  0  0  0  0
  -27.2363  -28.6504   20.6836 C   0  0  0  0  0  0
  -26.0340  -26.8590   19.5687 C   0  0  0  0  0  0
  -24.8631  -27.6426   19.5590 C   0  0  0  0  0  0
  -23.6404  -29.8088   20.1614 C   0  0  0  0  0  0
  -25.4079  -36.3008   24.0358 C   0  0  1  0  0  0
  -20.5889  -28.3663   23.1243 C   0  0  2  0  0  0
  -20.6722  -26.9361   22.5408 C   0  0  0  0  0  0
  -19.5683  -26.6337   21.5212 C   0  0  0  0  0  0
  -18.1866  -26.7909   22.1616 C   0  0  0  0  0  0
  -19.1543  -28.8841   23.2827 C   0  0  0  0  0  0
  -18.9486  -30.1449   23.8837 C   0  0  0  0  0  0
  -17.6500  -30.6590   24.0549 C   0  0  0  0  0  0
  -25.9056  -34.9415   23.5098 C   0  0  0  0  0  0
  -16.5376  -29.9062   23.6432 C   0  0  0  0  0  0
  -16.7260  -28.6489   23.0439 C   0  0  0  0  0  0
  -26.4538  -31.6595   25.0752 C   0  0  0  0  0  0
  -25.3771  -31.3776   26.1498 C   0  0  0  0  0  0
  -27.0389  -30.3016   24.6233 C   0  0  0  0  0  0
  -27.6122  -32.4322   25.7501 C   0  0  0  0  0  0
  -27.5513  -37.1721   24.8484 C   0  0  0  0  0  0
  -21.4211  -29.2972   22.3625 N   0  0  0  0  0  0
  -26.4204  -37.3754   23.9489 N   0  0  0  0  0  0
  -24.6886  -31.0599   22.0945 N   0  0  0  0  0  0
  -23.4193  -28.8165   23.3042 O   0  0  0  0  0  0
  -28.3497  -26.4949   20.1184 O   0  0  0  0  0  0
  -26.5627  -34.8893   22.4658 O   0  0  0  0  0  0
  -23.5462  -32.1369   23.7373 O   0  0  0  0  0  0
  -32.5357  -18.6617   21.0755 C   0  0  0  0  0  0
  -31.9782  -17.3767   21.0547 C   0  0  0  0  0  0
  -29.7692  -18.3726   20.7987 C   0  0  0  0  0  0
  -31.7403  -19.8199   20.9612 C   0  0  0  0  0  0
  -30.5880  -17.1736   20.8740 C   0  0  0  0  0  0
  -30.3186  -19.7145   20.8479 C   0  0  0  0  0  0
  -28.6545  -23.9017   20.4979 C   0  0  0  0  0  0
  -27.9131  -22.7546   20.6348 C   0  0  0  0  0  0
  -28.4333  -21.4040   20.2321 C   0  0  0  0  0  0
  -32.4881  -21.1477   20.9485 C   0  0  0  0  0  0
  -26.4899  -22.8231   21.2091 C   0  0  0  0  0  0
  -28.3122  -25.3422   21.0298 C   0  0  0  0  0  0
  -29.5447  -20.9719   20.9014 N   0  0  0  0  0  0
  -30.0569  -15.7939   20.8181 N   0  0  0  0  0  0
  -27.8861  -20.7013   19.3747 O   0  0  0  0  0  0
  -31.4510  -12.4555   19.1420 H   0  0  0  0  0  0
  -30.3036  -11.4067   19.9144 H   0  0  0  0  0  0
  -29.7422  -11.7335   17.4833 H   0  0  0  0  0  0
  -29.6236  -13.4615   17.7260 H   0  0  0  0  0  0
  -27.8632  -11.2864   18.8966 H   0  0  0  0  0  0
  -27.3508  -12.5419   17.8059 H   0  0  0  0  0  0
  -27.6491  -14.2583   19.4904 H   0  0  0  0  0  0
  -28.7053  -12.1535   21.4348 H   0  0  0  0  0  0
  -28.4542  -13.8409   21.7980 H   0  0  0  0  0  0
  -25.2758   -9.5686   22.4828 H   0  0  0  0  0  0
  -23.9983   -7.4652   22.7516 H   0  0  0  0  0  0
  -21.0915   -8.8785   19.8897 H   0  0  0  0  0  0
  -22.3805  -10.9672   19.6138 H   0  0  0  0  0  0
  -21.2009   -7.6153   23.9718 H   0  0  0  0  0  0
  -21.1469   -6.0538   25.9071 H   0  0  0  0  0  0
  -22.0594   -2.7623   23.2859 H   0  0  0  0  0  0
  -22.4035  -11.9762   22.4652 H   0  0  0  0  0  0
  -21.1033  -13.1114   22.2514 H   0  0  0  0  0  0
  -24.6445  -15.8409   20.4618 H   0  0  0  0  0  0
  -26.2658  -15.6262   20.0550 H   0  0  0  0  0  0
  -26.7209  -32.5448   23.1125 H   0  0  0  0  0  0
  -25.0131  -33.9691   25.0427 H   0  0  0  0  0  0
  -22.7144  -31.2976   21.3916 H   0  0  0  0  0  0
  -23.3830  -35.9309   23.3211 H   0  0  0  0  0  0
  -24.3499  -36.8887   22.2083 H   0  0  0  0  0  0
  -23.7007  -37.6201   23.6789 H   0  0  0  0  0  0
  -26.0986  -31.5800   20.6156 H   0  0  0  0  0  0
  -26.8361  -30.8366   22.0063 H   0  0  0  0  0  0
  -28.1466  -29.0397   21.1183 H   0  0  0  0  0  0
  -25.9969  -25.8563   19.1659 H   0  0  0  0  0  0
  -23.9540  -27.2327   19.1390 H   0  0  0  0  0  0
  -23.7603  -30.5831   19.4006 H   0  0  0  0  0  0
  -22.7630  -29.2342   19.8553 H   0  0  0  0  0  0
  -25.1246  -36.1805   25.0854 H   0  0  0  0  0  0
  -20.9948  -28.3233   24.1375 H   0  0  0  0  0  0
  -20.5591  -26.2260   23.3619 H   0  0  0  0  0  0
  -21.6571  -26.7306   22.1200 H   0  0  0  0  0  0
  -19.6832  -25.6249   21.1227 H   0  0  0  0  0  0
  -19.6671  -27.3144   20.6755 H   0  0  0  0  0  0
  -17.4133  -26.6723   21.4011 H   0  0  0  0  0  0
  -18.0201  -26.0052   22.9002 H   0  0  0  0  0  0
  -19.7998  -30.7247   24.2144 H   0  0  0  0  0  0
  -17.5091  -31.6289   24.5099 H   0  0  0  0  0  0
  -15.5380  -30.2938   23.7849 H   0  0  0  0  0  0
  -15.8652  -28.0776   22.7263 H   0  0  0  0  0  0
  -24.5780  -30.7373   25.7762 H   0  0  0  0  0  0
  -24.9219  -32.3002   26.5122 H   0  0  0  0  0  0
  -25.8032  -30.8695   27.0162 H   0  0  0  0  0  0
  -26.2938  -29.6701   24.1394 H   0  0  0  0  0  0
  -27.4230  -29.7386   25.4754 H   0  0  0  0  0  0
  -27.8762  -30.4301   23.9367 H   0  0  0  0  0  0
  -27.2868  -33.3863   26.1665 H   0  0  0  0  0  0
  -28.4152  -32.6424   25.0417 H   0  0  0  0  0  0
  -28.0473  -31.8639   26.5739 H   0  0  0  0  0  0
  -28.2491  -38.0042   24.7562 H   0  0  0  0  0  0
  -28.1027  -36.2572   24.6265 H   0  0  0  0  0  0
  -27.2225  -37.1305   25.8876 H   0  0  0  0  0  0
  -20.9414  -29.8630   21.6779 H   0  0  0  0  0  0
  -26.0048  -38.2777   24.1660 H   0  0  0  0  0  0
  -33.6075  -18.7479   21.1813 H   0  0  0  0  0  0
  -32.6722  -16.5581   21.1790 H   0  0  0  0  0  0
  -28.6967  -18.2654   20.7165 H   0  0  0  0  0  0
  -29.6178  -23.8132   20.0114 H   0  0  0  0  0  0
  -33.4599  -21.0077   20.4654 H   0  0  0  0  0  0
  -32.6913  -21.5096   21.9593 H   0  0  0  0  0  0
  -31.9683  -21.9255   20.3862 H   0  0  0  0  0  0
  -26.4800  -22.6136   22.2789 H   0  0  0  0  0  0
  -25.8052  -22.1295   20.7185 H   0  0  0  0  0  0
  -26.0411  -23.8071   21.0654 H   0  0  0  0  0  0
  -29.1050  -25.5330   21.7552 H   0  0  0  0  0  0
  -27.4042  -25.3490   21.6308 H   0  0  0  0  0  0
  -29.9316  -21.6902   21.5056 H   0  0  0  0  0  0
  -29.0687  -15.6971   20.9951 H   0  0  0  0  0  0
  1 25  1  0  0  0
  1 30  2  0  0  0
  1 84  1  0  0  0
  2  3  1  0  0  0
  2 25  1  0  0  0
  2 86  1  0  0  0
  2 87  1  0  0  0
  3  4  1  0  0  0
  3 88  1  0  0  0
  3 89  1  0  0  0
  4  5  1  0  0  0
  4 90  1  0  0  0
  4 91  1  0  0  0
  5  6  1  0  0  0
  5 26  1  0  0  0
  5 92  1  0  0  0
  6 25  1  0  0  0
  6 93  1  0  0  0
  6 94  1  0  0  0
  7  8  2  0  0  0
  7 26  1  0  0  0
  7 29  1  0  0  0
  8  9  1  0  0  0
  8 22  1  0  0  0
  9 10  1  0  0  0
  9 27  2  0  0  0
 10 11  2  0  0  0
 10 15  1  0  0  0
 11 12  1  0  0  0
 11 95  1  0  0  0
 12 13  2  0  0  0
 12 96  1  0  0  0
 13 14  1  0  0  0
 13 31  1  0  0  0
 14 15  2  0  0  0
 14 97  1  0  0  0
 15 98  1  0  0  0
 16 17  2  0  0  0
 16 21  1  0  0  0
 16 31  1  0  0  0
 17 18  1  0  0  0
 17 99  1  0  0  0
 18 19  2  0  0  0
 18100  1  0  0  0
 19 20  1  0  0  0
 19 24  1  0  0  0
 20 21  2  0  0  0
 20101  1  0  0  0
 21 23  1  0  0  0
 22 28  1  0  0  0
 22 32  2  0  0  0
 26 27  1  0  0  0
 28102  1  0  0  0
 28103  1  0  0  0
 29104  1  0  0  0
 29105  1  0  0  0
 33 34  1  0  0  0
 33 66  1  0  0  0
 33 70  2  0  0  0
 34 36  1  0  0  0
 34 59  1  0  0  0
 34106  1  0  0  0
 35 44  2  0  0  0
 35 45  1  0  0  0
 35 68  1  0  0  0
 36 56  1  0  0  0
 36107  1  0  0  0
 37 39  1  0  0  0
 37 47  1  0  0  0
 37 66  1  0  0  0
 37108  1  0  0  0
 38 43  2  0  0  0
 38 46  1  0  0  0
 38 47  1  0  0  0
 39 64  1  0  0  0
 39 67  2  0  0  0
 40 52  1  0  0  0
 40 53  2  0  0  0
 40 58  1  0  0  0
 41109  1  0  0  0
 41110  1  0  0  0
 41111  1  0  0  0
 41 48  1  0  0  0
 42 43  1  0  0  0
 42 66  1  0  0  0
 42112  1  0  0  0
 42113  1  0  0  0
 43 44  1  0  0  0
 44114  1  0  0  0
 45 46  2  0  0  0
 45115  1  0  0  0
 46116  1  0  0  0
 47117  1  0  0  0
 47118  1  0  0  0
 48 56  1  0  0  0
 48 65  1  0  0  0
 48119  1  0  0  0
 49 50  1  0  0  0
 49 53  1  0  0  0
 49 64  1  0  0  0
 49120  1  0  0  0
 50 51  1  0  0  0
 50121  1  0  0  0
 50122  1  0  0  0
 51 52  1  0  0  0
 51123  1  0  0  0
 51124  1  0  0  0
 52125  1  0  0  0
 52126  1  0  0  0
 53 54  1  0  0  0
 54 55  2  0  0  0
 54127  1  0  0  0
 55 57  1  0  0  0
 55128  1  0  0  0
 56 69  2  0  0  0
 57 58  2  0  0  0
 57129  1  0  0  0
 58130  1  0  0  0
 59 60  1  0  0  0
 59 61  1  0  0  0
 59 62  1  0  0  0
 60131  1  0  0  0
 60132  1  0  0  0
 60133  1  0  0  0
 61134  1  0  0  0
 61135  1  0  0  0
 61136  1  0  0  0
 62137  1  0  0  0
 62138  1  0  0  0
 62139  1  0  0  0
 63 65  1  0  0  0
 63140  1  0  0  0
 63141  1  0  0  0
 63142  1  0  0  0
 64143  1  0  0  0
 65144  1  0  0  0
 68 82  1  0  0  0
 71 72  2  0  0  0
 71 74  1  0  0  0
 71145  1  0  0  0
 72 75  1  0  0  0
 72146  1  0  0  0
 73 75  2  0  0  0
 73 76  1  0  0  0
 73147  1  0  0  0
 74 76  2  0  0  0
 74 80  1  0  0  0
 75 84  1  0  0  0
 76 83  1  0  0  0
 77 78  2  0  0  0
 77 82  1  0  0  0
 77148  1  0  0  0
 78 79  1  0  0  0
 78 81  1  0  0  0
 79 83  1  0  0  0
 79 85  2  0  0  0
 80149  1  0  0  0
 80150  1  0  0  0
 80151  1  0  0  0
 81152  1  0  0  0
 81153  1  0  0  0
 81154  1  0  0  0
 82155  1  0  0  0
 82156  1  0  0  0
 83157  1  0  0  0
 84158  1  0  0  0
M  ISO  4   1 100  68 101  82 101  84 100
M  END
> <chiral flag>
0

> <version>
0

> <s_m_source_file>
/data/baiqing/PycharmProjects/Reinvent-master-3.2/result/LINK_invent/BTK/process_docking_weight1_custom_product_contain_oxygen_bond_distance_aromatic_linkinvent_7_9_3/rearranged_h_0061.sdf

> <i_m_source_file_index>
22

> <r_mmod_Potential_Energy-OPLS-2005>
65.1701049804688

> <r_mmod_Stretch_Energy-OPLS-2005>
92.7513580322266

> <r_mmod_Bend_Energy-OPLS-2005>
146.066970825195

> <r_mmod_Torsional_Energy-OPLS-2005>
272.543212890625

> <r_mmod_Improper_Torsional_Energy-OPLS-2005>
5.54337167739868

> <r_mmod_Van_der_Waal_Energy-OPLS-2005>
148.060134887695

> <r_mmod_Electrostatic_Energy-OPLS-2005>
-423.774475097656

> <r_mmod_Solvation_Energy-OPLS-2005>
-223.448486328125

> <b_mmod_Minimization_Converged-OPLS-2005>
0

> <r_mmod_RMS_Derivative-OPLS-2005>
7.80102968215942

$$$$
22
                    3D
 Structure written by MMmdl.
161170  0  0  1  0            999 V2000
  -30.6601  -14.7244   20.4500 C   0  0  0  0  0  0
  -30.4283  -12.4447   19.4504 C   0  0  0  0  0  0
  -29.5014  -12.4919   18.2182 C   0  0  0  0  0  0
  -28.0251  -12.3238   18.6339 C   0  0  0  0  0  0
  -27.6367  -13.2346   19.8312 C   0  0  2  0  0  0
  -28.6933  -13.1876   20.9568 C   0  0  0  0  0  0
  -25.2468  -13.8237   20.5642 C   0  0  0  0  0  0
  -24.1735  -13.0459   20.9216 C   0  0  0  0  0  0
  -24.6358  -11.6973   20.8746 C   0  0  0  0  0  0
  -23.9027  -10.4324   21.0355 C   0  0  0  0  0  0
  -24.3582   -9.4253   21.9125 C   0  0  0  0  0  0
  -23.6286   -8.2267   22.0704 C   0  0  0  0  0  0
  -22.4267   -8.0270   21.3508 C   0  0  0  0  0  0
  -21.9870   -9.0242   20.4622 C   0  0  0  0  0  0
  -22.7183  -10.2144   20.3032 C   0  0  0  0  0  0
  -21.6868   -6.0689   22.5248 C   0  0  0  0  0  0
  -21.4039   -6.5592   23.8185 C   0  0  0  0  0  0
  -21.3677   -5.6754   24.9148 C   0  0  0  0  0  0
  -21.6028   -4.3016   24.7191 C   0  0  0  0  0  0
  -21.8833   -3.8104   23.4328 C   0  0  0  0  0  0
  -21.9211   -4.6910   22.3384 C   0  0  0  0  0  0
  -22.7767  -13.5240   21.1851 C   0  0  0  0  0  0
  -22.1663   -4.2114   21.0938 F   0  0  0  0  0  0
  -21.5643   -3.4500   25.7691 F   0  0  0  0  0  0
  -29.9919  -13.5247   20.3599 N   0  0  0  0  0  0
  -26.2895  -12.9444   20.3203 N   0  0  0  0  0  0
  -25.9291  -11.6608   20.5749 N   0  0  0  0  0  0
  -22.0381  -12.8290   22.0450 N   0  0  0  0  0  0
  -25.4079  -15.1949   20.3982 N   0  0  0  0  0  0
  -31.8677  -14.7738   20.2096 O   0  0  0  0  0  0
  -21.6669   -6.8834   21.4200 O   0  0  0  0  0  0
  -22.3447  -14.5483   20.6609 O   0  0  0  0  0  0
  -24.6288  -31.8506   23.1979 C   0  0  0  0  0  0
  -25.9103  -32.4758   23.8278 C   0  0  1  0  0  0
  -27.2473  -27.2785   20.1486 C   0  0  0  0  0  0
  -25.5904  -33.8549   24.2229 N   0  0  0  0  0  0
  -23.4284  -30.4652   21.5404 C   0  0  2  0  0  0
  -24.8871  -28.8977   20.1284 C   0  0  0  0  0  0
  -22.7455  -29.4581   22.4942 C   0  0  0  0  0  0
  -18.0245  -28.1383   22.8518 C   0  0  0  0  0  0
  -24.1484  -36.7309   23.2633 C   0  0  0  0  0  0
  -25.9688  -30.7675   21.3770 C   0  0  0  0  0  0
  -26.0521  -29.3846   20.7343 C   0  0  0  0  0  0
  -27.2365  -28.5859   20.7357 C   0  0  0  0  0  0
  -26.0651  -26.8462   19.5158 C   0  0  0  0  0  0
  -24.8972  -27.6370   19.5080 C   0  0  0  0  0  0
  -23.6530  -29.7778   20.1656 C   0  0  0  0  0  0
  -25.4130  -36.3108   24.0314 C   0  0  1  0  0  0
  -20.5836  -28.3720   23.1303 C   0  0  2  0  0  0
  -20.6760  -26.9437   22.5452 C   0  0  0  0  0  0
  -19.5751  -26.6403   21.5238 C   0  0  0  0  0  0
  -18.1915  -26.7929   22.1631 C   0  0  0  0  0  0
  -19.1494  -28.8864   23.2900 C   0  0  0  0  0  0
  -18.9430  -30.1454   23.8937 C   0  0  0  0  0  0
  -17.6439  -30.6617   24.0577 C   0  0  0  0  0  0
  -25.9071  -34.9450   23.5106 C   0  0  0  0  0  0
  -16.5319  -29.9119   23.6328 C   0  0  0  0  0  0
  -16.7226  -28.6507   23.0391 C   0  0  0  0  0  0
  -26.4484  -31.6580   25.0667 C   0  0  0  0  0  0
  -25.3719  -31.3734   26.1402 C   0  0  0  0  0  0
  -27.0301  -30.2995   24.6167 C   0  0  0  0  0  0
  -27.6037  -32.4315   25.7446 C   0  0  0  0  0  0
  -27.5599  -37.1824   24.8441 C   0  0  0  0  0  0
  -21.4166  -29.3056   22.3697 N   0  0  0  0  0  0
  -26.4310  -37.3821   23.9393 N   0  0  0  0  0  0
  -24.6948  -31.0431   22.0975 N   0  0  0  0  0  0
  -23.4148  -28.8130   23.3057 O   0  0  0  0  0  0
  -28.3704  -26.4305   20.1221 O   0  0  0  0  0  0
  -26.5650  -34.8916   22.4685 O   0  0  0  0  0  0
  -23.5450  -32.1274   23.7317 O   0  0  0  0  0  0
  -31.7873  -18.7553   22.1153 C   0  0  0  0  0  0
  -31.3687  -17.4712   21.7405 C   0  0  0  0  0  0
  -29.7279  -18.5016   20.2728 C   0  0  0  0  0  0
  -31.2045  -19.9303   21.5839 C   0  0  0  0  0  0
  -30.1218  -19.8678   20.6435 C   0  0  0  0  0  0
  -30.3359  -17.2855   20.8049 C   0  0  0  0  0  0
  -29.5752  -21.2296   18.6606 C   0  0  0  0  0  0
  -29.8416  -22.5900   17.9631 C   0  0  0  0  0  0
  -29.5805  -23.8963   18.7789 C   0  0  0  0  0  0
  -29.1563  -22.4070   20.7693 C   0  0  0  0  0  0
  -28.6068  -23.6897   19.9385 C   0  0  1  0  0  0
  -31.8619  -21.2217   22.0462 C   0  0  0  0  0  0
  -28.3079  -25.0706   20.7407 C   0  0  0  0  0  0
  -29.5643  -21.1295   20.0158 N   0  0  0  0  0  0
  -29.9158  -15.8944   20.5075 N   0  0  0  0  0  0
  -29.3892  -20.2558   17.9242 O   0  0  0  0  0  0
  -31.4709  -12.5458   19.1461 H   0  0  0  0  0  0
  -30.3590  -11.4805   19.9557 H   0  0  0  0  0  0
  -29.7792  -11.7171   17.5021 H   0  0  0  0  0  0
  -29.6209  -13.4453   17.7025 H   0  0  0  0  0  0
  -27.8730  -11.2769   18.8981 H   0  0  0  0  0  0
  -27.3672  -12.5103   17.7839 H   0  0  0  0  0  0
  -27.6196  -14.2506   19.4362 H   0  0  0  0  0  0
  -28.7282  -12.1929   21.4039 H   0  0  0  0  0  0
  -28.4351  -13.8797   21.7613 H   0  0  0  0  0  0
  -25.2715   -9.5760   22.4699 H   0  0  0  0  0  0
  -24.0008   -7.4659   22.7416 H   0  0  0  0  0  0
  -21.0789   -8.8733   19.8943 H   0  0  0  0  0  0
  -22.3574  -10.9654   19.6152 H   0  0  0  0  0  0
  -21.2039   -7.6106   23.9681 H   0  0  0  0  0  0
  -21.1485   -6.0460   25.9041 H   0  0  0  0  0  0
  -22.0612   -2.7565   23.2813 H   0  0  0  0  0  0
  -22.4011  -12.0091   22.5058 H   0  0  0  0  0  0
  -21.0948  -13.1260   22.2480 H   0  0  0  0  0  0
  -24.6217  -15.8329   20.4639 H   0  0  0  0  0  0
  -26.2303  -15.6301   19.9963 H   0  0  0  0  0  0
  -26.7150  -32.5442   23.0984 H   0  0  0  0  0  0
  -25.0016  -33.9628   25.0351 H   0  0  0  0  0  0
  -22.7322  -31.2918   21.3832 H   0  0  0  0  0  0
  -23.3767  -35.9617   23.3280 H   0  0  0  0  0  0
  -24.3570  -36.8990   22.2057 H   0  0  0  0  0  0
  -23.7196  -37.6497   23.6653 H   0  0  0  0  0  0
  -26.0853  -31.5235   20.5987 H   0  0  0  0  0  0
  -26.8503  -30.8367   22.0030 H   0  0  0  0  0  0
  -28.1286  -28.9550   21.2257 H   0  0  0  0  0  0
  -26.0475  -25.8842   19.0219 H   0  0  0  0  0  0
  -24.0071  -27.2601   19.0234 H   0  0  0  0  0  0
  -23.7699  -30.5324   19.3869 H   0  0  0  0  0  0
  -22.7792  -29.1918   19.8794 H   0  0  0  0  0  0
  -25.1324  -36.1994   25.0811 H   0  0  0  0  0  0
  -20.9876  -28.3287   24.1437 H   0  0  0  0  0  0
  -20.5681  -26.2300   23.3647 H   0  0  0  0  0  0
  -21.6636  -26.7506   22.1240 H   0  0  0  0  0  0
  -19.6922  -25.6308   21.1292 H   0  0  0  0  0  0
  -19.6705  -27.3183   20.6739 H   0  0  0  0  0  0
  -17.4205  -26.6664   21.4014 H   0  0  0  0  0  0
  -18.0319  -26.0041   22.8992 H   0  0  0  0  0  0
  -19.7907  -30.7254   24.2344 H   0  0  0  0  0  0
  -17.5005  -31.6309   24.5195 H   0  0  0  0  0  0
  -15.5328  -30.3081   23.7665 H   0  0  0  0  0  0
  -15.8588  -28.0865   22.7139 H   0  0  0  0  0  0
  -24.5793  -30.7226   25.7681 H   0  0  0  0  0  0
  -24.9017  -32.2935   26.4916 H   0  0  0  0  0  0
  -25.8025  -30.8782   27.0126 H   0  0  0  0  0  0
  -26.2850  -29.6779   24.1204 H   0  0  0  0  0  0
  -27.3960  -29.7263   25.4698 H   0  0  0  0  0  0
  -27.8742  -30.4236   23.9374 H   0  0  0  0  0  0
  -27.2577  -33.3522   26.2160 H   0  0  0  0  0  0
  -28.3763  -32.7092   25.0241 H   0  0  0  0  0  0
  -28.0788  -31.8382   26.5282 H   0  0  0  0  0  0
  -28.2650  -38.0104   24.7575 H   0  0  0  0  0  0
  -28.1100  -36.2679   24.6205 H   0  0  0  0  0  0
  -27.2314  -37.1392   25.8838 H   0  0  0  0  0  0
  -20.9340  -29.8775   21.6907 H   0  0  0  0  0  0
  -26.0227  -38.2915   24.1425 H   0  0  0  0  0  0
  -32.6028  -18.8200   22.8270 H   0  0  0  0  0  0
  -31.8634  -16.6265   22.1951 H   0  0  0  0  0  0
  -28.9531  -18.3766   19.5305 H   0  0  0  0  0  0
  -29.2705  -22.5990   17.0242 H   0  0  0  0  0  0
  -30.8940  -22.5648   17.6612 H   0  0  0  0  0  0
  -29.1763  -24.6799   18.1237 H   0  0  0  0  0  0
  -30.5172  -24.2989   19.1842 H   0  0  0  0  0  0
  -28.4094  -22.1328   21.5138 H   0  0  0  0  0  0
  -30.0028  -22.7722   21.3392 H   0  0  0  0  0  0
  -27.6490  -23.4025   19.4960 H   0  0  0  0  0  0
  -32.8222  -21.0199   22.5277 H   0  0  0  0  0  0
  -31.2422  -21.7226   22.7879 H   0  0  0  0  0  0
  -32.0706  -21.8794   21.2028 H   0  0  0  0  0  0
  -27.3510  -24.9652   21.2552 H   0  0  0  0  0  0
  -29.0372  -25.1255   21.5479 H   0  0  0  0  0  0
  -28.9266  -15.7613   20.3781 H   0  0  0  0  0  0
  1 25  1  0  0  0
  1 30  2  0  0  0
  1 85  1  0  0  0
  2  3  1  0  0  0
  2 25  1  0  0  0
  2 87  1  0  0  0
  2 88  1  0  0  0
  3  4  1  0  0  0
  3 89  1  0  0  0
  3 90  1  0  0  0
  4  5  1  0  0  0
  4 91  1  0  0  0
  4 92  1  0  0  0
  5  6  1  0  0  0
  5 26  1  0  0  0
  5 93  1  0  0  0
  6 25  1  0  0  0
  6 94  1  0  0  0
  6 95  1  0  0  0
  7  8  2  0  0  0
  7 26  1  0  0  0
  7 29  1  0  0  0
  8  9  1  0  0  0
  8 22  1  0  0  0
  9 10  1  0  0  0
  9 27  2  0  0  0
 10 11  2  0  0  0
 10 15  1  0  0  0
 11 12  1  0  0  0
 11 96  1  0  0  0
 12 13  2  0  0  0
 12 97  1  0  0  0
 13 14  1  0  0  0
 13 31  1  0  0  0
 14 15  2  0  0  0
 14 98  1  0  0  0
 15 99  1  0  0  0
 16 17  2  0  0  0
 16 21  1  0  0  0
 16 31  1  0  0  0
 17 18  1  0  0  0
 17100  1  0  0  0
 18 19  2  0  0  0
 18101  1  0  0  0
 19 20  1  0  0  0
 19 24  1  0  0  0
 20 21  2  0  0  0
 20102  1  0  0  0
 21 23  1  0  0  0
 22 28  1  0  0  0
 22 32  2  0  0  0
 26 27  1  0  0  0
 28103  1  0  0  0
 28104  1  0  0  0
 29105  1  0  0  0
 29106  1  0  0  0
 33 34  1  0  0  0
 33 66  1  0  0  0
 33 70  2  0  0  0
 34 36  1  0  0  0
 34 59  1  0  0  0
 34107  1  0  0  0
 35 44  2  0  0  0
 35 45  1  0  0  0
 35 68  1  0  0  0
 36 56  1  0  0  0
 36108  1  0  0  0
 37 39  1  0  0  0
 37 47  1  0  0  0
 37 66  1  0  0  0
 37109  1  0  0  0
 38 43  2  0  0  0
 38 46  1  0  0  0
 38 47  1  0  0  0
 39 64  1  0  0  0
 39 67  2  0  0  0
 40 52  1  0  0  0
 40 53  2  0  0  0
 40 58  1  0  0  0
 41110  1  0  0  0
 41111  1  0  0  0
 41112  1  0  0  0
 41 48  1  0  0  0
 42 43  1  0  0  0
 42 66  1  0  0  0
 42113  1  0  0  0
 42114  1  0  0  0
 43 44  1  0  0  0
 44115  1  0  0  0
 45 46  2  0  0  0
 45116  1  0  0  0
 46117  1  0  0  0
 47118  1  0  0  0
 47119  1  0  0  0
 48 56  1  0  0  0
 48 65  1  0  0  0
 48120  1  0  0  0
 49 50  1  0  0  0
 49 53  1  0  0  0
 49 64  1  0  0  0
 49121  1  0  0  0
 50 51  1  0  0  0
 50122  1  0  0  0
 50123  1  0  0  0
 51 52  1  0  0  0
 51124  1  0  0  0
 51125  1  0  0  0
 52126  1  0  0  0
 52127  1  0  0  0
 53 54  1  0  0  0
 54 55  2  0  0  0
 54128  1  0  0  0
 55 57  1  0  0  0
 55129  1  0  0  0
 56 69  2  0  0  0
 57 58  2  0  0  0
 57130  1  0  0  0
 58131  1  0  0  0
 59 60  1  0  0  0
 59 61  1  0  0  0
 59 62  1  0  0  0
 60132  1  0  0  0
 60133  1  0  0  0
 60134  1  0  0  0
 61135  1  0  0  0
 61136  1  0  0  0
 61137  1  0  0  0
 62138  1  0  0  0
 62139  1  0  0  0
 62140  1  0  0  0
 63 65  1  0  0  0
 63141  1  0  0  0
 63142  1  0  0  0
 63143  1  0  0  0
 64144  1  0  0  0
 65145  1  0  0  0
 68 83  1  0  0  0
 71 72  2  0  0  0
 71 74  1  0  0  0
 71146  1  0  0  0
 72 76  1  0  0  0
 72147  1  0  0  0
 73 75  1  0  0  0
 73 76  2  0  0  0
 73148  1  0  0  0
 74 75  2  0  0  0
 74 82  1  0  0  0
 75 84  1  0  0  0
 76 85  1  0  0  0
 77 78  1  0  0  0
 77 84  1  0  0  0
 77 86  2  0  0  0
 78 79  1  0  0  0
 78149  1  0  0  0
 78150  1  0  0  0
 79 81  1  0  0  0
 79151  1  0  0  0
 79152  1  0  0  0
 80 81  1  0  0  0
 80 84  1  0  0  0
 80153  1  0  0  0
 80154  1  0  0  0
 81 83  1  0  0  0
 81155  1  0  0  0
 82156  1  0  0  0
 82157  1  0  0  0
 82158  1  0  0  0
 83159  1  0  0  0
 83160  1  0  0  0
 85161  1  0  0  0
M  ISO  4   1 100  68 101  83 101  85 100
M  END
> <chiral flag>
0

> <version>
0

> <s_m_source_file>
/data/baiqing/PycharmProjects/Reinvent-master-3.2/result/LINK_invent/BTK/process_docking_weight1_custom_product_contain_oxygen_bond_distance_aromatic_linkinvent_7_9_3/rearranged_h_0061.sdf

> <i_m_source_file_index>
23

> <r_mmod_Potential_Energy-OPLS-2005>
318.340942382812

> <r_mmod_Stretch_Energy-OPLS-2005>
139.152084350586

> <r_mmod_Bend_Energy-OPLS-2005>
173.173645019531

> <r_mmod_Torsional_Energy-OPLS-2005>
338.375518798828

> <r_mmod_Improper_Torsional_Energy-OPLS-2005>
8.4428014755249

> <r_mmod_Van_der_Waal_Energy-OPLS-2005>
149.371109008789

> <r_mmod_Electrostatic_Energy-OPLS-2005>
-347.951721191406

> <r_mmod_Solvation_Energy-OPLS-2005>
-220.120315551758

> <b_mmod_Minimization_Converged-OPLS-2005>
0

> <r_mmod_RMS_Derivative-OPLS-2005>
6.59098815917969

$$$$
23
                    3D
 Structure written by MMmdl.
152160  0  0  1  0            999 V2000
  -30.7156  -14.5183   20.5484 C   0  0  0  0  0  0
  -30.4152  -12.3307   19.4372 C   0  0  0  0  0  0
  -29.4932  -12.4970   18.2130 C   0  0  0  0  0  0
  -28.0167  -12.3532   18.6279 C   0  0  0  0  0  0
  -27.6547  -13.2163   19.8667 C   0  0  2  0  0  0
  -28.6990  -13.0535   20.9947 C   0  0  0  0  0  0
  -25.2559  -13.8183   20.5687 C   0  0  0  0  0  0
  -24.1825  -13.0448   20.9192 C   0  0  0  0  0  0
  -24.6393  -11.6919   20.8745 C   0  0  0  0  0  0
  -23.9065  -10.4301   21.0407 C   0  0  0  0  0  0
  -24.3616   -9.4213   21.9183 C   0  0  0  0  0  0
  -23.6292   -8.2246   22.0753 C   0  0  0  0  0  0
  -22.4273   -8.0284   21.3545 C   0  0  0  0  0  0
  -21.9909   -9.0258   20.4646 C   0  0  0  0  0  0
  -22.7238  -10.2139   20.3056 C   0  0  0  0  0  0
  -21.6853   -6.0736   22.5279 C   0  0  0  0  0  0
  -21.4013   -6.5639   23.8213 C   0  0  0  0  0  0
  -21.3659   -5.6793   24.9175 C   0  0  0  0  0  0
  -21.6044   -4.3056   24.7227 C   0  0  0  0  0  0
  -21.8819   -3.8147   23.4347 C   0  0  0  0  0  0
  -21.9192   -4.6964   22.3401 C   0  0  0  0  0  0
  -22.7846  -13.5237   21.1853 C   0  0  0  0  0  0
  -22.1661   -4.2150   21.0979 F   0  0  0  0  0  0
  -21.5629   -3.4539   25.7738 F   0  0  0  0  0  0
  -30.0226  -13.3497   20.4269 N   0  0  0  0  0  0
  -26.2994  -12.9368   20.3348 N   0  0  0  0  0  0
  -25.9323  -11.6520   20.5778 N   0  0  0  0  0  0
  -22.0486  -12.8229   22.0407 N   0  0  0  0  0  0
  -25.4267  -15.1901   20.4078 N   0  0  0  0  0  0
  -31.8625  -14.6345   20.1082 O   0  0  0  0  0  0
  -21.6639   -6.8880   21.4241 O   0  0  0  0  0  0
  -22.3532  -14.5545   20.6703 O   0  0  0  0  0  0
  -24.6187  -31.8657   23.2087 C   0  0  0  0  0  0
  -25.9067  -32.4809   23.8389 C   0  0  1  0  0  0
  -27.2239  -27.3965   20.1059 C   0  0  0  0  0  0
  -25.5911  -33.8610   24.2317 N   0  0  0  0  0  0
  -23.4087  -30.4899   21.5498 C   0  0  2  0  0  0
  -24.8558  -28.9571   20.1097 C   0  0  0  0  0  0
  -22.7434  -29.4646   22.4973 C   0  0  0  0  0  0
  -18.0273  -28.1376   22.8483 C   0  0  0  0  0  0
  -24.1489  -36.7308   23.2639 C   0  0  0  0  0  0
  -25.9425  -30.8206   21.3686 C   0  0  0  0  0  0
  -26.0199  -29.4543   20.7109 C   0  0  0  0  0  0
  -27.2112  -28.6832   20.7035 C   0  0  0  0  0  0
  -26.0475  -26.9363   19.4754 C   0  0  0  0  0  0
  -24.8666  -27.6995   19.4850 C   0  0  0  0  0  0
  -23.6194  -29.8270   20.1627 C   0  0  0  0  0  0
  -25.4110  -36.3104   24.0334 C   0  0  1  0  0  0
  -20.5868  -28.3669   23.1303 C   0  0  2  0  0  0
  -20.6767  -26.9403   22.5413 C   0  0  0  0  0  0
  -19.5746  -26.6383   21.5206 C   0  0  0  0  0  0
  -18.1922  -26.7917   22.1620 C   0  0  0  0  0  0
  -19.1523  -28.8839   23.2888 C   0  0  0  0  0  0
  -18.9454  -30.1446   23.8903 C   0  0  0  0  0  0
  -17.6458  -30.6585   24.0563 C   0  0  0  0  0  0
  -25.9039  -34.9469   23.5121 C   0  0  0  0  0  0
  -16.5348  -29.9087   23.6331 C   0  0  0  0  0  0
  -16.7264  -28.6502   23.0349 C   0  0  0  0  0  0
  -26.4481  -31.6596   25.0728 C   0  0  0  0  0  0
  -25.3738  -31.3713   26.1473 C   0  0  0  0  0  0
  -27.0311  -30.3033   24.6122 C   0  0  0  0  0  0
  -27.6055  -32.4318   25.7489 C   0  0  0  0  0  0
  -27.5581  -37.1808   24.8465 C   0  0  0  0  0  0
  -21.4158  -29.3034   22.3715 N   0  0  0  0  0  0
  -26.4294  -37.3791   23.9409 N   0  0  0  0  0  0
  -24.6751  -31.0730   22.1004 N   0  0  0  0  0  0
  -23.4191  -28.8183   23.3024 O   0  0  0  0  0  0
  -28.3367  -26.5716   20.1475 O   0  0  0  0  0  0
  -26.5606  -34.8927   22.4685 O   0  0  0  0  0  0
  -23.5372  -32.1427   23.7460 O   0  0  0  0  0  0
  -32.3678  -18.3905   21.9799 C   0  0  0  0  0  0
  -31.6099  -19.5334   21.6736 C   0  0  0  0  0  0
  -31.8456  -17.1063   21.7531 C   0  0  0  0  0  0
  -29.7795  -18.1055   20.9275 C   0  0  0  0  0  0
  -30.3067  -19.4204   21.1314 C   0  0  0  0  0  0
  -30.5508  -16.9339   21.2097 C   0  0  0  0  0  0
  -28.8785  -22.8832   20.6996 C   0  0  0  0  0  0
  -29.1425  -24.2192   20.6644 C   0  0  0  0  0  0
  -29.9359  -21.8697   20.6081 C   0  0  0  0  0  0
  -28.0903  -25.3219   20.8467 C   0  0  0  0  0  0
  -29.5131  -20.6023   20.8693 N   0  0  0  0  0  0
  -30.0296  -15.6021   20.9977 N   0  0  0  0  0  0
  -31.1017  -22.1349   20.3022 O   0  0  0  0  0  0
  -31.4606  -12.4139   19.1350 H   0  0  0  0  0  0
  -30.3107  -11.3325   19.8650 H   0  0  0  0  0  0
  -29.7403  -11.7569   17.4508 H   0  0  0  0  0  0
  -29.6555  -13.4743   17.7556 H   0  0  0  0  0  0
  -27.8384  -11.3000   18.8468 H   0  0  0  0  0  0
  -27.3637  -12.6032   17.7910 H   0  0  0  0  0  0
  -27.6822  -14.2556   19.5385 H   0  0  0  0  0  0
  -28.6846  -12.0355   21.3866 H   0  0  0  0  0  0
  -28.4625  -13.7005   21.8407 H   0  0  0  0  0  0
  -25.2761   -9.5688   22.4763 H   0  0  0  0  0  0
  -24.0003   -7.4635   22.7473 H   0  0  0  0  0  0
  -21.0842   -8.8777   19.8950 H   0  0  0  0  0  0
  -22.3695  -10.9678   19.6167 H   0  0  0  0  0  0
  -21.2007   -7.6150   23.9717 H   0  0  0  0  0  0
  -21.1481   -6.0523   25.9078 H   0  0  0  0  0  0
  -22.0598   -2.7610   23.2846 H   0  0  0  0  0  0
  -22.4098  -11.9889   22.4796 H   0  0  0  0  0  0
  -21.1104  -13.1256   22.2613 H   0  0  0  0  0  0
  -24.6583  -15.8443   20.5102 H   0  0  0  0  0  0
  -26.2743  -15.6272   20.0691 H   0  0  0  0  0  0
  -26.7139  -32.5514   23.1154 H   0  0  0  0  0  0
  -25.0072  -33.9769   25.0468 H   0  0  0  0  0  0
  -22.6986  -31.3077   21.4110 H   0  0  0  0  0  0
  -23.3750  -35.9644   23.3309 H   0  0  0  0  0  0
  -24.3583  -36.8916   22.2052 H   0  0  0  0  0  0
  -23.7240  -37.6514   23.6648 H   0  0  0  0  0  0
  -26.0612  -31.5879   20.6022 H   0  0  0  0  0  0
  -26.8274  -30.8708   21.9911 H   0  0  0  0  0  0
  -28.1057  -29.0548   21.1843 H   0  0  0  0  0  0
  -26.0344  -25.9741   18.9829 H   0  0  0  0  0  0
  -23.9751  -27.3140   19.0099 H   0  0  0  0  0  0
  -23.7298  -30.6047   19.4058 H   0  0  0  0  0  0
  -22.7420  -29.2499   19.8652 H   0  0  0  0  0  0
  -25.1284  -36.1973   25.0827 H   0  0  0  0  0  0
  -20.9954  -28.3239   24.1427 H   0  0  0  0  0  0
  -20.5669  -26.2279   23.3602 H   0  0  0  0  0  0
  -21.6638  -26.7448   22.1204 H   0  0  0  0  0  0
  -19.6915  -25.6297   21.1232 H   0  0  0  0  0  0
  -19.6688  -27.3201   20.6739 H   0  0  0  0  0  0
  -17.4191  -26.6663   21.4023 H   0  0  0  0  0  0
  -18.0329  -26.0058   22.9015 H   0  0  0  0  0  0
  -19.7935  -30.7250   24.2282 H   0  0  0  0  0  0
  -17.5018  -31.6267   24.5159 H   0  0  0  0  0  0
  -15.5348  -30.2994   23.7653 H   0  0  0  0  0  0
  -15.8658  -28.0829   22.7063 H   0  0  0  0  0  0
  -24.5904  -30.7070   25.7807 H   0  0  0  0  0  0
  -24.8942  -32.2875   26.4932 H   0  0  0  0  0  0
  -25.8086  -30.8871   27.0226 H   0  0  0  0  0  0
  -26.2860  -29.6797   24.1170 H   0  0  0  0  0  0
  -27.4063  -29.7273   25.4590 H   0  0  0  0  0  0
  -27.8707  -30.4340   23.9290 H   0  0  0  0  0  0
  -27.2673  -33.3616   26.2081 H   0  0  0  0  0  0
  -28.3858  -32.6884   25.0307 H   0  0  0  0  0  0
  -28.0730  -31.8430   26.5395 H   0  0  0  0  0  0
  -28.2602  -38.0105   24.7513 H   0  0  0  0  0  0
  -28.1072  -36.2633   24.6286 H   0  0  0  0  0  0
  -27.2299  -37.1455   25.8870 H   0  0  0  0  0  0
  -20.9326  -29.8766   21.6942 H   0  0  0  0  0  0
  -26.0186  -38.2870   24.1412 H   0  0  0  0  0  0
  -33.3578  -18.4998   22.4001 H   0  0  0  0  0  0
  -32.0478  -20.4976   21.8872 H   0  0  0  0  0  0
  -32.4576  -16.2530   22.0109 H   0  0  0  0  0  0
  -28.7797  -17.9948   20.5322 H   0  0  0  0  0  0
  -27.8540  -22.5611   20.8227 H   0  0  0  0  0  0
  -30.1605  -24.5629   20.5431 H   0  0  0  0  0  0
  -28.0527  -25.5552   21.9119 H   0  0  0  0  0  0
  -27.1213  -24.8860   20.6036 H   0  0  0  0  0  0
  -28.5116  -20.4856   20.9369 H   0  0  0  0  0  0
  -29.0422  -15.4649   21.1519 H   0  0  0  0  0  0
  1 25  1  0  0  0
  1 30  2  0  0  0
  1 82  1  0  0  0
  2  3  1  0  0  0
  2 25  1  0  0  0
  2 84  1  0  0  0
  2 85  1  0  0  0
  3  4  1  0  0  0
  3 86  1  0  0  0
  3 87  1  0  0  0
  4  5  1  0  0  0
  4 88  1  0  0  0
  4 89  1  0  0  0
  5  6  1  0  0  0
  5 26  1  0  0  0
  5 90  1  0  0  0
  6 25  1  0  0  0
  6 91  1  0  0  0
  6 92  1  0  0  0
  7  8  2  0  0  0
  7 26  1  0  0  0
  7 29  1  0  0  0
  8  9  1  0  0  0
  8 22  1  0  0  0
  9 10  1  0  0  0
  9 27  2  0  0  0
 10 11  2  0  0  0
 10 15  1  0  0  0
 11 12  1  0  0  0
 11 93  1  0  0  0
 12 13  2  0  0  0
 12 94  1  0  0  0
 13 14  1  0  0  0
 13 31  1  0  0  0
 14 15  2  0  0  0
 14 95  1  0  0  0
 15 96  1  0  0  0
 16 17  2  0  0  0
 16 21  1  0  0  0
 16 31  1  0  0  0
 17 18  1  0  0  0
 17 97  1  0  0  0
 18 19  2  0  0  0
 18 98  1  0  0  0
 19 20  1  0  0  0
 19 24  1  0  0  0
 20 21  2  0  0  0
 20 99  1  0  0  0
 21 23  1  0  0  0
 22 28  1  0  0  0
 22 32  2  0  0  0
 26 27  1  0  0  0
 28100  1  0  0  0
 28101  1  0  0  0
 29102  1  0  0  0
 29103  1  0  0  0
 33 34  1  0  0  0
 33 66  1  0  0  0
 33 70  2  0  0  0
 34 36  1  0  0  0
 34 59  1  0  0  0
 34104  1  0  0  0
 35 44  2  0  0  0
 35 45  1  0  0  0
 35 68  1  0  0  0
 36 56  1  0  0  0
 36105  1  0  0  0
 37 39  1  0  0  0
 37 47  1  0  0  0
 37 66  1  0  0  0
 37106  1  0  0  0
 38 43  2  0  0  0
 38 46  1  0  0  0
 38 47  1  0  0  0
 39 64  1  0  0  0
 39 67  2  0  0  0
 40 52  1  0  0  0
 40 53  2  0  0  0
 40 58  1  0  0  0
 41107  1  0  0  0
 41108  1  0  0  0
 41109  1  0  0  0
 41 48  1  0  0  0
 42 43  1  0  0  0
 42 66  1  0  0  0
 42110  1  0  0  0
 42111  1  0  0  0
 43 44  1  0  0  0
 44112  1  0  0  0
 45 46  2  0  0  0
 45113  1  0  0  0
 46114  1  0  0  0
 47115  1  0  0  0
 47116  1  0  0  0
 48 56  1  0  0  0
 48 65  1  0  0  0
 48117  1  0  0  0
 49 50  1  0  0  0
 49 53  1  0  0  0
 49 64  1  0  0  0
 49118  1  0  0  0
 50 51  1  0  0  0
 50119  1  0  0  0
 50120  1  0  0  0
 51 52  1  0  0  0
 51121  1  0  0  0
 51122  1  0  0  0
 52123  1  0  0  0
 52124  1  0  0  0
 53 54  1  0  0  0
 54 55  2  0  0  0
 54125  1  0  0  0
 55 57  1  0  0  0
 55126  1  0  0  0
 56 69  2  0  0  0
 57 58  2  0  0  0
 57127  1  0  0  0
 58128  1  0  0  0
 59 60  1  0  0  0
 59 61  1  0  0  0
 59 62  1  0  0  0
 60129  1  0  0  0
 60130  1  0  0  0
 60131  1  0  0  0
 61132  1  0  0  0
 61133  1  0  0  0
 61134  1  0  0  0
 62135  1  0  0  0
 62136  1  0  0  0
 62137  1  0  0  0
 63 65  1  0  0  0
 63138  1  0  0  0
 63139  1  0  0  0
 63140  1  0  0  0
 64141  1  0  0  0
 65142  1  0  0  0
 68 80  1  0  0  0
 71 72  2  0  0  0
 71 73  1  0  0  0
 71143  1  0  0  0
 72 75  1  0  0  0
 72144  1  0  0  0
 73 76  2  0  0  0
 73145  1  0  0  0
 74 75  2  0  0  0
 74 76  1  0  0  0
 74146  1  0  0  0
 75 81  1  0  0  0
 76 82  1  0  0  0
 77 78  2  0  0  0
 77 79  1  0  0  0
 77147  1  0  0  0
 78 80  1  0  0  0
 78148  1  0  0  0
 79 81  1  0  0  0
 79 83  2  0  0  0
 80149  1  0  0  0
 80150  1  0  0  0
 81151  1  0  0  0
 82152  1  0  0  0
M  ISO  4   1 100  68 101  80 101  82 100
M  END
> <chiral flag>
0

> <version>
0

> <s_m_source_file>
/data/baiqing/PycharmProjects/Reinvent-master-3.2/result/LINK_invent/BTK/process_docking_weight1_custom_product_contain_oxygen_bond_distance_aromatic_linkinvent_7_9_3/rearranged_h_0061.sdf

> <i_m_source_file_index>
24

> <r_mmod_Potential_Energy-OPLS-2005>
-49.5611343383789

> <r_mmod_Stretch_Energy-OPLS-2005>
49.6872673034668

> <r_mmod_Bend_Energy-OPLS-2005>
97.8554916381836

> <r_mmod_Torsional_Energy-OPLS-2005>
250.232345581055

> <r_mmod_Improper_Torsional_Energy-OPLS-2005>
4.59473848342896

> <r_mmod_Van_der_Waal_Energy-OPLS-2005>
160.846084594727

> <r_mmod_Electrostatic_Energy-OPLS-2005>
-399.101959228516

> <r_mmod_Solvation_Energy-OPLS-2005>
-237.277526855469

> <b_mmod_Minimization_Converged-OPLS-2005>
0

> <r_mmod_RMS_Derivative-OPLS-2005>
0.667279124259949

$$$$
24
                    3D
 Structure written by MMmdl.
160168  0  0  1  0            999 V2000
  -30.6864  -14.4692   20.5795 C   0  0  0  0  0  0
  -30.4318  -12.3063   19.4203 C   0  0  0  0  0  0
  -29.5039  -12.5102   18.2044 C   0  0  0  0  0  0
  -28.0207  -12.3816   18.6102 C   0  0  0  0  0  0
  -27.6666  -13.2051   19.8770 C   0  0  2  0  0  0
  -28.7061  -12.9633   20.9953 C   0  0  0  0  0  0
  -25.2608  -13.8157   20.5664 C   0  0  0  0  0  0
  -24.1860  -13.0443   20.9187 C   0  0  0  0  0  0
  -24.6405  -11.6905   20.8729 C   0  0  0  0  0  0
  -23.9062  -10.4297   21.0401 C   0  0  0  0  0  0
  -24.3614   -9.4212   21.9174 C   0  0  0  0  0  0
  -23.6288   -8.2252   22.0753 C   0  0  0  0  0  0
  -22.4266   -8.0290   21.3552 C   0  0  0  0  0  0
  -21.9897   -9.0266   20.4660 C   0  0  0  0  0  0
  -22.7233  -10.2141   20.3057 C   0  0  0  0  0  0
  -21.6854   -6.0730   22.5272 C   0  0  0  0  0  0
  -21.4024   -6.5633   23.8204 C   0  0  0  0  0  0
  -21.3655   -5.6786   24.9165 C   0  0  0  0  0  0
  -21.6043   -4.3048   24.7222 C   0  0  0  0  0  0
  -21.8819   -3.8141   23.4344 C   0  0  0  0  0  0
  -21.9197   -4.6959   22.3400 C   0  0  0  0  0  0
  -22.7885  -13.5253   21.1838 C   0  0  0  0  0  0
  -22.1664   -4.2143   21.0977 F   0  0  0  0  0  0
  -21.5619   -3.4536   25.7735 F   0  0  0  0  0  0
  -30.0393  -13.2788   20.4522 N   0  0  0  0  0  0
  -26.3045  -12.9325   20.3346 N   0  0  0  0  0  0
  -25.9330  -11.6487   20.5737 N   0  0  0  0  0  0
  -22.0501  -12.8277   22.0397 N   0  0  0  0  0  0
  -25.4338  -15.1864   20.4027 N   0  0  0  0  0  0
  -31.8065  -14.6710   20.1000 O   0  0  0  0  0  0
  -21.6639   -6.8877   21.4238 O   0  0  0  0  0  0
  -22.3583  -14.5558   20.6667 O   0  0  0  0  0  0
  -24.6134  -31.8707   23.2085 C   0  0  0  0  0  0
  -25.9032  -32.4835   23.8389 C   0  0  1  0  0  0
  -27.2379  -27.4404   20.1060 C   0  0  0  0  0  0
  -25.5884  -33.8625   24.2333 N   0  0  0  0  0  0
  -23.4017  -30.4914   21.5480 C   0  0  2  0  0  0
  -24.8525  -28.9513   20.1216 C   0  0  0  0  0  0
  -22.7399  -29.4685   22.4991 C   0  0  0  0  0  0
  -18.0278  -28.1372   22.8482 C   0  0  0  0  0  0
  -24.1493  -36.7330   23.2628 C   0  0  0  0  0  0
  -25.9289  -30.8363   21.3618 C   0  0  0  0  0  0
  -26.0093  -29.4651   20.7230 C   0  0  0  0  0  0
  -27.2066  -28.7142   20.7182 C   0  0  0  0  0  0
  -26.0704  -26.9365   19.5023 C   0  0  0  0  0  0
  -24.8772  -27.6848   19.5107 C   0  0  0  0  0  0
  -23.6123  -29.8170   20.1658 C   0  0  0  0  0  0
  -25.4099  -36.3114   24.0342 C   0  0  1  0  0  0
  -20.5863  -28.3679   23.1318 C   0  0  2  0  0  0
  -20.6779  -26.9419   22.5414 C   0  0  0  0  0  0
  -19.5768  -26.6395   21.5199 C   0  0  0  0  0  0
  -18.1936  -26.7922   22.1604 C   0  0  0  0  0  0
  -19.1518  -28.8835   23.2905 C   0  0  0  0  0  0
  -18.9445  -30.1433   23.8936 C   0  0  0  0  0  0
  -17.6449  -30.6578   24.0557 C   0  0  0  0  0  0
  -25.9035  -34.9481   23.5138 C   0  0  0  0  0  0
  -16.5344  -29.9082   23.6305 C   0  0  0  0  0  0
  -16.7266  -28.6491   23.0339 C   0  0  0  0  0  0
  -26.4459  -31.6581   25.0701 C   0  0  0  0  0  0
  -25.3729  -31.3675   26.1449 C   0  0  0  0  0  0
  -27.0260  -30.3018   24.6049 C   0  0  0  0  0  0
  -27.6074  -32.4256   25.7441 C   0  0  0  0  0  0
  -27.5594  -37.1792   24.8440 C   0  0  0  0  0  0
  -21.4130  -29.3048   22.3716 N   0  0  0  0  0  0
  -26.4284  -37.3800   23.9424 N   0  0  0  0  0  0
  -24.6658  -31.0814   22.0982 N   0  0  0  0  0  0
  -23.4172  -28.8245   23.3050 O   0  0  0  0  0  0
  -28.3963  -26.7042   20.0305 O   0  0  0  0  0  0
  -26.5609  -34.8936   22.4709 O   0  0  0  0  0  0
  -23.5325  -32.1463   23.7472 O   0  0  0  0  0  0
  -31.2508  -18.9305   20.5102 C   0  0  0  0  0  0
  -31.2480  -17.5456   20.7736 C   0  0  0  0  0  0
  -28.8295  -17.5975   20.8689 C   0  0  0  0  0  0
  -30.0503  -19.6738   20.3801 C   0  0  0  0  0  0
  -30.0308  -16.8529   20.9304 C   0  0  0  0  0  0
  -28.8066  -18.9921   20.5692 C   0  0  0  0  0  0
  -30.2056  -21.1131   20.0239 C   0  0  0  0  0  0
  -28.4581  -24.4009   20.9014 C   0  0  0  0  0  0
  -26.3133  -18.9249   20.4166 C   0  0  0  0  0  0
  -29.6335  -23.5686   20.3653 C   0  0  0  0  0  0
  -28.6956  -25.9004   21.1787 C   0  0  0  0  0  0
  -29.9587  -15.4423   21.1658 N   0  0  0  0  0  0
  -27.5695  -19.6658   20.4445 N   0  0  0  0  0  0
  -29.4908  -22.1030   20.5914 N   0  0  0  0  0  0
  -31.1115  -21.4574   19.1050 N   0  3  0  0  0  0
  -27.3657  -23.8681   21.1290 O   0  0  0  0  0  0
  -31.4757  -12.4144   19.1192 H   0  0  0  0  0  0
  -30.3386  -11.2914   19.8074 H   0  0  0  0  0  0
  -29.7420  -11.7844   17.4256 H   0  0  0  0  0  0
  -29.6852  -13.4928   17.7661 H   0  0  0  0  0  0
  -27.8136  -11.3250   18.7850 H   0  0  0  0  0  0
  -27.3819  -12.6820   17.7793 H   0  0  0  0  0  0
  -27.7172  -14.2578   19.5977 H   0  0  0  0  0  0
  -28.6829  -11.9201   21.3129 H   0  0  0  0  0  0
  -28.4625  -13.5384   21.8899 H   0  0  0  0  0  0
  -25.2763   -9.5686   22.4733 H   0  0  0  0  0  0
  -24.0000   -7.4645   22.7473 H   0  0  0  0  0  0
  -21.0818   -8.8793   19.8978 H   0  0  0  0  0  0
  -22.3691  -10.9675   19.6161 H   0  0  0  0  0  0
  -21.2026   -7.6144   23.9707 H   0  0  0  0  0  0
  -21.1472   -6.0517   25.9066 H   0  0  0  0  0  0
  -22.0603   -2.7607   23.2849 H   0  0  0  0  0  0
  -22.4089  -11.9953   22.4833 H   0  0  0  0  0  0
  -21.1117  -13.1331   22.2559 H   0  0  0  0  0  0
  -24.6567  -15.8325   20.4840 H   0  0  0  0  0  0
  -26.2536  -15.6017   19.9817 H   0  0  0  0  0  0
  -26.7111  -32.5564   23.1166 H   0  0  0  0  0  0
  -24.9975  -33.9795   25.0437 H   0  0  0  0  0  0
  -22.6893  -31.3060   21.4041 H   0  0  0  0  0  0
  -23.3760  -35.9651   23.3237 H   0  0  0  0  0  0
  -24.3608  -36.8994   22.2053 H   0  0  0  0  0  0
  -23.7247  -37.6518   23.6680 H   0  0  0  0  0  0
  -26.0342  -31.5932   20.5825 H   0  0  0  0  0  0
  -26.8204  -30.9001   21.9749 H   0  0  0  0  0  0
  -28.1042  -29.1097   21.1727 H   0  0  0  0  0  0
  -26.0881  -25.9674   19.0238 H   0  0  0  0  0  0
  -23.9897  -27.2859   19.0414 H   0  0  0  0  0  0
  -23.7176  -30.5876   19.4012 H   0  0  0  0  0  0
  -22.7377  -29.2317   19.8738 H   0  0  0  0  0  0
  -25.1267  -36.1961   25.0831 H   0  0  0  0  0  0
  -20.9957  -28.3263   24.1440 H   0  0  0  0  0  0
  -20.5691  -26.2288   23.3603 H   0  0  0  0  0  0
  -21.6656  -26.7483   22.1212 H   0  0  0  0  0  0
  -19.6952  -25.6310   21.1224 H   0  0  0  0  0  0
  -19.6710  -27.3214   20.6735 H   0  0  0  0  0  0
  -17.4212  -26.6665   21.3995 H   0  0  0  0  0  0
  -18.0352  -26.0053   22.8997 H   0  0  0  0  0  0
  -19.7918  -30.7221   24.2347 H   0  0  0  0  0  0
  -17.5007  -31.6267   24.5135 H   0  0  0  0  0  0
  -15.5351  -30.2997   23.7600 H   0  0  0  0  0  0
  -15.8669  -28.0816   22.7058 H   0  0  0  0  0  0
  -24.5914  -30.7017   25.7775 H   0  0  0  0  0  0
  -24.8909  -32.2812   26.4920 H   0  0  0  0  0  0
  -25.8080  -30.8821   27.0194 H   0  0  0  0  0  0
  -26.2778  -29.6802   24.1118 H   0  0  0  0  0  0
  -27.4035  -29.7229   25.4491 H   0  0  0  0  0  0
  -27.8616  -30.4318   23.9172 H   0  0  0  0  0  0
  -27.2749  -33.3545   26.2076 H   0  0  0  0  0  0
  -28.3843  -32.6812   25.0227 H   0  0  0  0  0  0
  -28.0788  -31.8331   26.5294 H   0  0  0  0  0  0
  -28.2548  -38.0152   24.7573 H   0  0  0  0  0  0
  -28.1151  -36.2691   24.6125 H   0  0  0  0  0  0
  -27.2338  -37.1271   25.8844 H   0  0  0  0  0  0
  -20.9304  -29.8717   21.6884 H   0  0  0  0  0  0
  -26.0171  -38.2867   24.1451 H   0  0  0  0  0  0
  -32.2059  -19.4236   20.3960 H   0  0  0  0  0  0
  -32.1942  -17.0284   20.8497 H   0  0  0  0  0  0
  -27.9069  -17.0619   21.0278 H   0  0  0  0  0  0
  -25.4858  -19.5950   20.1797 H   0  0  0  0  0  0
  -26.1025  -18.4639   21.3831 H   0  0  0  0  0  0
  -26.3310  -18.1435   19.6550 H   0  0  0  0  0  0
  -30.5576  -23.9185   20.8261 H   0  0  0  0  0  0
  -29.7130  -23.7721   19.2963 H   0  0  0  0  0  0
  -29.7402  -26.0533   21.4505 H   0  0  0  0  0  0
  -28.1026  -26.2034   22.0426 H   0  0  0  0  0  0
  -29.0841  -15.1087   21.5402 H   0  0  0  0  0  0
  -27.5516  -20.5779   19.9918 H   0  0  0  0  0  0
  -28.7828  -21.8422   21.2709 H   0  0  0  0  0  0
  -31.5979  -20.7295   18.6035 H   0  0  0  0  0  0
  -31.2987  -22.4128   18.8543 H   0  0  0  0  0  0
  1 25  1  0  0  0
  1 30  2  0  0  0
  1 82  1  0  0  0
  2  3  1  0  0  0
  2 25  1  0  0  0
  2 87  1  0  0  0
  2 88  1  0  0  0
  3  4  1  0  0  0
  3 89  1  0  0  0
  3 90  1  0  0  0
  4  5  1  0  0  0
  4 91  1  0  0  0
  4 92  1  0  0  0
  5  6  1  0  0  0
  5 26  1  0  0  0
  5 93  1  0  0  0
  6 25  1  0  0  0
  6 94  1  0  0  0
  6 95  1  0  0  0
  7  8  2  0  0  0
  7 26  1  0  0  0
  7 29  1  0  0  0
  8  9  1  0  0  0
  8 22  1  0  0  0
  9 10  1  0  0  0
  9 27  2  0  0  0
 10 11  2  0  0  0
 10 15  1  0  0  0
 11 12  1  0  0  0
 11 96  1  0  0  0
 12 13  2  0  0  0
 12 97  1  0  0  0
 13 14  1  0  0  0
 13 31  1  0  0  0
 14 15  2  0  0  0
 14 98  1  0  0  0
 15 99  1  0  0  0
 16 17  2  0  0  0
 16 21  1  0  0  0
 16 31  1  0  0  0
 17 18  1  0  0  0
 17100  1  0  0  0
 18 19  2  0  0  0
 18101  1  0  0  0
 19 20  1  0  0  0
 19 24  1  0  0  0
 20 21  2  0  0  0
 20102  1  0  0  0
 21 23  1  0  0  0
 22 28  1  0  0  0
 22 32  2  0  0  0
 26 27  1  0  0  0
 28103  1  0  0  0
 28104  1  0  0  0
 29105  1  0  0  0
 29106  1  0  0  0
 33 34  1  0  0  0
 33 66  1  0  0  0
 33 70  2  0  0  0
 34 36  1  0  0  0
 34 59  1  0  0  0
 34107  1  0  0  0
 35 44  2  0  0  0
 35 45  1  0  0  0
 35 68  1  0  0  0
 36 56  1  0  0  0
 36108  1  0  0  0
 37 39  1  0  0  0
 37 47  1  0  0  0
 37 66  1  0  0  0
 37109  1  0  0  0
 38 43  2  0  0  0
 38 46  1  0  0  0
 38 47  1  0  0  0
 39 64  1  0  0  0
 39 67  2  0  0  0
 40 52  1  0  0  0
 40 53  2  0  0  0
 40 58  1  0  0  0
 41110  1  0  0  0
 41111  1  0  0  0
 41112  1  0  0  0
 41 48  1  0  0  0
 42 43  1  0  0  0
 42 66  1  0  0  0
 42113  1  0  0  0
 42114  1  0  0  0
 43 44  1  0  0  0
 44115  1  0  0  0
 45 46  2  0  0  0
 45116  1  0  0  0
 46117  1  0  0  0
 47118  1  0  0  0
 47119  1  0  0  0
 48 56  1  0  0  0
 48 65  1  0  0  0
 48120  1  0  0  0
 49 50  1  0  0  0
 49 53  1  0  0  0
 49 64  1  0  0  0
 49121  1  0  0  0
 50 51  1  0  0  0
 50122  1  0  0  0
 50123  1  0  0  0
 51 52  1  0  0  0
 51124  1  0  0  0
 51125  1  0  0  0
 52126  1  0  0  0
 52127  1  0  0  0
 53 54  1  0  0  0
 54 55  2  0  0  0
 54128  1  0  0  0
 55 57  1  0  0  0
 55129  1  0  0  0
 56 69  2  0  0  0
 57 58  2  0  0  0
 57130  1  0  0  0
 58131  1  0  0  0
 59 60  1  0  0  0
 59 61  1  0  0  0
 59 62  1  0  0  0
 60132  1  0  0  0
 60133  1  0  0  0
 60134  1  0  0  0
 61135  1  0  0  0
 61136  1  0  0  0
 61137  1  0  0  0
 62138  1  0  0  0
 62139  1  0  0  0
 62140  1  0  0  0
 63 65  1  0  0  0
 63141  1  0  0  0
 63142  1  0  0  0
 63143  1  0  0  0
 64144  1  0  0  0
 65145  1  0  0  0
 68 81  1  0  0  0
 71 72  2  0  0  0
 71 74  1  0  0  0
 71146  1  0  0  0
 72 75  1  0  0  0
 72147  1  0  0  0
 73 75  2  0  0  0
 73 76  1  0  0  0
 73148  1  0  0  0
 74 76  2  0  0  0
 74 77  1  0  0  0
 75 82  1  0  0  0
 76 83  1  0  0  0
 77 84  1  0  0  0
 77 85  2  0  0  0
 78 80  1  0  0  0
 78 81  1  0  0  0
 78 86  2  0  0  0
 79 83  1  0  0  0
 79149  1  0  0  0
 79150  1  0  0  0
 79151  1  0  0  0
 80 84  1  0  0  0
 80152  1  0  0  0
 80153  1  0  0  0
 81154  1  0  0  0
 81155  1  0  0  0
 82156  1  0  0  0
 83157  1  0  0  0
 84158  1  0  0  0
 85159  1  0  0  0
 85160  1  0  0  0
M  CHG  1  85   1
M  ISO  4   1 100  68 101  81 101  82 100
M  END
> <chiral flag>
0

> <version>
0

> <s_m_source_file>
/data/baiqing/PycharmProjects/Reinvent-master-3.2/result/LINK_invent/BTK/process_docking_weight1_custom_product_contain_oxygen_bond_distance_aromatic_linkinvent_7_9_3/rearranged_h_0061.sdf

> <i_m_source_file_index>
25

> <r_mmod_Potential_Energy-OPLS-2005>
-110.303581237793

> <r_mmod_Stretch_Energy-OPLS-2005>
41.888111114502

> <r_mmod_Bend_Energy-OPLS-2005>
106.339485168457

> <r_mmod_Torsional_Energy-OPLS-2005>
249.731185913086

> <r_mmod_Improper_Torsional_Energy-OPLS-2005>
6.52568244934082

> <r_mmod_Van_der_Waal_Energy-OPLS-2005>
156.126495361328

> <r_mmod_Electrostatic_Energy-OPLS-2005>
-251.470840454102

> <r_mmod_Solvation_Energy-OPLS-2005>
-430.02587890625

> <b_mmod_Minimization_Converged-OPLS-2005>
0

> <r_mmod_RMS_Derivative-OPLS-2005>
1.78365468978882

$$$$
25
                    3D
 Structure written by MMmdl.
157165  0  0  1  0            999 V2000
  -30.6789  -14.5059   20.5938 C   0  0  0  0  0  0
  -30.4411  -12.3328   19.4320 C   0  0  0  0  0  0
  -29.5064  -12.5011   18.2155 C   0  0  0  0  0  0
  -28.0310  -12.3360   18.6290 C   0  0  0  0  0  0
  -27.6632  -13.1950   19.8668 C   0  0  2  0  0  0
  -28.7012  -12.9922   20.9938 C   0  0  0  0  0  0
  -25.2658  -13.8113   20.5769 C   0  0  0  0  0  0
  -24.1859  -13.0413   20.9148 C   0  0  0  0  0  0
  -24.6385  -11.6873   20.8704 C   0  0  0  0  0  0
  -23.9034  -10.4285   21.0395 C   0  0  0  0  0  0
  -24.3578   -9.4201   21.9177 C   0  0  0  0  0  0
  -23.6267   -8.2240   22.0744 C   0  0  0  0  0  0
  -22.4252   -8.0283   21.3533 C   0  0  0  0  0  0
  -21.9882   -9.0263   20.4636 C   0  0  0  0  0  0
  -22.7198  -10.2143   20.3055 C   0  0  0  0  0  0
  -21.6856   -6.0722   22.5284 C   0  0  0  0  0  0
  -21.3998   -6.5626   23.8214 C   0  0  0  0  0  0
  -21.3661   -5.6775   24.9179 C   0  0  0  0  0  0
  -21.6047   -4.3042   24.7226 C   0  0  0  0  0  0
  -21.8821   -3.8125   23.4359 C   0  0  0  0  0  0
  -21.9185   -4.6946   22.3404 C   0  0  0  0  0  0
  -22.7899  -13.5270   21.1822 C   0  0  0  0  0  0
  -22.1666   -4.2133   21.0993 F   0  0  0  0  0  0
  -21.5625   -3.4528   25.7741 F   0  0  0  0  0  0
  -30.0326  -13.3140   20.4499 N   0  0  0  0  0  0
  -26.3044  -12.9256   20.3321 N   0  0  0  0  0  0
  -25.9308  -11.6430   20.5713 N   0  0  0  0  0  0
  -22.0509  -12.8297   22.0383 N   0  0  0  0  0  0
  -25.4508  -15.1841   20.4468 N   0  0  0  0  0  0
  -31.8030  -14.7178   20.1331 O   0  0  0  0  0  0
  -21.6635   -6.8874   21.4251 O   0  0  0  0  0  0
  -22.3651  -14.5607   20.6685 O   0  0  0  0  0  0
  -24.6191  -31.8650   23.2068 C   0  0  0  0  0  0
  -25.9066  -32.4803   23.8369 C   0  0  1  0  0  0
  -27.2395  -27.4004   20.1049 C   0  0  0  0  0  0
  -25.5926  -33.8599   24.2333 N   0  0  0  0  0  0
  -23.4080  -30.4870   21.5491 C   0  0  2  0  0  0
  -24.8526  -28.9441   20.1191 C   0  0  0  0  0  0
  -22.7445  -29.4628   22.5003 C   0  0  0  0  0  0
  -18.0277  -28.1393   22.8484 C   0  0  0  0  0  0
  -24.1479  -36.7312   23.2631 C   0  0  0  0  0  0
  -25.9360  -30.8251   21.3573 C   0  0  0  0  0  0
  -26.0137  -29.4519   20.7139 C   0  0  0  0  0  0
  -27.2034  -28.6845   20.7046 C   0  0  0  0  0  0
  -26.0505  -26.9083   19.5154 C   0  0  0  0  0  0
  -24.8676  -27.6730   19.5210 C   0  0  0  0  0  0
  -23.6188  -29.8190   20.1637 C   0  0  0  0  0  0
  -25.4090  -36.3114   24.0360 C   0  0  1  0  0  0
  -20.5866  -28.3678   23.1334 C   0  0  2  0  0  0
  -20.6772  -26.9414   22.5430 C   0  0  0  0  0  0
  -19.5739  -26.6403   21.5232 C   0  0  0  0  0  0
  -18.1915  -26.7940   22.1631 C   0  0  0  0  0  0
  -19.1525  -28.8849   23.2899 C   0  0  0  0  0  0
  -18.9459  -30.1452   23.8912 C   0  0  0  0  0  0
  -17.6458  -30.6583   24.0570 C   0  0  0  0  0  0
  -25.9034  -34.9475   23.5145 C   0  0  0  0  0  0
  -16.5347  -29.9094   23.6313 C   0  0  0  0  0  0
  -16.7268  -28.6517   23.0327 C   0  0  0  0  0  0
  -26.4495  -31.6579   25.0686 C   0  0  0  0  0  0
  -25.3777  -31.3707   26.1463 C   0  0  0  0  0  0
  -27.0299  -30.3011   24.6028 C   0  0  0  0  0  0
  -27.6086  -32.4274   25.7448 C   0  0  0  0  0  0
  -27.5592  -37.1804   24.8464 C   0  0  0  0  0  0
  -21.4165  -29.3039   22.3746 N   0  0  0  0  0  0
  -26.4285  -37.3795   23.9446 N   0  0  0  0  0  0
  -24.6730  -31.0738   22.0982 N   0  0  0  0  0  0
  -23.4194  -28.8182   23.3066 O   0  0  0  0  0  0
  -28.4308  -26.6889   20.1362 O   0  0  0  0  0  0
  -26.5580  -34.8929   22.4691 O   0  0  0  0  0  0
  -23.5367  -32.1426   23.7446 O   0  0  0  0  0  0
  -30.9397  -18.6121   22.9001 C   0  0  0  0  0  0
  -30.4817  -19.6084   22.0156 C   0  0  0  0  0  0
  -30.8049  -17.2502   22.5743 C   0  0  0  0  0  0
  -29.8768  -19.2625   20.7866 C   0  0  0  0  0  0
  -29.7701  -17.8752   20.4433 C   0  0  0  0  0  0
  -30.2235  -16.8659   21.3484 C   0  0  0  0  0  0
  -28.8862  -22.8226   19.6568 C   0  0  0  0  0  0
  -29.1469  -17.4668   19.1105 C   0  0  0  0  0  0
  -29.3637  -20.3714   19.8359 C   0  0  0  0  0  0
  -28.5043  -24.1524   20.3607 C   0  0  0  0  0  0
  -28.5979  -25.4237   19.4559 C   0  0  0  0  0  0
  -29.9298  -15.4782   21.1567 N   0  0  0  0  0  0
  -29.0919  -21.7131   20.4034 N   0  0  0  0  0  0
  -28.9837  -22.7912   18.4269 O   0  0  0  0  0  0
  -31.4843  -12.4583   19.1377 H   0  0  0  0  0  0
  -30.3642  -11.3233   19.8383 H   0  0  0  0  0  0
  -29.7587  -11.7767   17.4402 H   0  0  0  0  0  0
  -29.6509  -13.4864   17.7722 H   0  0  0  0  0  0
  -27.8627  -11.2811   18.8507 H   0  0  0  0  0  0
  -27.3809  -12.5750   17.7855 H   0  0  0  0  0  0
  -27.7028  -14.2367   19.5494 H   0  0  0  0  0  0
  -28.6862  -11.9577   21.3370 H   0  0  0  0  0  0
  -28.4437  -13.5868   21.8694 H   0  0  0  0  0  0
  -25.2730   -9.5689   22.4732 H   0  0  0  0  0  0
  -23.9948   -7.4638   22.7474 H   0  0  0  0  0  0
  -21.0791   -8.8811   19.8972 H   0  0  0  0  0  0
  -22.3656  -10.9690   19.6168 H   0  0  0  0  0  0
  -21.2000   -7.6136   23.9722 H   0  0  0  0  0  0
  -21.1482   -6.0507   25.9078 H   0  0  0  0  0  0
  -22.0599   -2.7592   23.2876 H   0  0  0  0  0  0
  -22.4064  -11.9919   22.4733 H   0  0  0  0  0  0
  -21.1166  -13.1428   22.2646 H   0  0  0  0  0  0
  -24.7154  -15.8541   20.6420 H   0  0  0  0  0  0
  -26.3367  -15.6217   20.2298 H   0  0  0  0  0  0
  -26.7135  -32.5523   23.1133 H   0  0  0  0  0  0
  -25.0112  -33.9749   25.0506 H   0  0  0  0  0  0
  -22.6977  -31.3034   21.4095 H   0  0  0  0  0  0
  -23.3760  -35.9625   23.3252 H   0  0  0  0  0  0
  -24.3570  -36.8948   22.2051 H   0  0  0  0  0  0
  -23.7209  -37.6501   23.6641 H   0  0  0  0  0  0
  -26.0306  -31.5842   20.5782 H   0  0  0  0  0  0
  -26.8291  -30.8961   21.9654 H   0  0  0  0  0  0
  -28.1003  -29.0742   21.1654 H   0  0  0  0  0  0
  -26.0040  -25.9309   19.0616 H   0  0  0  0  0  0
  -23.9709  -27.2727   19.0673 H   0  0  0  0  0  0
  -23.7401  -30.5943   19.4071 H   0  0  0  0  0  0
  -22.7397  -29.2503   19.8567 H   0  0  0  0  0  0
  -25.1244  -36.1975   25.0855 H   0  0  0  0  0  0
  -20.9927  -28.3251   24.1469 H   0  0  0  0  0  0
  -20.5699  -26.2282   23.3615 H   0  0  0  0  0  0
  -21.6645  -26.7471   22.1209 H   0  0  0  0  0  0
  -19.6899  -25.6329   21.1220 H   0  0  0  0  0  0
  -19.6662  -27.3256   20.6794 H   0  0  0  0  0  0
  -17.4188  -26.6698   21.4025 H   0  0  0  0  0  0
  -18.0289  -26.0083   22.9017 H   0  0  0  0  0  0
  -19.7933  -30.7268   24.2291 H   0  0  0  0  0  0
  -17.5012  -31.6257   24.5194 H   0  0  0  0  0  0
  -15.5348  -30.3007   23.7634 H   0  0  0  0  0  0
  -15.8669  -28.0860   22.7015 H   0  0  0  0  0  0
  -24.5971  -30.6994   25.7863 H   0  0  0  0  0  0
  -24.8932  -32.2866   26.4856 H   0  0  0  0  0  0
  -25.8168  -30.8953   27.0242 H   0  0  0  0  0  0
  -26.2815  -29.6782   24.1105 H   0  0  0  0  0  0
  -27.4124  -29.7221   25.4450 H   0  0  0  0  0  0
  -27.8621  -30.4326   23.9104 H   0  0  0  0  0  0
  -27.2730  -33.3584   26.2023 H   0  0  0  0  0  0
  -28.3901  -32.6818   25.0278 H   0  0  0  0  0  0
  -28.0736  -31.8371   26.5356 H   0  0  0  0  0  0
  -28.2599  -38.0116   24.7556 H   0  0  0  0  0  0
  -28.1093  -36.2662   24.6205 H   0  0  0  0  0  0
  -27.2310  -37.1358   25.8860 H   0  0  0  0  0  0
  -20.9352  -29.8769   21.6957 H   0  0  0  0  0  0
  -26.0174  -38.2856   24.1490 H   0  0  0  0  0  0
  -31.3780  -18.8967   23.8483 H   0  0  0  0  0  0
  -30.6000  -20.6444   22.3024 H   0  0  0  0  0  0
  -31.1274  -16.5024   23.2867 H   0  0  0  0  0  0
  -29.4570  -18.1376   18.3071 H   0  0  0  0  0  0
  -28.0586  -17.4846   19.1736 H   0  0  0  0  0  0
  -29.4552  -16.4678   18.8020 H   0  0  0  0  0  0
  -28.4360  -20.0342   19.3766 H   0  0  0  0  0  0
  -30.0885  -20.4678   19.0247 H   0  0  0  0  0  0
  -29.1640  -24.2739   21.2186 H   0  0  0  0  0  0
  -27.4918  -24.0572   20.7529 H   0  0  0  0  0  0
  -27.9582  -25.3334   18.5791 H   0  0  0  0  0  0
  -29.6080  -25.4593   19.0465 H   0  0  0  0  0  0
  -29.0195  -15.1798   21.4677 H   0  0  0  0  0  0
  -28.9684  -21.7792   21.4040 H   0  0  0  0  0  0
  1 25  1  0  0  0
  1 30  2  0  0  0
  1 82  1  0  0  0
  2  3  1  0  0  0
  2 25  1  0  0  0
  2 85  1  0  0  0
  2 86  1  0  0  0
  3  4  1  0  0  0
  3 87  1  0  0  0
  3 88  1  0  0  0
  4  5  1  0  0  0
  4 89  1  0  0  0
  4 90  1  0  0  0
  5  6  1  0  0  0
  5 26  1  0  0  0
  5 91  1  0  0  0
  6 25  1  0  0  0
  6 92  1  0  0  0
  6 93  1  0  0  0
  7  8  2  0  0  0
  7 26  1  0  0  0
  7 29  1  0  0  0
  8  9  1  0  0  0
  8 22  1  0  0  0
  9 10  1  0  0  0
  9 27  2  0  0  0
 10 11  2  0  0  0
 10 15  1  0  0  0
 11 12  1  0  0  0
 11 94  1  0  0  0
 12 13  2  0  0  0
 12 95  1  0  0  0
 13 14  1  0  0  0
 13 31  1  0  0  0
 14 15  2  0  0  0
 14 96  1  0  0  0
 15 97  1  0  0  0
 16 17  2  0  0  0
 16 21  1  0  0  0
 16 31  1  0  0  0
 17 18  1  0  0  0
 17 98  1  0  0  0
 18 19  2  0  0  0
 18 99  1  0  0  0
 19 20  1  0  0  0
 19 24  1  0  0  0
 20 21  2  0  0  0
 20100  1  0  0  0
 21 23  1  0  0  0
 22 28  1  0  0  0
 22 32  2  0  0  0
 26 27  1  0  0  0
 28101  1  0  0  0
 28102  1  0  0  0
 29103  1  0  0  0
 29104  1  0  0  0
 33 34  1  0  0  0
 33 66  1  0  0  0
 33 70  2  0  0  0
 34 36  1  0  0  0
 34 59  1  0  0  0
 34105  1  0  0  0
 35 44  2  0  0  0
 35 45  1  0  0  0
 35 68  1  0  0  0
 36 56  1  0  0  0
 36106  1  0  0  0
 37 39  1  0  0  0
 37 47  1  0  0  0
 37 66  1  0  0  0
 37107  1  0  0  0
 38 43  2  0  0  0
 38 46  1  0  0  0
 38 47  1  0  0  0
 39 64  1  0  0  0
 39 67  2  0  0  0
 40 52  1  0  0  0
 40 53  2  0  0  0
 40 58  1  0  0  0
 41108  1  0  0  0
 41109  1  0  0  0
 41110  1  0  0  0
 41 48  1  0  0  0
 42 43  1  0  0  0
 42 66  1  0  0  0
 42111  1  0  0  0
 42112  1  0  0  0
 43 44  1  0  0  0
 44113  1  0  0  0
 45 46  2  0  0  0
 45114  1  0  0  0
 46115  1  0  0  0
 47116  1  0  0  0
 47117  1  0  0  0
 48 56  1  0  0  0
 48 65  1  0  0  0
 48118  1  0  0  0
 49 50  1  0  0  0
 49 53  1  0  0  0
 49 64  1  0  0  0
 49119  1  0  0  0
 50 51  1  0  0  0
 50120  1  0  0  0
 50121  1  0  0  0
 51 52  1  0  0  0
 51122  1  0  0  0
 51123  1  0  0  0
 52124  1  0  0  0
 52125  1  0  0  0
 53 54  1  0  0  0
 54 55  2  0  0  0
 54126  1  0  0  0
 55 57  1  0  0  0
 55127  1  0  0  0
 56 69  2  0  0  0
 57 58  2  0  0  0
 57128  1  0  0  0
 58129  1  0  0  0
 59 60  1  0  0  0
 59 61  1  0  0  0
 59 62  1  0  0  0
 60130  1  0  0  0
 60131  1  0  0  0
 60132  1  0  0  0
 61133  1  0  0  0
 61134  1  0  0  0
 61135  1  0  0  0
 62136  1  0  0  0
 62137  1  0  0  0
 62138  1  0  0  0
 63 65  1  0  0  0
 63139  1  0  0  0
 63140  1  0  0  0
 63141  1  0  0  0
 64142  1  0  0  0
 65143  1  0  0  0
 68 81  1  0  0  0
 71 72  2  0  0  0
 71 73  1  0  0  0
 71144  1  0  0  0
 72 74  1  0  0  0
 72145  1  0  0  0
 73 76  2  0  0  0
 73146  1  0  0  0
 74 75  2  0  0  0
 74 79  1  0  0  0
 75 76  1  0  0  0
 75 78  1  0  0  0
 76 82  1  0  0  0
 77 80  1  0  0  0
 77 83  1  0  0  0
 77 84  2  0  0  0
 78147  1  0  0  0
 78148  1  0  0  0
 78149  1  0  0  0
 79 83  1  0  0  0
 79150  1  0  0  0
 79151  1  0  0  0
 80 81  1  0  0  0
 80152  1  0  0  0
 80153  1  0  0  0
 81154  1  0  0  0
 81155  1  0  0  0
 82156  1  0  0  0
 83157  1  0  0  0
M  ISO  4   1 100  68 101  81 101  82 100
M  END
> <chiral flag>
0

> <version>
0

> <s_m_source_file>
/data/baiqing/PycharmProjects/Reinvent-master-3.2/result/LINK_invent/BTK/process_docking_weight1_custom_product_contain_oxygen_bond_distance_aromatic_linkinvent_7_9_3/rearranged_h_0061.sdf

> <i_m_source_file_index>
26

> <r_mmod_Potential_Energy-OPLS-2005>
-137.917358398438

> <r_mmod_Stretch_Energy-OPLS-2005>
46.4062652587891

> <r_mmod_Bend_Energy-OPLS-2005>
111.336715698242

> <r_mmod_Torsional_Energy-OPLS-2005>
225.202850341797

> <r_mmod_Improper_Torsional_Energy-OPLS-2005>
4.04504585266113

> <r_mmod_Van_der_Waal_Energy-OPLS-2005>
152.224868774414

> <r_mmod_Electrostatic_Energy-OPLS-2005>
-457.894134521484

> <r_mmod_Solvation_Energy-OPLS-2005>
-237.312469482422

> <b_mmod_Minimization_Converged-OPLS-2005>
0

> <r_mmod_RMS_Derivative-OPLS-2005>
3.94387888908386

$$$$
26
                    3D
 Structure written by MMmdl.
159168  0  0  1  0            999 V2000
  -28.7561  -17.5533   19.9981 C   0  0  0  0  0  0
  -29.8510  -14.6474   19.3551 C   0  0  0  0  0  0
  -29.4434  -13.3617   18.4453 C   0  0  0  0  0  0
  -28.2987  -12.5399   19.0279 C   0  0  0  0  0  0
  -27.4617  -13.5433   19.8135 C   0  0  2  0  0  0
  -28.2100  -14.5951   20.7417 C   0  0  0  0  0  0
  -25.1525  -13.8624   20.6070 C   0  0  0  0  0  0
  -24.1306  -13.0423   20.9506 C   0  0  0  0  0  0
  -24.6418  -11.7078   20.8824 C   0  0  0  0  0  0
  -23.9261  -10.4313   21.0357 C   0  0  0  0  0  0
  -24.3768   -9.4238   21.9167 C   0  0  0  0  0  0
  -23.6390   -8.2298   22.0772 C   0  0  0  0  0  0
  -22.4368   -8.0333   21.3563 C   0  0  0  0  0  0
  -22.0031   -9.0301   20.4650 C   0  0  0  0  0  0
  -22.7410  -10.2149   20.3022 C   0  0  0  0  0  0
  -21.6886   -6.0776   22.5288 C   0  0  0  0  0  0
  -21.4020   -6.5663   23.8220 C   0  0  0  0  0  0
  -21.3653   -5.6807   24.9173 C   0  0  0  0  0  0
  -21.6046   -4.3074   24.7217 C   0  0  0  0  0  0
  -21.8821   -3.8176   23.4335 C   0  0  0  0  0  0
  -21.9207   -4.7000   22.3398 C   0  0  0  0  0  0
  -22.7301  -13.4984   21.2025 C   0  0  0  0  0  0
  -22.1678   -4.2183   21.0975 F   0  0  0  0  0  0
  -21.5622   -3.4550   25.7724 F   0  0  0  0  0  0
  -28.7522  -15.8198   19.9026 N   0  0  0  0  0  0
  -26.2281  -13.0452   20.3672 N   0  0  0  0  0  0
  -25.9427  -11.7253   20.5678 N   0  0  0  0  0  0
  -22.0051  -12.7945   22.0587 N   0  0  0  0  0  0
  -25.2371  -15.2415   20.4269 N   0  0  0  0  0  0
  -30.0565  -17.3082   20.0647 O   0  0  0  0  0  0
  -21.6703   -6.8943   21.4265 O   0  0  0  0  0  0
  -22.2954  -14.5270   20.6843 O   0  0  0  0  0  0
  -24.9240  -31.6353   22.2437 C   0  0  0  0  0  0
  -26.0883  -32.3525   23.2737 C   0  0  1  0  0  0
  -28.2056  -27.9327   21.1761 C   0  0  0  0  0  0
  -25.6336  -33.7172   23.7918 N   0  0  0  0  0  0
  -23.3728  -28.1803   21.7474 C   0  0  2  0  0  0
  -26.2662  -27.0775   20.2677 C   0  0  0  0  0  0
  -22.4353  -27.9793   22.9448 C   0  0  0  0  0  0
  -17.8190  -28.1257   22.7964 C   0  0  0  0  0  0
  -24.1501  -36.6643   23.2809 C   0  0  0  0  0  0
  -25.7181  -30.1588   20.0457 C   0  0  0  0  0  0
  -26.5395  -28.6598   19.7999 C   0  0  0  0  0  0
  -27.8234  -28.9439   20.3042 C   0  0  0  0  0  0
  -28.0001  -26.6632   20.5047 C   0  0  0  0  0  0
  -27.1009  -26.4849   19.4843 C   0  0  0  0  0  0
  -24.4607  -26.4567   21.5813 C   0  0  0  0  0  0
  -25.4383  -36.2171   23.9948 C   0  0  1  0  0  0
  -20.1938  -27.8532   23.4835 C   0  0  2  0  0  0
  -20.1325  -26.4608   22.8115 C   0  0  0  0  0  0
  -19.3261  -26.5147   21.5354 C   0  0  0  0  0  0
  -17.9076  -26.8325   21.9975 C   0  0  0  0  0  0
  -18.9549  -28.7020   23.3865 C   0  0  0  0  0  0
  -18.8829  -29.9900   23.9683 C   0  0  0  0  0  0
  -17.6392  -30.6419   24.0653 C   0  0  0  0  0  0
  -25.9846  -34.9185   23.3298 C   0  0  0  0  0  0
  -16.4797  -29.9976   23.5970 C   0  0  0  0  0  0
  -16.5751  -28.7525   22.9507 C   0  0  0  0  0  0
  -26.5874  -31.7794   24.7398 C   0  0  0  0  0  0
  -25.4979  -31.2719   25.7596 C   0  0  0  0  0  0
  -27.8167  -30.9091   24.4742 C   0  0  0  0  0  0
  -27.3548  -32.8064   25.6522 C   0  0  0  0  0  0
  -27.5545  -37.1480   24.8539 C   0  0  0  0  0  0
  -21.1908  -28.4028   22.7758 N   0  0  0  0  0  0
  -26.4038  -37.3447   23.9765 N   0  0  0  0  0  0
  -24.7063  -30.3467   21.1989 N   0  0  0  0  0  0
  -22.8849  -27.5871   23.9885 O   0  0  0  0  0  0
  -27.8748  -28.0331   22.5954 O   0  0  0  0  0  0
  -26.7217  -35.0039   22.3542 O   0  0  0  0  0  0
  -23.9879  -32.2857   22.7625 O   0  0  0  0  0  0
  -25.1709  -22.8976   17.7661 C   0  0  0  0  0  0
  -25.9513  -21.7300   18.3460 C   0  0  0  0  0  0
  -25.9620  -23.3915   19.9944 C   0  0  0  0  0  0
  -24.7339  -24.3008   18.1696 C   0  0  0  0  0  0
  -24.9211  -25.0756   19.4147 C   0  0  0  0  0  0
  -26.6439  -21.4875   19.6258 C   0  0  0  0  0  0
  -22.4226  -29.8867   20.3997 C   0  0  0  0  0  0
  -22.6270  -30.3421   22.0473 C   0  0  0  0  0  0
  -23.1948  -28.6683   19.2866 C   0  0  0  0  0  0
  -25.5167  -28.3847   21.9372 C   0  0  0  0  0  0
  -24.6699  -29.3236   23.2912 C   0  0  2  0  0  0
  -24.0554  -25.0783   17.0658 C   0  0  0  0  0  0
  -26.5195  -28.7054   23.6511 C   0  0  0  0  0  0
  -24.2219  -27.4959   19.6888 N   0  0  0  0  0  0
  -27.7849  -19.3932   20.0312 N   0  0  0  0  0  0
  -21.8105  -31.0242   22.7322 O   0  5  0  0  0  0
  -22.8221  -28.6847   18.1151 O   0  0  0  0  0  0
  -30.5299  -15.2129   18.7148 H   0  0  0  0  0  0
  -30.5361  -14.3358   20.1491 H   0  0  0  0  0  0
  -30.3144  -12.7286   18.2656 H   0  0  0  0  0  0
  -29.1373  -13.7291   17.4632 H   0  0  0  0  0  0
  -28.6948  -11.7856   19.7098 H   0  0  0  0  0  0
  -27.7279  -12.0259   18.2550 H   0  0  0  0  0  0
  -27.0927  -14.1666   18.9955 H   0  0  0  0  0  0
  -28.9185  -14.1202   21.4247 H   0  0  0  0  0  0
  -27.5217  -15.0474   21.4538 H   0  0  0  0  0  0
  -25.2887   -9.5742   22.4777 H   0  0  0  0  0  0
  -24.0081   -7.4711   22.7535 H   0  0  0  0  0  0
  -21.0948   -8.8851   19.8964 H   0  0  0  0  0  0
  -22.3863  -10.9704   19.6143 H   0  0  0  0  0  0
  -21.2006   -7.6168   23.9732 H   0  0  0  0  0  0
  -21.1461   -6.0529   25.9076 H   0  0  0  0  0  0
  -22.0596   -2.7637   23.2827 H   0  0  0  0  0  0
  -22.3787  -11.9681   22.5002 H   0  0  0  0  0  0
  -21.0620  -13.0858   22.2751 H   0  0  0  0  0  0
  -24.4158  -15.8317   20.5092 H   0  0  0  0  0  0
  -26.0501  -15.7303   20.0745 H   0  0  0  0  0  0
  -26.9703  -32.5022   22.6460 H   0  0  0  0  0  0
  -24.9741  -33.6787   24.5539 H   0  0  0  0  0  0
  -22.5103  -27.7409   21.2272 H   0  0  0  0  0  0
  -23.4120  -35.8612   23.2765 H   0  0  0  0  0  0
  -24.3401  -36.9349   22.2411 H   0  0  0  0  0  0
  -23.6876  -37.5196   23.7748 H   0  0  0  0  0  0
  -25.2037  -30.3871   19.1132 H   0  0  0  0  0  0
  -26.4069  -31.0007   20.1008 H   0  0  0  0  0  0
  -28.0761  -29.9590   20.5780 H   0  0  0  0  0  0
  -28.4489  -25.7716   20.9239 H   0  0  0  0  0  0
  -27.1623  -25.4664   19.1464 H   0  0  0  0  0  0
  -23.7362  -25.7009   21.2708 H   0  0  0  0  0  0
  -24.7219  -26.0176   22.5533 H   0  0  0  0  0  0
  -25.1817  -35.9937   25.0331 H   0  0  0  0  0  0
  -20.4484  -27.7585   24.5435 H   0  0  0  0  0  0
  -19.6124  -25.7960   23.5046 H   0  0  0  0  0  0
  -21.0671  -25.9208   22.6476 H   0  0  0  0  0  0
  -19.3441  -25.5564   21.0150 H   0  0  0  0  0  0
  -19.6987  -27.2696   20.8413 H   0  0  0  0  0  0
  -17.2532  -26.9120   21.1296 H   0  0  0  0  0  0
  -17.5068  -26.0173   22.6018 H   0  0  0  0  0  0
  -19.7647  -30.4455   24.3980 H   0  0  0  0  0  0
  -17.5668  -31.6123   24.5374 H   0  0  0  0  0  0
  -15.5166  -30.4810   23.6967 H   0  0  0  0  0  0
  -15.6813  -28.3000   22.5409 H   0  0  0  0  0  0
  -24.6197  -30.8516   25.2902 H   0  0  0  0  0  0
  -25.0849  -32.0810   26.3633 H   0  0  0  0  0  0
  -25.9071  -30.5395   26.4548 H   0  0  0  0  0  0
  -27.8834  -30.5052   23.4704 H   0  0  0  0  0  0
  -28.1243  -30.2505   25.2881 H   0  0  0  0  0  0
  -28.7164  -31.5184   24.3572 H   0  0  0  0  0  0
  -26.6965  -33.5545   26.0994 H   0  0  0  0  0  0
  -28.0894  -33.3922   25.0945 H   0  0  0  0  0  0
  -27.8720  -32.3348   26.4906 H   0  0  0  0  0  0
  -28.2153  -38.0140   24.8133 H   0  0  0  0  0  0
  -28.1429  -36.2763   24.5658 H   0  0  0  0  0  0
  -27.2481  -37.0235   25.8931 H   0  0  0  0  0  0
  -20.9684  -28.9970   21.9793 H   0  0  0  0  0  0
  -25.9516  -38.2194   24.2319 H   0  0  0  0  0  0
  -24.8588  -22.6579   16.7609 H   0  0  0  0  0  0
  -26.0378  -20.8967   17.6644 H   0  0  0  0  0  0
  -26.3820  -23.6538   20.9545 H   0  0  0  0  0  0
  -21.5477  -30.3297   19.9433 H   0  0  0  0  0  0
  -26.0025  -27.4641   22.3224 H   0  0  0  0  0  0
  -26.2682  -29.1381   21.8308 H   0  0  0  0  0  0
  -24.4318  -29.0447   24.3094 H   0  0  0  0  0  0
  -24.4775  -24.8061   16.0974 H   0  0  0  0  0  0
  -24.2146  -26.1488   17.1962 H   0  0  0  0  0  0
  -22.9849  -24.8749   17.0640 H   0  0  0  0  0  0
  -26.2622  -27.7673   24.1690 H   0  0  0  0  0  0
  -26.8384  -28.8917   24.6567 H   0  0  0  0  0  0
  -28.3772  -19.7075   20.7903 H   0  0  0  0  0  0
  1 25  1  0  0  0
  1 30  2  0  0  0
  1 85  1  0  0  0
  2  3  1  0  0  0
  2 25  1  0  0  0
  2 88  1  0  0  0
  2 89  1  0  0  0
  3  4  1  0  0  0
  3 90  1  0  0  0
  3 91  1  0  0  0
  4  5  1  0  0  0
  4 92  1  0  0  0
  4 93  1  0  0  0
  5  6  1  0  0  0
  5 26  1  0  0  0
  5 94  1  0  0  0
  6 25  1  0  0  0
  6 95  1  0  0  0
  6 96  1  0  0  0
  7  8  2  0  0  0
  7 26  1  0  0  0
  7 29  1  0  0  0
  8  9  1  0  0  0
  8 22  1  0  0  0
  9 10  1  0  0  0
  9 27  2  0  0  0
 10 11  2  0  0  0
 10 15  1  0  0  0
 11 12  1  0  0  0
 11 97  1  0  0  0
 12 13  2  0  0  0
 12 98  1  0  0  0
 13 14  1  0  0  0
 13 31  1  0  0  0
 14 15  2  0  0  0
 14 99  1  0  0  0
 15100  1  0  0  0
 16 17  2  0  0  0
 16 21  1  0  0  0
 16 31  1  0  0  0
 17 18  1  0  0  0
 17101  1  0  0  0
 18 19  2  0  0  0
 18102  1  0  0  0
 19 20  1  0  0  0
 19 24  1  0  0  0
 20 21  2  0  0  0
 20103  1  0  0  0
 21 23  1  0  0  0
 22 28  1  0  0  0
 22 32  2  0  0  0
 26 27  1  0  0  0
 28104  1  0  0  0
 28105  1  0  0  0
 29106  1  0  0  0
 29107  1  0  0  0
 33 34  1  0  0  0
 33 66  1  0  0  0
 33 70  2  0  0  0
 34 36  1  0  0  0
 34 59  1  0  0  0
 34108  1  0  0  0
 35 44  2  0  0  0
 35 45  1  0  0  0
 35 68  1  0  0  0
 36 56  1  0  0  0
 36109  1  0  0  0
 37 39  1  0  0  0
 37 47  1  0  0  0
 37 66  1  0  0  0
 37110  1  0  0  0
 38 43  2  0  0  0
 38 46  1  0  0  0
 38 47  1  0  0  0
 39 64  1  0  0  0
 39 67  2  0  0  0
 40 52  1  0  0  0
 40 53  2  0  0  0
 40 58  1  0  0  0
 41111  1  0  0  0
 41112  1  0  0  0
 41113  1  0  0  0
 41 48  1  0  0  0
 42 43  1  0  0  0
 42 66  1  0  0  0
 42114  1  0  0  0
 42115  1  0  0  0
 43 44  1  0  0  0
 44116  1  0  0  0
 45 46  2  0  0  0
 45117  1  0  0  0
 46118  1  0  0  0
 47119  1  0  0  0
 47120  1  0  0  0
 48 56  1  0  0  0
 48 65  1  0  0  0
 48121  1  0  0  0
 49 50  1  0  0  0
 49 53  1  0  0  0
 49 64  1  0  0  0
 49122  1  0  0  0
 50 51  1  0  0  0
 50123  1  0  0  0
 50124  1  0  0  0
 51 52  1  0  0  0
 51125  1  0  0  0
 51126  1  0  0  0
 52127  1  0  0  0
 52128  1  0  0  0
 53 54  1  0  0  0
 54 55  2  0  0  0
 54129  1  0  0  0
 55 57  1  0  0  0
 55130  1  0  0  0
 56 69  2  0  0  0
 57 58  2  0  0  0
 57131  1  0  0  0
 58132  1  0  0  0
 59 60  1  0  0  0
 59 61  1  0  0  0
 59 62  1  0  0  0
 60133  1  0  0  0
 60134  1  0  0  0
 60135  1  0  0  0
 61136  1  0  0  0
 61137  1  0  0  0
 61138  1  0  0  0
 62139  1  0  0  0
 62140  1  0  0  0
 62141  1  0  0  0
 63 65  1  0  0  0
 63142  1  0  0  0
 63143  1  0  0  0
 63144  1  0  0  0
 64145  1  0  0  0
 65146  1  0  0  0
 68 83  1  0  0  0
 71 72  2  0  0  0
 71 74  1  0  0  0
 71147  1  0  0  0
 72 76  1  0  0  0
 72148  1  0  0  0
 73 75  1  0  0  0
 73 76  2  0  0  0
 73149  1  0  0  0
 74 75  2  0  0  0
 74 82  1  0  0  0
 75 84  1  0  0  0
 76 85  1  0  0  0
 77 78  2  0  0  0
 77 79  1  0  0  0
 77150  1  0  0  0
 78 81  1  0  0  0
 78 86  1  0  0  0
 79 84  1  0  0  0
 79 87  2  0  0  0
 80 81  1  0  0  0
 80 84  1  0  0  0
 80151  1  0  0  0
 80152  1  0  0  0
 81 83  1  0  0  0
 81153  1  0  0  0
 82154  1  0  0  0
 82155  1  0  0  0
 82156  1  0  0  0
 83157  1  0  0  0
 83158  1  0  0  0
 85159  1  0  0  0
M  CHG  1  86  -1
M  ISO  4   1 100  68 101  83 101  85 100
M  END
> <chiral flag>
0

> <version>
0

> <s_m_source_file>
/data/baiqing/PycharmProjects/Reinvent-master-3.2/result/LINK_invent/BTK/process_docking_weight1_custom_product_contain_oxygen_bond_distance_aromatic_linkinvent_7_9_3/rearranged_h_0061.sdf

> <i_m_source_file_index>
27

> <r_mmod_Potential_Energy-OPLS-2005>
34017.62109375

> <r_mmod_Stretch_Energy-OPLS-2005>
15467.2861328125

> <r_mmod_Bend_Energy-OPLS-2005>
2967.7626953125

> <r_mmod_Torsional_Energy-OPLS-2005>
809.029968261719

> <r_mmod_Improper_Torsional_Energy-OPLS-2005>
70.5650634765625

> <r_mmod_Van_der_Waal_Energy-OPLS-2005>
4710.6552734375

> <r_mmod_Electrostatic_Energy-OPLS-2005>
-426.369018554688

> <r_mmod_Solvation_Energy-OPLS-2005>
-439.424682617188

> <b_mmod_Minimization_Converged-OPLS-2005>
0

> <r_mmod_RMS_Derivative-OPLS-2005>
8.19262409210205

$$$$
27
                    3D
 Structure written by MMmdl.
162171  0  0  1  0            999 V2000
  -30.5883  -14.8126   20.4564 C   0  0  0  0  0  0
  -30.4344  -12.4936   19.4927 C   0  0  0  0  0  0
  -29.5178  -12.5247   18.2485 C   0  0  0  0  0  0
  -28.0436  -12.3363   18.6549 C   0  0  0  0  0  0
  -27.6393  -13.2411   19.8486 C   0  0  2  0  0  0
  -28.6806  -13.1974   20.9865 C   0  0  0  0  0  0
  -25.2501  -13.8214   20.5697 C   0  0  0  0  0  0
  -24.1802  -13.0447   20.9211 C   0  0  0  0  0  0
  -24.6404  -11.6928   20.8745 C   0  0  0  0  0  0
  -23.9083  -10.4299   21.0404 C   0  0  0  0  0  0
  -24.3630   -9.4212   21.9183 C   0  0  0  0  0  0
  -23.6301   -8.2248   22.0754 C   0  0  0  0  0  0
  -22.4283   -8.0286   21.3546 C   0  0  0  0  0  0
  -21.9921   -9.0260   20.4646 C   0  0  0  0  0  0
  -22.7252  -10.2138   20.3054 C   0  0  0  0  0  0
  -21.6857   -6.0738   22.5278 C   0  0  0  0  0  0
  -21.4019   -6.5641   23.8212 C   0  0  0  0  0  0
  -21.3661   -5.6795   24.9174 C   0  0  0  0  0  0
  -21.6043   -4.3056   24.7224 C   0  0  0  0  0  0
  -21.8820   -3.8148   23.4345 C   0  0  0  0  0  0
  -21.9194   -4.6965   22.3401 C   0  0  0  0  0  0
  -22.7821  -13.5220   21.1870 C   0  0  0  0  0  0
  -22.1661   -4.2151   21.0978 F   0  0  0  0  0  0
  -21.5628   -3.4539   25.7737 F   0  0  0  0  0  0
  -29.9801  -13.5677   20.4141 N   0  0  0  0  0  0
  -26.2929  -12.9436   20.3265 N   0  0  0  0  0  0
  -25.9338  -11.6570   20.5742 N   0  0  0  0  0  0
  -22.0469  -12.8204   22.0424 N   0  0  0  0  0  0
  -25.4201  -15.1937   20.4109 N   0  0  0  0  0  0
  -31.7721  -14.8692   20.1021 O   0  0  0  0  0  0
  -21.6645   -6.8883   21.4242 O   0  0  0  0  0  0
  -22.3499  -14.5522   20.6716 O   0  0  0  0  0  0
  -24.6358  -31.8512   23.1952 C   0  0  0  0  0  0
  -25.9165  -32.4733   23.8310 C   0  0  1  0  0  0
  -27.2158  -27.2130   20.1361 C   0  0  0  0  0  0
  -25.5945  -33.8537   24.2232 N   0  0  0  0  0  0
  -23.4350  -30.4732   21.5395 C   0  0  2  0  0  0
  -24.8829  -28.9151   20.1077 C   0  0  0  0  0  0
  -22.7528  -29.4581   22.4893 C   0  0  0  0  0  0
  -18.0296  -28.1389   22.8482 C   0  0  0  0  0  0
  -24.1491  -36.7271   23.2641 C   0  0  0  0  0  0
  -25.9854  -30.7484   21.3835 C   0  0  0  0  0  0
  -26.0567  -29.3675   20.7235 C   0  0  0  0  0  0
  -27.2248  -28.5300   20.7255 C   0  0  0  0  0  0
  -26.0199  -26.8481   19.4769 C   0  0  0  0  0  0
  -24.8728  -27.6659   19.4710 C   0  0  0  0  0  0
  -23.6560  -29.8075   20.1560 C   0  0  0  0  0  0
  -25.4121  -36.3056   24.0322 C   0  0  1  0  0  0
  -20.5903  -28.3704   23.1258 C   0  0  2  0  0  0
  -20.6783  -26.9416   22.5407 C   0  0  0  0  0  0
  -19.5757  -26.6381   21.5214 C   0  0  0  0  0  0
  -18.1938  -26.7930   22.1624 C   0  0  0  0  0  0
  -19.1551  -28.8865   23.2861 C   0  0  0  0  0  0
  -18.9471  -30.1465   23.8881 C   0  0  0  0  0  0
  -17.6469  -30.6589   24.0560 C   0  0  0  0  0  0
  -25.9065  -34.9428   23.5081 C   0  0  0  0  0  0
  -16.5360  -29.9084   23.6335 C   0  0  0  0  0  0
  -16.7283  -28.6503   23.0356 C   0  0  0  0  0  0
  -26.4513  -31.6578   25.0722 C   0  0  0  0  0  0
  -25.3717  -31.3743   26.1428 C   0  0  0  0  0  0
  -27.0374  -30.2988   24.6249 C   0  0  0  0  0  0
  -27.6052  -32.4333   25.7504 C   0  0  0  0  0  0
  -27.5578  -37.1794   24.8466 C   0  0  0  0  0  0
  -21.4228  -29.3043   22.3642 N   0  0  0  0  0  0
  -26.4292  -37.3762   23.9407 N   0  0  0  0  0  0
  -24.7047  -31.0436   22.0951 N   0  0  0  0  0  0
  -23.4208  -28.8122   23.3011 O   0  0  0  0  0  0
  -28.2871  -26.2742   20.2189 O   0  0  0  0  0  0
  -26.5641  -34.8912   22.4653 O   0  0  0  0  0  0
  -23.5496  -32.1357   23.7219 O   0  0  0  0  0  0
  -27.3799  -19.5921   16.5583 C   0  0  0  0  0  0
  -28.4086  -20.2386   15.8454 C   0  0  0  0  0  0
  -27.6461  -19.0212   17.8187 C   0  0  0  0  0  0
  -29.7051  -20.3128   16.3918 C   0  0  0  0  0  0
  -28.9468  -19.0968   18.3710 C   0  0  0  0  0  0
  -29.9765  -19.7413   17.6498 C   0  0  0  0  0  0
  -29.5006  -19.3898   20.7392 C   0  0  0  0  0  0
  -29.3768  -17.0806   19.6087 C   0  0  0  0  0  0
  -29.3321  -20.7914   20.8890 C   0  0  0  0  0  0
  -28.7329  -22.0042   20.0980 C   0  0  0  0  0  0
  -30.0686  -18.5985   21.9448 C   0  0  0  0  0  0
  -30.7433  -17.2135   21.6579 C   0  0  0  0  0  0
  -29.8593  -16.2265   20.8519 C   0  0  2  0  0  0
  -28.9908  -23.5556   20.5132 C   0  0  0  0  0  0
  -28.0341  -24.7852   19.9839 C   0  0  0  0  0  0
  -29.2418  -18.4872   19.6234 N   0  0  0  0  0  0
  -29.0715  -16.4312   18.5986 O   0  0  0  0  0  0
  -27.9814  -21.8276   19.1404 O   0  0  0  0  0  0
  -31.2315  -19.8051   18.1577 F   0  0  0  0  0  0
  -31.4758  -12.6146   19.1913 H   0  0  0  0  0  0
  -30.3824  -11.5217   19.9858 H   0  0  0  0  0  0
  -29.8134  -11.7504   17.5394 H   0  0  0  0  0  0
  -29.6364  -13.4785   17.7314 H   0  0  0  0  0  0
  -27.9073  -11.2882   18.9233 H   0  0  0  0  0  0
  -27.3890  -12.5199   17.8022 H   0  0  0  0  0  0
  -27.6262  -14.2594   19.4610 H   0  0  0  0  0  0
  -28.7273  -12.2015   21.4295 H   0  0  0  0  0  0
  -28.3996  -13.8719   21.7952 H   0  0  0  0  0  0
  -25.2773   -9.5686   22.4760 H   0  0  0  0  0  0
  -24.0008   -7.4640   22.7476 H   0  0  0  0  0  0
  -21.0852   -8.8780   19.8951 H   0  0  0  0  0  0
  -22.3711  -10.9677   19.6164 H   0  0  0  0  0  0
  -21.2014   -7.6150   23.9717 H   0  0  0  0  0  0
  -21.1481   -6.0524   25.9078 H   0  0  0  0  0  0
  -22.0598   -2.7611   23.2845 H   0  0  0  0  0  0
  -22.4091  -11.9865   22.4806 H   0  0  0  0  0  0
  -21.1087  -13.1224   22.2634 H   0  0  0  0  0  0
  -24.6502  -15.8464   20.5092 H   0  0  0  0  0  0
  -26.2606  -15.6231   20.0472 H   0  0  0  0  0  0
  -26.7229  -32.5365   23.1044 H   0  0  0  0  0  0
  -25.0087  -33.9668   25.0374 H   0  0  0  0  0  0
  -22.7332  -31.2967   21.3918 H   0  0  0  0  0  0
  -23.3760  -35.9595   23.3295 H   0  0  0  0  0  0
  -24.3577  -36.8907   22.2057 H   0  0  0  0  0  0
  -23.7236  -37.6462   23.6677 H   0  0  0  0  0  0
  -26.1327  -31.5078   20.6143 H   0  0  0  0  0  0
  -26.8593  -30.7958   22.0216 H   0  0  0  0  0  0
  -28.1190  -28.8685   21.2300 H   0  0  0  0  0  0
  -25.9358  -25.8966   18.9738 H   0  0  0  0  0  0
  -23.9768  -27.3168   18.9764 H   0  0  0  0  0  0
  -23.7840  -30.5843   19.4010 H   0  0  0  0  0  0
  -22.7727  -29.2443   19.8492 H   0  0  0  0  0  0
  -25.1306  -36.1897   25.0815 H   0  0  0  0  0  0
  -20.9992  -28.3288   24.1379 H   0  0  0  0  0  0
  -20.5688  -26.2315   23.3617 H   0  0  0  0  0  0
  -21.6651  -26.7438   22.1200 H   0  0  0  0  0  0
  -19.6920  -25.6289   21.1252 H   0  0  0  0  0  0
  -19.6697  -27.3184   20.6738 H   0  0  0  0  0  0
  -17.4209  -26.6677   21.4025 H   0  0  0  0  0  0
  -18.0332  -26.0073   22.9021 H   0  0  0  0  0  0
  -19.7946  -30.7283   24.2245 H   0  0  0  0  0  0
  -17.5024  -31.6269   24.5161 H   0  0  0  0  0  0
  -15.5360  -30.2982   23.7668 H   0  0  0  0  0  0
  -15.8681  -28.0819   22.7079 H   0  0  0  0  0  0
  -24.5895  -30.7093   25.7747 H   0  0  0  0  0  0
  -24.8906  -32.2918   26.4826 H   0  0  0  0  0  0
  -25.8013  -30.8931   27.0223 H   0  0  0  0  0  0
  -26.2976  -29.6721   24.1255 H   0  0  0  0  0  0
  -27.4017  -29.7270   25.4793 H   0  0  0  0  0  0
  -27.8870  -30.4249   23.9535 H   0  0  0  0  0  0
  -27.2650  -33.3648   26.2041 H   0  0  0  0  0  0
  -28.3884  -32.6873   25.0348 H   0  0  0  0  0  0
  -28.0696  -31.8485   26.5453 H   0  0  0  0  0  0
  -28.2592  -38.0095   24.7514 H   0  0  0  0  0  0
  -28.1079  -36.2625   24.6295 H   0  0  0  0  0  0
  -27.2294  -37.1445   25.8868 H   0  0  0  0  0  0
  -20.9424  -29.8765   21.6839 H   0  0  0  0  0  0
  -26.0165  -38.2833   24.1406 H   0  0  0  0  0  0
  -26.3852  -19.5335   16.1383 H   0  0  0  0  0  0
  -28.2043  -20.6764   14.8783 H   0  0  0  0  0  0
  -26.8539  -18.5227   18.3592 H   0  0  0  0  0  0
  -30.4957  -20.8051   15.8445 H   0  0  0  0  0  0
  -29.6589  -21.1382   21.8582 H   0  0  0  0  0  0
  -29.2519  -18.4582   22.6550 H   0  0  0  0  0  0
  -30.8012  -19.2239   22.4572 H   0  0  0  0  0  0
  -31.0227  -16.7500   22.6047 H   0  0  0  0  0  0
  -31.6817  -17.3801   21.1252 H   0  0  0  0  0  0
  -28.9709  -16.0038   21.4397 H   0  0  0  0  0  0
  -30.0108  -23.7766   20.2005 H   0  0  0  0  0  0
  -29.0109  -23.5891   21.6021 H   0  0  0  0  0  0
  -27.0497  -24.5610   20.3961 H   0  0  0  0  0  0
  -27.9316  -24.6644   18.9050 H   0  0  0  0  0  0
  1 25  1  0  0  0
  1 30  2  0  0  0
  1 83  1  0  0  0
  2  3  1  0  0  0
  2 25  1  0  0  0
  2 90  1  0  0  0
  2 91  1  0  0  0
  3  4  1  0  0  0
  3 92  1  0  0  0
  3 93  1  0  0  0
  4  5  1  0  0  0
  4 94  1  0  0  0
  4 95  1  0  0  0
  5  6  1  0  0  0
  5 26  1  0  0  0
  5 96  1  0  0  0
  6 25  1  0  0  0
  6 97  1  0  0  0
  6 98  1  0  0  0
  7  8  2  0  0  0
  7 26  1  0  0  0
  7 29  1  0  0  0
  8  9  1  0  0  0
  8 22  1  0  0  0
  9 10  1  0  0  0
  9 27  2  0  0  0
 10 11  2  0  0  0
 10 15  1  0  0  0
 11 12  1  0  0  0
 11 99  1  0  0  0
 12 13  2  0  0  0
 12100  1  0  0  0
 13 14  1  0  0  0
 13 31  1  0  0  0
 14 15  2  0  0  0
 14101  1  0  0  0
 15102  1  0  0  0
 16 17  2  0  0  0
 16 21  1  0  0  0
 16 31  1  0  0  0
 17 18  1  0  0  0
 17103  1  0  0  0
 18 19  2  0  0  0
 18104  1  0  0  0
 19 20  1  0  0  0
 19 24  1  0  0  0
 20 21  2  0  0  0
 20105  1  0  0  0
 21 23  1  0  0  0
 22 28  1  0  0  0
 22 32  2  0  0  0
 26 27  1  0  0  0
 28106  1  0  0  0
 28107  1  0  0  0
 29108  1  0  0  0
 29109  1  0  0  0
 33 34  1  0  0  0
 33 66  1  0  0  0
 33 70  2  0  0  0
 34 36  1  0  0  0
 34 59  1  0  0  0
 34110  1  0  0  0
 35 44  2  0  0  0
 35 45  1  0  0  0
 35 68  1  0  0  0
 36 56  1  0  0  0
 36111  1  0  0  0
 37 39  1  0  0  0
 37 47  1  0  0  0
 37 66  1  0  0  0
 37112  1  0  0  0
 38 43  2  0  0  0
 38 46  1  0  0  0
 38 47  1  0  0  0
 39 64  1  0  0  0
 39 67  2  0  0  0
 40 52  1  0  0  0
 40 53  2  0  0  0
 40 58  1  0  0  0
 41113  1  0  0  0
 41114  1  0  0  0
 41115  1  0  0  0
 41 48  1  0  0  0
 42 43  1  0  0  0
 42 66  1  0  0  0
 42116  1  0  0  0
 42117  1  0  0  0
 43 44  1  0  0  0
 44118  1  0  0  0
 45 46  2  0  0  0
 45119  1  0  0  0
 46120  1  0  0  0
 47121  1  0  0  0
 47122  1  0  0  0
 48 56  1  0  0  0
 48 65  1  0  0  0
 48123  1  0  0  0
 49 50  1  0  0  0
 49 53  1  0  0  0
 49 64  1  0  0  0
 49124  1  0  0  0
 50 51  1  0  0  0
 50125  1  0  0  0
 50126  1  0  0  0
 51 52  1  0  0  0
 51127  1  0  0  0
 51128  1  0  0  0
 52129  1  0  0  0
 52130  1  0  0  0
 53 54  1  0  0  0
 54 55  2  0  0  0
 54131  1  0  0  0
 55 57  1  0  0  0
 55132  1  0  0  0
 56 69  2  0  0  0
 57 58  2  0  0  0
 57133  1  0  0  0
 58134  1  0  0  0
 59 60  1  0  0  0
 59 61  1  0  0  0
 59 62  1  0  0  0
 60135  1  0  0  0
 60136  1  0  0  0
 60137  1  0  0  0
 61138  1  0  0  0
 61139  1  0  0  0
 61140  1  0  0  0
 62141  1  0  0  0
 62142  1  0  0  0
 62143  1  0  0  0
 63 65  1  0  0  0
 63144  1  0  0  0
 63145  1  0  0  0
 63146  1  0  0  0
 64147  1  0  0  0
 65148  1  0  0  0
 68 85  1  0  0  0
 71 72  2  0  0  0
 71 73  1  0  0  0
 71149  1  0  0  0
 72 74  1  0  0  0
 72150  1  0  0  0
 73 75  2  0  0  0
 73151  1  0  0  0
 74 76  2  0  0  0
 74152  1  0  0  0
 75 76  1  0  0  0
 75 86  1  0  0  0
 76 89  1  0  0  0
 77 79  2  0  0  0
 77 81  1  0  0  0
 77 86  1  0  0  0
 78 83  1  0  0  0
 78 86  1  0  0  0
 78 87  2  0  0  0
 79 80  1  0  0  0
 79153  1  0  0  0
 80 84  1  0  0  0
 80 88  2  0  0  0
 81 82  1  0  0  0
 81154  1  0  0  0
 81155  1  0  0  0
 82 83  1  0  0  0
 82156  1  0  0  0
 82157  1  0  0  0
 83158  1  0  0  0
 84 85  1  0  0  0
 84159  1  0  0  0
 84160  1  0  0  0
 85161  1  0  0  0
 85162  1  0  0  0
M  ISO  4   1 100  68 101  83 100  85 101
M  END
> <chiral flag>
0

> <version>
0

> <s_m_source_file>
/data/baiqing/PycharmProjects/Reinvent-master-3.2/result/LINK_invent/BTK/process_docking_weight1_custom_product_contain_oxygen_bond_distance_aromatic_linkinvent_7_9_3/rearranged_h_0061.sdf

> <i_m_source_file_index>
28

> <r_mmod_Potential_Energy-OPLS-2005>
404.000671386719

> <r_mmod_Stretch_Energy-OPLS-2005>
179.32405090332

> <r_mmod_Bend_Energy-OPLS-2005>
237.406234741211

> <r_mmod_Torsional_Energy-OPLS-2005>
225.41325378418

> <r_mmod_Improper_Torsional_Energy-OPLS-2005>
2.91910481452942

> <r_mmod_Van_der_Waal_Energy-OPLS-2005>
147.664962768555

> <r_mmod_Electrostatic_Energy-OPLS-2005>
-290.947387695312

> <r_mmod_Solvation_Energy-OPLS-2005>
-214.140838623047

> <b_mmod_Minimization_Converged-OPLS-2005>
0

> <r_mmod_RMS_Derivative-OPLS-2005>
0.37136247754097

$$$$
28
                    3D
 Structure written by MMmdl.
156164  0  0  1  0            999 V2000
  -30.6633  -14.6214   20.4515 C   0  0  0  0  0  0
  -30.4125  -12.3697   19.4540 C   0  0  0  0  0  0
  -29.4952  -12.4871   18.2190 C   0  0  0  0  0  0
  -28.0184  -12.3385   18.6336 C   0  0  0  0  0  0
  -27.6424  -13.2253   19.8522 C   0  0  2  0  0  0
  -28.6891  -13.1170   20.9842 C   0  0  0  0  0  0
  -25.2479  -13.8173   20.5658 C   0  0  0  0  0  0
  -24.1787  -13.0422   20.9216 C   0  0  0  0  0  0
  -24.6386  -11.6911   20.8771 C   0  0  0  0  0  0
  -23.9064  -10.4290   21.0421 C   0  0  0  0  0  0
  -24.3618   -9.4200   21.9188 C   0  0  0  0  0  0
  -23.6297   -8.2233   22.0759 C   0  0  0  0  0  0
  -22.4276   -8.0278   21.3547 C   0  0  0  0  0  0
  -21.9914   -9.0246   20.4643 C   0  0  0  0  0  0
  -22.7248  -10.2124   20.3053 C   0  0  0  0  0  0
  -21.6840   -6.0731   22.5280 C   0  0  0  0  0  0
  -21.4003   -6.5639   23.8216 C   0  0  0  0  0  0
  -21.3654   -5.6785   24.9174 C   0  0  0  0  0  0
  -21.6046   -4.3047   24.7222 C   0  0  0  0  0  0
  -21.8826   -3.8145   23.4341 C   0  0  0  0  0  0
  -21.9197   -4.6960   22.3400 C   0  0  0  0  0  0
  -22.7816  -13.5201   21.1883 C   0  0  0  0  0  0
  -22.1661   -4.2150   21.0975 F   0  0  0  0  0  0
  -21.5632   -3.4527   25.7731 F   0  0  0  0  0  0
  -30.0018  -13.4240   20.4040 N   0  0  0  0  0  0
  -26.2925  -12.9386   20.3280 N   0  0  0  0  0  0
  -25.9309  -11.6534   20.5776 N   0  0  0  0  0  0
  -22.0451  -12.8185   22.0419 N   0  0  0  0  0  0
  -25.4108  -15.1881   20.3970 N   0  0  0  0  0  0
  -31.8545  -14.6693   20.1433 O   0  0  0  0  0  0
  -21.6637   -6.8877   21.4244 O   0  0  0  0  0  0
  -22.3506  -14.5512   20.6739 O   0  0  0  0  0  0
  -24.6219  -31.8597   23.2037 C   0  0  0  0  0  0
  -25.9084  -32.4779   23.8339 C   0  0  1  0  0  0
  -27.2222  -27.3561   20.1176 C   0  0  0  0  0  0
  -25.5924  -33.8580   24.2283 N   0  0  0  0  0  0
  -23.4133  -30.4838   21.5438 C   0  0  2  0  0  0
  -24.8588  -28.9365   20.1142 C   0  0  0  0  0  0
  -22.7447  -29.4632   22.4949 C   0  0  0  0  0  0
  -18.0279  -28.1382   22.8496 C   0  0  0  0  0  0
  -24.1473  -36.7272   23.2646 C   0  0  0  0  0  0
  -25.9487  -30.8042   21.3641 C   0  0  0  0  0  0
  -26.0248  -29.4326   20.7119 C   0  0  0  0  0  0
  -27.2143  -28.6544   20.7001 C   0  0  0  0  0  0
  -26.0379  -26.8917   19.5109 C   0  0  0  0  0  0
  -24.8637  -27.6705   19.5041 C   0  0  0  0  0  0
  -23.6256  -29.8136   20.1601 C   0  0  0  0  0  0
  -25.4101  -36.3083   24.0345 C   0  0  1  0  0  0
  -20.5877  -28.3671   23.1299 C   0  0  2  0  0  0
  -20.6762  -26.9396   22.5426 C   0  0  0  0  0  0
  -19.5758  -26.6384   21.5215 C   0  0  0  0  0  0
  -18.1925  -26.7945   22.1593 C   0  0  0  0  0  0
  -19.1530  -28.8846   23.2894 C   0  0  0  0  0  0
  -18.9459  -30.1453   23.8899 C   0  0  0  0  0  0
  -17.6460  -30.6588   24.0577 C   0  0  0  0  0  0
  -25.9043  -34.9460   23.5114 C   0  0  0  0  0  0
  -16.5349  -29.9085   23.6352 C   0  0  0  0  0  0
  -16.7265  -28.6512   23.0348 C   0  0  0  0  0  0
  -26.4486  -31.6568   25.0684 C   0  0  0  0  0  0
  -25.3753  -31.3693   26.1434 C   0  0  0  0  0  0
  -27.0306  -30.2998   24.6082 C   0  0  0  0  0  0
  -27.6042  -32.4287   25.7467 C   0  0  0  0  0  0
  -27.5566  -37.1800   24.8472 C   0  0  0  0  0  0
  -21.4166  -29.3029   22.3698 N   0  0  0  0  0  0
  -26.4279  -37.3772   23.9423 N   0  0  0  0  0  0
  -24.6801  -31.0654   22.0952 N   0  0  0  0  0  0
  -23.4195  -28.8174   23.3014 O   0  0  0  0  0  0
  -28.3521  -26.5461   20.1084 O   0  0  0  0  0  0
  -26.5603  -34.8933   22.4672 O   0  0  0  0  0  0
  -23.5405  -32.1352   23.7428 O   0  0  0  0  0  0
  -31.8400  -18.9280   19.7245 C   0  0  0  0  0  0
  -31.5195  -17.5861   19.9908 C   0  0  0  0  0  0
  -30.8765  -19.9370   19.8532 C   0  0  0  0  0  0
  -29.2329  -18.2397   20.5218 C   0  0  0  0  0  0
  -30.2192  -17.1826   20.3920 C   0  0  0  0  0  0
  -29.5646  -19.6289   20.2599 C   0  0  0  0  0  0
  -28.4519  -24.0002   19.7629 C   0  0  0  0  0  0
  -27.8105  -17.8851   20.9317 C   0  0  0  0  0  0
  -28.2248  -25.2172   20.7244 C   0  0  0  0  0  0
  -29.2479  -22.7474   20.2657 C   0  0  0  0  0  0
  -27.7243  -21.0523   21.7887 N   0  0  0  0  0  0
  -29.9100  -15.7596   20.6426 N   0  0  0  0  0  0
  -28.0678  -24.0638   18.5898 O   0  0  0  0  0  0
  -27.4611  -20.9507   19.1943 O   0  0  0  0  0  0
  -28.3612  -21.0596   20.3547 S   0  0  2  0  0  0
  -31.4595  -12.4492   19.1571 H   0  0  0  0  0  0
  -30.3089  -11.3842   19.9112 H   0  0  0  0  0  0
  -29.7556  -11.7259   17.4821 H   0  0  0  0  0  0
  -29.6483  -13.4500   17.7291 H   0  0  0  0  0  0
  -27.8524  -11.2887   18.8779 H   0  0  0  0  0  0
  -27.3634  -12.5554   17.7889 H   0  0  0  0  0  0
  -27.6503  -14.2553   19.4945 H   0  0  0  0  0  0
  -28.6911  -12.1132   21.4100 H   0  0  0  0  0  0
  -28.4488  -13.7953   21.8045 H   0  0  0  0  0  0
  -25.2770   -9.5667   22.4755 H   0  0  0  0  0  0
  -24.0004   -7.4613   22.7469 H   0  0  0  0  0  0
  -21.0851   -8.8759   19.8937 H   0  0  0  0  0  0
  -22.3719  -10.9652   19.6147 H   0  0  0  0  0  0
  -21.1980   -7.6139   23.9714 H   0  0  0  0  0  0
  -21.1466   -6.0509   25.9078 H   0  0  0  0  0  0
  -22.0610   -2.7602   23.2830 H   0  0  0  0  0  0
  -22.4057  -11.9822   22.4777 H   0  0  0  0  0  0
  -21.1058  -13.1191   22.2617 H   0  0  0  0  0  0
  -24.6289  -15.8277   20.4864 H   0  0  0  0  0  0
  -26.2242  -15.6124   19.9743 H   0  0  0  0  0  0
  -26.7153  -32.5456   23.1090 H   0  0  0  0  0  0
  -25.0128  -33.9724   25.0468 H   0  0  0  0  0  0
  -22.7072  -31.3052   21.4021 H   0  0  0  0  0  0
  -23.3763  -35.9572   23.3295 H   0  0  0  0  0  0
  -24.3578  -36.8899   22.2063 H   0  0  0  0  0  0
  -23.7185  -37.6461   23.6656 H   0  0  0  0  0  0
  -26.0723  -31.5660   20.5939 H   0  0  0  0  0  0
  -26.8335  -30.8553   21.9868 H   0  0  0  0  0  0
  -28.1144  -29.0378   21.1597 H   0  0  0  0  0  0
  -26.0198  -25.9197   19.0387 H   0  0  0  0  0  0
  -23.9693  -27.2861   19.0333 H   0  0  0  0  0  0
  -23.7439  -30.5862   19.3993 H   0  0  0  0  0  0
  -22.7475  -29.2382   19.8610 H   0  0  0  0  0  0
  -25.1284  -36.1923   25.0838 H   0  0  0  0  0  0
  -20.9981  -28.3223   24.1414 H   0  0  0  0  0  0
  -20.5636  -26.2278   23.3614 H   0  0  0  0  0  0
  -21.6625  -26.7404   22.1231 H   0  0  0  0  0  0
  -19.6909  -25.6302   21.1225 H   0  0  0  0  0  0
  -19.6731  -27.3210   20.6770 H   0  0  0  0  0  0
  -17.4221  -26.6755   21.3958 H   0  0  0  0  0  0
  -18.0282  -26.0055   22.8942 H   0  0  0  0  0  0
  -19.7942  -30.7273   24.2238 H   0  0  0  0  0  0
  -17.5030  -31.6268   24.5177 H   0  0  0  0  0  0
  -15.5356  -30.2981   23.7702 H   0  0  0  0  0  0
  -15.8667  -28.0849   22.7022 H   0  0  0  0  0  0
  -24.5987  -30.6945   25.7805 H   0  0  0  0  0  0
  -24.8877  -32.2855   26.4778 H   0  0  0  0  0  0
  -25.8142  -30.8975   27.0236 H   0  0  0  0  0  0
  -26.2831  -29.6771   24.1147 H   0  0  0  0  0  0
  -27.4080  -29.7219   25.4525 H   0  0  0  0  0  0
  -27.8679  -30.4300   23.9222 H   0  0  0  0  0  0
  -27.2638  -33.3607   26.1983 H   0  0  0  0  0  0
  -28.3891  -32.6791   25.0321 H   0  0  0  0  0  0
  -28.0641  -31.8432   26.5433 H   0  0  0  0  0  0
  -28.2593  -38.0082   24.7483 H   0  0  0  0  0  0
  -28.1047  -36.2616   24.6315 H   0  0  0  0  0  0
  -27.2313  -37.1475   25.8887 H   0  0  0  0  0  0
  -20.9327  -29.8746   21.6918 H   0  0  0  0  0  0
  -26.0162  -38.2851   24.1411 H   0  0  0  0  0  0
  -32.8434  -19.1859   19.4141 H   0  0  0  0  0  0
  -32.3301  -16.8885   19.8635 H   0  0  0  0  0  0
  -31.1676  -20.9490   19.6299 H   0  0  0  0  0  0
  -27.5919  -16.8268   20.8133 H   0  0  0  0  0  0
  -27.0855  -18.4244   20.3216 H   0  0  0  0  0  0
  -27.6370  -18.1472   21.9760 H   0  0  0  0  0  0
  -28.9598  -25.1523   21.5258 H   0  0  0  0  0  0
  -27.2494  -25.1112   21.2000 H   0  0  0  0  0  0
  -29.6912  -22.9566   21.2360 H   0  0  0  0  0  0
  -30.0700  -22.6463   19.5652 H   0  0  0  0  0  0
  -28.4434  -20.9714   22.5193 H   0  0  0  0  0  0
  -28.9560  -15.5654   20.8988 H   0  0  0  0  0  0
  1 25  1  0  0  0
  1 30  2  0  0  0
  1 82  1  0  0  0
  2  3  1  0  0  0
  2 25  1  0  0  0
  2 86  1  0  0  0
  2 87  1  0  0  0
  3  4  1  0  0  0
  3 88  1  0  0  0
  3 89  1  0  0  0
  4  5  1  0  0  0
  4 90  1  0  0  0
  4 91  1  0  0  0
  5  6  1  0  0  0
  5 26  1  0  0  0
  5 92  1  0  0  0
  6 25  1  0  0  0
  6 93  1  0  0  0
  6 94  1  0  0  0
  7  8  2  0  0  0
  7 26  1  0  0  0
  7 29  1  0  0  0
  8  9  1  0  0  0
  8 22  1  0  0  0
  9 10  1  0  0  0
  9 27  2  0  0  0
 10 11  2  0  0  0
 10 15  1  0  0  0
 11 12  1  0  0  0
 11 95  1  0  0  0
 12 13  2  0  0  0
 12 96  1  0  0  0
 13 14  1  0  0  0
 13 31  1  0  0  0
 14 15  2  0  0  0
 14 97  1  0  0  0
 15 98  1  0  0  0
 16 17  2  0  0  0
 16 21  1  0  0  0
 16 31  1  0  0  0
 17 18  1  0  0  0
 17 99  1  0  0  0
 18 19  2  0  0  0
 18100  1  0  0  0
 19 20  1  0  0  0
 19 24  1  0  0  0
 20 21  2  0  0  0
 20101  1  0  0  0
 21 23  1  0  0  0
 22 28  1  0  0  0
 22 32  2  0  0  0
 26 27  1  0  0  0
 28102  1  0  0  0
 28103  1  0  0  0
 29104  1  0  0  0
 29105  1  0  0  0
 33 34  1  0  0  0
 33 66  1  0  0  0
 33 70  2  0  0  0
 34 36  1  0  0  0
 34 59  1  0  0  0
 34106  1  0  0  0
 35 44  2  0  0  0
 35 45  1  0  0  0
 35 68  1  0  0  0
 36 56  1  0  0  0
 36107  1  0  0  0
 37 39  1  0  0  0
 37 47  1  0  0  0
 37 66  1  0  0  0
 37108  1  0  0  0
 38 43  2  0  0  0
 38 46  1  0  0  0
 38 47  1  0  0  0
 39 64  1  0  0  0
 39 67  2  0  0  0
 40 52  1  0  0  0
 40 53  2  0  0  0
 40 58  1  0  0  0
 41109  1  0  0  0
 41110  1  0  0  0
 41111  1  0  0  0
 41 48  1  0  0  0
 42 43  1  0  0  0
 42 66  1  0  0  0
 42112  1  0  0  0
 42113  1  0  0  0
 43 44  1  0  0  0
 44114  1  0  0  0
 45 46  2  0  0  0
 45115  1  0  0  0
 46116  1  0  0  0
 47117  1  0  0  0
 47118  1  0  0  0
 48 56  1  0  0  0
 48 65  1  0  0  0
 48119  1  0  0  0
 49 50  1  0  0  0
 49 53  1  0  0  0
 49 64  1  0  0  0
 49120  1  0  0  0
 50 51  1  0  0  0
 50121  1  0  0  0
 50122  1  0  0  0
 51 52  1  0  0  0
 51123  1  0  0  0
 51124  1  0  0  0
 52125  1  0  0  0
 52126  1  0  0  0
 53 54  1  0  0  0
 54 55  2  0  0  0
 54127  1  0  0  0
 55 57  1  0  0  0
 55128  1  0  0  0
 56 69  2  0  0  0
 57 58  2  0  0  0
 57129  1  0  0  0
 58130  1  0  0  0
 59 60  1  0  0  0
 59 61  1  0  0  0
 59 62  1  0  0  0
 60131  1  0  0  0
 60132  1  0  0  0
 60133  1  0  0  0
 61134  1  0  0  0
 61135  1  0  0  0
 61136  1  0  0  0
 62137  1  0  0  0
 62138  1  0  0  0
 62139  1  0  0  0
 63 65  1  0  0  0
 63140  1  0  0  0
 63141  1  0  0  0
 63142  1  0  0  0
 64143  1  0  0  0
 65144  1  0  0  0
 68 79  1  0  0  0
 71 72  2  0  0  0
 71 73  1  0  0  0
 71145  1  0  0  0
 72 75  1  0  0  0
 72146  1  0  0  0
 73 76  2  0  0  0
 73147  1  0  0  0
 74 75  2  0  0  0
 74 76  1  0  0  0
 74 78  1  0  0  0
 75 82  1  0  0  0
 76 85  1  0  0  0
 77 79  1  0  0  0
 77 80  1  0  0  0
 77 83  2  0  0  0
 78148  1  0  0  0
 78149  1  0  0  0
 78150  1  0  0  0
 79151  1  0  0  0
 79152  1  0  0  0
 80153  1  0  0  0
 80154  1  0  0  0
 80 85  1  0  0  0
 81 85  2  0  0  0
 81155  1  0  0  0
 82156  1  0  0  0
 84 85  2  0  0  0
M  ISO  4   1 100  68 101  79 101  82 100
M  END
> <chiral flag>
0

> <version>
0

> <s_m_source_file>
/data/baiqing/PycharmProjects/Reinvent-master-3.2/result/LINK_invent/BTK/process_docking_weight1_custom_product_contain_oxygen_bond_distance_aromatic_linkinvent_7_9_3/rearranged_h_0061.sdf

> <i_m_source_file_index>
29

> <r_mmod_Potential_Energy-OPLS-2005>
-106.3349609375

> <r_mmod_Stretch_Energy-OPLS-2005>
79.8509063720703

> <r_mmod_Bend_Energy-OPLS-2005>
132.723236083984

> <r_mmod_Torsional_Energy-OPLS-2005>
243.94743347168

> <r_mmod_Improper_Torsional_Energy-OPLS-2005>
5.68989086151123

> <r_mmod_Van_der_Waal_Energy-OPLS-2005>
141.050201416016

> <r_mmod_Electrostatic_Energy-OPLS-2005>
-458.373962402344

> <r_mmod_Solvation_Energy-OPLS-2005>
-292.238006591797

> <b_mmod_Minimization_Converged-OPLS-2005>
0

> <r_mmod_RMS_Derivative-OPLS-2005>
2.06819176673889

$$$$
29
                    3D
 Structure written by MMmdl.
162171  0  0  1  0            999 V2000
  -30.6611  -14.5568   20.6083 C   0  0  0  0  0  0
  -30.4487  -12.3504   19.3987 C   0  0  0  0  0  0
  -29.4980  -12.5223   18.1943 C   0  0  0  0  0  0
  -28.0226  -12.3597   18.6196 C   0  0  0  0  0  0
  -27.6692  -13.1911   19.8850 C   0  0  2  0  0  0
  -28.7185  -12.9320   20.9908 C   0  0  0  0  0  0
  -25.2644  -13.8109   20.5736 C   0  0  0  0  0  0
  -24.1849  -13.0403   20.9114 C   0  0  0  0  0  0
  -24.6382  -11.6865   20.8691 C   0  0  0  0  0  0
  -23.9043  -10.4261   21.0376 C   0  0  0  0  0  0
  -24.3593   -9.4184   21.9169 C   0  0  0  0  0  0
  -23.6269   -8.2229   22.0765 C   0  0  0  0  0  0
  -22.4251   -8.0270   21.3559 C   0  0  0  0  0  0
  -21.9863   -9.0236   20.4664 C   0  0  0  0  0  0
  -22.7202  -10.2097   20.3055 C   0  0  0  0  0  0
  -21.6844   -6.0721   22.5277 C   0  0  0  0  0  0
  -21.4011   -6.5628   23.8201 C   0  0  0  0  0  0
  -21.3659   -5.6783   24.9169 C   0  0  0  0  0  0
  -21.6033   -4.3048   24.7220 C   0  0  0  0  0  0
  -21.8823   -3.8138   23.4350 C   0  0  0  0  0  0
  -21.9205   -4.6959   22.3401 C   0  0  0  0  0  0
  -22.7890  -13.5249   21.1788 C   0  0  0  0  0  0
  -22.1676   -4.2138   21.0984 F   0  0  0  0  0  0
  -21.5620   -3.4536   25.7738 F   0  0  0  0  0  0
  -30.0269  -13.3006   20.4401 N   0  0  0  0  0  0
  -26.3078  -12.9254   20.3454 N   0  0  0  0  0  0
  -25.9328  -11.6426   20.5795 N   0  0  0  0  0  0
  -22.0527  -12.8270   22.0362 N   0  0  0  0  0  0
  -25.4433  -15.1829   20.4299 N   0  0  0  0  0  0
  -31.7488  -14.7668   20.0559 O   0  0  0  0  0  0
  -21.6633   -6.8860   21.4237 O   0  0  0  0  0  0
  -22.3586  -14.5575   20.6652 O   0  0  0  0  0  0
  -24.6173  -31.8664   23.2094 C   0  0  0  0  0  0
  -25.9056  -32.4815   23.8379 C   0  0  1  0  0  0
  -27.2289  -27.3976   20.0880 C   0  0  0  0  0  0
  -25.5901  -33.8615   24.2299 N   0  0  0  0  0  0
  -23.4057  -30.4932   21.5514 C   0  0  2  0  0  0
  -24.8498  -28.9558   20.1188 C   0  0  0  0  0  0
  -22.7419  -29.4666   22.4977 C   0  0  0  0  0  0
  -18.0267  -28.1389   22.8478 C   0  0  0  0  0  0
  -24.1486  -36.7302   23.2635 C   0  0  0  0  0  0
  -25.9433  -30.8178   21.3740 C   0  0  0  0  0  0
  -26.0174  -29.4543   20.7098 C   0  0  0  0  0  0
  -27.2102  -28.6862   20.6841 C   0  0  0  0  0  0
  -26.0341  -26.9265   19.4933 C   0  0  0  0  0  0
  -24.8546  -27.6918   19.5100 C   0  0  0  0  0  0
  -23.6161  -29.8287   20.1669 C   0  0  0  0  0  0
  -25.4111  -36.3105   24.0332 C   0  0  1  0  0  0
  -20.5861  -28.3677   23.1303 C   0  0  2  0  0  0
  -20.6769  -26.9409   22.5408 C   0  0  0  0  0  0
  -19.5749  -26.6384   21.5204 C   0  0  0  0  0  0
  -18.1924  -26.7933   22.1609 C   0  0  0  0  0  0
  -19.1516  -28.8847   23.2888 C   0  0  0  0  0  0
  -18.9460  -30.1455   23.8898 C   0  0  0  0  0  0
  -17.6469  -30.6604   24.0560 C   0  0  0  0  0  0
  -25.9042  -34.9474   23.5112 C   0  0  0  0  0  0
  -16.5350  -29.9109   23.6337 C   0  0  0  0  0  0
  -16.7260  -28.6522   23.0353 C   0  0  0  0  0  0
  -26.4448  -31.6623   25.0740 C   0  0  0  0  0  0
  -25.3693  -31.3798   26.1488 C   0  0  0  0  0  0
  -27.0263  -30.3037   24.6198 C   0  0  0  0  0  0
  -27.6011  -32.4363   25.7510 C   0  0  0  0  0  0
  -27.5591  -37.1797   24.8449 C   0  0  0  0  0  0
  -21.4143  -29.3048   22.3710 N   0  0  0  0  0  0
  -26.4291  -37.3803   23.9414 N   0  0  0  0  0  0
  -24.6732  -31.0746   22.1011 N   0  0  0  0  0  0
  -23.4172  -28.8197   23.3021 O   0  0  0  0  0  0
  -28.3880  -26.6292   20.0916 O   0  0  0  0  0  0
  -26.5622  -34.8930   22.4685 O   0  0  0  0  0  0
  -23.5364  -32.1418   23.7486 O   0  0  0  0  0  0
  -29.1643  -19.8582   20.7586 C   0  0  0  0  0  0
  -29.0782  -18.4500   20.8980 C   0  0  0  0  0  0
  -31.5597  -19.6631   20.6073 C   0  0  0  0  0  0
  -31.4931  -18.2546   20.8067 C   0  0  0  0  0  0
  -30.4169  -20.5139   20.6834 C   0  0  0  0  0  0
  -30.2296  -17.6227   20.9887 C   0  0  0  0  0  0
  -31.5169  -22.5675   21.4757 C   0  0  0  0  0  0
  -31.6349  -24.0953   21.5492 C   0  0  0  0  0  0
  -30.2937  -24.8225   21.4928 C   0  0  0  0  0  0
  -29.3413  -22.8137   20.3245 C   0  0  0  0  0  0
  -29.5425  -24.3714   20.2446 C   0  0  1  0  0  0
  -32.8043  -17.4891   20.8785 C   0  0  0  0  0  0
  -28.2260  -25.1859   20.0484 C   0  0  0  0  0  0
  -30.5122  -21.9780   20.7539 N   0  0  0  0  0  0
  -32.3842  -21.9389   22.0913 O   0  0  0  0  0  0
  -30.6807  -15.8485   22.9420 O   0  0  0  0  0  0
  -28.5024  -15.7498   21.6919 O   0  0  0  0  0  0
  -29.9694  -15.9052   21.6489 S   0  0  0  0  0  0
  -31.4871  -12.4956   19.0980 H   0  0  0  0  0  0
  -30.3941  -11.3301   19.7802 H   0  0  0  0  0  0
  -29.7455  -11.8003   17.4145 H   0  0  0  0  0  0
  -29.6462  -13.5087   17.7534 H   0  0  0  0  0  0
  -27.8553  -11.3000   18.8191 H   0  0  0  0  0  0
  -27.3602  -12.6221   17.7938 H   0  0  0  0  0  0
  -27.7205  -14.2427   19.5994 H   0  0  0  0  0  0
  -28.7266  -11.8716   21.2473 H   0  0  0  0  0  0
  -28.4860  -13.4267   21.9298 H   0  0  0  0  0  0
  -25.2741   -9.5673   22.4732 H   0  0  0  0  0  0
  -23.9972   -7.4629   22.7489 H   0  0  0  0  0  0
  -21.0785   -8.8748   19.8987 H   0  0  0  0  0  0
  -22.3653  -10.9632   19.6155 H   0  0  0  0  0  0
  -21.1999   -7.6136   23.9702 H   0  0  0  0  0  0
  -21.1481   -6.0522   25.9073 H   0  0  0  0  0  0
  -22.0612   -2.7601   23.2850 H   0  0  0  0  0  0
  -22.4139  -11.9941   22.4767 H   0  0  0  0  0  0
  -21.1171  -13.1345   22.2601 H   0  0  0  0  0  0
  -24.6969  -15.8415   20.6270 H   0  0  0  0  0  0
  -26.3609  -15.6139   20.3892 H   0  0  0  0  0  0
  -26.7124  -32.5504   23.1129 H   0  0  0  0  0  0
  -24.9998  -33.9777   25.0412 H   0  0  0  0  0  0
  -22.6944  -31.3109   21.4131 H   0  0  0  0  0  0
  -23.3762  -35.9621   23.3291 H   0  0  0  0  0  0
  -24.3574  -36.8936   22.2049 H   0  0  0  0  0  0
  -23.7222  -37.6496   23.6659 H   0  0  0  0  0  0
  -26.0794  -31.5923   20.6178 H   0  0  0  0  0  0
  -26.8202  -30.8504   22.0083 H   0  0  0  0  0  0
  -28.1122  -29.0703   21.1397 H   0  0  0  0  0  0
  -25.9833  -25.9645   19.0065 H   0  0  0  0  0  0
  -23.9548  -27.2995   19.0554 H   0  0  0  0  0  0
  -23.7338  -30.6040   19.4094 H   0  0  0  0  0  0
  -22.7366  -29.2561   19.8656 H   0  0  0  0  0  0
  -25.1291  -36.1947   25.0821 H   0  0  0  0  0  0
  -20.9943  -28.3253   24.1431 H   0  0  0  0  0  0
  -20.5665  -26.2280   23.3597 H   0  0  0  0  0  0
  -21.6643  -26.7461   22.1211 H   0  0  0  0  0  0
  -19.6913  -25.6293   21.1240 H   0  0  0  0  0  0
  -19.6705  -27.3185   20.6719 H   0  0  0  0  0  0
  -17.4188  -26.6669   21.4015 H   0  0  0  0  0  0
  -18.0337  -26.0082   22.9013 H   0  0  0  0  0  0
  -19.7944  -30.7256   24.2270 H   0  0  0  0  0  0
  -17.5041  -31.6291   24.5157 H   0  0  0  0  0  0
  -15.5356  -30.3022   23.7686 H   0  0  0  0  0  0
  -15.8650  -28.0856   22.7080 H   0  0  0  0  0  0
  -24.5825  -30.7187   25.7840 H   0  0  0  0  0  0
  -24.8935  -32.2994   26.4915 H   0  0  0  0  0  0
  -25.8021  -30.8968   27.0257 H   0  0  0  0  0  0
  -26.2835  -29.6845   24.1158 H   0  0  0  0  0  0
  -27.3860  -29.7253   25.4716 H   0  0  0  0  0  0
  -27.8753  -30.4306   23.9477 H   0  0  0  0  0  0
  -27.2588  -33.3635   26.2129 H   0  0  0  0  0  0
  -28.3794  -32.6990   25.0329 H   0  0  0  0  0  0
  -28.0699  -31.8467   26.5399 H   0  0  0  0  0  0
  -28.2582  -38.0123   24.7559 H   0  0  0  0  0  0
  -28.1112  -36.2661   24.6188 H   0  0  0  0  0  0
  -27.2317  -37.1355   25.8853 H   0  0  0  0  0  0
  -20.9290  -29.8769   21.6939 H   0  0  0  0  0  0
  -26.0166  -38.2871   24.1468 H   0  0  0  0  0  0
  -28.2476  -20.4282   20.7966 H   0  0  0  0  0  0
  -28.0970  -18.0208   21.0382 H   0  0  0  0  0  0
  -32.5382  -20.1028   20.4769 H   0  0  0  0  0  0
  -32.2715  -24.4210   20.7265 H   0  0  0  0  0  0
  -32.1552  -24.3684   22.4673 H   0  0  0  0  0  0
  -30.4627  -25.9001   21.4717 H   0  0  0  0  0  0
  -29.7096  -24.6162   22.3911 H   0  0  0  0  0  0
  -28.9775  -22.4488   19.3630 H   0  0  0  0  0  0
  -28.5438  -22.6271   21.0436 H   0  0  0  0  0  0
  -30.1732  -24.5848   19.3794 H   0  0  0  0  0  0
  -33.6341  -18.1549   21.1156 H   0  0  0  0  0  0
  -33.0242  -17.0201   19.9195 H   0  0  0  0  0  0
  -32.7909  -16.7194   21.6487 H   0  0  0  0  0  0
  -27.5032  -24.8911   20.8129 H   0  0  0  0  0  0
  -27.8107  -24.8895   19.0855 H   0  0  0  0  0  0
  1 25  1  0  0  0
  1 30  2  0  0  0
  1 88  1  0  0  0
  2  3  1  0  0  0
  2 25  1  0  0  0
  2 89  1  0  0  0
  2 90  1  0  0  0
  3  4  1  0  0  0
  3 91  1  0  0  0
  3 92  1  0  0  0
  4  5  1  0  0  0
  4 93  1  0  0  0
  4 94  1  0  0  0
  5  6  1  0  0  0
  5 26  1  0  0  0
  5 95  1  0  0  0
  6 25  1  0  0  0
  6 96  1  0  0  0
  6 97  1  0  0  0
  7  8  2  0  0  0
  7 26  1  0  0  0
  7 29  1  0  0  0
  8  9  1  0  0  0
  8 22  1  0  0  0
  9 10  1  0  0  0
  9 27  2  0  0  0
 10 11  2  0  0  0
 10 15  1  0  0  0
 11 12  1  0  0  0
 11 98  1  0  0  0
 12 13  2  0  0  0
 12 99  1  0  0  0
 13 14  1  0  0  0
 13 31  1  0  0  0
 14 15  2  0  0  0
 14100  1  0  0  0
 15101  1  0  0  0
 16 17  2  0  0  0
 16 21  1  0  0  0
 16 31  1  0  0  0
 17 18  1  0  0  0
 17102  1  0  0  0
 18 19  2  0  0  0
 18103  1  0  0  0
 19 20  1  0  0  0
 19 24  1  0  0  0
 20 21  2  0  0  0
 20104  1  0  0  0
 21 23  1  0  0  0
 22 28  1  0  0  0
 22 32  2  0  0  0
 26 27  1  0  0  0
 28105  1  0  0  0
 28106  1  0  0  0
 29107  1  0  0  0
 29108  1  0  0  0
 33 34  1  0  0  0
 33 66  1  0  0  0
 33 70  2  0  0  0
 34 36  1  0  0  0
 34 59  1  0  0  0
 34109  1  0  0  0
 35 44  2  0  0  0
 35 45  1  0  0  0
 35 68  1  0  0  0
 36 56  1  0  0  0
 36110  1  0  0  0
 37 39  1  0  0  0
 37 47  1  0  0  0
 37 66  1  0  0  0
 37111  1  0  0  0
 38 43  2  0  0  0
 38 46  1  0  0  0
 38 47  1  0  0  0
 39 64  1  0  0  0
 39 67  2  0  0  0
 40 52  1  0  0  0
 40 53  2  0  0  0
 40 58  1  0  0  0
 41112  1  0  0  0
 41113  1  0  0  0
 41114  1  0  0  0
 41 48  1  0  0  0
 42 43  1  0  0  0
 42 66  1  0  0  0
 42115  1  0  0  0
 42116  1  0  0  0
 43 44  1  0  0  0
 44117  1  0  0  0
 45 46  2  0  0  0
 45118  1  0  0  0
 46119  1  0  0  0
 47120  1  0  0  0
 47121  1  0  0  0
 48 56  1  0  0  0
 48 65  1  0  0  0
 48122  1  0  0  0
 49 50  1  0  0  0
 49 53  1  0  0  0
 49 64  1  0  0  0
 49123  1  0  0  0
 50 51  1  0  0  0
 50124  1  0  0  0
 50125  1  0  0  0
 51 52  1  0  0  0
 51126  1  0  0  0
 51127  1  0  0  0
 52128  1  0  0  0
 52129  1  0  0  0
 53 54  1  0  0  0
 54 55  2  0  0  0
 54130  1  0  0  0
 55 57  1  0  0  0
 55131  1  0  0  0
 56 69  2  0  0  0
 57 58  2  0  0  0
 57132  1  0  0  0
 58133  1  0  0  0
 59 60  1  0  0  0
 59 61  1  0  0  0
 59 62  1  0  0  0
 60134  1  0  0  0
 60135  1  0  0  0
 60136  1  0  0  0
 61137  1  0  0  0
 61138  1  0  0  0
 61139  1  0  0  0
 62140  1  0  0  0
 62141  1  0  0  0
 62142  1  0  0  0
 63 65  1  0  0  0
 63143  1  0  0  0
 63144  1  0  0  0
 63145  1  0  0  0
 64146  1  0  0  0
 65147  1  0  0  0
 68 83  1  0  0  0
 71 72  2  0  0  0
 71 75  1  0  0  0
 71148  1  0  0  0
 72 76  1  0  0  0
 72149  1  0  0  0
 73 74  1  0  0  0
 73 75  2  0  0  0
 73150  1  0  0  0
 74 76  2  0  0  0
 74 82  1  0  0  0
 75 84  1  0  0  0
 76 88  1  0  0  0
 77 78  1  0  0  0
 77 84  1  0  0  0
 77 85  2  0  0  0
 78 79  1  0  0  0
 78151  1  0  0  0
 78152  1  0  0  0
 79 81  1  0  0  0
 79153  1  0  0  0
 79154  1  0  0  0
 80 81  1  0  0  0
 80 84  1  0  0  0
 80155  1  0  0  0
 80156  1  0  0  0
 81 83  1  0  0  0
 81157  1  0  0  0
 82158  1  0  0  0
 82159  1  0  0  0
 82160  1  0  0  0
 83161  1  0  0  0
 83162  1  0  0  0
 86 88  2  0  0  0
 87 88  2  0  0  0
M  ISO  4   1 100  68 101  83 101  88 100
M  END
> <chiral flag>
0

> <version>
0

> <s_m_source_file>
/data/baiqing/PycharmProjects/Reinvent-master-3.2/result/LINK_invent/BTK/process_docking_weight1_custom_product_contain_oxygen_bond_distance_aromatic_linkinvent_7_9_3/rearranged_h_0061.sdf

> <i_m_source_file_index>
30

> <r_mmod_Potential_Energy-OPLS-2005>
289.537017822266

> <r_mmod_Stretch_Energy-OPLS-2005>
69.6668548583984

> <r_mmod_Bend_Energy-OPLS-2005>
138.189331054688

> <r_mmod_Torsional_Energy-OPLS-2005>
220.364715576172

> <r_mmod_Improper_Torsional_Energy-OPLS-2005>
5.0816855430603

> <r_mmod_Van_der_Waal_Energy-OPLS-2005>
168.62922668457

> <r_mmod_Electrostatic_Energy-OPLS-2005>
-108.950088500977

> <r_mmod_Solvation_Energy-OPLS-2005>
-223.473007202148

> <b_mmod_Minimization_Converged-OPLS-2005>
0

> <r_mmod_RMS_Derivative-OPLS-2005>
2.64798498153687

$$$$
30
                    3D
 Structure written by MMmdl.
158166  0  0  1  0            999 V2000
  -30.6467  -14.4566   20.4944 C   0  0  0  0  0  0
  -30.4513  -12.2638   19.4079 C   0  0  0  0  0  0
  -29.5119  -12.4798   18.2037 C   0  0  0  0  0  0
  -28.0247  -12.3475   18.6128 C   0  0  0  0  0  0
  -27.6593  -13.1774   19.8699 C   0  0  2  0  0  0
  -28.7107  -12.9475   20.9905 C   0  0  0  0  0  0
  -25.2544  -13.7953   20.5715 C   0  0  0  0  0  0
  -24.1798  -13.0317   20.9172 C   0  0  0  0  0  0
  -24.6338  -11.6780   20.8705 C   0  0  0  0  0  0
  -23.9031  -10.4202   21.0376 C   0  0  0  0  0  0
  -24.3611   -9.4122   21.9151 C   0  0  0  0  0  0
  -23.6278   -8.2178   22.0700 C   0  0  0  0  0  0
  -22.4262   -8.0234   21.3515 C   0  0  0  0  0  0
  -21.9906   -9.0196   20.4611 C   0  0  0  0  0  0
  -22.7215  -10.2073   20.3003 C   0  0  0  0  0  0
  -21.6840   -6.0698   22.5278 C   0  0  0  0  0  0
  -21.4001   -6.5598   23.8215 C   0  0  0  0  0  0
  -21.3679   -5.6774   24.9187 C   0  0  0  0  0  0
  -21.6058   -4.3026   24.7262 C   0  0  0  0  0  0
  -21.8805   -3.8109   23.4373 C   0  0  0  0  0  0
  -21.9172   -4.6912   22.3426 C   0  0  0  0  0  0
  -22.7848  -13.5151   21.1927 C   0  0  0  0  0  0
  -22.1637   -4.2083   21.1005 F   0  0  0  0  0  0
  -21.5663   -3.4521   25.7778 F   0  0  0  0  0  0
  -30.0565  -13.2338   20.4384 N   0  0  0  0  0  0
  -26.2992  -12.9136   20.3329 N   0  0  0  0  0  0
  -25.9252  -11.6347   20.5716 N   0  0  0  0  0  0
  -22.0545  -12.8142   22.0483 N   0  0  0  0  0  0
  -25.4296  -15.1710   20.4311 N   0  0  0  0  0  0
  -31.8274  -14.6923   20.2287 O   0  0  0  0  0  0
  -21.6593   -6.8847   21.4257 O   0  0  0  0  0  0
  -22.3556  -14.5512   20.6812 O   0  0  0  0  0  0
  -24.6206  -31.8744   23.2118 C   0  0  0  0  0  0
  -25.9150  -32.4851   23.8397 C   0  0  1  0  0  0
  -27.2319  -27.4543   20.1278 C   0  0  0  0  0  0
  -25.5962  -33.8639   24.2335 N   0  0  0  0  0  0
  -23.4058  -30.5048   21.5426 C   0  0  2  0  0  0
  -24.8520  -28.9645   20.1040 C   0  0  0  0  0  0
  -22.7396  -29.4947   22.4994 C   0  0  0  0  0  0
  -18.0329  -28.1502   22.8203 C   0  0  0  0  0  0
  -24.1480  -36.7343   23.2643 C   0  0  0  0  0  0
  -25.9364  -30.8426   21.3638 C   0  0  0  0  0  0
  -26.0100  -29.4845   20.7024 C   0  0  0  0  0  0
  -27.1983  -28.7281   20.7269 C   0  0  0  0  0  0
  -26.0794  -26.9457   19.5030 C   0  0  0  0  0  0
  -24.8863  -27.6947   19.4901 C   0  0  0  0  0  0
  -23.6113  -29.8248   20.1562 C   0  0  0  0  0  0
  -25.4099  -36.3128   24.0332 C   0  0  1  0  0  0
  -20.5845  -28.3912   23.1015 C   0  0  2  0  0  0
  -20.7618  -26.9989   22.4606 C   0  0  0  0  0  0
  -19.5764  -26.3326   21.7544 C   0  0  0  0  0  0
  -18.1653  -26.8744   22.0059 C   0  0  0  0  0  0
  -19.1500  -28.8843   23.2741 C   0  0  0  0  0  0
  -18.9440  -30.1406   23.8888 C   0  0  0  0  0  0
  -17.6400  -30.6400   24.0517 C   0  0  0  0  0  0
  -25.9006  -34.9465   23.5100 C   0  0  0  0  0  0
  -16.5239  -29.8869   23.6471 C   0  0  0  0  0  0
  -16.7274  -28.6363   23.0360 C   0  0  0  0  0  0
  -26.4483  -31.6587   25.0709 C   0  0  0  0  0  0
  -25.3726  -31.3747   26.1438 C   0  0  0  0  0  0
  -27.0337  -30.3024   24.6094 C   0  0  0  0  0  0
  -27.6050  -32.4318   25.7483 C   0  0  0  0  0  0
  -27.5564  -37.1833   24.8468 C   0  0  0  0  0  0
  -21.4052  -29.3654   22.3957 N   0  0  0  0  0  0
  -26.4282  -37.3822   23.9380 N   0  0  0  0  0  0
  -24.6686  -31.0908   22.0962 N   0  0  0  0  0  0
  -23.4236  -28.8235   23.2808 O   0  0  0  0  0  0
  -28.3528  -26.6663   20.2164 O   0  0  0  0  0  0
  -26.5613  -34.8955   22.4702 O   0  0  0  0  0  0
  -23.5431  -32.1484   23.7515 O   0  0  0  0  0  0
  -30.3725  -18.9675   21.4239 C   0  0  0  0  0  0
  -30.6435  -17.6037   21.1504 C   0  0  0  0  0  0
  -28.3614  -17.3599   20.3779 C   0  0  0  0  0  0
  -29.0946  -19.5545   21.1976 C   0  0  0  0  0  0
  -28.0750  -18.7131   20.6421 C   0  0  0  0  0  0
  -29.6164  -16.7900   20.6486 C   0  0  0  0  0  0
  -28.9328  -21.0072   21.5955 C   0  0  0  0  0  0
  -26.6498  -19.0595   20.3965 C   0  0  0  0  0  0
  -28.3564  -24.2810   20.7057 C   0  0  0  0  0  0
  -26.1702  -18.8554   18.9641 C   0  0  0  0  0  0
  -27.8006  -21.8790   21.0011 C   0  0  0  0  0  0
  -28.2524  -25.6983   21.2775 C   0  0  0  0  0  0
  -29.6961  -15.3962   20.4562 N   0  0  0  0  0  0
  -27.8681  -23.2783   21.4387 N   0  0  0  0  0  0
  -29.7306  -21.5612   22.3660 O   0  0  0  0  0  0
  -25.8720  -19.4242   21.2804 O   0  0  0  0  0  0
  -28.8751  -24.0918   19.6018 O   0  0  0  0  0  0
  -31.4969  -12.3918   19.1156 H   0  0  0  0  0  0
  -30.3762  -11.2415   19.7850 H   0  0  0  0  0  0
  -29.7607  -11.7755   17.4116 H   0  0  0  0  0  0
  -29.7065  -13.4760   17.7885 H   0  0  0  0  0  0
  -27.8225  -11.2925   18.7961 H   0  0  0  0  0  0
  -27.3939  -12.6429   17.7698 H   0  0  0  0  0  0
  -27.6742  -14.2149   19.5477 H   0  0  0  0  0  0
  -28.6699  -11.9120   21.3353 H   0  0  0  0  0  0
  -28.4991  -13.5508   21.8767 H   0  0  0  0  0  0
  -25.2762   -9.5557   22.4722 H   0  0  0  0  0  0
  -23.9944   -7.4542   22.7380 H   0  0  0  0  0  0
  -21.0844   -8.8727   19.8906 H   0  0  0  0  0  0
  -22.3694  -10.9612   19.6090 H   0  0  0  0  0  0
  -21.1986   -7.6104   23.9709 H   0  0  0  0  0  0
  -21.1541   -6.0504   25.9107 H   0  0  0  0  0  0
  -22.0581   -2.7554   23.2899 H   0  0  0  0  0  0
  -22.4203  -11.9771   22.4805 H   0  0  0  0  0  0
  -21.1139  -13.1051   22.2745 H   0  0  0  0  0  0
  -24.6722  -15.8188   20.6247 H   0  0  0  0  0  0
  -26.3174  -15.6218   20.2691 H   0  0  0  0  0  0
  -26.7198  -32.5567   23.1163 H   0  0  0  0  0  0
  -25.0053  -33.9725   25.0392 H   0  0  0  0  0  0
  -22.6967  -31.3256   21.3917 H   0  0  0  0  0  0
  -23.3725  -35.9689   23.3307 H   0  0  0  0  0  0
  -24.3576  -36.8979   22.2070 H   0  0  0  0  0  0
  -23.7244  -37.6542   23.6661 H   0  0  0  0  0  0
  -26.0589  -31.6072   20.5993 H   0  0  0  0  0  0
  -26.8319  -30.8947   21.9790 H   0  0  0  0  0  0
  -28.0858  -29.1077   21.2214 H   0  0  0  0  0  0
  -26.1102  -25.9650   19.0472 H   0  0  0  0  0  0
  -24.0030  -27.2829   19.0284 H   0  0  0  0  0  0
  -23.7409  -30.6006   19.3995 H   0  0  0  0  0  0
  -22.7339  -29.2509   19.8480 H   0  0  0  0  0  0
  -25.1273  -36.1932   25.0828 H   0  0  0  0  0  0
  -20.9769  -28.3422   24.1217 H   0  0  0  0  0  0
  -21.1421  -26.3372   23.2451 H   0  0  0  0  0  0
  -21.5790  -27.0288   21.7365 H   0  0  0  0  0  0
  -19.5583  -25.3069   22.1379 H   0  0  0  0  0  0
  -19.7836  -26.2001   20.6913 H   0  0  0  0  0  0
  -17.7207  -27.0913   21.0336 H   0  0  0  0  0  0
  -17.5338  -26.0940   22.4264 H   0  0  0  0  0  0
  -19.7942  -30.7341   24.2090 H   0  0  0  0  0  0
  -17.5061  -31.6156   24.4945 H   0  0  0  0  0  0
  -15.5253  -30.2790   23.7859 H   0  0  0  0  0  0
  -15.8744  -28.0646   22.6791 H   0  0  0  0  0  0
  -24.5810  -30.7204   25.7780 H   0  0  0  0  0  0
  -24.9012  -32.2928   26.4926 H   0  0  0  0  0  0
  -25.8032  -30.8839   27.0142 H   0  0  0  0  0  0
  -26.2885  -29.6764   24.1181 H   0  0  0  0  0  0
  -27.4115  -29.7319   25.4569 H   0  0  0  0  0  0
  -27.8687  -30.4367   23.9245 H   0  0  0  0  0  0
  -27.2621  -33.3564   26.2120 H   0  0  0  0  0  0
  -28.3810  -32.6956   25.0307 H   0  0  0  0  0  0
  -28.0711  -31.8393   26.5331 H   0  0  0  0  0  0
  -28.2629  -38.0100   24.7453 H   0  0  0  0  0  0
  -28.1011  -36.2608   24.6316 H   0  0  0  0  0  0
  -27.2287  -37.1549   25.8892 H   0  0  0  0  0  0
  -20.9302  -29.9711   21.7430 H   0  0  0  0  0  0
  -26.0159  -38.2894   24.1362 H   0  0  0  0  0  0
  -31.1766  -19.5716   21.8295 H   0  0  0  0  0  0
  -31.6145  -17.1763   21.3479 H   0  0  0  0  0  0
  -27.5873  -16.7294   19.9776 H   0  0  0  0  0  0
  -26.0667  -19.8147   18.4530 H   0  0  0  0  0  0
  -25.2008  -18.3498   18.9633 H   0  0  0  0  0  0
  -26.8769  -18.2446   18.4010 H   0  0  0  0  0  0
  -26.8124  -21.5923   21.3256 H   0  0  0  0  0  0
  -27.8153  -21.7967   19.9149 H   0  0  0  0  0  0
  -29.0783  -25.8162   21.9810 H   0  0  0  0  0  0
  -27.3187  -25.8153   21.8447 H   0  0  0  0  0  0
  -28.8038  -14.9569   20.3182 H   0  0  0  0  0  0
  -27.4339  -23.4791   22.3246 H   0  0  0  0  0  0
  1 25  1  0  0  0
  1 30  2  0  0  0
  1 83  1  0  0  0
  2  3  1  0  0  0
  2 25  1  0  0  0
  2 88  1  0  0  0
  2 89  1  0  0  0
  3  4  1  0  0  0
  3 90  1  0  0  0
  3 91  1  0  0  0
  4  5  1  0  0  0
  4 92  1  0  0  0
  4 93  1  0  0  0
  5  6  1  0  0  0
  5 26  1  0  0  0
  5 94  1  0  0  0
  6 25  1  0  0  0
  6 95  1  0  0  0
  6 96  1  0  0  0
  7  8  2  0  0  0
  7 26  1  0  0  0
  7 29  1  0  0  0
  8  9  1  0  0  0
  8 22  1  0  0  0
  9 10  1  0  0  0
  9 27  2  0  0  0
 10 11  2  0  0  0
 10 15  1  0  0  0
 11 12  1  0  0  0
 11 97  1  0  0  0
 12 13  2  0  0  0
 12 98  1  0  0  0
 13 14  1  0  0  0
 13 31  1  0  0  0
 14 15  2  0  0  0
 14 99  1  0  0  0
 15100  1  0  0  0
 16 17  2  0  0  0
 16 21  1  0  0  0
 16 31  1  0  0  0
 17 18  1  0  0  0
 17101  1  0  0  0
 18 19  2  0  0  0
 18102  1  0  0  0
 19 20  1  0  0  0
 19 24  1  0  0  0
 20 21  2  0  0  0
 20103  1  0  0  0
 21 23  1  0  0  0
 22 28  1  0  0  0
 22 32  2  0  0  0
 26 27  1  0  0  0
 28104  1  0  0  0
 28105  1  0  0  0
 29106  1  0  0  0
 29107  1  0  0  0
 33 34  1  0  0  0
 33 66  1  0  0  0
 33 70  2  0  0  0
 34 36  1  0  0  0
 34 59  1  0  0  0
 34108  1  0  0  0
 35 44  2  0  0  0
 35 45  1  0  0  0
 35 68  1  0  0  0
 36 56  1  0  0  0
 36109  1  0  0  0
 37 39  1  0  0  0
 37 47  1  0  0  0
 37 66  1  0  0  0
 37110  1  0  0  0
 38 43  2  0  0  0
 38 46  1  0  0  0
 38 47  1  0  0  0
 39 64  1  0  0  0
 39 67  2  0  0  0
 40 52  1  0  0  0
 40 53  2  0  0  0
 40 58  1  0  0  0
 41111  1  0  0  0
 41112  1  0  0  0
 41113  1  0  0  0
 41 48  1  0  0  0
 42 43  1  0  0  0
 42 66  1  0  0  0
 42114  1  0  0  0
 42115  1  0  0  0
 43 44  1  0  0  0
 44116  1  0  0  0
 45 46  2  0  0  0
 45117  1  0  0  0
 46118  1  0  0  0
 47119  1  0  0  0
 47120  1  0  0  0
 48 56  1  0  0  0
 48 65  1  0  0  0
 48121  1  0  0  0
 49 50  1  0  0  0
 49 53  1  0  0  0
 49 64  1  0  0  0
 49122  1  0  0  0
 50 51  1  0  0  0
 50123  1  0  0  0
 50124  1  0  0  0
 51 52  1  0  0  0
 51125  1  0  0  0
 51126  1  0  0  0
 52127  1  0  0  0
 52128  1  0  0  0
 53 54  1  0  0  0
 54 55  2  0  0  0
 54129  1  0  0  0
 55 57  1  0  0  0
 55130  1  0  0  0
 56 69  2  0  0  0
 57 58  2  0  0  0
 57131  1  0  0  0
 58132  1  0  0  0
 59 60  1  0  0  0
 59 61  1  0  0  0
 59 62  1  0  0  0
 60133  1  0  0  0
 60134  1  0  0  0
 60135  1  0  0  0
 61136  1  0  0  0
 61137  1  0  0  0
 61138  1  0  0  0
 62139  1  0  0  0
 62140  1  0  0  0
 62141  1  0  0  0
 63 65  1  0  0  0
 63142  1  0  0  0
 63143  1  0  0  0
 63144  1  0  0  0
 64145  1  0  0  0
 65146  1  0  0  0
 68 82  1  0  0  0
 71 72  2  0  0  0
 71 74  1  0  0  0
 71147  1  0  0  0
 72 76  1  0  0  0
 72148  1  0  0  0
 73 75  1  0  0  0
 73 76  2  0  0  0
 73149  1  0  0  0
 74 75  2  0  0  0
 74 77  1  0  0  0
 75 78  1  0  0  0
 76 83  1  0  0  0
 77 81  1  0  0  0
 77 85  2  0  0  0
 78 80  1  0  0  0
 78 86  2  0  0  0
 79 82  1  0  0  0
 79 84  1  0  0  0
 79 87  2  0  0  0
 80150  1  0  0  0
 80151  1  0  0  0
 80152  1  0  0  0
 81 84  1  0  0  0
 81153  1  0  0  0
 81154  1  0  0  0
 82155  1  0  0  0
 82156  1  0  0  0
 83157  1  0  0  0
 84158  1  0  0  0
M  ISO  4   1 100  68 101  82 101  83 100
M  END
> <chiral flag>
0

> <version>
0

> <s_m_source_file>
/data/baiqing/PycharmProjects/Reinvent-master-3.2/result/LINK_invent/BTK/process_docking_weight1_custom_product_contain_oxygen_bond_distance_aromatic_linkinvent_7_9_3/rearranged_h_0061.sdf

> <i_m_source_file_index>
31

> <r_mmod_Potential_Energy-OPLS-2005>
28.7345523834229

> <r_mmod_Stretch_Energy-OPLS-2005>
40.1890525817871

> <r_mmod_Bend_Energy-OPLS-2005>
150.465255737305

> <r_mmod_Torsional_Energy-OPLS-2005>
337.954498291016

> <r_mmod_Improper_Torsional_Energy-OPLS-2005>
13.6994762420654

> <r_mmod_Van_der_Waal_Energy-OPLS-2005>
170.476470947266

> <r_mmod_Electrostatic_Energy-OPLS-2005>
-461.080261230469

> <r_mmod_Solvation_Energy-OPLS-2005>
-265.267883300781

> <b_mmod_Minimization_Converged-OPLS-2005>
0

> <r_mmod_RMS_Derivative-OPLS-2005>
13.0678720474243

$$$$
31
                    3D
 Structure written by MMmdl.
151159  0  0  1  0            999 V2000
  -30.5432  -15.0202   20.3967 C   0  0  0  0  0  0
  -30.4366  -12.6343   19.5026 C   0  0  0  0  0  0
  -29.5253  -12.5367   18.2583 C   0  0  0  0  0  0
  -28.0638  -12.3059   18.6819 C   0  0  0  0  0  0
  -27.6253  -13.2549   19.8274 C   0  0  2  0  0  0
  -28.6668  -13.3354   20.9636 C   0  0  0  0  0  0
  -25.2460  -13.8218   20.5713 C   0  0  0  0  0  0
  -24.1788  -13.0438   20.9241 C   0  0  0  0  0  0
  -24.6409  -11.6925   20.8762 C   0  0  0  0  0  0
  -23.9095  -10.4297   21.0417 C   0  0  0  0  0  0
  -24.3639   -9.4210   21.9196 C   0  0  0  0  0  0
  -23.6305   -8.2249   22.0761 C   0  0  0  0  0  0
  -22.4287   -8.0291   21.3547 C   0  0  0  0  0  0
  -21.9928   -9.0272   20.4656 C   0  0  0  0  0  0
  -22.7267  -10.2143   20.3066 C   0  0  0  0  0  0
  -21.6854   -6.0753   22.5288 C   0  0  0  0  0  0
  -21.4020   -6.5651   23.8226 C   0  0  0  0  0  0
  -21.3662   -5.6797   24.9185 C   0  0  0  0  0  0
  -21.6036   -4.3061   24.7229 C   0  0  0  0  0  0
  -21.8812   -3.8158   23.4350 C   0  0  0  0  0  0
  -21.9195   -4.6980   22.3409 C   0  0  0  0  0  0
  -22.7806  -13.5214   21.1887 C   0  0  0  0  0  0
  -22.1660   -4.2168   21.0986 F   0  0  0  0  0  0
  -21.5624   -3.4542   25.7739 F   0  0  0  0  0  0
  -29.9351  -13.7585   20.3529 N   0  0  0  0  0  0
  -26.2877  -12.9462   20.3197 N   0  0  0  0  0  0
  -25.9341  -11.6585   20.5720 N   0  0  0  0  0  0
  -22.0448  -12.8208   22.0438 N   0  0  0  0  0  0
  -25.4090  -15.1940   20.4113 N   0  0  0  0  0  0
  -31.7562  -15.0300   20.1587 O   0  0  0  0  0  0
  -21.6635   -6.8895   21.4250 O   0  0  0  0  0  0
  -22.3494  -14.5525   20.6734 O   0  0  0  0  0  0
  -24.6489  -31.8387   23.1820 C   0  0  0  0  0  0
  -25.9239  -32.4665   23.8228 C   0  0  1  0  0  0
  -27.2216  -27.0795   20.1587 C   0  0  0  0  0  0
  -25.5964  -33.8467   24.2146 N   0  0  0  0  0  0
  -23.4567  -30.4574   21.5281 C   0  0  2  0  0  0
  -24.9093  -28.8733   20.1100 C   0  0  0  0  0  0
  -22.7606  -29.4526   22.4818 C   0  0  0  0  0  0
  -18.0322  -28.1404   22.8486 C   0  0  0  0  0  0
  -24.1493  -36.7245   23.2640 C   0  0  0  0  0  0
  -26.0166  -30.6944   21.3912 C   0  0  0  0  0  0
  -26.0886  -29.2997   20.7328 C   0  0  0  0  0  0
  -27.2438  -28.4205   20.7374 C   0  0  0  0  0  0
  -26.0120  -26.7694   19.4956 C   0  0  0  0  0  0
  -24.8871  -27.6239   19.4743 C   0  0  0  0  0  0
  -23.6901  -29.7842   20.1487 C   0  0  0  0  0  0
  -25.4124  -36.3009   24.0307 C   0  0  1  0  0  0
  -20.5938  -28.3739   23.1216 C   0  0  2  0  0  0
  -20.6795  -26.9435   22.5406 C   0  0  0  0  0  0
  -19.5767  -26.6390   21.5217 C   0  0  0  0  0  0
  -18.1953  -26.7942   22.1630 C   0  0  0  0  0  0
  -19.1580  -28.8893   23.2843 C   0  0  0  0  0  0
  -18.9488  -30.1488   23.8870 C   0  0  0  0  0  0
  -17.6480  -30.6592   24.0575 C   0  0  0  0  0  0
  -25.9080  -34.9387   23.5036 C   0  0  0  0  0  0
  -16.5374  -29.9090   23.6344 C   0  0  0  0  0  0
  -16.7305  -28.6516   23.0352 C   0  0  0  0  0  0
  -26.4533  -31.6550   25.0697 C   0  0  0  0  0  0
  -25.3703  -31.3779   26.1395 C   0  0  0  0  0  0
  -27.0401  -30.2931   24.6326 C   0  0  0  0  0  0
  -27.6048  -32.4333   25.7487 C   0  0  0  0  0  0
  -27.5573  -37.1777   24.8464 C   0  0  0  0  0  0
  -21.4290  -29.3051   22.3566 N   0  0  0  0  0  0
  -26.4275  -37.3737   23.9410 N   0  0  0  0  0  0
  -24.7274  -31.0193   22.0887 N   0  0  0  0  0  0
  -23.4227  -28.8078   23.2991 O   0  0  0  0  0  0
  -28.2564  -26.0541   20.2317 O   0  0  0  0  0  0
  -26.5678  -34.8898   22.4624 O   0  0  0  0  0  0
  -23.5595  -32.1290   23.7005 O   0  0  0  0  0  0
  -31.8845  -19.5046   20.4247 C   0  0  0  0  0  0
  -30.9830  -20.5932   20.3761 C   0  0  0  0  0  0
  -31.4698  -18.1531   20.4494 C   0  0  0  0  0  0
  -29.5828  -20.4203   20.3420 C   0  0  0  0  0  0
  -29.1846  -18.9644   20.3785 C   0  0  0  0  0  0
  -30.1079  -17.7707   20.4318 C   0  0  0  0  0  0
  -28.6948  -21.7853   20.2538 C   0  0  0  0  0  0
  -28.9448  -23.2019   20.2544 C   0  0  0  0  0  0
  -27.6946  -18.6883   20.3599 C   0  0  0  0  0  0
  -27.9272  -24.5156   20.0738 C   0  0  0  0  0  0
  -29.7822  -16.2440   20.4852 N   0  0  0  0  0  0
  -31.4714  -12.7825   19.1911 H   0  0  0  0  0  0
  -30.4280  -11.6960   20.0594 H   0  0  0  0  0  0
  -29.8587  -11.7301   17.6037 H   0  0  0  0  0  0
  -29.5998  -13.4560   17.6742 H   0  0  0  0  0  0
  -27.9815  -11.2707   19.0140 H   0  0  0  0  0  0
  -27.3977  -12.4039   17.8241 H   0  0  0  0  0  0
  -27.5727  -14.2437   19.3718 H   0  0  0  0  0  0
  -28.7702  -12.3789   21.4766 H   0  0  0  0  0  0
  -28.3521  -14.0601   21.7160 H   0  0  0  0  0  0
  -25.2786   -9.5680   22.4776 H   0  0  0  0  0  0
  -24.0021   -7.4631   22.7470 H   0  0  0  0  0  0
  -21.0864   -8.8797   19.8951 H   0  0  0  0  0  0
  -22.3737  -10.9690   19.6179 H   0  0  0  0  0  0
  -21.2010   -7.6158   23.9737 H   0  0  0  0  0  0
  -21.1486   -6.0525   25.9088 H   0  0  0  0  0  0
  -22.0583   -2.7621   23.2843 H   0  0  0  0  0  0
  -22.4063  -11.9880   22.4850 H   0  0  0  0  0  0
  -21.1060  -13.1236   22.2633 H   0  0  0  0  0  0
  -24.6279  -15.8342   20.5048 H   0  0  0  0  0  0
  -26.2335  -15.6312   20.0242 H   0  0  0  0  0  0
  -26.7303  -32.5260   23.0950 H   0  0  0  0  0  0
  -25.0076  -33.9564   25.0269 H   0  0  0  0  0  0
  -22.7620  -31.2847   21.3687 H   0  0  0  0  0  0
  -23.3748  -35.9587   23.3299 H   0  0  0  0  0  0
  -24.3567  -36.8888   22.2055 H   0  0  0  0  0  0
  -23.7267  -37.6439   23.6695 H   0  0  0  0  0  0
  -26.1810  -31.4461   20.6184 H   0  0  0  0  0  0
  -26.8817  -30.7443   22.0392 H   0  0  0  0  0  0
  -28.1405  -28.7404   21.2489 H   0  0  0  0  0  0
  -25.8953  -25.8165   19.0027 H   0  0  0  0  0  0
  -23.9880  -27.2931   18.9715 H   0  0  0  0  0  0
  -23.8361  -30.5584   19.3946 H   0  0  0  0  0  0
  -22.8028  -29.2338   19.8323 H   0  0  0  0  0  0
  -25.1317  -36.1816   25.0800 H   0  0  0  0  0  0
  -21.0044  -28.3342   24.1330 H   0  0  0  0  0  0
  -20.5670  -26.2358   23.3629 H   0  0  0  0  0  0
  -21.6660  -26.7418   22.1216 H   0  0  0  0  0  0
  -19.6913  -25.6294   21.1268 H   0  0  0  0  0  0
  -19.6691  -27.3177   20.6729 H   0  0  0  0  0  0
  -17.4217  -26.6700   21.4037 H   0  0  0  0  0  0
  -18.0343  -26.0079   22.9016 H   0  0  0  0  0  0
  -19.7959  -30.7330   24.2206 H   0  0  0  0  0  0
  -17.5028  -31.6263   24.5192 H   0  0  0  0  0  0
  -15.5372  -30.2975   23.7681 H   0  0  0  0  0  0
  -15.8710  -28.0833   22.7055 H   0  0  0  0  0  0
  -24.5861  -30.7150   25.7724 H   0  0  0  0  0  0
  -24.8924  -32.2981   26.4762 H   0  0  0  0  0  0
  -25.7973  -30.8985   27.0213 H   0  0  0  0  0  0
  -26.3029  -29.6632   24.1336 H   0  0  0  0  0  0
  -27.3982  -29.7260   25.4926 H   0  0  0  0  0  0
  -27.8956  -30.4126   23.9675 H   0  0  0  0  0  0
  -27.2620  -33.3640   26.2014 H   0  0  0  0  0  0
  -28.3888  -32.6883   25.0345 H   0  0  0  0  0  0
  -28.0688  -31.8497   26.5449 H   0  0  0  0  0  0
  -28.2589  -38.0072   24.7498 H   0  0  0  0  0  0
  -28.1067  -36.2602   24.6301 H   0  0  0  0  0  0
  -27.2294  -37.1452   25.8866 H   0  0  0  0  0  0
  -20.9495  -29.8754   21.6733 H   0  0  0  0  0  0
  -26.0133  -38.2800   24.1409 H   0  0  0  0  0  0
  -32.9456  -19.7150   20.4413 H   0  0  0  0  0  0
  -31.3952  -21.5917   20.3523 H   0  0  0  0  0  0
  -32.2461  -17.4047   20.4913 H   0  0  0  0  0  0
  -27.6444  -21.5564   20.1454 H   0  0  0  0  0  0
  -29.9774  -23.5001   20.3597 H   0  0  0  0  0  0
  -27.2468  -19.0032   21.3023 H   0  0  0  0  0  0
  -27.4725  -17.6332   20.2137 H   0  0  0  0  0  0
  -27.2153  -19.2402   19.5515 H   0  0  0  0  0  0
  -27.0630  -24.3094   20.7054 H   0  0  0  0  0  0
  -27.5677  -24.4035   19.0516 H   0  0  0  0  0  0
  -28.7980  -16.0498   20.5856 H   0  0  0  0  0  0
  1 25  1  0  0  0
  1 30  2  0  0  0
  1 81  1  0  0  0
  2  3  1  0  0  0
  2 25  1  0  0  0
  2 82  1  0  0  0
  2 83  1  0  0  0
  3  4  1  0  0  0
  3 84  1  0  0  0
  3 85  1  0  0  0
  4  5  1  0  0  0
  4 86  1  0  0  0
  4 87  1  0  0  0
  5  6  1  0  0  0
  5 26  1  0  0  0
  5 88  1  0  0  0
  6 25  1  0  0  0
  6 89  1  0  0  0
  6 90  1  0  0  0
  7  8  2  0  0  0
  7 26  1  0  0  0
  7 29  1  0  0  0
  8  9  1  0  0  0
  8 22  1  0  0  0
  9 10  1  0  0  0
  9 27  2  0  0  0
 10 11  2  0  0  0
 10 15  1  0  0  0
 11 12  1  0  0  0
 11 91  1  0  0  0
 12 13  2  0  0  0
 12 92  1  0  0  0
 13 14  1  0  0  0
 13 31  1  0  0  0
 14 15  2  0  0  0
 14 93  1  0  0  0
 15 94  1  0  0  0
 16 17  2  0  0  0
 16 21  1  0  0  0
 16 31  1  0  0  0
 17 18  1  0  0  0
 17 95  1  0  0  0
 18 19  2  0  0  0
 18 96  1  0  0  0
 19 20  1  0  0  0
 19 24  1  0  0  0
 20 21  2  0  0  0
 20 97  1  0  0  0
 21 23  1  0  0  0
 22 28  1  0  0  0
 22 32  2  0  0  0
 26 27  1  0  0  0
 28 98  1  0  0  0
 28 99  1  0  0  0
 29100  1  0  0  0
 29101  1  0  0  0
 33 34  1  0  0  0
 33 66  1  0  0  0
 33 70  2  0  0  0
 34 36  1  0  0  0
 34 59  1  0  0  0
 34102  1  0  0  0
 35 44  2  0  0  0
 35 45  1  0  0  0
 35 68  1  0  0  0
 36 56  1  0  0  0
 36103  1  0  0  0
 37 39  1  0  0  0
 37 47  1  0  0  0
 37 66  1  0  0  0
 37104  1  0  0  0
 38 43  2  0  0  0
 38 46  1  0  0  0
 38 47  1  0  0  0
 39 64  1  0  0  0
 39 67  2  0  0  0
 40 52  1  0  0  0
 40 53  2  0  0  0
 40 58  1  0  0  0
 41105  1  0  0  0
 41106  1  0  0  0
 41107  1  0  0  0
 41 48  1  0  0  0
 42 43  1  0  0  0
 42 66  1  0  0  0
 42108  1  0  0  0
 42109  1  0  0  0
 43 44  1  0  0  0
 44110  1  0  0  0
 45 46  2  0  0  0
 45111  1  0  0  0
 46112  1  0  0  0
 47113  1  0  0  0
 47114  1  0  0  0
 48 56  1  0  0  0
 48 65  1  0  0  0
 48115  1  0  0  0
 49 50  1  0  0  0
 49 53  1  0  0  0
 49 64  1  0  0  0
 49116  1  0  0  0
 50 51  1  0  0  0
 50117  1  0  0  0
 50118  1  0  0  0
 51 52  1  0  0  0
 51119  1  0  0  0
 51120  1  0  0  0
 52121  1  0  0  0
 52122  1  0  0  0
 53 54  1  0  0  0
 54 55  2  0  0  0
 54123  1  0  0  0
 55 57  1  0  0  0
 55124  1  0  0  0
 56 69  2  0  0  0
 57 58  2  0  0  0
 57125  1  0  0  0
 58126  1  0  0  0
 59 60  1  0  0  0
 59 61  1  0  0  0
 59 62  1  0  0  0
 60127  1  0  0  0
 60128  1  0  0  0
 60129  1  0  0  0
 61130  1  0  0  0
 61131  1  0  0  0
 61132  1  0  0  0
 62133  1  0  0  0
 62134  1  0  0  0
 62135  1  0  0  0
 63 65  1  0  0  0
 63136  1  0  0  0
 63137  1  0  0  0
 63138  1  0  0  0
 64139  1  0  0  0
 65140  1  0  0  0
 68 80  1  0  0  0
 71 72  2  0  0  0
 71 73  1  0  0  0
 71141  1  0  0  0
 72 74  1  0  0  0
 72142  1  0  0  0
 73 76  2  0  0  0
 73143  1  0  0  0
 74 75  2  0  0  0
 74 77  1  0  0  0
 75 76  1  0  0  0
 75 79  1  0  0  0
 76 81  1  0  0  0
 77 78  2  0  0  0
 77144  1  0  0  0
 78 80  1  0  0  0
 78145  1  0  0  0
 79146  1  0  0  0
 79147  1  0  0  0
 79148  1  0  0  0
 80149  1  0  0  0
 80150  1  0  0  0
 81151  1  0  0  0
M  ISO  4   1 100  68 101  80 101  81 100
M  END
> <chiral flag>
0

> <version>
0

> <s_m_source_file>
/data/baiqing/PycharmProjects/Reinvent-master-3.2/result/LINK_invent/BTK/process_docking_weight1_custom_product_contain_oxygen_bond_distance_aromatic_linkinvent_7_9_3/rearranged_h_0061.sdf

> <i_m_source_file_index>
32

> <r_mmod_Potential_Energy-OPLS-2005>
589

> <r_mmod_Stretch_Energy-OPLS-2005>
319.265716552734

> <r_mmod_Bend_Energy-OPLS-2005>
253.40104675293

> <r_mmod_Torsional_Energy-OPLS-2005>
216.100570678711

> <r_mmod_Improper_Torsional_Energy-OPLS-2005>
5.04886054992676

> <r_mmod_Van_der_Waal_Energy-OPLS-2005>
131.076431274414

> <r_mmod_Electrostatic_Energy-OPLS-2005>
-375.338104248047

> <r_mmod_Solvation_Energy-OPLS-2005>
-207.424880981445

> <b_mmod_Minimization_Converged-OPLS-2005>
0

> <r_mmod_RMS_Derivative-OPLS-2005>
1.97738862037659

$$$$
32
                    3D
 Structure written by MMmdl.
156164  0  0  1  0            999 V2000
  -30.6664  -14.5529   20.5337 C   0  0  0  0  0  0
  -30.4293  -12.3453   19.4383 C   0  0  0  0  0  0
  -29.5023  -12.5082   18.2152 C   0  0  0  0  0  0
  -28.0235  -12.3569   18.6250 C   0  0  0  0  0  0
  -27.6574  -13.2112   19.8683 C   0  0  2  0  0  0
  -28.7007  -13.0318   20.9947 C   0  0  0  0  0  0
  -25.2572  -13.8160   20.5675 C   0  0  0  0  0  0
  -24.1832  -13.0434   20.9183 C   0  0  0  0  0  0
  -24.6387  -11.6904   20.8728 C   0  0  0  0  0  0
  -23.9052  -10.4288   21.0393 C   0  0  0  0  0  0
  -24.3608   -9.4206   21.9170 C   0  0  0  0  0  0
  -23.6282   -8.2242   22.0748 C   0  0  0  0  0  0
  -22.4263   -8.0276   21.3545 C   0  0  0  0  0  0
  -21.9890   -9.0249   20.4646 C   0  0  0  0  0  0
  -22.7221  -10.2128   20.3045 C   0  0  0  0  0  0
  -21.6855   -6.0722   22.5270 C   0  0  0  0  0  0
  -21.4021   -6.5630   23.8204 C   0  0  0  0  0  0
  -21.3659   -5.6784   24.9166 C   0  0  0  0  0  0
  -21.6040   -4.3045   24.7220 C   0  0  0  0  0  0
  -21.8822   -3.8136   23.4346 C   0  0  0  0  0  0
  -21.9199   -4.6953   22.3399 C   0  0  0  0  0  0
  -22.7855  -13.5234   21.1836 C   0  0  0  0  0  0
  -22.1665   -4.2136   21.0978 F   0  0  0  0  0  0
  -21.5624   -3.4531   25.7736 F   0  0  0  0  0  0
  -30.0250  -13.3514   20.4369 N   0  0  0  0  0  0
  -26.3003  -12.9335   20.3330 N   0  0  0  0  0  0
  -25.9315  -11.6493   20.5744 N   0  0  0  0  0  0
  -22.0495  -12.8242   22.0403 N   0  0  0  0  0  0
  -25.4285  -15.1877   20.4069 N   0  0  0  0  0  0
  -31.8192  -14.7074   20.1192 O   0  0  0  0  0  0
  -21.6636   -6.8868   21.4237 O   0  0  0  0  0  0
  -22.3540  -14.5538   20.6675 O   0  0  0  0  0  0
  -24.6199  -31.8645   23.2074 C   0  0  0  0  0  0
  -25.9078  -32.4799   23.8372 C   0  0  1  0  0  0
  -27.2259  -27.3754   20.1031 C   0  0  0  0  0  0
  -25.5917  -33.8601   24.2304 N   0  0  0  0  0  0
  -23.4103  -30.4876   21.5493 C   0  0  2  0  0  0
  -24.8557  -28.9537   20.1096 C   0  0  0  0  0  0
  -22.7446  -29.4626   22.4970 C   0  0  0  0  0  0
  -18.0277  -28.1377   22.8477 C   0  0  0  0  0  0
  -24.1489  -36.7304   23.2633 C   0  0  0  0  0  0
  -25.9462  -30.8112   21.3716 C   0  0  0  0  0  0
  -26.0206  -29.4437   20.7129 C   0  0  0  0  0  0
  -27.2077  -28.6637   20.7045 C   0  0  0  0  0  0
  -26.0403  -26.9268   19.4729 C   0  0  0  0  0  0
  -24.8644  -27.6984   19.4831 C   0  0  0  0  0  0
  -23.6212  -29.8260   20.1624 C   0  0  0  0  0  0
  -25.4105  -36.3090   24.0333 C   0  0  1  0  0  0
  -20.5870  -28.3664   23.1305 C   0  0  2  0  0  0
  -20.6769  -26.9395   22.5421 C   0  0  0  0  0  0
  -19.5750  -26.6382   21.5207 C   0  0  0  0  0  0
  -18.1925  -26.7925   22.1615 C   0  0  0  0  0  0
  -19.1528  -28.8842   23.2886 C   0  0  0  0  0  0
  -18.9455  -30.1446   23.8899 C   0  0  0  0  0  0
  -17.6458  -30.6583   24.0563 C   0  0  0  0  0  0
  -25.9040  -34.9460   23.5114 C   0  0  0  0  0  0
  -16.5349  -29.9081   23.6325 C   0  0  0  0  0  0
  -16.7262  -28.6497   23.0342 C   0  0  0  0  0  0
  -26.4480  -31.6595   25.0729 C   0  0  0  0  0  0
  -25.3740  -31.3761   26.1485 C   0  0  0  0  0  0
  -27.0289  -30.3011   24.6160 C   0  0  0  0  0  0
  -27.6050  -32.4323   25.7489 C   0  0  0  0  0  0
  -27.5585  -37.1791   24.8448 C   0  0  0  0  0  0
  -21.4166  -29.3026   22.3713 N   0  0  0  0  0  0
  -26.4282  -37.3783   23.9416 N   0  0  0  0  0  0
  -24.6768  -31.0700   22.1001 N   0  0  0  0  0  0
  -23.4198  -28.8163   23.3024 O   0  0  0  0  0  0
  -28.3672  -26.5783   20.1565 O   0  0  0  0  0  0
  -26.5599  -34.8918   22.4673 O   0  0  0  0  0  0
  -23.5381  -32.1425   23.7435 O   0  0  0  0  0  0
  -29.0013  -17.8942   20.7082 C   0  0  0  0  0  0
  -29.1595  -19.3027   20.5891 C   0  0  0  0  0  0
  -31.3963  -17.6231   20.8769 C   0  0  0  0  0  0
  -31.5684  -19.0292   20.7685 C   0  0  0  0  0  0
  -30.1149  -17.0231   20.8352 C   0  0  0  0  0  0
  -30.4425  -19.8975   20.6262 C   0  0  0  0  0  0
  -29.2563  -24.2525   20.6254 C   0  0  0  0  0  0
  -32.9913  -19.5665   20.8044 C   0  0  0  0  0  0
  -28.2001  -25.1458   19.9153 C   0  0  0  0  0  0
  -29.0881  -22.7005   20.5498 C   0  0  0  0  0  0
  -31.1255  -21.9322   18.9016 N   0  0  0  0  0  0
  -29.8965  -15.5961   20.9478 N   0  0  0  0  0  0
  -30.1624  -24.7772   21.2819 O   0  0  0  0  0  0
  -31.5917  -22.1796   21.4606 O   0  0  0  0  0  0
  -30.6843  -21.7221   20.3932 S   0  0  2  0  0  0
  -31.4732  -12.4507   19.1379 H   0  0  0  0  0  0
  -30.3392  -11.3425   19.8574 H   0  0  0  0  0  0
  -29.7550  -11.7742   17.4489 H   0  0  0  0  0  0
  -29.6603  -13.4885   17.7626 H   0  0  0  0  0  0
  -27.8463  -11.3018   18.8374 H   0  0  0  0  0  0
  -27.3730  -12.6124   17.7876 H   0  0  0  0  0  0
  -27.6883  -14.2527   19.5476 H   0  0  0  0  0  0
  -28.6933  -12.0040   21.3605 H   0  0  0  0  0  0
  -28.4574  -13.6519   21.8587 H   0  0  0  0  0  0
  -25.2757   -9.5687   22.4738 H   0  0  0  0  0  0
  -23.9998   -7.4637   22.7462 H   0  0  0  0  0  0
  -21.0819   -8.8765   19.8954 H   0  0  0  0  0  0
  -22.3672  -10.9664   19.6150 H   0  0  0  0  0  0
  -21.2019   -7.6138   23.9704 H   0  0  0  0  0  0
  -21.1472   -6.0512   25.9068 H   0  0  0  0  0  0
  -22.0605   -2.7597   23.2850 H   0  0  0  0  0  0
  -22.4105  -11.9909   22.4808 H   0  0  0  0  0  0
  -21.1116  -13.1274   22.2597 H   0  0  0  0  0  0
  -24.6566  -15.8393   20.4990 H   0  0  0  0  0  0
  -26.2696  -15.6212   20.0505 H   0  0  0  0  0  0
  -26.7145  -32.5485   23.1121 H   0  0  0  0  0  0
  -25.0074  -33.9755   25.0454 H   0  0  0  0  0  0
  -22.6996  -31.3053   21.4108 H   0  0  0  0  0  0
  -23.3751  -35.9636   23.3291 H   0  0  0  0  0  0
  -24.3591  -36.8927   22.2050 H   0  0  0  0  0  0
  -23.7247  -37.6508   23.6654 H   0  0  0  0  0  0
  -26.0723  -31.5797   20.6077 H   0  0  0  0  0  0
  -26.8280  -30.8564   21.9988 H   0  0  0  0  0  0
  -28.1025  -29.0339   21.1852 H   0  0  0  0  0  0
  -25.9933  -25.9742   18.9670 H   0  0  0  0  0  0
  -23.9717  -27.3210   19.0034 H   0  0  0  0  0  0
  -23.7343  -30.6035   19.4057 H   0  0  0  0  0  0
  -22.7430  -29.2506   19.8624 H   0  0  0  0  0  0
  -25.1281  -36.1936   25.0825 H   0  0  0  0  0  0
  -20.9950  -28.3236   24.1431 H   0  0  0  0  0  0
  -20.5660  -26.2269   23.3610 H   0  0  0  0  0  0
  -21.6642  -26.7437   22.1216 H   0  0  0  0  0  0
  -19.6912  -25.6298   21.1232 H   0  0  0  0  0  0
  -19.6692  -27.3194   20.6742 H   0  0  0  0  0  0
  -17.4199  -26.6663   21.4015 H   0  0  0  0  0  0
  -18.0327  -26.0070   22.9008 H   0  0  0  0  0  0
  -19.7938  -30.7250   24.2272 H   0  0  0  0  0  0
  -17.5018  -31.6260   24.5170 H   0  0  0  0  0  0
  -15.5346  -30.2977   23.7655 H   0  0  0  0  0  0
  -15.8667  -28.0816   22.7055 H   0  0  0  0  0  0
  -24.5871  -30.7142   25.7850 H   0  0  0  0  0  0
  -24.8985  -32.2949   26.4922 H   0  0  0  0  0  0
  -25.8084  -30.8936   27.0249 H   0  0  0  0  0  0
  -26.2836  -29.6796   24.1180 H   0  0  0  0  0  0
  -27.3978  -29.7231   25.4646 H   0  0  0  0  0  0
  -27.8716  -30.4286   23.9361 H   0  0  0  0  0  0
  -27.2655  -33.3614   26.2076 H   0  0  0  0  0  0
  -28.3839  -32.6904   25.0304 H   0  0  0  0  0  0
  -28.0732  -31.8450   26.5397 H   0  0  0  0  0  0
  -28.2571  -38.0118   24.7537 H   0  0  0  0  0  0
  -28.1106  -36.2654   24.6201 H   0  0  0  0  0  0
  -27.2320  -37.1371   25.8854 H   0  0  0  0  0  0
  -20.9342  -29.8746   21.6929 H   0  0  0  0  0  0
  -26.0166  -38.2850   24.1456 H   0  0  0  0  0  0
  -28.0010  -17.4849   20.6821 H   0  0  0  0  0  0
  -28.2870  -19.9271   20.4660 H   0  0  0  0  0  0
  -32.2730  -17.0029   20.9959 H   0  0  0  0  0  0
  -33.7249  -18.7651   20.7111 H   0  0  0  0  0  0
  -33.1819  -20.0779   21.7484 H   0  0  0  0  0  0
  -33.1738  -20.2641   19.9872 H   0  0  0  0  0  0
  -27.2285  -24.8076   20.2758 H   0  0  0  0  0  0
  -28.2395  -24.9556   18.8424 H   0  0  0  0  0  0
  -28.4387  -22.4371   19.7187 H   0  0  0  0  0  0
  -28.5910  -22.3670   21.4578 H   0  0  0  0  0  0
  -30.5136  -21.4188   18.2542 H   0  0  0  0  0  0
  -28.9630  -15.3201   21.2115 H   0  0  0  0  0  0
  1 25  1  0  0  0
  1 30  2  0  0  0
  1 82  1  0  0  0
  2  3  1  0  0  0
  2 25  1  0  0  0
  2 86  1  0  0  0
  2 87  1  0  0  0
  3  4  1  0  0  0
  3 88  1  0  0  0
  3 89  1  0  0  0
  4  5  1  0  0  0
  4 90  1  0  0  0
  4 91  1  0  0  0
  5  6  1  0  0  0
  5 26  1  0  0  0
  5 92  1  0  0  0
  6 25  1  0  0  0
  6 93  1  0  0  0
  6 94  1  0  0  0
  7  8  2  0  0  0
  7 26  1  0  0  0
  7 29  1  0  0  0
  8  9  1  0  0  0
  8 22  1  0  0  0
  9 10  1  0  0  0
  9 27  2  0  0  0
 10 11  2  0  0  0
 10 15  1  0  0  0
 11 12  1  0  0  0
 11 95  1  0  0  0
 12 13  2  0  0  0
 12 96  1  0  0  0
 13 14  1  0  0  0
 13 31  1  0  0  0
 14 15  2  0  0  0
 14 97  1  0  0  0
 15 98  1  0  0  0
 16 17  2  0  0  0
 16 21  1  0  0  0
 16 31  1  0  0  0
 17 18  1  0  0  0
 17 99  1  0  0  0
 18 19  2  0  0  0
 18100  1  0  0  0
 19 20  1  0  0  0
 19 24  1  0  0  0
 20 21  2  0  0  0
 20101  1  0  0  0
 21 23  1  0  0  0
 22 28  1  0  0  0
 22 32  2  0  0  0
 26 27  1  0  0  0
 28102  1  0  0  0
 28103  1  0  0  0
 29104  1  0  0  0
 29105  1  0  0  0
 33 34  1  0  0  0
 33 66  1  0  0  0
 33 70  2  0  0  0
 34 36  1  0  0  0
 34 59  1  0  0  0
 34106  1  0  0  0
 35 44  2  0  0  0
 35 45  1  0  0  0
 35 68  1  0  0  0
 36 56  1  0  0  0
 36107  1  0  0  0
 37 39  1  0  0  0
 37 47  1  0  0  0
 37 66  1  0  0  0
 37108  1  0  0  0
 38 43  2  0  0  0
 38 46  1  0  0  0
 38 47  1  0  0  0
 39 64  1  0  0  0
 39 67  2  0  0  0
 40 52  1  0  0  0
 40 53  2  0  0  0
 40 58  1  0  0  0
 41109  1  0  0  0
 41110  1  0  0  0
 41111  1  0  0  0
 41 48  1  0  0  0
 42 43  1  0  0  0
 42 66  1  0  0  0
 42112  1  0  0  0
 42113  1  0  0  0
 43 44  1  0  0  0
 44114  1  0  0  0
 45 46  2  0  0  0
 45115  1  0  0  0
 46116  1  0  0  0
 47117  1  0  0  0
 47118  1  0  0  0
 48 56  1  0  0  0
 48 65  1  0  0  0
 48119  1  0  0  0
 49 50  1  0  0  0
 49 53  1  0  0  0
 49 64  1  0  0  0
 49120  1  0  0  0
 50 51  1  0  0  0
 50121  1  0  0  0
 50122  1  0  0  0
 51 52  1  0  0  0
 51123  1  0  0  0
 51124  1  0  0  0
 52125  1  0  0  0
 52126  1  0  0  0
 53 54  1  0  0  0
 54 55  2  0  0  0
 54127  1  0  0  0
 55 57  1  0  0  0
 55128  1  0  0  0
 56 69  2  0  0  0
 57 58  2  0  0  0
 57129  1  0  0  0
 58130  1  0  0  0
 59 60  1  0  0  0
 59 61  1  0  0  0
 59 62  1  0  0  0
 60131  1  0  0  0
 60132  1  0  0  0
 60133  1  0  0  0
 61134  1  0  0  0
 61135  1  0  0  0
 61136  1  0  0  0
 62137  1  0  0  0
 62138  1  0  0  0
 62139  1  0  0  0
 63 65  1  0  0  0
 63140  1  0  0  0
 63141  1  0  0  0
 63142  1  0  0  0
 64143  1  0  0  0
 65144  1  0  0  0
 68 79  1  0  0  0
 71 72  2  0  0  0
 71 75  1  0  0  0
 71145  1  0  0  0
 72 76  1  0  0  0
 72146  1  0  0  0
 73 74  1  0  0  0
 73 75  2  0  0  0
 73147  1  0  0  0
 74 76  2  0  0  0
 74 78  1  0  0  0
 75 82  1  0  0  0
 76 85  1  0  0  0
 77 79  1  0  0  0
 77 80  1  0  0  0
 77 83  2  0  0  0
 78148  1  0  0  0
 78149  1  0  0  0
 78150  1  0  0  0
 79151  1  0  0  0
 79152  1  0  0  0
 80153  1  0  0  0
 80154  1  0  0  0
 80 85  1  0  0  0
 81 85  2  0  0  0
 81155  1  0  0  0
 82156  1  0  0  0
 84 85  2  0  0  0
M  ISO  4   1 100  68 101  79 101  82 100
M  END
> <chiral flag>
0

> <version>
0

> <s_m_source_file>
/data/baiqing/PycharmProjects/Reinvent-master-3.2/result/LINK_invent/BTK/process_docking_weight1_custom_product_contain_oxygen_bond_distance_aromatic_linkinvent_7_9_3/rearranged_h_0061.sdf

> <i_m_source_file_index>
33

> <r_mmod_Potential_Energy-OPLS-2005>
-143.19921875

> <r_mmod_Stretch_Energy-OPLS-2005>
56.993350982666

> <r_mmod_Bend_Energy-OPLS-2005>
117.150863647461

> <r_mmod_Torsional_Energy-OPLS-2005>
218.113235473633

> <r_mmod_Improper_Torsional_Energy-OPLS-2005>
4.92129802703857

> <r_mmod_Van_der_Waal_Energy-OPLS-2005>
145.916030883789

> <r_mmod_Electrostatic_Energy-OPLS-2005>
-390.760833740234

> <r_mmod_Solvation_Energy-OPLS-2005>
-322.271942138672

> <b_mmod_Minimization_Converged-OPLS-2005>
0

> <r_mmod_RMS_Derivative-OPLS-2005>
1.31520533561707

$$$$
33
                    3D
 Structure written by MMmdl.
160168  0  0  1  0            999 V2000
  -30.6316  -14.6616   20.5133 C   0  0  0  0  0  0
  -30.4421  -12.4126   19.4505 C   0  0  0  0  0  0
  -29.5108  -12.5277   18.2212 C   0  0  0  0  0  0
  -28.0330  -12.3616   18.6319 C   0  0  0  0  0  0
  -27.6548  -13.2272   19.8626 C   0  0  2  0  0  0
  -28.7010  -13.0877   20.9927 C   0  0  0  0  0  0
  -25.2549  -13.8187   20.5682 C   0  0  0  0  0  0
  -24.1833  -13.0434   20.9194 C   0  0  0  0  0  0
  -24.6432  -11.6920   20.8730 C   0  0  0  0  0  0
  -23.9093  -10.4295   21.0404 C   0  0  0  0  0  0
  -24.3636   -9.4205   21.9182 C   0  0  0  0  0  0
  -23.6311   -8.2239   22.0748 C   0  0  0  0  0  0
  -22.4281   -8.0276   21.3554 C   0  0  0  0  0  0
  -21.9929   -9.0250   20.4646 C   0  0  0  0  0  0
  -22.7263  -10.2132   20.3056 C   0  0  0  0  0  0
  -21.6851   -6.0741   22.5287 C   0  0  0  0  0  0
  -21.4016   -6.5642   23.8220 C   0  0  0  0  0  0
  -21.3661   -5.6799   24.9177 C   0  0  0  0  0  0
  -21.6039   -4.3063   24.7227 C   0  0  0  0  0  0
  -21.8820   -3.8153   23.4353 C   0  0  0  0  0  0
  -21.9197   -4.6971   22.3411 C   0  0  0  0  0  0
  -22.7845  -13.5207   21.1862 C   0  0  0  0  0  0
  -22.1665   -4.2156   21.0989 F   0  0  0  0  0  0
  -21.5625   -3.4545   25.7743 F   0  0  0  0  0  0
  -30.0179  -13.4342   20.4319 N   0  0  0  0  0  0
  -26.3008  -12.9402   20.3313 N   0  0  0  0  0  0
  -25.9363  -11.6545   20.5736 N   0  0  0  0  0  0
  -22.0503  -12.8197   22.0425 N   0  0  0  0  0  0
  -25.4224  -15.1910   20.4056 N   0  0  0  0  0  0
  -31.7881  -14.8181   20.1127 O   0  0  0  0  0  0
  -21.6643   -6.8877   21.4242 O   0  0  0  0  0  0
  -22.3529  -14.5518   20.6723 O   0  0  0  0  0  0
  -24.6225  -31.8572   23.2001 C   0  0  0  0  0  0
  -25.9082  -32.4764   23.8328 C   0  0  1  0  0  0
  -27.2359  -27.3125   20.1443 C   0  0  0  0  0  0
  -25.5916  -33.8563   24.2275 N   0  0  0  0  0  0
  -23.4170  -30.4793   21.5365 C   0  0  2  0  0  0
  -24.8718  -28.9283   20.1079 C   0  0  0  0  0  0
  -22.7454  -29.4614   22.4895 C   0  0  0  0  0  0
  -18.0301  -28.1365   22.8481 C   0  0  0  0  0  0
  -24.1511  -36.7271   23.2642 C   0  0  0  0  0  0
  -25.9574  -30.7898   21.3691 C   0  0  0  0  0  0
  -26.0339  -29.4135   20.7205 C   0  0  0  0  0  0
  -27.2138  -28.6155   20.7289 C   0  0  0  0  0  0
  -26.0530  -26.8779   19.5035 C   0  0  0  0  0  0
  -24.8853  -27.6673   19.4880 C   0  0  0  0  0  0
  -23.6361  -29.8041   20.1548 C   0  0  0  0  0  0
  -25.4110  -36.3054   24.0348 C   0  0  1  0  0  0
  -20.5894  -28.3663   23.1267 C   0  0  2  0  0  0
  -20.6793  -26.9373   22.5404 C   0  0  0  0  0  0
  -19.5782  -26.6358   21.5198 C   0  0  0  0  0  0
  -18.1963  -26.7929   22.1605 C   0  0  0  0  0  0
  -19.1553  -28.8829   23.2890 C   0  0  0  0  0  0
  -18.9476  -30.1435   23.8892 C   0  0  0  0  0  0
  -17.6481  -30.6569   24.0560 C   0  0  0  0  0  0
  -25.9033  -34.9437   23.5099 C   0  0  0  0  0  0
  -16.5367  -29.9071   23.6331 C   0  0  0  0  0  0
  -16.7293  -28.6486   23.0338 C   0  0  0  0  0  0
  -26.4473  -31.6575   25.0697 C   0  0  0  0  0  0
  -25.3737  -31.3714   26.1449 C   0  0  0  0  0  0
  -27.0333  -30.3027   24.6118 C   0  0  0  0  0  0
  -27.6031  -32.4295   25.7473 C   0  0  0  0  0  0
  -27.5577  -37.1770   24.8465 C   0  0  0  0  0  0
  -21.4154  -29.3054   22.3676 N   0  0  0  0  0  0
  -26.4272  -37.3759   23.9415 N   0  0  0  0  0  0
  -24.6836  -31.0621   22.0925 N   0  0  0  0  0  0
  -23.4186  -28.8133   23.2934 O   0  0  0  0  0  0
  -28.3699  -26.4883   20.2206 O   0  0  0  0  0  0
  -26.5582  -34.8929   22.4665 O   0  0  0  0  0  0
  -23.5404  -32.1331   23.7379 O   0  0  0  0  0  0
  -28.8620  -19.4111   21.1326 C   0  0  0  0  0  0
  -28.8193  -17.9805   21.1340 C   0  0  0  0  0  0
  -31.1126  -17.8890   20.4445 C   0  0  0  0  0  0
  -30.0403  -20.1335   20.8054 C   0  0  0  0  0  0
  -31.1661  -19.3220   20.4289 C   0  0  0  0  0  0
  -29.9471  -17.1715   20.8179 C   0  0  0  0  0  0
  -30.1747  -21.6588   21.0742 C   0  0  0  0  0  0
  -32.4897  -19.9607   20.0169 C   0  0  0  0  0  0
  -29.2992  -24.4385   22.3167 C   0  0  0  0  0  0
  -30.7310  -24.6623   20.2369 C   0  0  0  0  0  0
  -28.2486  -25.0116   20.0926 C   0  0  0  0  0  0
  -29.3893  -24.1371   20.8004 C   0  0  0  0  0  0
  -29.8360  -15.7080   20.9166 N   0  0  0  0  0  0
  -29.3117  -22.6200   20.5905 N   0  0  0  0  0  0
  -31.1348  -21.9906   21.7707 O   0  0  0  0  0  0
  -31.4826  -12.5418   19.1463 H   0  0  0  0  0  0
  -30.3804  -11.4142   19.8885 H   0  0  0  0  0  0
  -29.7763  -11.7805   17.4728 H   0  0  0  0  0  0
  -29.6506  -13.4981   17.7408 H   0  0  0  0  0  0
  -27.8694  -11.3075   18.8557 H   0  0  0  0  0  0
  -27.3806  -12.6013   17.7912 H   0  0  0  0  0  0
  -27.6677  -14.2630   19.5222 H   0  0  0  0  0  0
  -28.7162  -12.0674   21.3801 H   0  0  0  0  0  0
  -28.4439  -13.7236   21.8404 H   0  0  0  0  0  0
  -25.2784   -9.5679   22.4759 H   0  0  0  0  0  0
  -24.0018   -7.4628   22.7470 H   0  0  0  0  0  0
  -21.0855   -8.8772   19.8957 H   0  0  0  0  0  0
  -22.3721  -10.9667   19.6161 H   0  0  0  0  0  0
  -21.2006   -7.6154   23.9730 H   0  0  0  0  0  0
  -21.1476   -6.0528   25.9086 H   0  0  0  0  0  0
  -22.0598   -2.7615   23.2855 H   0  0  0  0  0  0
  -22.4115  -11.9846   22.4792 H   0  0  0  0  0  0
  -21.1125  -13.1214   22.2632 H   0  0  0  0  0  0
  -24.6411  -15.8346   20.4800 H   0  0  0  0  0  0
  -26.2577  -15.6267   20.0362 H   0  0  0  0  0  0
  -26.7119  -32.5433   23.1042 H   0  0  0  0  0  0
  -25.0163  -33.9718   25.0485 H   0  0  0  0  0  0
  -22.7079  -31.2950   21.3819 H   0  0  0  0  0  0
  -23.3791  -35.9586   23.3292 H   0  0  0  0  0  0
  -24.3600  -36.8908   22.2056 H   0  0  0  0  0  0
  -23.7279  -37.6480   23.6654 H   0  0  0  0  0  0
  -26.0775  -31.5462   20.5943 H   0  0  0  0  0  0
  -26.8421  -30.8503   21.9905 H   0  0  0  0  0  0
  -28.1018  -28.9769   21.2280 H   0  0  0  0  0  0
  -26.0133  -25.9125   19.0182 H   0  0  0  0  0  0
  -23.9993  -27.2910   18.9994 H   0  0  0  0  0  0
  -23.7442  -30.5711   19.3872 H   0  0  0  0  0  0
  -22.7616  -29.2191   19.8618 H   0  0  0  0  0  0
  -25.1306  -36.1861   25.0837 H   0  0  0  0  0  0
  -20.9975  -28.3212   24.1380 H   0  0  0  0  0  0
  -20.5678  -26.2232   23.3595 H   0  0  0  0  0  0
  -21.6666  -26.7401   22.1174 H   0  0  0  0  0  0
  -19.6954  -25.6260   21.1230 H   0  0  0  0  0  0
  -19.6754  -27.3174   20.6738 H   0  0  0  0  0  0
  -17.4225  -26.6673   21.4022 H   0  0  0  0  0  0
  -18.0345  -26.0054   22.8970 H   0  0  0  0  0  0
  -19.7956  -30.7252   24.2231 H   0  0  0  0  0  0
  -17.5047  -31.6265   24.5135 H   0  0  0  0  0  0
  -15.5370  -30.2977   23.7688 H   0  0  0  0  0  0
  -15.8676  -28.0830   22.7036 H   0  0  0  0  0  0
  -24.5912  -30.7054   25.7801 H   0  0  0  0  0  0
  -24.8920  -32.2894   26.4832 H   0  0  0  0  0  0
  -25.8081  -30.8931   27.0247 H   0  0  0  0  0  0
  -26.2909  -29.6759   24.1163 H   0  0  0  0  0  0
  -27.4144  -29.7265   25.4561 H   0  0  0  0  0  0
  -27.8719  -30.4403   23.9290 H   0  0  0  0  0  0
  -27.2648  -33.3613   26.2018 H   0  0  0  0  0  0
  -28.3856  -32.6800   25.0299 H   0  0  0  0  0  0
  -28.0665  -31.8427   26.5421 H   0  0  0  0  0  0
  -28.2539  -38.0120   24.7502 H   0  0  0  0  0  0
  -28.1138  -36.2623   24.6272 H   0  0  0  0  0  0
  -27.2297  -37.1397   25.8881 H   0  0  0  0  0  0
  -20.9270  -29.8755   21.6904 H   0  0  0  0  0  0
  -26.0166  -38.2838   24.1436 H   0  0  0  0  0  0
  -27.9853  -19.9551   21.4535 H   0  0  0  0  0  0
  -27.8921  -17.5042   21.4221 H   0  0  0  0  0  0
  -32.0057  -17.3379   20.1896 H   0  0  0  0  0  0
  -33.1173  -19.2708   19.4490 H   0  0  0  0  0  0
  -33.0527  -20.2792   20.8955 H   0  0  0  0  0  0
  -32.3264  -20.8317   19.3810 H   0  0  0  0  0  0
  -29.2590  -25.5126   22.5083 H   0  0  0  0  0  0
  -30.1573  -24.0624   22.8723 H   0  0  0  0  0  0
  -28.4014  -23.9960   22.7539 H   0  0  0  0  0  0
  -30.8442  -25.7317   20.4150 H   0  0  0  0  0  0
  -30.7829  -24.5094   19.1585 H   0  0  0  0  0  0
  -31.6056  -24.1914   20.6847 H   0  0  0  0  0  0
  -27.2847  -24.6863   20.4884 H   0  0  0  0  0  0
  -28.2281  -24.7771   19.0279 H   0  0  0  0  0  0
  -28.9465  -15.3849   21.2633 H   0  0  0  0  0  0
  -28.5481  -22.2833   20.0216 H   0  0  0  0  0  0
  1 25  1  0  0  0
  1 30  2  0  0  0
  1 83  1  0  0  0
  2  3  1  0  0  0
  2 25  1  0  0  0
  2 86  1  0  0  0
  2 87  1  0  0  0
  3  4  1  0  0  0
  3 88  1  0  0  0
  3 89  1  0  0  0
  4  5  1  0  0  0
  4 90  1  0  0  0
  4 91  1  0  0  0
  5  6  1  0  0  0
  5 26  1  0  0  0
  5 92  1  0  0  0
  6 25  1  0  0  0
  6 93  1  0  0  0
  6 94  1  0  0  0
  7  8  2  0  0  0
  7 26  1  0  0  0
  7 29  1  0  0  0
  8  9  1  0  0  0
  8 22  1  0  0  0
  9 10  1  0  0  0
  9 27  2  0  0  0
 10 11  2  0  0  0
 10 15  1  0  0  0
 11 12  1  0  0  0
 11 95  1  0  0  0
 12 13  2  0  0  0
 12 96  1  0  0  0
 13 14  1  0  0  0
 13 31  1  0  0  0
 14 15  2  0  0  0
 14 97  1  0  0  0
 15 98  1  0  0  0
 16 17  2  0  0  0
 16 21  1  0  0  0
 16 31  1  0  0  0
 17 18  1  0  0  0
 17 99  1  0  0  0
 18 19  2  0  0  0
 18100  1  0  0  0
 19 20  1  0  0  0
 19 24  1  0  0  0
 20 21  2  0  0  0
 20101  1  0  0  0
 21 23  1  0  0  0
 22 28  1  0  0  0
 22 32  2  0  0  0
 26 27  1  0  0  0
 28102  1  0  0  0
 28103  1  0  0  0
 29104  1  0  0  0
 29105  1  0  0  0
 33 34  1  0  0  0
 33 66  1  0  0  0
 33 70  2  0  0  0
 34 36  1  0  0  0
 34 59  1  0  0  0
 34106  1  0  0  0
 35 44  2  0  0  0
 35 45  1  0  0  0
 35 68  1  0  0  0
 36 56  1  0  0  0
 36107  1  0  0  0
 37 39  1  0  0  0
 37 47  1  0  0  0
 37 66  1  0  0  0
 37108  1  0  0  0
 38 43  2  0  0  0
 38 46  1  0  0  0
 38 47  1  0  0  0
 39 64  1  0  0  0
 39 67  2  0  0  0
 40 52  1  0  0  0
 40 53  2  0  0  0
 40 58  1  0  0  0
 41109  1  0  0  0
 41110  1  0  0  0
 41111  1  0  0  0
 41 48  1  0  0  0
 42 43  1  0  0  0
 42 66  1  0  0  0
 42112  1  0  0  0
 42113  1  0  0  0
 43 44  1  0  0  0
 44114  1  0  0  0
 45 46  2  0  0  0
 45115  1  0  0  0
 46116  1  0  0  0
 47117  1  0  0  0
 47118  1  0  0  0
 48 56  1  0  0  0
 48 65  1  0  0  0
 48119  1  0  0  0
 49 50  1  0  0  0
 49 53  1  0  0  0
 49 64  1  0  0  0
 49120  1  0  0  0
 50 51  1  0  0  0
 50121  1  0  0  0
 50122  1  0  0  0
 51 52  1  0  0  0
 51123  1  0  0  0
 51124  1  0  0  0
 52125  1  0  0  0
 52126  1  0  0  0
 53 54  1  0  0  0
 54 55  2  0  0  0
 54127  1  0  0  0
 55 57  1  0  0  0
 55128  1  0  0  0
 56 69  2  0  0  0
 57 58  2  0  0  0
 57129  1  0  0  0
 58130  1  0  0  0
 59 60  1  0  0  0
 59 61  1  0  0  0
 59 62  1  0  0  0
 60131  1  0  0  0
 60132  1  0  0  0
 60133  1  0  0  0
 61134  1  0  0  0
 61135  1  0  0  0
 61136  1  0  0  0
 62137  1  0  0  0
 62138  1  0  0  0
 62139  1  0  0  0
 63 65  1  0  0  0
 63140  1  0  0  0
 63141  1  0  0  0
 63142  1  0  0  0
 64143  1  0  0  0
 65144  1  0  0  0
 68 81  1  0  0  0
 71 72  2  0  0  0
 71 74  1  0  0  0
 71145  1  0  0  0
 72 76  1  0  0  0
 72146  1  0  0  0
 73 75  1  0  0  0
 73 76  2  0  0  0
 73147  1  0  0  0
 74 75  2  0  0  0
 74 77  1  0  0  0
 75 78  1  0  0  0
 76 83  1  0  0  0
 77 84  1  0  0  0
 77 85  2  0  0  0
 78148  1  0  0  0
 78149  1  0  0  0
 78150  1  0  0  0
 79151  1  0  0  0
 79152  1  0  0  0
 79153  1  0  0  0
 79 82  1  0  0  0
 80 82  1  0  0  0
 80154  1  0  0  0
 80155  1  0  0  0
 80156  1  0  0  0
 81 82  1  0  0  0
 81157  1  0  0  0
 81158  1  0  0  0
 82 84  1  0  0  0
 83159  1  0  0  0
 84160  1  0  0  0
M  ISO  4   1 100  68 101  81 101  83 100
M  END
> <chiral flag>
0

> <version>
0

> <s_m_source_file>
/data/baiqing/PycharmProjects/Reinvent-master-3.2/result/LINK_invent/BTK/process_docking_weight1_custom_product_contain_oxygen_bond_distance_aromatic_linkinvent_7_9_3/rearranged_h_0061.sdf

> <i_m_source_file_index>
34

> <r_mmod_Potential_Energy-OPLS-2005>
56.383918762207

> <r_mmod_Stretch_Energy-OPLS-2005>
94.6200866699219

> <r_mmod_Bend_Energy-OPLS-2005>
149.202606201172

> <r_mmod_Torsional_Energy-OPLS-2005>
227.396926879883

> <r_mmod_Improper_Torsional_Energy-OPLS-2005>
5.11764049530029

> <r_mmod_Van_der_Waal_Energy-OPLS-2005>
148.392242431641

> <r_mmod_Electrostatic_Energy-OPLS-2005>
-395.466491699219

> <r_mmod_Solvation_Energy-OPLS-2005>
-225.411468505859

> <b_mmod_Minimization_Converged-OPLS-2005>
0

> <r_mmod_RMS_Derivative-OPLS-2005>
3.63537192344666

$$$$
34
                    3D
 Structure written by MMmdl.
164173  0  0  1  0            999 V2000
  -30.6948  -14.5321   20.5380 C   0  0  0  0  0  0
  -30.4195  -12.3371   19.4347 C   0  0  0  0  0  0
  -29.5020  -12.5252   18.2092 C   0  0  0  0  0  0
  -28.0212  -12.3892   18.6143 C   0  0  0  0  0  0
  -27.6639  -13.2230   19.8755 C   0  0  2  0  0  0
  -28.7087  -13.0364   21.0004 C   0  0  0  0  0  0
  -25.2614  -13.8192   20.5688 C   0  0  0  0  0  0
  -24.1871  -13.0439   20.9156 C   0  0  0  0  0  0
  -24.6450  -11.6918   20.8737 C   0  0  0  0  0  0
  -23.9116  -10.4300   21.0413 C   0  0  0  0  0  0
  -24.3655   -9.4226   21.9204 C   0  0  0  0  0  0
  -23.6318   -8.2272   22.0792 C   0  0  0  0  0  0
  -22.4305   -8.0303   21.3574 C   0  0  0  0  0  0
  -21.9938   -9.0287   20.4686 C   0  0  0  0  0  0
  -22.7283  -10.2153   20.3083 C   0  0  0  0  0  0
  -21.6867   -6.0747   22.5282 C   0  0  0  0  0  0
  -21.4016   -6.5648   23.8213 C   0  0  0  0  0  0
  -21.3665   -5.6809   24.9174 C   0  0  0  0  0  0
  -21.6050   -4.3071   24.7228 C   0  0  0  0  0  0
  -21.8818   -3.8152   23.4347 C   0  0  0  0  0  0
  -21.9199   -4.6972   22.3401 C   0  0  0  0  0  0
  -22.7899  -13.5258   21.1756 C   0  0  0  0  0  0
  -22.1673   -4.2157   21.0985 F   0  0  0  0  0  0
  -21.5631   -3.4547   25.7739 F   0  0  0  0  0  0
  -30.0322  -13.3416   20.4448 N   0  0  0  0  0  0
  -26.3076  -12.9392   20.3389 N   0  0  0  0  0  0
  -25.9394  -11.6537   20.5805 N   0  0  0  0  0  0
  -22.0512  -12.8305   22.0335 N   0  0  0  0  0  0
  -25.4270  -15.1912   20.4109 N   0  0  0  0  0  0
  -31.8502  -14.6585   20.1246 O   0  0  0  0  0  0
  -21.6673   -6.8895   21.4251 O   0  0  0  0  0  0
  -22.3613  -14.5552   20.6570 O   0  0  0  0  0  0
  -24.6212  -31.8622   23.2090 C   0  0  0  0  0  0
  -25.9079  -32.4788   23.8394 C   0  0  1  0  0  0
  -27.2293  -27.3738   20.1304 C   0  0  0  0  0  0
  -25.5900  -33.8589   24.2310 N   0  0  0  0  0  0
  -23.4161  -30.4812   21.5505 C   0  0  2  0  0  0
  -24.8687  -28.9436   20.1209 C   0  0  0  0  0  0
  -22.7470  -29.4605   22.4995 C   0  0  0  0  0  0
  -18.0266  -28.1371   22.8481 C   0  0  0  0  0  0
  -24.1480  -36.7301   23.2646 C   0  0  0  0  0  0
  -25.9521  -30.8055   21.3798 C   0  0  0  0  0  0
  -26.0292  -29.4323   20.7392 C   0  0  0  0  0  0
  -27.2151  -28.6509   20.7514 C   0  0  0  0  0  0
  -26.0685  -26.9360   19.4708 C   0  0  0  0  0  0
  -24.8863  -27.6933   19.4820 C   0  0  0  0  0  0
  -23.6319  -29.8125   20.1675 C   0  0  0  0  0  0
  -25.4097  -36.3091   24.0343 C   0  0  1  0  0  0
  -20.5874  -28.3655   23.1298 C   0  0  2  0  0  0
  -20.6765  -26.9387   22.5405 C   0  0  0  0  0  0
  -19.5745  -26.6375   21.5204 C   0  0  0  0  0  0
  -18.1920  -26.7920   22.1618 C   0  0  0  0  0  0
  -19.1521  -28.8837   23.2882 C   0  0  0  0  0  0
  -18.9453  -30.1449   23.8881 C   0  0  0  0  0  0
  -17.6447  -30.6579   24.0557 C   0  0  0  0  0  0
  -25.9031  -34.9451   23.5125 C   0  0  0  0  0  0
  -16.5337  -29.9073   23.6331 C   0  0  0  0  0  0
  -16.7256  -28.6497   23.0348 C   0  0  0  0  0  0
  -26.4478  -31.6582   25.0742 C   0  0  0  0  0  0
  -25.3719  -31.3711   26.1477 C   0  0  0  0  0  0
  -27.0318  -30.3007   24.6174 C   0  0  0  0  0  0
  -27.6050  -32.4330   25.7493 C   0  0  0  0  0  0
  -27.5571  -37.1800   24.8466 C   0  0  0  0  0  0
  -21.4185  -29.3005   22.3724 N   0  0  0  0  0  0
  -26.4278  -37.3780   23.9413 N   0  0  0  0  0  0
  -24.6820  -31.0657   22.1032 N   0  0  0  0  0  0
  -23.4209  -28.8146   23.3067 O   0  0  0  0  0  0
  -28.3360  -26.5465   20.0516 O   0  0  0  0  0  0
  -26.5617  -34.8916   22.4697 O   0  0  0  0  0  0
  -23.5390  -32.1404   23.7425 O   0  0  0  0  0  0
  -30.6144  -18.4719   18.5863 C   0  0  0  0  0  0
  -30.5252  -17.1777   19.1208 C   0  0  0  0  0  0
  -29.7303  -18.1188   21.2140 C   0  0  0  0  0  0
  -30.2924  -19.6065   19.3571 C   0  0  0  0  0  0
  -29.8186  -19.4512   20.6885 C   0  0  0  0  0  0
  -30.1013  -16.9669   20.4510 C   0  0  0  0  0  0
  -27.4677  -21.5482   20.5295 C   0  0  0  0  0  0
  -29.1611  -23.1224   21.2150 C   0  0  0  0  0  0
  -26.8144  -22.5234   19.5443 C   0  0  0  0  0  0
  -26.7381  -24.1367   21.8182 C   0  0  0  0  0  0
  -28.2546  -24.3647   21.5802 C   0  0  1  0  0  0
  -30.4924  -20.9642   18.7078 C   0  0  0  0  0  0
  -29.4780  -20.6735   21.5986 C   0  0  0  0  0  0
  -28.7525  -25.8420   21.2438 C   0  0  0  0  0  0
  -28.6827  -21.8363   21.0610 N   0  0  0  0  0  0
  -29.9811  -15.6137   20.9593 N   0  0  0  0  0  0
  -26.8671  -20.4969   20.7740 O   0  0  0  0  0  0
  -30.3806  -23.3227   21.2258 O   0  0  0  0  0  0
  -25.7449  -23.7281   20.3563 S   0  0  0  0  0  0
  -31.4649  -12.4217   19.1358 H   0  0  0  0  0  0
  -30.3049  -11.3288   19.8369 H   0  0  0  0  0  0
  -29.7418  -11.7974   17.4321 H   0  0  0  0  0  0
  -29.6748  -13.5109   17.7693 H   0  0  0  0  0  0
  -27.8210  -11.3334   18.7950 H   0  0  0  0  0  0
  -27.3771  -12.6822   17.7823 H   0  0  0  0  0  0
  -27.6952  -14.2705   19.5747 H   0  0  0  0  0  0
  -28.6942  -12.0111   21.3719 H   0  0  0  0  0  0
  -28.4774  -13.6702   21.8577 H   0  0  0  0  0  0
  -25.2804   -9.5708   22.4788 H   0  0  0  0  0  0
  -24.0021   -7.4684   22.7542 H   0  0  0  0  0  0
  -21.0858   -8.8823   19.9012 H   0  0  0  0  0  0
  -22.3753  -10.9695   19.6203 H   0  0  0  0  0  0
  -21.2011   -7.6155   23.9707 H   0  0  0  0  0  0
  -21.1491   -6.0542   25.9075 H   0  0  0  0  0  0
  -22.0588   -2.7608   23.2853 H   0  0  0  0  0  0
  -22.4101  -11.9996   22.4803 H   0  0  0  0  0  0
  -21.1128  -13.1397   22.2455 H   0  0  0  0  0  0
  -24.6484  -15.8321   20.5190 H   0  0  0  0  0  0
  -26.2823  -15.6473   20.1144 H   0  0  0  0  0  0
  -26.7154  -32.5497   23.1165 H   0  0  0  0  0  0
  -25.0010  -33.9727   25.0433 H   0  0  0  0  0  0
  -22.7083  -31.2988   21.4057 H   0  0  0  0  0  0
  -23.3736  -35.9644   23.3314 H   0  0  0  0  0  0
  -24.3572  -36.8907   22.2059 H   0  0  0  0  0  0
  -23.7239  -37.6511   23.6656 H   0  0  0  0  0  0
  -26.0738  -31.5592   20.6013 H   0  0  0  0  0  0
  -26.8379  -30.8632   22.0005 H   0  0  0  0  0  0
  -28.1121  -29.0242   21.2249 H   0  0  0  0  0  0
  -26.0837  -25.9944   18.9436 H   0  0  0  0  0  0
  -24.0066  -27.3151   18.9794 H   0  0  0  0  0  0
  -23.7458  -30.5853   19.4066 H   0  0  0  0  0  0
  -22.7588  -29.2289   19.8713 H   0  0  0  0  0  0
  -25.1269  -36.1952   25.0838 H   0  0  0  0  0  0
  -20.9931  -28.3206   24.1439 H   0  0  0  0  0  0
  -20.5658  -26.2258   23.3588 H   0  0  0  0  0  0
  -21.6629  -26.7417   22.1201 H   0  0  0  0  0  0
  -19.6905  -25.6291   21.1235 H   0  0  0  0  0  0
  -19.6696  -27.3186   20.6738 H   0  0  0  0  0  0
  -17.4193  -26.6660   21.4026 H   0  0  0  0  0  0
  -18.0330  -26.0058   22.9010 H   0  0  0  0  0  0
  -19.7924  -30.7277   24.2250 H   0  0  0  0  0  0
  -17.4993  -31.6262   24.5152 H   0  0  0  0  0  0
  -15.5337  -30.2962   23.7668 H   0  0  0  0  0  0
  -15.8661  -28.0809   22.7062 H   0  0  0  0  0  0
  -24.5896  -30.7045   25.7814 H   0  0  0  0  0  0
  -24.8897  -32.2871   26.4906 H   0  0  0  0  0  0
  -25.8044  -30.8895   27.0251 H   0  0  0  0  0  0
  -26.2882  -29.6769   24.1192 H   0  0  0  0  0  0
  -27.4014  -29.7244   25.4665 H   0  0  0  0  0  0
  -27.8752  -30.4295   23.9385 H   0  0  0  0  0  0
  -27.2655  -33.3634   26.2049 H   0  0  0  0  0  0
  -28.3841  -32.6880   25.0301 H   0  0  0  0  0  0
  -28.0728  -31.8474   26.5413 H   0  0  0  0  0  0
  -28.2596  -38.0092   24.7497 H   0  0  0  0  0  0
  -28.1054  -36.2621   24.6296 H   0  0  0  0  0  0
  -27.2291  -37.1450   25.8871 H   0  0  0  0  0  0
  -20.9393  -29.8698   21.6894 H   0  0  0  0  0  0
  -26.0167  -38.2859   24.1412 H   0  0  0  0  0  0
  -30.9423  -18.5820   17.5630 H   0  0  0  0  0  0
  -30.7782  -16.3453   18.4794 H   0  0  0  0  0  0
  -29.3799  -17.9848   22.2279 H   0  0  0  0  0  0
  -26.2060  -21.9633   18.8314 H   0  0  0  0  0  0
  -27.5696  -23.0300   18.9423 H   0  0  0  0  0  0
  -26.2888  -25.0072   22.2981 H   0  0  0  0  0  0
  -26.6039  -23.3176   22.5272 H   0  0  0  0  0  0
  -28.5618  -24.3617   22.6262 H   0  0  0  0  0  0
  -31.1095  -20.8883   17.8120 H   0  0  0  0  0  0
  -31.0010  -21.6518   19.3794 H   0  0  0  0  0  0
  -29.5346  -21.3887   18.4094 H   0  0  0  0  0  0
  -30.4384  -21.0058   21.9962 H   0  0  0  0  0  0
  -28.9448  -20.3124   22.4820 H   0  0  0  0  0  0
  -29.8410  -25.8198   21.1619 H   0  0  0  0  0  0
  -28.5774  -26.4893   22.1066 H   0  0  0  0  0  0
  -29.1469  -15.4105   21.4875 H   0  0  0  0  0  0
  1 25  1  0  0  0
  1 30  2  0  0  0
  1 86  1  0  0  0
  2  3  1  0  0  0
  2 25  1  0  0  0
  2 90  1  0  0  0
  2 91  1  0  0  0
  3  4  1  0  0  0
  3 92  1  0  0  0
  3 93  1  0  0  0
  4  5  1  0  0  0
  4 94  1  0  0  0
  4 95  1  0  0  0
  5  6  1  0  0  0
  5 26  1  0  0  0
  5 96  1  0  0  0
  6 25  1  0  0  0
  6 97  1  0  0  0
  6 98  1  0  0  0
  7  8  2  0  0  0
  7 26  1  0  0  0
  7 29  1  0  0  0
  8  9  1  0  0  0
  8 22  1  0  0  0
  9 10  1  0  0  0
  9 27  2  0  0  0
 10 11  2  0  0  0
 10 15  1  0  0  0
 11 12  1  0  0  0
 11 99  1  0  0  0
 12 13  2  0  0  0
 12100  1  0  0  0
 13 14  1  0  0  0
 13 31  1  0  0  0
 14 15  2  0  0  0
 14101  1  0  0  0
 15102  1  0  0  0
 16 17  2  0  0  0
 16 21  1  0  0  0
 16 31  1  0  0  0
 17 18  1  0  0  0
 17103  1  0  0  0
 18 19  2  0  0  0
 18104  1  0  0  0
 19 20  1  0  0  0
 19 24  1  0  0  0
 20 21  2  0  0  0
 20105  1  0  0  0
 21 23  1  0  0  0
 22 28  1  0  0  0
 22 32  2  0  0  0
 26 27  1  0  0  0
 28106  1  0  0  0
 28107  1  0  0  0
 29108  1  0  0  0
 29109  1  0  0  0
 33 34  1  0  0  0
 33 66  1  0  0  0
 33 70  2  0  0  0
 34 36  1  0  0  0
 34 59  1  0  0  0
 34110  1  0  0  0
 35 44  2  0  0  0
 35 45  1  0  0  0
 35 68  1  0  0  0
 36 56  1  0  0  0
 36111  1  0  0  0
 37 39  1  0  0  0
 37 47  1  0  0  0
 37 66  1  0  0  0
 37112  1  0  0  0
 38 43  2  0  0  0
 38 46  1  0  0  0
 38 47  1  0  0  0
 39 64  1  0  0  0
 39 67  2  0  0  0
 40 52  1  0  0  0
 40 53  2  0  0  0
 40 58  1  0  0  0
 41113  1  0  0  0
 41114  1  0  0  0
 41115  1  0  0  0
 41 48  1  0  0  0
 42 43  1  0  0  0
 42 66  1  0  0  0
 42116  1  0  0  0
 42117  1  0  0  0
 43 44  1  0  0  0
 44118  1  0  0  0
 45 46  2  0  0  0
 45119  1  0  0  0
 46120  1  0  0  0
 47121  1  0  0  0
 47122  1  0  0  0
 48 56  1  0  0  0
 48 65  1  0  0  0
 48123  1  0  0  0
 49 50  1  0  0  0
 49 53  1  0  0  0
 49 64  1  0  0  0
 49124  1  0  0  0
 50 51  1  0  0  0
 50125  1  0  0  0
 50126  1  0  0  0
 51 52  1  0  0  0
 51127  1  0  0  0
 51128  1  0  0  0
 52129  1  0  0  0
 52130  1  0  0  0
 53 54  1  0  0  0
 54 55  2  0  0  0
 54131  1  0  0  0
 55 57  1  0  0  0
 55132  1  0  0  0
 56 69  2  0  0  0
 57 58  2  0  0  0
 57133  1  0  0  0
 58134  1  0  0  0
 59 60  1  0  0  0
 59 61  1  0  0  0
 59 62  1  0  0  0
 60135  1  0  0  0
 60136  1  0  0  0
 60137  1  0  0  0
 61138  1  0  0  0
 61139  1  0  0  0
 61140  1  0  0  0
 62141  1  0  0  0
 62142  1  0  0  0
 62143  1  0  0  0
 63 65  1  0  0  0
 63144  1  0  0  0
 63145  1  0  0  0
 63146  1  0  0  0
 64147  1  0  0  0
 65148  1  0  0  0
 68 84  1  0  0  0
 71 72  2  0  0  0
 71 74  1  0  0  0
 71149  1  0  0  0
 72 76  1  0  0  0
 72150  1  0  0  0
 73 75  1  0  0  0
 73 76  2  0  0  0
 73151  1  0  0  0
 74 75  2  0  0  0
 74 82  1  0  0  0
 75 83  1  0  0  0
 76 86  1  0  0  0
 77 79  1  0  0  0
 77 85  1  0  0  0
 77 87  2  0  0  0
 78 81  1  0  0  0
 78 85  1  0  0  0
 78 88  2  0  0  0
 79 89  1  0  0  0
 79152  1  0  0  0
 79153  1  0  0  0
 80 81  1  0  0  0
 80 89  1  0  0  0
 80154  1  0  0  0
 80155  1  0  0  0
 81 84  1  0  0  0
 81156  1  0  0  0
 82157  1  0  0  0
 82158  1  0  0  0
 82159  1  0  0  0
 83 85  1  0  0  0
 83160  1  0  0  0
 83161  1  0  0  0
 84162  1  0  0  0
 84163  1  0  0  0
 86164  1  0  0  0
M  ISO  4   1 100  68 101  84 101  86 100
M  END
> <chiral flag>
0

> <version>
0

> <s_m_source_file>
/data/baiqing/PycharmProjects/Reinvent-master-3.2/result/LINK_invent/BTK/process_docking_weight1_custom_product_contain_oxygen_bond_distance_aromatic_linkinvent_7_9_3/rearranged_h_0061.sdf

> <i_m_source_file_index>
35

> <r_mmod_Potential_Energy-OPLS-2005>
60.1213989257812

> <r_mmod_Stretch_Energy-OPLS-2005>
68.0292129516602

> <r_mmod_Bend_Energy-OPLS-2005>
177.503631591797

> <r_mmod_Torsional_Energy-OPLS-2005>
291.593597412109

> <r_mmod_Improper_Torsional_Energy-OPLS-2005>
6.84289884567261

> <r_mmod_Van_der_Waal_Energy-OPLS-2005>
160.052459716797

> <r_mmod_Electrostatic_Energy-OPLS-2005>
-438.20703125

> <r_mmod_Solvation_Energy-OPLS-2005>
-230.156921386719

> <b_mmod_Minimization_Converged-OPLS-2005>
0

> <r_mmod_RMS_Derivative-OPLS-2005>
4.11283922195435

$$$$
35
                    3D
 Structure written by MMmdl.
159167  0  0  1  0            999 V2000
  -30.6556  -14.5482   20.5200 C   0  0  0  0  0  0
  -30.4339  -12.3408   19.4330 C   0  0  0  0  0  0
  -29.5024  -12.5097   18.2126 C   0  0  0  0  0  0
  -28.0227  -12.3641   18.6245 C   0  0  0  0  0  0
  -27.6608  -13.2080   19.8753 C   0  0  2  0  0  0
  -28.7078  -13.0159   20.9961 C   0  0  0  0  0  0
  -25.2587  -13.8159   20.5692 C   0  0  0  0  0  0
  -24.1836  -13.0433   20.9179 C   0  0  0  0  0  0
  -24.6396  -11.6900   20.8733 C   0  0  0  0  0  0
  -23.9051  -10.4297   21.0398 C   0  0  0  0  0  0
  -24.3605   -9.4220   21.9179 C   0  0  0  0  0  0
  -23.6296   -8.2245   22.0746 C   0  0  0  0  0  0
  -22.4272   -8.0285   21.3537 C   0  0  0  0  0  0
  -21.9905   -9.0252   20.4635 C   0  0  0  0  0  0
  -22.7223  -10.2138   20.3045 C   0  0  0  0  0  0
  -21.6852   -6.0734   22.5275 C   0  0  0  0  0  0
  -21.4010   -6.5636   23.8210 C   0  0  0  0  0  0
  -21.3660   -5.6786   24.9171 C   0  0  0  0  0  0
  -21.6057   -4.3048   24.7217 C   0  0  0  0  0  0
  -21.8823   -3.8140   23.4334 C   0  0  0  0  0  0
  -21.9189   -4.6960   22.3391 C   0  0  0  0  0  0
  -22.7866  -13.5241   21.1841 C   0  0  0  0  0  0
  -22.1666   -4.2141   21.0969 F   0  0  0  0  0  0
  -21.5634   -3.4533   25.7730 F   0  0  0  0  0  0
  -30.0312  -13.3376   20.4385 N   0  0  0  0  0  0
  -26.3031  -12.9330   20.3388 N   0  0  0  0  0  0
  -25.9328  -11.6493   20.5782 N   0  0  0  0  0  0
  -22.0491  -12.8233   22.0397 N   0  0  0  0  0  0
  -25.4285  -15.1880   20.4088 N   0  0  0  0  0  0
  -31.8030  -14.7313   20.1045 O   0  0  0  0  0  0
  -21.6641   -6.8872   21.4236 O   0  0  0  0  0  0
  -22.3555  -14.5554   20.6702 O   0  0  0  0  0  0
  -24.6210  -31.8645   23.2115 C   0  0  0  0  0  0
  -25.9088  -32.4799   23.8413 C   0  0  1  0  0  0
  -27.2201  -27.3824   20.1071 C   0  0  0  0  0  0
  -25.5942  -33.8604   24.2341 N   0  0  0  0  0  0
  -23.4091  -30.4936   21.5507 C   0  0  2  0  0  0
  -24.8534  -28.9618   20.1118 C   0  0  0  0  0  0
  -22.7429  -29.4667   22.4963 C   0  0  0  0  0  0
  -18.0272  -28.1384   22.8477 C   0  0  0  0  0  0
  -24.1485  -36.7311   23.2640 C   0  0  0  0  0  0
  -25.9452  -30.8169   21.3732 C   0  0  0  0  0  0
  -26.0189  -29.4504   20.7153 C   0  0  0  0  0  0
  -27.2060  -28.6707   20.7070 C   0  0  0  0  0  0
  -26.0353  -26.9375   19.4752 C   0  0  0  0  0  0
  -24.8608  -27.7078   19.4842 C   0  0  0  0  0  0
  -23.6187  -29.8338   20.1632 C   0  0  0  0  0  0
  -25.4100  -36.3106   24.0351 C   0  0  1  0  0  0
  -20.5868  -28.3683   23.1296 C   0  0  2  0  0  0
  -20.6769  -26.9420   22.5406 C   0  0  0  0  0  0
  -19.5750  -26.6390   21.5205 C   0  0  0  0  0  0
  -18.1922  -26.7926   22.1610 C   0  0  0  0  0  0
  -19.1523  -28.8851   23.2876 C   0  0  0  0  0  0
  -18.9445  -30.1448   23.8896 C   0  0  0  0  0  0
  -17.6449  -30.6588   24.0561 C   0  0  0  0  0  0
  -25.9036  -34.9465   23.5134 C   0  0  0  0  0  0
  -16.5336  -29.9086   23.6332 C   0  0  0  0  0  0
  -16.7258  -28.6503   23.0349 C   0  0  0  0  0  0
  -26.4504  -31.6577   25.0745 C   0  0  0  0  0  0
  -25.3761  -31.3670   26.1482 C   0  0  0  0  0  0
  -27.0350  -30.3020   24.6150 C   0  0  0  0  0  0
  -27.6083  -32.4300   25.7491 C   0  0  0  0  0  0
  -27.5582  -37.1799   24.8459 C   0  0  0  0  0  0
  -21.4153  -29.3050   22.3696 N   0  0  0  0  0  0
  -26.4283  -37.3795   23.9429 N   0  0  0  0  0  0
  -24.6769  -31.0730   22.1027 N   0  0  0  0  0  0
  -23.4177  -28.8198   23.3016 O   0  0  0  0  0  0
  -28.3565  -26.5794   20.1380 O   0  0  0  0  0  0
  -26.5578  -34.8923   22.4683 O   0  0  0  0  0  0
  -23.5393  -32.1411   23.7494 O   0  0  0  0  0  0
  -29.9105  -19.0176   19.3324 C   0  0  0  0  0  0
  -30.2966  -17.8329   21.8332 C   0  0  0  0  0  0
  -29.7985  -17.6073   19.4654 C   0  0  0  0  0  0
  -30.0345  -16.9872   20.7268 C   0  0  0  0  0  0
  -30.2390  -19.8531   20.4268 C   0  0  0  0  0  0
  -30.3959  -19.2442   21.6996 C   0  0  0  0  0  0
  -30.5557  -16.6265   17.2436 C   0  0  0  0  0  0
  -29.3960  -16.8142   18.2285 C   0  0  0  0  0  0
  -29.3836  -24.2357   20.3132 C   0  0  0  0  0  0
  -28.1319  -25.1601   20.3863 C   0  0  0  0  0  0
  -29.1056  -22.7110   20.5679 C   0  0  0  0  0  0
  -29.8746  -15.5717   20.9500 N   0  0  0  0  0  0
  -31.6896  -22.0886   20.9334 O   0  0  0  0  0  0
  -30.7142  -21.8079   18.6458 O   0  0  0  0  0  0
  -30.5573  -21.6443   20.1021 S   0  0  0  0  0  0
  -30.7115  -20.1726   23.1245 Cl  0  0  0  0  0  0
  -31.4771  -12.4521   19.1334 H   0  0  0  0  0  0
  -30.3485  -11.3348   19.8452 H   0  0  0  0  0  0
  -29.7512  -11.7749   17.4465 H   0  0  0  0  0  0
  -29.6622  -13.4897   17.7599 H   0  0  0  0  0  0
  -27.8394  -11.3090   18.8272 H   0  0  0  0  0  0
  -27.3705  -12.6295   17.7910 H   0  0  0  0  0  0
  -27.6906  -14.2515   19.5665 H   0  0  0  0  0  0
  -28.7005  -11.9850   21.3530 H   0  0  0  0  0  0
  -28.4685  -13.6280   21.8668 H   0  0  0  0  0  0
  -25.2748   -9.5714   22.4752 H   0  0  0  0  0  0
  -24.0002   -7.4638   22.7470 H   0  0  0  0  0  0
  -21.0824   -8.8769   19.8945 H   0  0  0  0  0  0
  -22.3672  -10.9675   19.6155 H   0  0  0  0  0  0
  -21.2007   -7.6140   23.9713 H   0  0  0  0  0  0
  -21.1486   -6.0508   25.9072 H   0  0  0  0  0  0
  -22.0601   -2.7602   23.2824 H   0  0  0  0  0  0
  -22.4094  -11.9879   22.4766 H   0  0  0  0  0  0
  -21.1122  -13.1288   22.2620 H   0  0  0  0  0  0
  -24.6580  -15.8388   20.5128 H   0  0  0  0  0  0
  -26.2792  -15.6307   20.0865 H   0  0  0  0  0  0
  -26.7155  -32.5502   23.1169 H   0  0  0  0  0  0
  -25.0145  -33.9751   25.0527 H   0  0  0  0  0  0
  -22.7002  -31.3140   21.4146 H   0  0  0  0  0  0
  -23.3760  -35.9629   23.3280 H   0  0  0  0  0  0
  -24.3598  -36.8947   22.2062 H   0  0  0  0  0  0
  -23.7203  -37.6502   23.6654 H   0  0  0  0  0  0
  -26.0655  -31.5845   20.6073 H   0  0  0  0  0  0
  -26.8306  -30.8654   21.9957 H   0  0  0  0  0  0
  -28.0988  -29.0406   21.1920 H   0  0  0  0  0  0
  -25.9862  -25.9957   18.9517 H   0  0  0  0  0  0
  -23.9712  -27.3314   18.9975 H   0  0  0  0  0  0
  -23.7273  -30.6133   19.4074 H   0  0  0  0  0  0
  -22.7402  -29.2595   19.8636 H   0  0  0  0  0  0
  -25.1262  -36.1966   25.0842 H   0  0  0  0  0  0
  -20.9947  -28.3247   24.1424 H   0  0  0  0  0  0
  -20.5680  -26.2289   23.3596 H   0  0  0  0  0  0
  -21.6629  -26.7468   22.1186 H   0  0  0  0  0  0
  -19.6913  -25.6300   21.1237 H   0  0  0  0  0  0
  -19.6699  -27.3201   20.6740 H   0  0  0  0  0  0
  -17.4198  -26.6678   21.4013 H   0  0  0  0  0  0
  -18.0326  -26.0065   22.9003 H   0  0  0  0  0  0
  -19.7926  -30.7253   24.2277 H   0  0  0  0  0  0
  -17.5010  -31.6275   24.5151 H   0  0  0  0  0  0
  -15.5335  -30.2993   23.7669 H   0  0  0  0  0  0
  -15.8652  -28.0827   22.7071 H   0  0  0  0  0  0
  -24.5948  -30.7009   25.7805 H   0  0  0  0  0  0
  -24.8938  -32.2812   26.4954 H   0  0  0  0  0  0
  -25.8118  -30.8821   27.0224 H   0  0  0  0  0  0
  -26.2906  -29.6749   24.1227 H   0  0  0  0  0  0
  -27.4134  -29.7294   25.4625 H   0  0  0  0  0  0
  -27.8737  -30.4348   23.9311 H   0  0  0  0  0  0
  -27.2714  -33.3605   26.2073 H   0  0  0  0  0  0
  -28.3877  -32.6838   25.0292 H   0  0  0  0  0  0
  -28.0760  -31.8407   26.5389 H   0  0  0  0  0  0
  -28.2559  -38.0134   24.7559 H   0  0  0  0  0  0
  -28.1114  -36.2669   24.6208 H   0  0  0  0  0  0
  -27.2314  -37.1350   25.8860 H   0  0  0  0  0  0
  -20.9316  -29.8782   21.6924 H   0  0  0  0  0  0
  -26.0174  -38.2871   24.1454 H   0  0  0  0  0  0
  -29.7649  -19.4716   18.3633 H   0  0  0  0  0  0
  -30.4275  -17.3979   22.8133 H   0  0  0  0  0  0
  -30.2319  -16.0691   16.3643 H   0  0  0  0  0  0
  -31.3790  -16.0773   17.7003 H   0  0  0  0  0  0
  -30.9408  -17.5858   16.8976 H   0  0  0  0  0  0
  -28.5833  -17.3427   17.7270 H   0  0  0  0  0  0
  -28.9805  -15.8469   18.5026 H   0  0  0  0  0  0
  -30.1402  -24.5840   21.0159 H   0  0  0  0  0  0
  -29.8241  -24.3494   19.3224 H   0  0  0  0  0  0
  -27.6735  -25.0584   21.3711 H   0  0  0  0  0  0
  -27.4254  -24.7393   19.6748 H   0  0  0  0  0  0
  -28.2569  -22.3586   19.9824 H   0  0  0  0  0  0
  -28.8774  -22.5233   21.6167 H   0  0  0  0  0  0
  -28.9911  -15.2884   21.3450 H   0  0  0  0  0  0
  1 25  1  0  0  0
  1 30  2  0  0  0
  1 82  1  0  0  0
  2  3  1  0  0  0
  2 25  1  0  0  0
  2 87  1  0  0  0
  2 88  1  0  0  0
  3  4  1  0  0  0
  3 89  1  0  0  0
  3 90  1  0  0  0
  4  5  1  0  0  0
  4 91  1  0  0  0
  4 92  1  0  0  0
  5  6  1  0  0  0
  5 26  1  0  0  0
  5 93  1  0  0  0
  6 25  1  0  0  0
  6 94  1  0  0  0
  6 95  1  0  0  0
  7  8  2  0  0  0
  7 26  1  0  0  0
  7 29  1  0  0  0
  8  9  1  0  0  0
  8 22  1  0  0  0
  9 10  1  0  0  0
  9 27  2  0  0  0
 10 11  2  0  0  0
 10 15  1  0  0  0
 11 12  1  0  0  0
 11 96  1  0  0  0
 12 13  2  0  0  0
 12 97  1  0  0  0
 13 14  1  0  0  0
 13 31  1  0  0  0
 14 15  2  0  0  0
 14 98  1  0  0  0
 15 99  1  0  0  0
 16 17  2  0  0  0
 16 21  1  0  0  0
 16 31  1  0  0  0
 17 18  1  0  0  0
 17100  1  0  0  0
 18 19  2  0  0  0
 18101  1  0  0  0
 19 20  1  0  0  0
 19 24  1  0  0  0
 20 21  2  0  0  0
 20102  1  0  0  0
 21 23  1  0  0  0
 22 28  1  0  0  0
 22 32  2  0  0  0
 26 27  1  0  0  0
 28103  1  0  0  0
 28104  1  0  0  0
 29105  1  0  0  0
 29106  1  0  0  0
 33 34  1  0  0  0
 33 66  1  0  0  0
 33 70  2  0  0  0
 34 36  1  0  0  0
 34 59  1  0  0  0
 34107  1  0  0  0
 35 44  2  0  0  0
 35 45  1  0  0  0
 35 68  1  0  0  0
 36 56  1  0  0  0
 36108  1  0  0  0
 37 39  1  0  0  0
 37 47  1  0  0  0
 37 66  1  0  0  0
 37109  1  0  0  0
 38 43  2  0  0  0
 38 46  1  0  0  0
 38 47  1  0  0  0
 39 64  1  0  0  0
 39 67  2  0  0  0
 40 52  1  0  0  0
 40 53  2  0  0  0
 40 58  1  0  0  0
 41110  1  0  0  0
 41111  1  0  0  0
 41112  1  0  0  0
 41 48  1  0  0  0
 42 43  1  0  0  0
 42 66  1  0  0  0
 42113  1  0  0  0
 42114  1  0  0  0
 43 44  1  0  0  0
 44115  1  0  0  0
 45 46  2  0  0  0
 45116  1  0  0  0
 46117  1  0  0  0
 47118  1  0  0  0
 47119  1  0  0  0
 48 56  1  0  0  0
 48 65  1  0  0  0
 48120  1  0  0  0
 49 50  1  0  0  0
 49 53  1  0  0  0
 49 64  1  0  0  0
 49121  1  0  0  0
 50 51  1  0  0  0
 50122  1  0  0  0
 50123  1  0  0  0
 51 52  1  0  0  0
 51124  1  0  0  0
 51125  1  0  0  0
 52126  1  0  0  0
 52127  1  0  0  0
 53 54  1  0  0  0
 54 55  2  0  0  0
 54128  1  0  0  0
 55 57  1  0  0  0
 55129  1  0  0  0
 56 69  2  0  0  0
 57 58  2  0  0  0
 57130  1  0  0  0
 58131  1  0  0  0
 59 60  1  0  0  0
 59 61  1  0  0  0
 59 62  1  0  0  0
 60132  1  0  0  0
 60133  1  0  0  0
 60134  1  0  0  0
 61135  1  0  0  0
 61136  1  0  0  0
 61137  1  0  0  0
 62138  1  0  0  0
 62139  1  0  0  0
 62140  1  0  0  0
 63 65  1  0  0  0
 63141  1  0  0  0
 63142  1  0  0  0
 63143  1  0  0  0
 64144  1  0  0  0
 65145  1  0  0  0
 68 80  1  0  0  0
 71 73  2  0  0  0
 71 75  1  0  0  0
 71146  1  0  0  0
 72 74  2  0  0  0
 72 76  1  0  0  0
 72147  1  0  0  0
 73 74  1  0  0  0
 73 78  1  0  0  0
 74 82  1  0  0  0
 75 76  2  0  0  0
 75 85  1  0  0  0
 76 86  1  0  0  0
 77 78  1  0  0  0
 77148  1  0  0  0
 77149  1  0  0  0
 77150  1  0  0  0
 78151  1  0  0  0
 78152  1  0  0  0
 79 80  1  0  0  0
 79 81  1  0  0  0
 79153  1  0  0  0
 79154  1  0  0  0
 80155  1  0  0  0
 80156  1  0  0  0
 81157  1  0  0  0
 81158  1  0  0  0
 81 85  1  0  0  0
 82159  1  0  0  0
 83 85  2  0  0  0
 84 85  2  0  0  0
M  ISO  4   1 100  68 101  80 101  82 100
M  END
> <chiral flag>
0

> <version>
0

> <s_m_source_file>
/data/baiqing/PycharmProjects/Reinvent-master-3.2/result/LINK_invent/BTK/process_docking_weight1_custom_product_contain_oxygen_bond_distance_aromatic_linkinvent_7_9_3/rearranged_h_0061.sdf

> <i_m_source_file_index>
36

> <r_mmod_Potential_Energy-OPLS-2005>
-108.75382232666

> <r_mmod_Stretch_Energy-OPLS-2005>
51.5355987548828

> <r_mmod_Bend_Energy-OPLS-2005>
112.73706817627

> <r_mmod_Torsional_Energy-OPLS-2005>
247.351257324219

> <r_mmod_Improper_Torsional_Energy-OPLS-2005>
4.48451948165894

> <r_mmod_Van_der_Waal_Energy-OPLS-2005>
134.740432739258

> <r_mmod_Electrostatic_Energy-OPLS-2005>
-422.657501220703

> <r_mmod_Solvation_Energy-OPLS-2005>
-262.050994873047

> <b_mmod_Minimization_Converged-OPLS-2005>
0

> <r_mmod_RMS_Derivative-OPLS-2005>
1.84606552124023

$$$$
36
                    3D
 Structure written by MMmdl.
154162  0  0  1  0            999 V2000
  -30.7384  -14.4660   20.5953 C   0  0  0  0  0  0
  -30.4181  -12.3131   19.4255 C   0  0  0  0  0  0
  -29.4941  -12.5093   18.2062 C   0  0  0  0  0  0
  -28.0167  -12.3710   18.6181 C   0  0  0  0  0  0
  -27.6607  -13.2124   19.8739 C   0  0  2  0  0  0
  -28.7036  -13.0108   20.9968 C   0  0  0  0  0  0
  -25.2625  -13.8163   20.5762 C   0  0  0  0  0  0
  -24.1850  -13.0432   20.9180 C   0  0  0  0  0  0
  -24.6386  -11.6899   20.8702 C   0  0  0  0  0  0
  -23.9026  -10.4303   21.0383 C   0  0  0  0  0  0
  -24.3581   -9.4221   21.9159 C   0  0  0  0  0  0
  -23.6283   -8.2238   22.0738 C   0  0  0  0  0  0
  -22.4262   -8.0258   21.3542 C   0  0  0  0  0  0
  -21.9882   -9.0221   20.4638 C   0  0  0  0  0  0
  -22.7188  -10.2121   20.3044 C   0  0  0  0  0  0
  -21.6865   -6.0711   22.5279 C   0  0  0  0  0  0
  -21.4016   -6.5619   23.8207 C   0  0  0  0  0  0
  -21.3667   -5.6776   24.9177 C   0  0  0  0  0  0
  -21.6035   -4.3032   24.7224 C   0  0  0  0  0  0
  -21.8821   -3.8121   23.4349 C   0  0  0  0  0  0
  -21.9201   -4.6939   22.3408 C   0  0  0  0  0  0
  -22.7871  -13.5250   21.1833 C   0  0  0  0  0  0
  -22.1674   -4.2135   21.0985 F   0  0  0  0  0  0
  -21.5637   -3.4514   25.7735 F   0  0  0  0  0  0
  -30.0358  -13.3081   20.4437 N   0  0  0  0  0  0
  -26.3040  -12.9343   20.3361 N   0  0  0  0  0  0
  -25.9311  -11.6493   20.5688 N   0  0  0  0  0  0
  -22.0488  -12.8266   22.0386 N   0  0  0  0  0  0
  -25.4370  -15.1900   20.4363 N   0  0  0  0  0  0
  -31.8513  -14.6215   20.0873 O   0  0  0  0  0  0
  -21.6638   -6.8847   21.4241 O   0  0  0  0  0  0
  -22.3562  -14.5538   20.6646 O   0  0  0  0  0  0
  -24.6191  -31.8664   23.2096 C   0  0  0  0  0  0
  -25.9059  -32.4823   23.8398 C   0  0  1  0  0  0
  -27.2325  -27.4148   20.1060 C   0  0  0  0  0  0
  -25.5906  -33.8626   24.2330 N   0  0  0  0  0  0
  -23.4085  -30.4897   21.5505 C   0  0  2  0  0  0
  -24.8577  -28.9602   20.1103 C   0  0  0  0  0  0
  -22.7456  -29.4644   22.4982 C   0  0  0  0  0  0
  -18.0293  -28.1370   22.8517 C   0  0  0  0  0  0
  -24.1484  -36.7316   23.2639 C   0  0  0  0  0  0
  -25.9405  -30.8247   21.3660 C   0  0  0  0  0  0
  -26.0190  -29.4589   20.7147 C   0  0  0  0  0  0
  -27.2119  -28.6957   20.7089 C   0  0  0  0  0  0
  -26.0600  -26.9492   19.4685 C   0  0  0  0  0  0
  -24.8749  -27.7047   19.4811 C   0  0  0  0  0  0
  -23.6193  -29.8252   20.1635 C   0  0  0  0  0  0
  -25.4114  -36.3123   24.0338 C   0  0  1  0  0  0
  -20.5890  -28.3667   23.1318 C   0  0  2  0  0  0
  -20.6780  -26.9406   22.5419 C   0  0  0  0  0  0
  -19.5759  -26.6390   21.5228 C   0  0  0  0  0  0
  -18.1945  -26.7923   22.1653 C   0  0  0  0  0  0
  -19.1542  -28.8847   23.2917 C   0  0  0  0  0  0
  -18.9462  -30.1454   23.8913 C   0  0  0  0  0  0
  -17.6464  -30.6580   24.0576 C   0  0  0  0  0  0
  -25.9028  -34.9477   23.5128 C   0  0  0  0  0  0
  -16.5358  -29.9073   23.6318 C   0  0  0  0  0  0
  -16.7289  -28.6489   23.0344 C   0  0  0  0  0  0
  -26.4475  -31.6602   25.0733 C   0  0  0  0  0  0
  -25.3742  -31.3711   26.1482 C   0  0  0  0  0  0
  -27.0297  -30.3046   24.6092 C   0  0  0  0  0  0
  -27.6053  -32.4325   25.7487 C   0  0  0  0  0  0
  -27.5585  -37.1819   24.8467 C   0  0  0  0  0  0
  -21.4171  -29.3031   22.3735 N   0  0  0  0  0  0
  -26.4293  -37.3809   23.9415 N   0  0  0  0  0  0
  -24.6742  -31.0741   22.0997 N   0  0  0  0  0  0
  -23.4232  -28.8174   23.3017 O   0  0  0  0  0  0
  -28.3579  -26.6108   20.1492 O   0  0  0  0  0  0
  -26.5597  -34.8924   22.4690 O   0  0  0  0  0  0
  -23.5367  -32.1409   23.7477 O   0  0  0  0  0  0
  -32.3083  -18.5072   21.7003 C   0  0  0  0  0  0
  -31.3695  -19.5462   21.5417 C   0  0  0  0  0  0
  -31.9048  -17.1635   21.6074 C   0  0  0  0  0  0
  -30.0042  -19.2623   21.2932 C   0  0  0  0  0  0
  -30.5556  -16.8389   21.3359 C   0  0  0  0  0  0
  -29.6121  -17.8900   21.2048 C   0  0  0  0  0  0
  -28.9911  -20.3931   21.1933 C   0  0  0  0  0  0
  -29.1428  -24.1952   20.5626 C   0  0  0  0  0  0
  -28.5403  -22.8282   21.0066 C   0  0  0  0  0  0
  -28.1155  -25.3384   20.7968 C   0  0  0  0  0  0
  -30.1065  -15.4795   21.2228 N   0  0  0  0  0  0
  -29.4370  -21.6541   20.9855 N   0  0  0  0  0  0
  -27.7844  -20.1645   21.3017 O   0  0  0  0  0  0
  -28.3201  -17.5436   20.9844 F   0  0  0  0  0  0
  -31.4648  -12.3956   19.1247 H   0  0  0  0  0  0
  -30.3074  -11.3075   19.8315 H   0  0  0  0  0  0
  -29.7359  -11.7800   17.4316 H   0  0  0  0  0  0
  -29.6670  -13.4943   17.7653 H   0  0  0  0  0  0
  -27.8302  -11.3147   18.8107 H   0  0  0  0  0  0
  -27.3666  -12.6461   17.7873 H   0  0  0  0  0  0
  -27.6991  -14.2592   19.5720 H   0  0  0  0  0  0
  -28.6809  -11.9778   21.3501 H   0  0  0  0  0  0
  -28.4608  -13.6271   21.8618 H   0  0  0  0  0  0
  -25.2726   -9.5703   22.4728 H   0  0  0  0  0  0
  -23.9987   -7.4633   22.7464 H   0  0  0  0  0  0
  -21.0801   -8.8713   19.8965 H   0  0  0  0  0  0
  -22.3611  -10.9634   19.6142 H   0  0  0  0  0  0
  -21.1999   -7.6128   23.9699 H   0  0  0  0  0  0
  -21.1501   -6.0518   25.9084 H   0  0  0  0  0  0
  -22.0598   -2.7586   23.2856 H   0  0  0  0  0  0
  -22.4104  -11.9951   22.4812 H   0  0  0  0  0  0
  -21.1094  -13.1293   22.2542 H   0  0  0  0  0  0
  -24.6781  -15.8439   20.5943 H   0  0  0  0  0  0
  -26.3097  -15.6473   20.1993 H   0  0  0  0  0  0
  -26.7150  -32.5528   23.1181 H   0  0  0  0  0  0
  -25.0089  -33.9796   25.0498 H   0  0  0  0  0  0
  -22.6963  -31.3062   21.4134 H   0  0  0  0  0  0
  -23.3741  -35.9648   23.3306 H   0  0  0  0  0  0
  -24.3579  -36.8918   22.2047 H   0  0  0  0  0  0
  -23.7214  -37.6524   23.6637 H   0  0  0  0  0  0
  -26.0547  -31.5859   20.5932 H   0  0  0  0  0  0
  -26.8303  -30.8805   21.9824 H   0  0  0  0  0  0
  -28.1040  -29.0764   21.1877 H   0  0  0  0  0  0
  -26.0568  -25.9932   18.9626 H   0  0  0  0  0  0
  -23.9879  -27.3206   18.9964 H   0  0  0  0  0  0
  -23.7299  -30.6004   19.4049 H   0  0  0  0  0  0
  -22.7434  -29.2437   19.8689 H   0  0  0  0  0  0
  -25.1282  -36.1992   25.0832 H   0  0  0  0  0  0
  -20.9994  -28.3215   24.1422 H   0  0  0  0  0  0
  -20.5697  -26.2269   23.3601 H   0  0  0  0  0  0
  -21.6640  -26.7440   22.1197 H   0  0  0  0  0  0
  -19.6896  -25.6318   21.1228 H   0  0  0  0  0  0
  -19.6660  -27.3208   20.6760 H   0  0  0  0  0  0
  -17.4210  -26.6689   21.4068 H   0  0  0  0  0  0
  -18.0335  -26.0061   22.9034 H   0  0  0  0  0  0
  -19.7936  -30.7285   24.2261 H   0  0  0  0  0  0
  -17.5011  -31.6248   24.5195 H   0  0  0  0  0  0
  -15.5358  -30.2980   23.7636 H   0  0  0  0  0  0
  -15.8688  -28.0829   22.7017 H   0  0  0  0  0  0
  -24.5905  -30.7067   25.7822 H   0  0  0  0  0  0
  -24.8953  -32.2864   26.4953 H   0  0  0  0  0  0
  -25.8096  -30.8869   27.0222 H   0  0  0  0  0  0
  -26.2820  -29.6829   24.1148 H   0  0  0  0  0  0
  -27.4067  -29.7263   25.4531 H   0  0  0  0  0  0
  -27.8659  -30.4389   23.9234 H   0  0  0  0  0  0
  -27.2673  -33.3614   26.2087 H   0  0  0  0  0  0
  -28.3832  -32.6895   25.0291 H   0  0  0  0  0  0
  -28.0739  -31.8436   26.5376 H   0  0  0  0  0  0
  -28.2620  -38.0106   24.7526 H   0  0  0  0  0  0
  -28.1067  -36.2638   24.6280 H   0  0  0  0  0  0
  -27.2311  -37.1444   25.8874 H   0  0  0  0  0  0
  -20.9329  -29.8767   21.6987 H   0  0  0  0  0  0
  -26.0182  -38.2892   24.1408 H   0  0  0  0  0  0
  -33.3454  -18.7437   21.8985 H   0  0  0  0  0  0
  -31.7164  -20.5654   21.6311 H   0  0  0  0  0  0
  -32.6451  -16.3869   21.7470 H   0  0  0  0  0  0
  -29.4163  -24.1529   19.5072 H   0  0  0  0  0  0
  -30.0565  -24.4084   21.1177 H   0  0  0  0  0  0
  -27.6760  -22.6170   20.3725 H   0  0  0  0  0  0
  -28.1505  -22.9306   22.0206 H   0  0  0  0  0  0
  -28.0497  -25.5258   21.8683 H   0  0  0  0  0  0
  -27.1390  -24.9357   20.5288 H   0  0  0  0  0  0
  -29.1436  -15.3130   21.4715 H   0  0  0  0  0  0
  -30.4324  -21.8034   20.8968 H   0  0  0  0  0  0
  1 25  1  0  0  0
  1 30  2  0  0  0
  1 81  1  0  0  0
  2  3  1  0  0  0
  2 25  1  0  0  0
  2 85  1  0  0  0
  2 86  1  0  0  0
  3  4  1  0  0  0
  3 87  1  0  0  0
  3 88  1  0  0  0
  4  5  1  0  0  0
  4 89  1  0  0  0
  4 90  1  0  0  0
  5  6  1  0  0  0
  5 26  1  0  0  0
  5 91  1  0  0  0
  6 25  1  0  0  0
  6 92  1  0  0  0
  6 93  1  0  0  0
  7  8  2  0  0  0
  7 26  1  0  0  0
  7 29  1  0  0  0
  8  9  1  0  0  0
  8 22  1  0  0  0
  9 10  1  0  0  0
  9 27  2  0  0  0
 10 11  2  0  0  0
 10 15  1  0  0  0
 11 12  1  0  0  0
 11 94  1  0  0  0
 12 13  2  0  0  0
 12 95  1  0  0  0
 13 14  1  0  0  0
 13 31  1  0  0  0
 14 15  2  0  0  0
 14 96  1  0  0  0
 15 97  1  0  0  0
 16 17  2  0  0  0
 16 21  1  0  0  0
 16 31  1  0  0  0
 17 18  1  0  0  0
 17 98  1  0  0  0
 18 19  2  0  0  0
 18 99  1  0  0  0
 19 20  1  0  0  0
 19 24  1  0  0  0
 20 21  2  0  0  0
 20100  1  0  0  0
 21 23  1  0  0  0
 22 28  1  0  0  0
 22 32  2  0  0  0
 26 27  1  0  0  0
 28101  1  0  0  0
 28102  1  0  0  0
 29103  1  0  0  0
 29104  1  0  0  0
 33 34  1  0  0  0
 33 66  1  0  0  0
 33 70  2  0  0  0
 34 36  1  0  0  0
 34 59  1  0  0  0
 34105  1  0  0  0
 35 44  2  0  0  0
 35 45  1  0  0  0
 35 68  1  0  0  0
 36 56  1  0  0  0
 36106  1  0  0  0
 37 39  1  0  0  0
 37 47  1  0  0  0
 37 66  1  0  0  0
 37107  1  0  0  0
 38 43  2  0  0  0
 38 46  1  0  0  0
 38 47  1  0  0  0
 39 64  1  0  0  0
 39 67  2  0  0  0
 40 52  1  0  0  0
 40 53  2  0  0  0
 40 58  1  0  0  0
 41108  1  0  0  0
 41109  1  0  0  0
 41110  1  0  0  0
 41 48  1  0  0  0
 42 43  1  0  0  0
 42 66  1  0  0  0
 42111  1  0  0  0
 42112  1  0  0  0
 43 44  1  0  0  0
 44113  1  0  0  0
 45 46  2  0  0  0
 45114  1  0  0  0
 46115  1  0  0  0
 47116  1  0  0  0
 47117  1  0  0  0
 48 56  1  0  0  0
 48 65  1  0  0  0
 48118  1  0  0  0
 49 50  1  0  0  0
 49 53  1  0  0  0
 49 64  1  0  0  0
 49119  1  0  0  0
 50 51  1  0  0  0
 50120  1  0  0  0
 50121  1  0  0  0
 51 52  1  0  0  0
 51122  1  0  0  0
 51123  1  0  0  0
 52124  1  0  0  0
 52125  1  0  0  0
 53 54  1  0  0  0
 54 55  2  0  0  0
 54126  1  0  0  0
 55 57  1  0  0  0
 55127  1  0  0  0
 56 69  2  0  0  0
 57 58  2  0  0  0
 57128  1  0  0  0
 58129  1  0  0  0
 59 60  1  0  0  0
 59 61  1  0  0  0
 59 62  1  0  0  0
 60130  1  0  0  0
 60131  1  0  0  0
 60132  1  0  0  0
 61133  1  0  0  0
 61134  1  0  0  0
 61135  1  0  0  0
 62136  1  0  0  0
 62137  1  0  0  0
 62138  1  0  0  0
 63 65  1  0  0  0
 63139  1  0  0  0
 63140  1  0  0  0
 63141  1  0  0  0
 64142  1  0  0  0
 65143  1  0  0  0
 68 80  1  0  0  0
 71 72  2  0  0  0
 71 73  1  0  0  0
 71144  1  0  0  0
 72 74  1  0  0  0
 72145  1  0  0  0
 73 75  2  0  0  0
 73146  1  0  0  0
 74 76  2  0  0  0
 74 77  1  0  0  0
 75 76  1  0  0  0
 75 81  1  0  0  0
 76 84  1  0  0  0
 77 82  1  0  0  0
 77 83  2  0  0  0
 78 79  1  0  0  0
 78 80  1  0  0  0
 78147  1  0  0  0
 78148  1  0  0  0
 79 82  1  0  0  0
 79149  1  0  0  0
 79150  1  0  0  0
 80151  1  0  0  0
 80152  1  0  0  0
 81153  1  0  0  0
 82154  1  0  0  0
M  ISO  4   1 100  68 101  80 101  81 100
M  END
> <chiral flag>
0

> <version>
0

> <s_m_source_file>
/data/baiqing/PycharmProjects/Reinvent-master-3.2/result/LINK_invent/BTK/process_docking_weight1_custom_product_contain_oxygen_bond_distance_aromatic_linkinvent_7_9_3/rearranged_h_0061.sdf

> <i_m_source_file_index>
37

> <r_mmod_Potential_Energy-OPLS-2005>
-84.6337966918945

> <r_mmod_Stretch_Energy-OPLS-2005>
43.5733795166016

> <r_mmod_Bend_Energy-OPLS-2005>
99.4260101318359

> <r_mmod_Torsional_Energy-OPLS-2005>
240.171920776367

> <r_mmod_Improper_Torsional_Energy-OPLS-2005>
3.16822528839111

> <r_mmod_Van_der_Waal_Energy-OPLS-2005>
164.293380737305

> <r_mmod_Electrostatic_Energy-OPLS-2005>
-428.391174316406

> <r_mmod_Solvation_Energy-OPLS-2005>
-223.306137084961

> <b_mmod_Minimization_Converged-OPLS-2005>
0

> <r_mmod_RMS_Derivative-OPLS-2005>
3.88753151893616

$$$$
38
                    3D
 Structure written by MMmdl.
170179  0  0  1  0            999 V2000
  -29.5172  -16.7429   20.6326 C   0  0  0  0  0  0
  -30.1931  -14.0070   19.6542 C   0  0  0  0  0  0
  -29.5548  -13.0702   18.5188 C   0  0  0  0  0  0
  -28.2488  -12.4099   18.9623 C   0  0  0  0  0  0
  -27.5344  -13.4200   19.8644 C   0  0  2  0  0  0
  -28.3949  -14.1064   20.9814 C   0  0  0  0  0  0
  -25.1902  -13.8408   20.5935 C   0  0  0  0  0  0
  -24.1454  -13.0408   20.9368 C   0  0  0  0  0  0
  -24.6337  -11.6973   20.8781 C   0  0  0  0  0  0
  -23.9111  -10.4280   21.0373 C   0  0  0  0  0  0
  -24.3646   -9.4207   21.9170 C   0  0  0  0  0  0
  -23.6310   -8.2245   22.0751 C   0  0  0  0  0  0
  -22.4293   -8.0275   21.3541 C   0  0  0  0  0  0
  -21.9935   -9.0239   20.4632 C   0  0  0  0  0  0
  -22.7273  -10.2113   20.3030 C   0  0  0  0  0  0
  -21.6858   -6.0732   22.5285 C   0  0  0  0  0  0
  -21.4014   -6.5636   23.8217 C   0  0  0  0  0  0
  -21.3658   -5.6789   24.9178 C   0  0  0  0  0  0
  -21.6045   -4.3053   24.7229 C   0  0  0  0  0  0
  -21.8819   -3.8144   23.4351 C   0  0  0  0  0  0
  -21.9195   -4.6959   22.3407 C   0  0  0  0  0  0
  -22.7471  -13.5071   21.1970 C   0  0  0  0  0  0
  -22.1662   -4.2143   21.0984 F   0  0  0  0  0  0
  -21.5628   -3.4539   25.7743 F   0  0  0  0  0  0
  -29.2796  -15.1707   20.3477 N   0  0  0  0  0  0
  -26.2433  -12.9922   20.3459 N   0  0  0  0  0  0
  -25.9316  -11.6877   20.5713 N   0  0  0  0  0  0
  -22.0177  -12.8042   22.0537 N   0  0  0  0  0  0
  -25.3361  -15.2172   20.4367 N   0  0  0  0  0  0
  -30.7917  -16.5854   20.5707 O   0  0  0  0  0  0
  -21.6650   -6.8876   21.4246 O   0  0  0  0  0  0
  -22.3150  -14.5376   20.6807 O   0  0  0  0  0  0
  -24.6963  -31.4927   23.2406 C   0  0  0  0  0  0
  -25.9127  -32.3238   23.8074 C   0  0  1  0  0  0
  -27.9830  -26.9259   19.4159 C   0  0  0  0  0  0
  -25.5330  -33.7376   24.1271 N   0  0  0  0  0  0
  -23.2916  -29.5837   21.9789 C   0  0  2  0  0  0
  -25.6910  -27.7480   19.5851 C   0  0  0  0  0  0
  -22.5404  -29.1411   23.0316 C   0  0  0  0  0  0
  -17.9265  -28.1293   22.8401 C   0  0  0  0  0  0
  -24.1466  -36.6755   23.2674 C   0  0  0  0  0  0
  -26.4443  -29.8732   21.8453 C   0  0  0  0  0  0
  -26.8451  -28.6664   20.4572 C   0  0  0  0  0  0
  -28.0192  -28.0010   20.3760 C   0  0  0  0  0  0
  -27.4633  -27.3789   18.2535 C   0  0  0  0  0  0
  -26.2262  -27.8898   18.3121 C   0  0  0  0  0  0
  -23.1572  -28.1041   20.5374 C   0  0  0  0  0  0
  -25.4126  -36.2317   24.0202 C   0  0  1  0  0  0
  -20.4005  -28.2137   23.3524 C   0  0  2  0  0  0
  -20.5008  -26.8128   22.7143 C   0  0  0  0  0  0
  -19.5221  -26.6195   21.5613 C   0  0  0  0  0  0
  -18.1008  -26.8043   22.1082 C   0  0  0  0  0  0
  -19.0325  -28.8272   23.3666 C   0  0  0  0  0  0
  -18.8668  -30.1035   23.9469 C   0  0  0  0  0  0
  -17.5857  -30.6619   24.0582 C   0  0  0  0  0  0
  -25.9023  -34.8604   23.4778 C   0  0  0  0  0  0
  -16.4711  -29.9366   23.6011 C   0  0  0  0  0  0
  -16.6416  -28.6788   22.9905 C   0  0  0  0  0  0
  -26.4706  -31.6573   25.1280 C   0  0  0  0  0  0
  -25.3735  -31.4175   26.1924 C   0  0  0  0  0  0
  -27.1273  -30.2936   24.8701 C   0  0  0  0  0  0
  -27.5841  -32.5251   25.7570 C   0  0  0  0  0  0
  -27.5488  -37.1441   24.8454 C   0  0  0  0  0  0
  -21.2733  -29.1152   22.7060 N   0  0  0  0  0  0
  -26.4205  -37.3184   23.9357 N   0  0  0  0  0  0
  -24.8406  -30.2944   22.5102 N   0  0  0  0  0  0
  -23.1279  -28.6535   23.9754 O   0  0  0  0  0  0
  -27.2090  -25.7391   19.4984 O   0  0  0  0  0  0
  -26.6095  -34.8340   22.4686 O   0  0  0  0  0  0
  -23.5817  -31.9450   23.5544 O   0  0  0  0  0  0
  -27.4025  -21.6768   23.4033 C   0  0  0  0  0  0
  -27.8985  -20.5085   22.6693 C   0  0  0  0  0  0
  -27.4503  -22.0571   20.9219 C   0  0  0  0  0  0
  -26.9296  -23.0235   23.0277 C   0  0  0  0  0  0
  -26.8455  -23.6428   21.7089 C   0  0  0  0  0  0
  -28.0473  -20.3134   21.2575 C   0  0  0  0  0  0
  -23.9564  -29.1792   18.5599 C   0  0  0  0  0  0
  -23.6547  -27.7151   18.1098 C   0  0  0  0  0  0
  -24.6888  -29.6984   20.0695 C   0  0  0  0  0  0
  -24.4938  -26.4376   21.7692 C   0  0  0  0  0  0
  -23.9817  -25.6182   20.4055 C   0  0  0  0  0  0
  -24.1743  -26.0552   18.7933 C   0  0  2  0  0  0
  -26.5146  -23.8643   24.2281 C   0  0  0  0  0  0
  -22.5562  -28.6771   15.9526 C   0  0  0  0  0  0
  -26.3031  -25.9125   21.8021 C   0  0  0  0  0  0
  -22.8716  -27.4551   16.8264 C   0  0  0  0  0  0
  -25.8246  -25.3432   18.6775 C   0  0  0  0  0  0
  -25.0726  -27.7913   21.6777 N   0  0  0  0  0  0
  -28.5878  -18.3426   20.7164 N   0  0  0  0  0  0
  -24.9189  -30.9312   20.0612 O   0  0  0  0  0  0
  -24.0423  -26.0253   22.8543 O   0  0  0  0  0  0
  -31.0427  -14.5099   19.1912 H   0  0  0  0  0  0
  -30.6713  -13.3840   20.4133 H   0  0  0  0  0  0
  -30.2695  -12.3142   18.1906 H   0  0  0  0  0  0
  -29.3473  -13.6914   17.6464 H   0  0  0  0  0  0
  -28.4722  -11.5064   19.5322 H   0  0  0  0  0  0
  -27.6355  -12.1102   18.1113 H   0  0  0  0  0  0
  -27.2956  -14.2183   19.1589 H   0  0  0  0  0  0
  -28.9196  -13.3767   21.6040 H   0  0  0  0  0  0
  -27.7480  -14.6296   21.6864 H   0  0  0  0  0  0
  -25.2765   -9.5709   22.4776 H   0  0  0  0  0  0
  -24.0007   -7.4651   22.7495 H   0  0  0  0  0  0
  -21.0857   -8.8751   19.8949 H   0  0  0  0  0  0
  -22.3699  -10.9648   19.6150 H   0  0  0  0  0  0
  -21.2003   -7.6144   23.9717 H   0  0  0  0  0  0
  -21.1480   -6.0520   25.9081 H   0  0  0  0  0  0
  -22.0598   -2.7606   23.2856 H   0  0  0  0  0  0
  -22.3828  -11.9713   22.4905 H   0  0  0  0  0  0
  -21.0791  -13.1040   22.2766 H   0  0  0  0  0  0
  -24.5589  -15.8604   20.5418 H   0  0  0  0  0  0
  -26.1665  -15.6534   20.0596 H   0  0  0  0  0  0
  -26.7032  -32.3512   23.0608 H   0  0  0  0  0  0
  -24.9002  -33.8456   24.9052 H   0  0  0  0  0  0
  -22.7538  -30.4588   21.5885 H   0  0  0  0  0  0
  -23.3733  -35.9071   23.3157 H   0  0  0  0  0  0
  -24.3519  -36.8640   22.2123 H   0  0  0  0  0  0
  -23.7232  -37.5845   23.6956 H   0  0  0  0  0  0
  -27.0008  -30.7827   21.6231 H   0  0  0  0  0  0
  -27.0034  -29.3679   22.6148 H   0  0  0  0  0  0
  -28.8456  -28.1690   21.0527 H   0  0  0  0  0  0
  -27.8728  -27.0807   17.2974 H   0  0  0  0  0  0
  -25.7866  -28.0479   17.3368 H   0  0  0  0  0  0
  -22.3102  -28.4713   19.9360 H   0  0  0  0  0  0
  -22.4757  -27.3339   20.8682 H   0  0  0  0  0  0
  -25.1387  -36.0996   25.0695 H   0  0  0  0  0  0
  -20.6797  -28.1160   24.4054 H   0  0  0  0  0  0
  -20.2130  -26.0942   23.4834 H   0  0  0  0  0  0
  -21.5140  -26.5125   22.4789 H   0  0  0  0  0  0
  -19.6320  -25.6254   21.1271 H   0  0  0  0  0  0
  -19.7260  -27.3388   20.7670 H   0  0  0  0  0  0
  -17.3844  -26.7455   21.2872 H   0  0  0  0  0  0
  -17.8509  -25.9936   22.7941 H   0  0  0  0  0  0
  -19.7195  -30.6427   24.3373 H   0  0  0  0  0  0
  -17.4528  -31.6332   24.5155 H   0  0  0  0  0  0
  -15.4796  -30.3552   23.7018 H   0  0  0  0  0  0
  -15.7762  -28.1483   22.6164 H   0  0  0  0  0  0
  -24.6302  -30.6855   25.8741 H   0  0  0  0  0  0
  -24.8415  -32.3368   26.4382 H   0  0  0  0  0  0
  -25.8005  -31.0403   27.1226 H   0  0  0  0  0  0
  -26.4043  -29.5287   24.5886 H   0  0  0  0  0  0
  -27.5788  -29.9101   25.7867 H   0  0  0  0  0  0
  -27.9493  -30.3703   24.1593 H   0  0  0  0  0  0
  -27.2039  -33.4788   26.1244 H   0  0  0  0  0  0
  -28.3739  -32.7447   25.0378 H   0  0  0  0  0  0
  -28.0508  -32.0329   26.6115 H   0  0  0  0  0  0
  -28.2413  -37.9815   24.7474 H   0  0  0  0  0  0
  -28.1071  -36.2306   24.6341 H   0  0  0  0  0  0
  -27.2169  -37.1103   25.8847 H   0  0  0  0  0  0
  -20.9424  -29.5772   21.8712 H   0  0  0  0  0  0
  -25.9938  -38.2202   24.1305 H   0  0  0  0  0  0
  -27.3884  -21.4811   24.4666 H   0  0  0  0  0  0
  -28.1476  -19.6556   23.2852 H   0  0  0  0  0  0
  -27.4821  -22.2144   19.8540 H   0  0  0  0  0  0
  -23.5856  -29.9851   17.9473 H   0  0  0  0  0  0
  -22.9250  -25.3872   20.5403 H   0  0  0  0  0  0
  -24.3780  -24.6120   20.5319 H   0  0  0  0  0  0
  -23.5363  -25.3637   18.2418 H   0  0  0  0  0  0
  -26.4257  -23.2752   25.1417 H   0  0  0  0  0  0
  -25.5380  -24.3190   24.0729 H   0  0  0  0  0  0
  -27.2502  -24.6437   24.4301 H   0  0  0  0  0  0
  -22.0312  -28.3682   15.0475 H   0  0  0  0  0  0
  -23.4673  -29.1868   15.6382 H   0  0  0  0  0  0
  -21.9138  -29.3926   16.4658 H   0  0  0  0  0  0
  -27.3192  -26.2439   21.7169 H   0  0  0  0  0  0
  -26.4602  -25.9812   22.8858 H   0  0  0  0  0  0
  -21.9397  -26.9548   17.0959 H   0  0  0  0  0  0
  -23.4381  -26.7389   16.2305 H   0  0  0  0  0  0
  -26.0741  -25.3169   17.6149 H   0  0  0  0  0  0
  -25.7140  -24.2771   18.8780 H   0  0  0  0  0  0
  -27.7220  -17.9875   20.3306 H   0  0  0  0  0  0
  1 25  1  0  0  0
  1 30  2  0  0  0
  1 89  1  0  0  0
  2  3  1  0  0  0
  2 25  1  0  0  0
  2 92  1  0  0  0
  2 93  1  0  0  0
  3  4  1  0  0  0
  3 94  1  0  0  0
  3 95  1  0  0  0
  4  5  1  0  0  0
  4 96  1  0  0  0
  4 97  1  0  0  0
  5  6  1  0  0  0
  5 26  1  0  0  0
  5 98  1  0  0  0
  6 25  1  0  0  0
  6 99  1  0  0  0
  6100  1  0  0  0
  7  8  2  0  0  0
  7 26  1  0  0  0
  7 29  1  0  0  0
  8  9  1  0  0  0
  8 22  1  0  0  0
  9 10  1  0  0  0
  9 27  2  0  0  0
 10 11  2  0  0  0
 10 15  1  0  0  0
 11 12  1  0  0  0
 11101  1  0  0  0
 12 13  2  0  0  0
 12102  1  0  0  0
 13 14  1  0  0  0
 13 31  1  0  0  0
 14 15  2  0  0  0
 14103  1  0  0  0
 15104  1  0  0  0
 16 17  2  0  0  0
 16 21  1  0  0  0
 16 31  1  0  0  0
 17 18  1  0  0  0
 17105  1  0  0  0
 18 19  2  0  0  0
 18106  1  0  0  0
 19 20  1  0  0  0
 19 24  1  0  0  0
 20 21  2  0  0  0
 20107  1  0  0  0
 21 23  1  0  0  0
 22 28  1  0  0  0
 22 32  2  0  0  0
 26 27  1  0  0  0
 28108  1  0  0  0
 28109  1  0  0  0
 29110  1  0  0  0
 29111  1  0  0  0
 33 34  1  0  0  0
 33 66  1  0  0  0
 33 70  2  0  0  0
 34 36  1  0  0  0
 34 59  1  0  0  0
 34112  1  0  0  0
 35 44  2  0  0  0
 35 45  1  0  0  0
 35 68  1  0  0  0
 36 56  1  0  0  0
 36113  1  0  0  0
 37 39  1  0  0  0
 37 47  1  0  0  0
 37 66  1  0  0  0
 37114  1  0  0  0
 38 43  2  0  0  0
 38 46  1  0  0  0
 38 47  1  0  0  0
 39 64  1  0  0  0
 39 67  2  0  0  0
 40 52  1  0  0  0
 40 53  2  0  0  0
 40 58  1  0  0  0
 41115  1  0  0  0
 41116  1  0  0  0
 41117  1  0  0  0
 41 48  1  0  0  0
 42 43  1  0  0  0
 42 66  1  0  0  0
 42118  1  0  0  0
 42119  1  0  0  0
 43 44  1  0  0  0
 44120  1  0  0  0
 45 46  2  0  0  0
 45121  1  0  0  0
 46122  1  0  0  0
 47123  1  0  0  0
 47124  1  0  0  0
 48 56  1  0  0  0
 48 65  1  0  0  0
 48125  1  0  0  0
 49 50  1  0  0  0
 49 53  1  0  0  0
 49 64  1  0  0  0
 49126  1  0  0  0
 50 51  1  0  0  0
 50127  1  0  0  0
 50128  1  0  0  0
 51 52  1  0  0  0
 51129  1  0  0  0
 51130  1  0  0  0
 52131  1  0  0  0
 52132  1  0  0  0
 53 54  1  0  0  0
 54 55  2  0  0  0
 54133  1  0  0  0
 55 57  1  0  0  0
 55134  1  0  0  0
 56 69  2  0  0  0
 57 58  2  0  0  0
 57135  1  0  0  0
 58136  1  0  0  0
 59 60  1  0  0  0
 59 61  1  0  0  0
 59 62  1  0  0  0
 60137  1  0  0  0
 60138  1  0  0  0
 60139  1  0  0  0
 61140  1  0  0  0
 61141  1  0  0  0
 61142  1  0  0  0
 62143  1  0  0  0
 62144  1  0  0  0
 62145  1  0  0  0
 63 65  1  0  0  0
 63146  1  0  0  0
 63147  1  0  0  0
 63148  1  0  0  0
 64149  1  0  0  0
 65150  1  0  0  0
 68 87  1  0  0  0
 71 72  2  0  0  0
 71 74  1  0  0  0
 71151  1  0  0  0
 72 76  1  0  0  0
 72152  1  0  0  0
 73 75  1  0  0  0
 73 76  2  0  0  0
 73153  1  0  0  0
 74 75  2  0  0  0
 74 83  1  0  0  0
 75 85  1  0  0  0
 76 89  1  0  0  0
 77 78  2  0  0  0
 77 79  1  0  0  0
 77154  1  0  0  0
 78 82  1  0  0  0
 78 86  1  0  0  0
 79 88  1  0  0  0
 79 90  2  0  0  0
 80 81  1  0  0  0
 80 88  1  0  0  0
 80 91  2  0  0  0
 81 82  1  0  0  0
 81155  1  0  0  0
 81156  1  0  0  0
 82 87  1  0  0  0
 82157  1  0  0  0
 83158  1  0  0  0
 83159  1  0  0  0
 83160  1  0  0  0
 84 86  1  0  0  0
 84161  1  0  0  0
 84162  1  0  0  0
 84163  1  0  0  0
 85 88  1  0  0  0
 85164  1  0  0  0
 85165  1  0  0  0
 86166  1  0  0  0
 86167  1  0  0  0
 87168  1  0  0  0
 87169  1  0  0  0
 89170  1  0  0  0
M  ISO  4   1 100  68 101  87 101  89 100
M  END
> <chiral flag>
0

> <version>
0

> <s_m_source_file>
/data/baiqing/PycharmProjects/Reinvent-master-3.2/result/LINK_invent/BTK/process_docking_weight1_custom_product_contain_oxygen_bond_distance_aromatic_linkinvent_7_9_3/rearranged_h_0061.sdf

> <i_m_source_file_index>
38

> <r_mmod_Potential_Energy-OPLS-2005>
21343.69921875

> <r_mmod_Stretch_Energy-OPLS-2005>
10957.9873046875

> <r_mmod_Bend_Energy-OPLS-2005>
2099.06005859375

> <r_mmod_Torsional_Energy-OPLS-2005>
683.205810546875

> <r_mmod_Improper_Torsional_Energy-OPLS-2005>
92.0380706787109

> <r_mmod_Van_der_Waal_Energy-OPLS-2005>
3533.61547851562

> <r_mmod_Electrostatic_Energy-OPLS-2005>
-445.971374511719

> <r_mmod_Solvation_Energy-OPLS-2005>
-238.596313476562

> <b_mmod_Minimization_Converged-OPLS-2005>
0

> <r_mmod_RMS_Derivative-OPLS-2005>
4.32491493225098

$$$$
39
                    3D
 Structure written by MMmdl.
165174  0  0  1  0            999 V2000
  -30.7156  -14.4265   20.4955 C   0  0  0  0  0  0
  -30.4130  -12.2668   19.4162 C   0  0  0  0  0  0
  -29.4891  -12.4892   18.2016 C   0  0  0  0  0  0
  -28.0195  -12.3244   18.6303 C   0  0  0  0  0  0
  -27.6583  -13.1953   19.8637 C   0  0  2  0  0  0
  -28.6993  -13.0052   20.9931 C   0  0  0  0  0  0
  -25.2588  -13.8159   20.5679 C   0  0  0  0  0  0
  -24.1835  -13.0459   20.9230 C   0  0  0  0  0  0
  -24.6357  -11.6918   20.8749 C   0  0  0  0  0  0
  -23.9034  -10.4309   21.0429 C   0  0  0  0  0  0
  -24.3606   -9.4200   21.9185 C   0  0  0  0  0  0
  -23.6268   -8.2245   22.0766 C   0  0  0  0  0  0
  -22.4225   -8.0317   21.3588 C   0  0  0  0  0  0
  -21.9868   -9.0285   20.4671 C   0  0  0  0  0  0
  -22.7220  -10.2147   20.3053 C   0  0  0  0  0  0
  -21.6823   -6.0754   22.5303 C   0  0  0  0  0  0
  -21.4016   -6.5649   23.8252 C   0  0  0  0  0  0
  -21.3632   -5.6791   24.9204 C   0  0  0  0  0  0
  -21.6022   -4.3058   24.7225 C   0  0  0  0  0  0
  -21.8807   -3.8159   23.4347 C   0  0  0  0  0  0
  -21.9181   -4.6986   22.3415 C   0  0  0  0  0  0
  -22.7850  -13.5267   21.1889 C   0  0  0  0  0  0
  -22.1652   -4.2200   21.0983 F   0  0  0  0  0  0
  -21.5591   -3.4521   25.7719 F   0  0  0  0  0  0
  -30.0352  -13.2568   20.4330 N   0  0  0  0  0  0
  -26.2985  -12.9284   20.3300 N   0  0  0  0  0  0
  -25.9258  -11.6460   20.5727 N   0  0  0  0  0  0
  -22.0437  -12.8297   22.0439 N   0  0  0  0  0  0
  -25.4287  -15.1887   20.4075 N   0  0  0  0  0  0
  -31.9144  -14.5321   20.2281 O   0  0  0  0  0  0
  -21.6603   -6.8898   21.4270 O   0  0  0  0  0  0
  -22.3558  -14.5573   20.6713 O   0  0  0  0  0  0
  -24.6148  -31.8680   23.2102 C   0  0  0  0  0  0
  -25.9033  -32.4830   23.8397 C   0  0  1  0  0  0
  -27.2398  -27.4382   20.0630 C   0  0  0  0  0  0
  -25.5906  -33.8628   24.2347 N   0  0  0  0  0  0
  -23.3990  -30.4938   21.5512 C   0  0  2  0  0  0
  -24.8436  -28.9568   20.1104 C   0  0  0  0  0  0
  -22.7392  -29.4657   22.4984 C   0  0  0  0  0  0
  -18.0273  -28.1338   22.8477 C   0  0  0  0  0  0
  -24.1481  -36.7307   23.2635 C   0  0  0  0  0  0
  -25.9286  -30.8303   21.3641 C   0  0  0  0  0  0
  -26.0023  -29.4652   20.7075 C   0  0  0  0  0  0
  -27.1986  -28.7113   20.6841 C   0  0  0  0  0  0
  -26.0597  -26.9497   19.4571 C   0  0  0  0  0  0
  -24.8655  -27.6988   19.4859 C   0  0  0  0  0  0
  -23.6055  -29.8253   20.1649 C   0  0  0  0  0  0
  -25.4091  -36.3111   24.0350 C   0  0  1  0  0  0
  -20.5858  -28.3611   23.1313 C   0  0  2  0  0  0
  -20.6745  -26.9361   22.5402 C   0  0  0  0  0  0
  -19.5732  -26.6361   21.5189 C   0  0  0  0  0  0
  -18.1907  -26.7887   22.1609 C   0  0  0  0  0  0
  -19.1527  -28.8796   23.2887 C   0  0  0  0  0  0
  -18.9460  -30.1395   23.8901 C   0  0  0  0  0  0
  -17.6460  -30.6539   24.0558 C   0  0  0  0  0  0
  -25.9025  -34.9485   23.5136 C   0  0  0  0  0  0
  -16.5350  -29.9034   23.6317 C   0  0  0  0  0  0
  -16.7265  -28.6457   23.0340 C   0  0  0  0  0  0
  -26.4481  -31.6594   25.0712 C   0  0  0  0  0  0
  -25.3792  -31.3708   26.1511 C   0  0  0  0  0  0
  -27.0288  -30.3042   24.6033 C   0  0  0  0  0  0
  -27.6040  -32.4348   25.7459 C   0  0  0  0  0  0
  -27.5579  -37.1805   24.8466 C   0  0  0  0  0  0
  -21.4131  -29.3009   22.3748 N   0  0  0  0  0  0
  -26.4282  -37.3802   23.9427 N   0  0  0  0  0  0
  -24.6648  -31.0806   22.0996 N   0  0  0  0  0  0
  -23.4196  -28.8189   23.3020 O   0  0  0  0  0  0
  -28.4313  -26.7376   20.0729 O   0  0  0  0  0  0
  -26.5585  -34.8941   22.4704 O   0  0  0  0  0  0
  -23.5347  -32.1433   23.7534 O   0  0  0  0  0  0
  -30.2484  -18.6196   17.6232 C   0  0  0  0  0  0
  -30.5833  -16.3093   18.2617 C   0  0  0  0  0  0
  -29.5971  -17.8736   19.8563 C   0  0  0  0  0  0
  -30.6916  -17.3265   17.3054 C   0  0  0  0  0  0
  -29.7164  -18.9217   18.9031 C   0  0  0  0  0  0
  -30.0436  -16.5660   19.5480 C   0  0  0  0  0  0
  -28.9315  -21.0988   18.2409 C   0  0  0  0  0  0
  -29.4089  -22.2648   20.8943 C   0  0  0  0  0  0
  -29.7987  -22.3001   17.8122 C   0  0  0  0  0  0
  -29.8015  -20.8014   20.5580 C   0  0  0  0  0  0
  -30.6804  -22.9291   18.9119 C   0  0  0  0  0  0
  -31.3142  -17.0373   15.9551 C   0  0  0  0  0  0
  -29.6746  -24.6950   20.3931 C   0  0  0  0  0  0
  -28.4570  -25.3514   19.6973 C   0  0  0  0  0  0
  -29.3871  -20.2840   19.2280 N   0  0  0  0  0  0
  -29.8728  -23.2582   20.0940 N   0  0  0  0  0  0
  -29.9373  -15.5183   20.5161 N   0  0  0  0  0  0
  -27.8687  -20.8804   17.6509 O   0  0  0  0  0  0
  -28.6766  -22.4800   21.8630 O   0  0  0  0  0  0
  -31.4582  -12.3488   19.1110 H   0  0  0  0  0  0
  -30.2924  -11.2589   19.8170 H   0  0  0  0  0  0
  -29.7372  -11.7914   17.4025 H   0  0  0  0  0  0
  -29.6361  -13.4830   17.7788 H   0  0  0  0  0  0
  -27.8819  -11.2700   18.8751 H   0  0  0  0  0  0
  -27.3481  -12.5389   17.7987 H   0  0  0  0  0  0
  -27.6910  -14.2336   19.5333 H   0  0  0  0  0  0
  -28.6543  -11.9880   21.3854 H   0  0  0  0  0  0
  -28.4840  -13.6637   21.8372 H   0  0  0  0  0  0
  -25.2757   -9.5638   22.4755 H   0  0  0  0  0  0
  -23.9992   -7.4572   22.7413 H   0  0  0  0  0  0
  -21.0825   -8.8777   19.8933 H   0  0  0  0  0  0
  -22.3701  -10.9685   19.6146 H   0  0  0  0  0  0
  -21.2051   -7.6156   23.9776 H   0  0  0  0  0  0
  -21.1450   -6.0523   25.9117 H   0  0  0  0  0  0
  -22.0612   -2.7631   23.2822 H   0  0  0  0  0  0
  -22.3985  -11.9993   22.4944 H   0  0  0  0  0  0
  -21.1038  -13.1365   22.2534 H   0  0  0  0  0  0
  -24.6552  -15.8393   20.5020 H   0  0  0  0  0  0
  -26.2734  -15.6289   20.0673 H   0  0  0  0  0  0
  -26.7080  -32.5550   23.1145 H   0  0  0  0  0  0
  -25.0107  -33.9781   25.0529 H   0  0  0  0  0  0
  -22.6856  -31.3089   21.4151 H   0  0  0  0  0  0
  -23.3751  -35.9636   23.3304 H   0  0  0  0  0  0
  -24.3572  -36.8905   22.2044 H   0  0  0  0  0  0
  -23.7230  -37.6518   23.6639 H   0  0  0  0  0  0
  -26.0428  -31.5958   20.5961 H   0  0  0  0  0  0
  -26.8163  -30.8830   21.9807 H   0  0  0  0  0  0
  -28.0969  -29.1007   21.1427 H   0  0  0  0  0  0
  -26.0423  -26.0023   18.9401 H   0  0  0  0  0  0
  -23.9760  -27.3093   19.0104 H   0  0  0  0  0  0
  -23.7156  -30.6019   19.4079 H   0  0  0  0  0  0
  -22.7263  -29.2506   19.8684 H   0  0  0  0  0  0
  -25.1263  -36.1963   25.0847 H   0  0  0  0  0  0
  -20.9947  -28.3168   24.1434 H   0  0  0  0  0  0
  -20.5592  -26.2245   23.3582 H   0  0  0  0  0  0
  -21.6619  -26.7359   22.1246 H   0  0  0  0  0  0
  -19.6890  -25.6276   21.1192 H   0  0  0  0  0  0
  -19.6645  -27.3181   20.6724 H   0  0  0  0  0  0
  -17.4170  -26.6627   21.4009 H   0  0  0  0  0  0
  -18.0315  -25.9998   22.8983 H   0  0  0  0  0  0
  -19.7938  -30.7216   24.2267 H   0  0  0  0  0  0
  -17.5018  -31.6226   24.5149 H   0  0  0  0  0  0
  -15.5355  -30.2951   23.7622 H   0  0  0  0  0  0
  -15.8664  -28.0785   22.7044 H   0  0  0  0  0  0
  -24.5924  -30.7069   25.7912 H   0  0  0  0  0  0
  -24.9048  -32.2865   26.5036 H   0  0  0  0  0  0
  -25.8213  -30.8856   27.0211 H   0  0  0  0  0  0
  -26.2769  -29.6812   24.1164 H   0  0  0  0  0  0
  -27.4154  -29.7280   25.4435 H   0  0  0  0  0  0
  -27.8579  -30.4389   23.9089 H   0  0  0  0  0  0
  -27.2610  -33.3629   26.2054 H   0  0  0  0  0  0
  -28.3820  -32.6941   25.0265 H   0  0  0  0  0  0
  -28.0732  -31.8476   26.5364 H   0  0  0  0  0  0
  -28.2608  -38.0093   24.7523 H   0  0  0  0  0  0
  -28.1064  -36.2637   24.6264 H   0  0  0  0  0  0
  -27.2322  -37.1426   25.8876 H   0  0  0  0  0  0
  -20.9276  -29.8809   21.7029 H   0  0  0  0  0  0
  -26.0171  -38.2885   24.1430 H   0  0  0  0  0  0
  -30.3627  -19.3839   16.8662 H   0  0  0  0  0  0
  -30.9438  -15.3302   17.9854 H   0  0  0  0  0  0
  -29.1763  -18.0657   20.8325 H   0  0  0  0  0  0
  -29.1518  -23.0697   17.3927 H   0  0  0  0  0  0
  -30.4351  -21.9566   16.9919 H   0  0  0  0  0  0
  -29.3996  -20.1659   21.3463 H   0  0  0  0  0  0
  -30.8873  -20.7021   20.6537 H   0  0  0  0  0  0
  -31.1944  -23.8101   18.5239 H   0  0  0  0  0  0
  -31.4923  -22.2437   19.1740 H   0  0  0  0  0  0
  -31.7886  -17.9321   15.5469 H   0  0  0  0  0  0
  -30.5591  -16.6957   15.2494 H   0  0  0  0  0  0
  -32.0780  -16.2620   16.0368 H   0  0  0  0  0  0
  -29.5555  -24.8260   21.4668 H   0  0  0  0  0  0
  -30.5758  -25.2548   20.1441 H   0  0  0  0  0  0
  -27.5573  -24.8243   20.0101 H   0  0  0  0  0  0
  -28.5394  -25.2665   18.6117 H   0  0  0  0  0  0
  -29.0381  -15.4080   20.9559 H   0  0  0  0  0  0
  1 25  1  0  0  0
  1 30  2  0  0  0
  1 87  1  0  0  0
  2  3  1  0  0  0
  2 25  1  0  0  0
  2 90  1  0  0  0
  2 91  1  0  0  0
  3  4  1  0  0  0
  3 92  1  0  0  0
  3 93  1  0  0  0
  4  5  1  0  0  0
  4 94  1  0  0  0
  4 95  1  0  0  0
  5  6  1  0  0  0
  5 26  1  0  0  0
  5 96  1  0  0  0
  6 25  1  0  0  0
  6 97  1  0  0  0
  6 98  1  0  0  0
  7  8  2  0  0  0
  7 26  1  0  0  0
  7 29  1  0  0  0
  8  9  1  0  0  0
  8 22  1  0  0  0
  9 10  1  0  0  0
  9 27  2  0  0  0
 10 11  2  0  0  0
 10 15  1  0  0  0
 11 12  1  0  0  0
 11 99  1  0  0  0
 12 13  2  0  0  0
 12100  1  0  0  0
 13 14  1  0  0  0
 13 31  1  0  0  0
 14 15  2  0  0  0
 14101  1  0  0  0
 15102  1  0  0  0
 16 17  2  0  0  0
 16 21  1  0  0  0
 16 31  1  0  0  0
 17 18  1  0  0  0
 17103  1  0  0  0
 18 19  2  0  0  0
 18104  1  0  0  0
 19 20  1  0  0  0
 19 24  1  0  0  0
 20 21  2  0  0  0
 20105  1  0  0  0
 21 23  1  0  0  0
 22 28  1  0  0  0
 22 32  2  0  0  0
 26 27  1  0  0  0
 28106  1  0  0  0
 28107  1  0  0  0
 29108  1  0  0  0
 29109  1  0  0  0
 33 34  1  0  0  0
 33 66  1  0  0  0
 33 70  2  0  0  0
 34 36  1  0  0  0
 34 59  1  0  0  0
 34110  1  0  0  0
 35 44  2  0  0  0
 35 45  1  0  0  0
 35 68  1  0  0  0
 36 56  1  0  0  0
 36111  1  0  0  0
 37 39  1  0  0  0
 37 47  1  0  0  0
 37 66  1  0  0  0
 37112  1  0  0  0
 38 43  2  0  0  0
 38 46  1  0  0  0
 38 47  1  0  0  0
 39 64  1  0  0  0
 39 67  2  0  0  0
 40 52  1  0  0  0
 40 53  2  0  0  0
 40 58  1  0  0  0
 41113  1  0  0  0
 41114  1  0  0  0
 41115  1  0  0  0
 41 48  1  0  0  0
 42 43  1  0  0  0
 42 66  1  0  0  0
 42116  1  0  0  0
 42117  1  0  0  0
 43 44  1  0  0  0
 44118  1  0  0  0
 45 46  2  0  0  0
 45119  1  0  0  0
 46120  1  0  0  0
 47121  1  0  0  0
 47122  1  0  0  0
 48 56  1  0  0  0
 48 65  1  0  0  0
 48123  1  0  0  0
 49 50  1  0  0  0
 49 53  1  0  0  0
 49 64  1  0  0  0
 49124  1  0  0  0
 50 51  1  0  0  0
 50125  1  0  0  0
 50126  1  0  0  0
 51 52  1  0  0  0
 51127  1  0  0  0
 51128  1  0  0  0
 52129  1  0  0  0
 52130  1  0  0  0
 53 54  1  0  0  0
 54 55  2  0  0  0
 54131  1  0  0  0
 55 57  1  0  0  0
 55132  1  0  0  0
 56 69  2  0  0  0
 57 58  2  0  0  0
 57133  1  0  0  0
 58134  1  0  0  0
 59 60  1  0  0  0
 59 61  1  0  0  0
 59 62  1  0  0  0
 60135  1  0  0  0
 60136  1  0  0  0
 60137  1  0  0  0
 61138  1  0  0  0
 61139  1  0  0  0
 61140  1  0  0  0
 62141  1  0  0  0
 62142  1  0  0  0
 62143  1  0  0  0
 63 65  1  0  0  0
 63144  1  0  0  0
 63145  1  0  0  0
 63146  1  0  0  0
 64147  1  0  0  0
 65148  1  0  0  0
 68 84  1  0  0  0
 71 74  2  0  0  0
 71 75  1  0  0  0
 71149  1  0  0  0
 72 74  1  0  0  0
 72 76  2  0  0  0
 72150  1  0  0  0
 73 75  2  0  0  0
 73 76  1  0  0  0
 73151  1  0  0  0
 74 82  1  0  0  0
 75 85  1  0  0  0
 76 87  1  0  0  0
 77 79  1  0  0  0
 77 85  1  0  0  0
 77 88  2  0  0  0
 78 80  1  0  0  0
 78 86  1  0  0  0
 78 89  2  0  0  0
 79 81  1  0  0  0
 79152  1  0  0  0
 79153  1  0  0  0
 80 85  1  0  0  0
 80154  1  0  0  0
 80155  1  0  0  0
 81 86  1  0  0  0
 81156  1  0  0  0
 81157  1  0  0  0
 82158  1  0  0  0
 82159  1  0  0  0
 82160  1  0  0  0
 83 84  1  0  0  0
 83 86  1  0  0  0
 83161  1  0  0  0
 83162  1  0  0  0
 84163  1  0  0  0
 84164  1  0  0  0
 87165  1  0  0  0
M  ISO  4   1 100  68 101  84 101  87 100
M  END
> <chiral flag>
0

> <version>
0

> <s_m_source_file>
/data/baiqing/PycharmProjects/Reinvent-master-3.2/result/LINK_invent/BTK/process_docking_weight1_custom_product_contain_oxygen_bond_distance_aromatic_linkinvent_7_9_3/rearranged_h_0061.sdf

> <i_m_source_file_index>
39

> <r_mmod_Potential_Energy-OPLS-2005>
70.1482696533203

> <r_mmod_Stretch_Energy-OPLS-2005>
44.9326362609863

> <r_mmod_Bend_Energy-OPLS-2005>
104.466247558594

> <r_mmod_Torsional_Energy-OPLS-2005>
356.983581542969

> <r_mmod_Improper_Torsional_Energy-OPLS-2005>
11.7335023880005

> <r_mmod_Van_der_Waal_Energy-OPLS-2005>
190.326843261719

> <r_mmod_Electrostatic_Energy-OPLS-2005>
-407.632629394531

> <r_mmod_Solvation_Energy-OPLS-2005>
-250.546737670898

> <b_mmod_Minimization_Converged-OPLS-2005>
0

> <r_mmod_RMS_Derivative-OPLS-2005>
6.2902717590332

$$$$
40
                    3D
 Structure written by MMmdl.
160169  0  0  1  0            999 V2000
  -30.6089  -14.7893   20.4518 C   0  0  0  0  0  0
  -30.4250  -12.4842   19.4747 C   0  0  0  0  0  0
  -29.5052  -12.5074   18.2350 C   0  0  0  0  0  0
  -28.0337  -12.3256   18.6527 C   0  0  0  0  0  0
  -27.6344  -13.2366   19.8438 C   0  0  2  0  0  0
  -28.6796  -13.2046   20.9792 C   0  0  0  0  0  0
  -25.2483  -13.8207   20.5702 C   0  0  0  0  0  0
  -24.1785  -13.0443   20.9217 C   0  0  0  0  0  0
  -24.6383  -11.6921   20.8759 C   0  0  0  0  0  0
  -23.9067  -10.4293   21.0411 C   0  0  0  0  0  0
  -24.3620   -9.4207   21.9186 C   0  0  0  0  0  0
  -23.6297   -8.2242   22.0755 C   0  0  0  0  0  0
  -22.4279   -8.0281   21.3546 C   0  0  0  0  0  0
  -21.9914   -9.0252   20.4644 C   0  0  0  0  0  0
  -22.7242  -10.2131   20.3056 C   0  0  0  0  0  0
  -21.6855   -6.0734   22.5276 C   0  0  0  0  0  0
  -21.4014   -6.5640   23.8208 C   0  0  0  0  0  0
  -21.3660   -5.6795   24.9174 C   0  0  0  0  0  0
  -21.6047   -4.3057   24.7226 C   0  0  0  0  0  0
  -21.8819   -3.8145   23.4347 C   0  0  0  0  0  0
  -21.9194   -4.6960   22.3401 C   0  0  0  0  0  0
  -22.7807  -13.5218   21.1876 C   0  0  0  0  0  0
  -22.1662   -4.2144   21.0980 F   0  0  0  0  0  0
  -21.5630   -3.4539   25.7739 F   0  0  0  0  0  0
  -29.9708  -13.5660   20.3837 N   0  0  0  0  0  0
  -26.2899  -12.9416   20.3271 N   0  0  0  0  0  0
  -25.9312  -11.6553   20.5758 N   0  0  0  0  0  0
  -22.0458  -12.8197   22.0426 N   0  0  0  0  0  0
  -25.4175  -15.1930   20.4101 N   0  0  0  0  0  0
  -31.8064  -14.8372   20.1562 O   0  0  0  0  0  0
  -21.6646   -6.8876   21.4238 O   0  0  0  0  0  0
  -22.3484  -14.5522   20.6723 O   0  0  0  0  0  0
  -24.6352  -31.8516   23.1937 C   0  0  0  0  0  0
  -25.9166  -32.4726   23.8299 C   0  0  1  0  0  0
  -27.2190  -27.2242   20.1287 C   0  0  0  0  0  0
  -25.5951  -33.8531   24.2218 N   0  0  0  0  0  0
  -23.4327  -30.4747   21.5362 C   0  0  2  0  0  0
  -24.8786  -28.9144   20.1056 C   0  0  0  0  0  0
  -22.7520  -29.4611   22.4886 C   0  0  0  0  0  0
  -18.0310  -28.1414   22.8487 C   0  0  0  0  0  0
  -24.1492  -36.7266   23.2640 C   0  0  0  0  0  0
  -25.9817  -30.7519   21.3789 C   0  0  0  0  0  0
  -26.0511  -29.3716   20.7196 C   0  0  0  0  0  0
  -27.2188  -28.5382   20.7220 C   0  0  0  0  0  0
  -26.0154  -26.8383   19.4950 C   0  0  0  0  0  0
  -24.8687  -27.6574   19.4835 C   0  0  0  0  0  0
  -23.6511  -29.8058   20.1527 C   0  0  0  0  0  0
  -25.4124  -36.3042   24.0318 C   0  0  1  0  0  0
  -20.5914  -28.3729   23.1258 C   0  0  2  0  0  0
  -20.6807  -26.9447   22.5403 C   0  0  0  0  0  0
  -19.5772  -26.6403   21.5219 C   0  0  0  0  0  0
  -18.1951  -26.7961   22.1624 C   0  0  0  0  0  0
  -19.1562  -28.8887   23.2868 C   0  0  0  0  0  0
  -18.9481  -30.1493   23.8880 C   0  0  0  0  0  0
  -17.6476  -30.6606   24.0571 C   0  0  0  0  0  0
  -25.9073  -34.9422   23.5068 C   0  0  0  0  0  0
  -16.5367  -29.9099   23.6341 C   0  0  0  0  0  0
  -16.7295  -28.6525   23.0347 C   0  0  0  0  0  0
  -26.4514  -31.6575   25.0716 C   0  0  0  0  0  0
  -25.3719  -31.3761   26.1421 C   0  0  0  0  0  0
  -27.0374  -30.2983   24.6248 C   0  0  0  0  0  0
  -27.6052  -32.4338   25.7495 C   0  0  0  0  0  0
  -27.5580  -37.1791   24.8463 C   0  0  0  0  0  0
  -21.4226  -29.3064   22.3631 N   0  0  0  0  0  0
  -26.4288  -37.3753   23.9410 N   0  0  0  0  0  0
  -24.7024  -31.0467   22.0911 N   0  0  0  0  0  0
  -23.4203  -28.8171   23.3012 O   0  0  0  0  0  0
  -28.3147  -26.3228   20.2347 O   0  0  0  0  0  0
  -26.5638  -34.8905   22.4637 O   0  0  0  0  0  0
  -23.5496  -32.1355   23.7223 O   0  0  0  0  0  0
  -32.0417  -18.9528   21.4760 C   0  0  0  0  0  0
  -31.5746  -17.6528   21.2294 C   0  0  0  0  0  0
  -27.7665  -23.0091   21.2696 C   0  0  0  0  0  0
  -29.4487  -18.6081   20.5403 C   0  0  0  0  0  0
  -31.2450  -20.0986   21.2735 C   0  0  0  0  0  0
  -28.5442  -23.5452   20.1940 C   0  0  0  0  0  0
  -29.9144  -19.9868   20.7702 C   0  0  0  0  0  0
  -30.2691  -17.4020   20.7574 C   0  0  0  0  0  0
  -28.1160  -21.6924   21.5059 C   0  0  0  0  0  0
  -29.3232  -22.4254   19.8336 C   0  0  0  0  0  0
  -31.4986  -21.8214   23.1300 C   0  0  0  0  0  0
  -31.8686  -21.4289   21.6935 C   0  0  0  0  0  0
  -28.4235  -25.0015   19.5025 C   0  0  0  0  0  0
  -29.1332  -21.2658   20.6571 N   0  0  0  0  0  0
  -29.8527  -15.9630   20.6013 N   0  0  0  0  0  0
  -27.6188  -20.8491   22.4518 O   0  0  0  0  0  0
  -30.2314  -22.3482   18.8196 O   0  0  0  0  0  0
  -31.4650  -12.6052   19.1681 H   0  0  0  0  0  0
  -30.3727  -11.5163   19.9760 H   0  0  0  0  0  0
  -29.7938  -11.7233   17.5335 H   0  0  0  0  0  0
  -29.6239  -13.4530   17.7036 H   0  0  0  0  0  0
  -27.8984  -11.2791   18.9282 H   0  0  0  0  0  0
  -27.3732  -12.5030   17.8031 H   0  0  0  0  0  0
  -27.6176  -14.2515   19.4462 H   0  0  0  0  0  0
  -28.7286  -12.2167   21.4395 H   0  0  0  0  0  0
  -28.4079  -13.9028   21.7727 H   0  0  0  0  0  0
  -25.2763   -9.5685   22.4759 H   0  0  0  0  0  0
  -24.0007   -7.4632   22.7471 H   0  0  0  0  0  0
  -21.0848   -8.8766   19.8943 H   0  0  0  0  0  0
  -22.3701  -10.9668   19.6162 H   0  0  0  0  0  0
  -21.2005   -7.6148   23.9709 H   0  0  0  0  0  0
  -21.1483   -6.0527   25.9077 H   0  0  0  0  0  0
  -22.0598   -2.7606   23.2850 H   0  0  0  0  0  0
  -22.4087  -11.9858   22.4801 H   0  0  0  0  0  0
  -21.1072  -13.1205   22.2641 H   0  0  0  0  0  0
  -24.6493  -15.8470   20.5170 H   0  0  0  0  0  0
  -26.2598  -15.6293   20.0583 H   0  0  0  0  0  0
  -26.7233  -32.5344   23.1039 H   0  0  0  0  0  0
  -25.0122  -33.9660   25.0378 H   0  0  0  0  0  0
  -22.7320  -31.2987   21.3885 H   0  0  0  0  0  0
  -23.3755  -35.9594   23.3283 H   0  0  0  0  0  0
  -24.3592  -36.8898   22.2056 H   0  0  0  0  0  0
  -23.7236  -37.6459   23.6679 H   0  0  0  0  0  0
  -26.1308  -31.5112   20.6097 H   0  0  0  0  0  0
  -26.8560  -30.7963   22.0170 H   0  0  0  0  0  0
  -28.1136  -28.8829   21.2217 H   0  0  0  0  0  0
  -25.9004  -25.8662   19.0434 H   0  0  0  0  0  0
  -23.9672  -27.2957   19.0081 H   0  0  0  0  0  0
  -23.7767  -30.5792   19.3938 H   0  0  0  0  0  0
  -22.7666  -29.2412   19.8499 H   0  0  0  0  0  0
  -25.1314  -36.1866   25.0809 H   0  0  0  0  0  0
  -21.0023  -28.3308   24.1369 H   0  0  0  0  0  0
  -20.5738  -26.2341   23.3617 H   0  0  0  0  0  0
  -21.6676  -26.7496   22.1178 H   0  0  0  0  0  0
  -19.6928  -25.6306   21.1261 H   0  0  0  0  0  0
  -19.6694  -27.3209   20.6743 H   0  0  0  0  0  0
  -17.4233  -26.6721   21.4013 H   0  0  0  0  0  0
  -18.0336  -26.0110   22.9024 H   0  0  0  0  0  0
  -19.7949  -30.7336   24.2216 H   0  0  0  0  0  0
  -17.5022  -31.6273   24.5198 H   0  0  0  0  0  0
  -15.5366  -30.2988   23.7685 H   0  0  0  0  0  0
  -15.8703  -28.0845   22.7047 H   0  0  0  0  0  0
  -24.5910  -30.7081   25.7763 H   0  0  0  0  0  0
  -24.8900  -32.2949   26.4774 H   0  0  0  0  0  0
  -25.8031  -30.9000   27.0235 H   0  0  0  0  0  0
  -26.2982  -29.6709   24.1257 H   0  0  0  0  0  0
  -27.4014  -29.7266   25.4795 H   0  0  0  0  0  0
  -27.8868  -30.4240   23.9534 H   0  0  0  0  0  0
  -27.2645  -33.3655   26.2024 H   0  0  0  0  0  0
  -28.3892  -32.6867   25.0346 H   0  0  0  0  0  0
  -28.0686  -31.8493   26.5450 H   0  0  0  0  0  0
  -28.2589  -38.0098   24.7538 H   0  0  0  0  0  0
  -28.1088  -36.2636   24.6264 H   0  0  0  0  0  0
  -27.2315  -37.1403   25.8868 H   0  0  0  0  0  0
  -20.9429  -29.8731   21.6781 H   0  0  0  0  0  0
  -26.0147  -38.2815   24.1417 H   0  0  0  0  0  0
  -33.0430  -19.0647   21.8680 H   0  0  0  0  0  0
  -32.2509  -16.8420   21.4560 H   0  0  0  0  0  0
  -27.0061  -23.5492   21.8171 H   0  0  0  0  0  0
  -28.4295  -18.4804   20.2055 H   0  0  0  0  0  0
  -31.9702  -22.7641   23.4089 H   0  0  0  0  0  0
  -31.8286  -21.0641   23.8416 H   0  0  0  0  0  0
  -30.4218  -21.9433   23.2464 H   0  0  0  0  0  0
  -31.6142  -22.2312   21.0073 H   0  0  0  0  0  0
  -32.9545  -21.3508   21.6232 H   0  0  0  0  0  0
  -27.6806  -24.9136   18.7144 H   0  0  0  0  0  0
  -29.3522  -25.1033   18.9418 H   0  0  0  0  0  0
  -28.8572  -15.8017   20.6218 H   0  0  0  0  0  0
  -26.9131  -21.3026   22.9026 H   0  0  0  0  0  0
  -30.2658  -23.1920   18.3827 H   0  0  0  0  0  0
  1 25  1  0  0  0
  1 30  2  0  0  0
  1 85  1  0  0  0
  2  3  1  0  0  0
  2 25  1  0  0  0
  2 88  1  0  0  0
  2 89  1  0  0  0
  3  4  1  0  0  0
  3 90  1  0  0  0
  3 91  1  0  0  0
  4  5  1  0  0  0
  4 92  1  0  0  0
  4 93  1  0  0  0
  5  6  1  0  0  0
  5 26  1  0  0  0
  5 94  1  0  0  0
  6 25  1  0  0  0
  6 95  1  0  0  0
  6 96  1  0  0  0
  7  8  2  0  0  0
  7 26  1  0  0  0
  7 29  1  0  0  0
  8  9  1  0  0  0
  8 22  1  0  0  0
  9 10  1  0  0  0
  9 27  2  0  0  0
 10 11  2  0  0  0
 10 15  1  0  0  0
 11 12  1  0  0  0
 11 97  1  0  0  0
 12 13  2  0  0  0
 12 98  1  0  0  0
 13 14  1  0  0  0
 13 31  1  0  0  0
 14 15  2  0  0  0
 14 99  1  0  0  0
 15100  1  0  0  0
 16 17  2  0  0  0
 16 21  1  0  0  0
 16 31  1  0  0  0
 17 18  1  0  0  0
 17101  1  0  0  0
 18 19  2  0  0  0
 18102  1  0  0  0
 19 20  1  0  0  0
 19 24  1  0  0  0
 20 21  2  0  0  0
 20103  1  0  0  0
 21 23  1  0  0  0
 22 28  1  0  0  0
 22 32  2  0  0  0
 26 27  1  0  0  0
 28104  1  0  0  0
 28105  1  0  0  0
 29106  1  0  0  0
 29107  1  0  0  0
 33 34  1  0  0  0
 33 66  1  0  0  0
 33 70  2  0  0  0
 34 36  1  0  0  0
 34 59  1  0  0  0
 34108  1  0  0  0
 35 44  2  0  0  0
 35 45  1  0  0  0
 35 68  1  0  0  0
 36 56  1  0  0  0
 36109  1  0  0  0
 37 39  1  0  0  0
 37 47  1  0  0  0
 37 66  1  0  0  0
 37110  1  0  0  0
 38 43  2  0  0  0
 38 46  1  0  0  0
 38 47  1  0  0  0
 39 64  1  0  0  0
 39 67  2  0  0  0
 40 52  1  0  0  0
 40 53  2  0  0  0
 40 58  1  0  0  0
 41111  1  0  0  0
 41112  1  0  0  0
 41113  1  0  0  0
 41 48  1  0  0  0
 42 43  1  0  0  0
 42 66  1  0  0  0
 42114  1  0  0  0
 42115  1  0  0  0
 43 44  1  0  0  0
 44116  1  0  0  0
 45 46  2  0  0  0
 45117  1  0  0  0
 46118  1  0  0  0
 47119  1  0  0  0
 47120  1  0  0  0
 48 56  1  0  0  0
 48 65  1  0  0  0
 48121  1  0  0  0
 49 50  1  0  0  0
 49 53  1  0  0  0
 49 64  1  0  0  0
 49122  1  0  0  0
 50 51  1  0  0  0
 50123  1  0  0  0
 50124  1  0  0  0
 51 52  1  0  0  0
 51125  1  0  0  0
 51126  1  0  0  0
 52127  1  0  0  0
 52128  1  0  0  0
 53 54  1  0  0  0
 54 55  2  0  0  0
 54129  1  0  0  0
 55 57  1  0  0  0
 55130  1  0  0  0
 56 69  2  0  0  0
 57 58  2  0  0  0
 57131  1  0  0  0
 58132  1  0  0  0
 59 60  1  0  0  0
 59 61  1  0  0  0
 59 62  1  0  0  0
 60133  1  0  0  0
 60134  1  0  0  0
 60135  1  0  0  0
 61136  1  0  0  0
 61137  1  0  0  0
 61138  1  0  0  0
 62139  1  0  0  0
 62140  1  0  0  0
 62141  1  0  0  0
 63 65  1  0  0  0
 63142  1  0  0  0
 63143  1  0  0  0
 63144  1  0  0  0
 64145  1  0  0  0
 65146  1  0  0  0
 68 83  1  0  0  0
 71 72  2  0  0  0
 71 75  1  0  0  0
 71147  1  0  0  0
 72 78  1  0  0  0
 72148  1  0  0  0
 73 76  1  0  0  0
 73 79  2  0  0  0
 73149  1  0  0  0
 74 77  1  0  0  0
 74 78  2  0  0  0
 74150  1  0  0  0
 75 77  2  0  0  0
 75 82  1  0  0  0
 76 80  2  0  0  0
 76 83  1  0  0  0
 77 84  1  0  0  0
 78 85  1  0  0  0
 79 84  1  0  0  0
 79 86  1  0  0  0
 80 84  1  0  0  0
 80 87  1  0  0  0
 81 82  1  0  0  0
 81151  1  0  0  0
 81152  1  0  0  0
 81153  1  0  0  0
 82154  1  0  0  0
 82155  1  0  0  0
 83156  1  0  0  0
 83157  1  0  0  0
 85158  1  0  0  0
 86159  1  0  0  0
 87160  1  0  0  0
M  ISO  4   1 100  68 101  83 101  85 100
M  END
> <chiral flag>
0

> <version>
0

> <s_m_source_file>
/data/baiqing/PycharmProjects/Reinvent-master-3.2/result/LINK_invent/BTK/process_docking_weight1_custom_product_contain_oxygen_bond_distance_aromatic_linkinvent_7_9_3/rearranged_h_0061.sdf

> <i_m_source_file_index>
40

> <r_mmod_Potential_Energy-OPLS-2005>
283.616363525391

> <r_mmod_Stretch_Energy-OPLS-2005>
153.542190551758

> <r_mmod_Bend_Energy-OPLS-2005>
192.162734985352

> <r_mmod_Torsional_Energy-OPLS-2005>
242.462783813477

> <r_mmod_Improper_Torsional_Energy-OPLS-2005>
7.70511817932129

> <r_mmod_Van_der_Waal_Energy-OPLS-2005>
136.066833496094

> <r_mmod_Electrostatic_Energy-OPLS-2005>
-322.692474365234

> <r_mmod_Solvation_Energy-OPLS-2005>
-233.605117797852

> <b_mmod_Minimization_Converged-OPLS-2005>
0

> <r_mmod_RMS_Derivative-OPLS-2005>
1.1928129196167

$$$$
41
                    3D
 Structure written by MMmdl.
151159  0  0  1  0            999 V2000
  -30.6154  -14.7290   20.4305 C   0  0  0  0  0  0
  -30.4260  -12.4369   19.4787 C   0  0  0  0  0  0
  -29.5097  -12.5027   18.2374 C   0  0  0  0  0  0
  -28.0335  -12.3371   18.6453 C   0  0  0  0  0  0
  -27.6402  -13.2348   19.8492 C   0  0  2  0  0  0
  -28.6824  -13.1664   20.9864 C   0  0  0  0  0  0
  -25.2496  -13.8212   20.5690 C   0  0  0  0  0  0
  -24.1792  -13.0447   20.9204 C   0  0  0  0  0  0
  -24.6384  -11.6927   20.8739 C   0  0  0  0  0  0
  -23.9065  -10.4300   21.0403 C   0  0  0  0  0  0
  -24.3620   -9.4216   21.9179 C   0  0  0  0  0  0
  -23.6298   -8.2248   22.0752 C   0  0  0  0  0  0
  -22.4279   -8.0280   21.3545 C   0  0  0  0  0  0
  -21.9906   -9.0252   20.4649 C   0  0  0  0  0  0
  -22.7232  -10.2136   20.3058 C   0  0  0  0  0  0
  -21.6857   -6.0734   22.5278 C   0  0  0  0  0  0
  -21.4017   -6.5637   23.8210 C   0  0  0  0  0  0
  -21.3662   -5.6791   24.9172 C   0  0  0  0  0  0
  -21.6045   -4.3052   24.7222 C   0  0  0  0  0  0
  -21.8821   -3.8144   23.4343 C   0  0  0  0  0  0
  -21.9195   -4.6961   22.3400 C   0  0  0  0  0  0
  -22.7813  -13.5224   21.1862 C   0  0  0  0  0  0
  -22.1665   -4.2147   21.0976 F   0  0  0  0  0  0
  -21.5628   -3.4536   25.7735 F   0  0  0  0  0  0
  -29.9876  -13.5041   20.4079 N   0  0  0  0  0  0
  -26.2921  -12.9421   20.3265 N   0  0  0  0  0  0
  -25.9314  -11.6560   20.5738 N   0  0  0  0  0  0
  -22.0458  -12.8221   22.0424 N   0  0  0  0  0  0
  -25.4192  -15.1938   20.4118 N   0  0  0  0  0  0
  -31.8123  -14.7952   20.1361 O   0  0  0  0  0  0
  -21.6645   -6.8877   21.4240 O   0  0  0  0  0  0
  -22.3489  -14.5518   20.6694 O   0  0  0  0  0  0
  -24.6307  -31.8547   23.1978 C   0  0  0  0  0  0
  -25.9141  -32.4742   23.8316 C   0  0  1  0  0  0
  -27.2195  -27.2670   20.1182 C   0  0  0  0  0  0
  -25.5943  -33.8548   24.2231 N   0  0  0  0  0  0
  -23.4249  -30.4784   21.5405 C   0  0  2  0  0  0
  -24.8697  -28.9245   20.1080 C   0  0  0  0  0  0
  -22.7486  -29.4603   22.4904 C   0  0  0  0  0  0
  -18.0287  -28.1381   22.8478 C   0  0  0  0  0  0
  -24.1490  -36.7287   23.2632 C   0  0  0  0  0  0
  -25.9708  -30.7685   21.3765 C   0  0  0  0  0  0
  -26.0402  -29.3927   20.7153 C   0  0  0  0  0  0
  -27.2137  -28.5751   20.7102 C   0  0  0  0  0  0
  -26.0177  -26.8579   19.4968 C   0  0  0  0  0  0
  -24.8630  -27.6651   19.4903 C   0  0  0  0  0  0
  -23.6409  -29.8114   20.1559 C   0  0  0  0  0  0
  -25.4117  -36.3061   24.0312 C   0  0  1  0  0  0
  -20.5888  -28.3687   23.1272 C   0  0  2  0  0  0
  -20.6769  -26.9407   22.5404 C   0  0  0  0  0  0
  -19.5746  -26.6376   21.5206 C   0  0  0  0  0  0
  -18.1930  -26.7920   22.1625 C   0  0  0  0  0  0
  -19.1540  -28.8854   23.2867 C   0  0  0  0  0  0
  -18.9466  -30.1460   23.8874 C   0  0  0  0  0  0
  -17.6465  -30.6582   24.0561 C   0  0  0  0  0  0
  -25.9069  -34.9435   23.5074 C   0  0  0  0  0  0
  -16.5356  -29.9078   23.6332 C   0  0  0  0  0  0
  -16.7276  -28.6502   23.0342 C   0  0  0  0  0  0
  -26.4500  -31.6577   25.0715 C   0  0  0  0  0  0
  -25.3728  -31.3743   26.1441 C   0  0  0  0  0  0
  -27.0342  -30.2978   24.6234 C   0  0  0  0  0  0
  -27.6033  -32.4336   25.7503 C   0  0  0  0  0  0
  -27.5584  -37.1789   24.8450 C   0  0  0  0  0  0
  -21.4195  -29.3034   22.3656 N   0  0  0  0  0  0
  -26.4277  -37.3774   23.9420 N   0  0  0  0  0  0
  -24.6944  -31.0524   22.0943 N   0  0  0  0  0  0
  -23.4192  -28.8148   23.3003 O   0  0  0  0  0  0
  -28.3459  -26.4166   20.1951 O   0  0  0  0  0  0
  -26.5650  -34.8919   22.4648 O   0  0  0  0  0  0
  -23.5466  -32.1367   23.7292 O   0  0  0  0  0  0
  -31.1160  -18.6623   18.3377 C   0  0  0  0  0  0
  -30.5111  -19.8283   18.8366 C   0  0  0  0  0  0
  -30.8936  -17.4078   18.9313 C   0  0  0  0  0  0
  -29.4311  -18.4826   20.5515 C   0  0  0  0  0  0
  -29.6340  -19.7993   19.9461 C   0  0  0  0  0  0
  -30.0627  -17.2551   20.0656 C   0  0  0  0  0  0
  -28.8867  -22.3038   19.7739 C   0  0  0  0  0  0
  -28.5431  -23.6821   20.5165 C   0  0  0  0  0  0
  -28.4173  -25.0294   19.6202 C   0  0  0  0  0  0
  -29.0679  -21.0906   20.4375 N   0  0  0  0  0  0
  -29.8531  -15.8805   20.6082 N   0  0  0  0  0  0
  -28.9458  -22.3524   18.5432 O   0  0  0  0  0  0
  -31.4692  -12.5484   19.1781 H   0  0  0  0  0  0
  -30.3587  -11.4602   19.9609 H   0  0  0  0  0  0
  -29.7883  -11.7297   17.5198 H   0  0  0  0  0  0
  -29.6469  -13.4586   17.7298 H   0  0  0  0  0  0
  -27.8806  -11.2882   18.9012 H   0  0  0  0  0  0
  -27.3824  -12.5412   17.7943 H   0  0  0  0  0  0
  -27.6357  -14.2575   19.4711 H   0  0  0  0  0  0
  -28.7077  -12.1705   21.4309 H   0  0  0  0  0  0
  -28.4212  -13.8553   21.7906 H   0  0  0  0  0  0
  -25.2769   -9.5692   22.4748 H   0  0  0  0  0  0
  -24.0012   -7.4638   22.7468 H   0  0  0  0  0  0
  -21.0838   -8.8767   19.8954 H   0  0  0  0  0  0
  -22.3688  -10.9672   19.6165 H   0  0  0  0  0  0
  -21.2014   -7.6147   23.9713 H   0  0  0  0  0  0
  -21.1481   -6.0522   25.9076 H   0  0  0  0  0  0
  -22.0600   -2.7607   23.2843 H   0  0  0  0  0  0
  -22.4081  -11.9904   22.4848 H   0  0  0  0  0  0
  -21.1070  -13.1241   22.2606 H   0  0  0  0  0  0
  -24.6515  -15.8481   20.5201 H   0  0  0  0  0  0
  -26.2652  -15.6324   20.0706 H   0  0  0  0  0  0
  -26.7207  -32.5383   23.1058 H   0  0  0  0  0  0
  -25.0057  -33.9676   25.0352 H   0  0  0  0  0  0
  -22.7220  -31.3013   21.3948 H   0  0  0  0  0  0
  -23.3754  -35.9614   23.3254 H   0  0  0  0  0  0
  -24.3583  -36.8959   22.2054 H   0  0  0  0  0  0
  -23.7239  -37.6470   23.6695 H   0  0  0  0  0  0
  -26.1161  -31.5331   20.6118 H   0  0  0  0  0  0
  -26.8463  -30.8109   22.0126 H   0  0  0  0  0  0
  -28.1115  -28.9286   21.1966 H   0  0  0  0  0  0
  -25.9175  -25.8911   19.0328 H   0  0  0  0  0  0
  -23.9625  -27.2969   19.0193 H   0  0  0  0  0  0
  -23.7671  -30.5870   19.3990 H   0  0  0  0  0  0
  -22.7585  -29.2454   19.8512 H   0  0  0  0  0  0
  -25.1300  -36.1875   25.0800 H   0  0  0  0  0  0
  -20.9986  -28.3258   24.1393 H   0  0  0  0  0  0
  -20.5655  -26.2299   23.3605 H   0  0  0  0  0  0
  -21.6642  -26.7423   22.1216 H   0  0  0  0  0  0
  -19.6903  -25.6284   21.1245 H   0  0  0  0  0  0
  -19.6685  -27.3179   20.6731 H   0  0  0  0  0  0
  -17.4198  -26.6664   21.4028 H   0  0  0  0  0  0
  -18.0337  -26.0062   22.9027 H   0  0  0  0  0  0
  -19.7945  -30.7288   24.2218 H   0  0  0  0  0  0
  -17.5021  -31.6259   24.5172 H   0  0  0  0  0  0
  -15.5357  -30.2977   23.7668 H   0  0  0  0  0  0
  -15.8676  -28.0828   22.7046 H   0  0  0  0  0  0
  -24.5896  -30.7092   25.7780 H   0  0  0  0  0  0
  -24.8941  -32.2928   26.4853 H   0  0  0  0  0  0
  -25.8060  -30.8934   27.0221 H   0  0  0  0  0  0
  -26.2930  -29.6722   24.1245 H   0  0  0  0  0  0
  -27.3964  -29.7253   25.4782 H   0  0  0  0  0  0
  -27.8840  -30.4206   23.9515 H   0  0  0  0  0  0
  -27.2598  -33.3623   26.2074 H   0  0  0  0  0  0
  -28.3860  -32.6919   25.0358 H   0  0  0  0  0  0
  -28.0685  -31.8474   26.5437 H   0  0  0  0  0  0
  -28.2559  -38.0129   24.7562 H   0  0  0  0  0  0
  -28.1131  -36.2667   24.6192 H   0  0  0  0  0  0
  -27.2324  -37.1333   25.8856 H   0  0  0  0  0  0
  -20.9367  -29.8768   21.6880 H   0  0  0  0  0  0
  -26.0140  -38.2833   24.1459 H   0  0  0  0  0  0
  -31.7690  -18.7316   17.4788 H   0  0  0  0  0  0
  -30.7544  -20.7569   18.3420 H   0  0  0  0  0  0
  -31.3800  -16.5582   18.4753 H   0  0  0  0  0  0
  -28.7772  -18.4145   21.4089 H   0  0  0  0  0  0
  -29.3215  -23.8395   21.2628 H   0  0  0  0  0  0
  -27.6184  -23.5413   21.0761 H   0  0  0  0  0  0
  -27.6605  -24.8633   18.8596 H   0  0  0  0  0  0
  -29.3319  -25.0626   19.0287 H   0  0  0  0  0  0
  -28.8205  -21.1081   21.4181 H   0  0  0  0  0  0
  -28.9523  -15.7181   21.0328 H   0  0  0  0  0  0
  1 25  1  0  0  0
  1 30  2  0  0  0
  1 81  1  0  0  0
  2  3  1  0  0  0
  2 25  1  0  0  0
  2 83  1  0  0  0
  2 84  1  0  0  0
  3  4  1  0  0  0
  3 85  1  0  0  0
  3 86  1  0  0  0
  4  5  1  0  0  0
  4 87  1  0  0  0
  4 88  1  0  0  0
  5  6  1  0  0  0
  5 26  1  0  0  0
  5 89  1  0  0  0
  6 25  1  0  0  0
  6 90  1  0  0  0
  6 91  1  0  0  0
  7  8  2  0  0  0
  7 26  1  0  0  0
  7 29  1  0  0  0
  8  9  1  0  0  0
  8 22  1  0  0  0
  9 10  1  0  0  0
  9 27  2  0  0  0
 10 11  2  0  0  0
 10 15  1  0  0  0
 11 12  1  0  0  0
 11 92  1  0  0  0
 12 13  2  0  0  0
 12 93  1  0  0  0
 13 14  1  0  0  0
 13 31  1  0  0  0
 14 15  2  0  0  0
 14 94  1  0  0  0
 15 95  1  0  0  0
 16 17  2  0  0  0
 16 21  1  0  0  0
 16 31  1  0  0  0
 17 18  1  0  0  0
 17 96  1  0  0  0
 18 19  2  0  0  0
 18 97  1  0  0  0
 19 20  1  0  0  0
 19 24  1  0  0  0
 20 21  2  0  0  0
 20 98  1  0  0  0
 21 23  1  0  0  0
 22 28  1  0  0  0
 22 32  2  0  0  0
 26 27  1  0  0  0
 28 99  1  0  0  0
 28100  1  0  0  0
 29101  1  0  0  0
 29102  1  0  0  0
 33 34  1  0  0  0
 33 66  1  0  0  0
 33 70  2  0  0  0
 34 36  1  0  0  0
 34 59  1  0  0  0
 34103  1  0  0  0
 35 44  2  0  0  0
 35 45  1  0  0  0
 35 68  1  0  0  0
 36 56  1  0  0  0
 36104  1  0  0  0
 37 39  1  0  0  0
 37 47  1  0  0  0
 37 66  1  0  0  0
 37105  1  0  0  0
 38 43  2  0  0  0
 38 46  1  0  0  0
 38 47  1  0  0  0
 39 64  1  0  0  0
 39 67  2  0  0  0
 40 52  1  0  0  0
 40 53  2  0  0  0
 40 58  1  0  0  0
 41106  1  0  0  0
 41107  1  0  0  0
 41108  1  0  0  0
 41 48  1  0  0  0
 42 43  1  0  0  0
 42 66  1  0  0  0
 42109  1  0  0  0
 42110  1  0  0  0
 43 44  1  0  0  0
 44111  1  0  0  0
 45 46  2  0  0  0
 45112  1  0  0  0
 46113  1  0  0  0
 47114  1  0  0  0
 47115  1  0  0  0
 48 56  1  0  0  0
 48 65  1  0  0  0
 48116  1  0  0  0
 49 50  1  0  0  0
 49 53  1  0  0  0
 49 64  1  0  0  0
 49117  1  0  0  0
 50 51  1  0  0  0
 50118  1  0  0  0
 50119  1  0  0  0
 51 52  1  0  0  0
 51120  1  0  0  0
 51121  1  0  0  0
 52122  1  0  0  0
 52123  1  0  0  0
 53 54  1  0  0  0
 54 55  2  0  0  0
 54124  1  0  0  0
 55 57  1  0  0  0
 55125  1  0  0  0
 56 69  2  0  0  0
 57 58  2  0  0  0
 57126  1  0  0  0
 58127  1  0  0  0
 59 60  1  0  0  0
 59 61  1  0  0  0
 59 62  1  0  0  0
 60128  1  0  0  0
 60129  1  0  0  0
 60130  1  0  0  0
 61131  1  0  0  0
 61132  1  0  0  0
 61133  1  0  0  0
 62134  1  0  0  0
 62135  1  0  0  0
 62136  1  0  0  0
 63 65  1  0  0  0
 63137  1  0  0  0
 63138  1  0  0  0
 63139  1  0  0  0
 64140  1  0  0  0
 65141  1  0  0  0
 68 79  1  0  0  0
 71 72  2  0  0  0
 71 73  1  0  0  0
 71142  1  0  0  0
 72 75  1  0  0  0
 72143  1  0  0  0
 73 76  2  0  0  0
 73144  1  0  0  0
 74 75  2  0  0  0
 74 76  1  0  0  0
 74145  1  0  0  0
 75 80  1  0  0  0
 76 81  1  0  0  0
 77 78  1  0  0  0
 77 80  1  0  0  0
 77 82  2  0  0  0
 78 79  1  0  0  0
 78146  1  0  0  0
 78147  1  0  0  0
 79148  1  0  0  0
 79149  1  0  0  0
 80150  1  0  0  0
 81151  1  0  0  0
M  ISO  4   1 100  68 101  79 101  81 100
M  END
> <chiral flag>
0

> <version>
0

> <s_m_source_file>
/data/baiqing/PycharmProjects/Reinvent-master-3.2/result/LINK_invent/BTK/process_docking_weight1_custom_product_contain_oxygen_bond_distance_aromatic_linkinvent_7_9_3/rearranged_h_0061.sdf

> <i_m_source_file_index>
41

> <r_mmod_Potential_Energy-OPLS-2005>
140.410675048828

> <r_mmod_Stretch_Energy-OPLS-2005>
126.903961181641

> <r_mmod_Bend_Energy-OPLS-2005>
167.898818969727

> <r_mmod_Torsional_Energy-OPLS-2005>
232.681365966797

> <r_mmod_Improper_Torsional_Energy-OPLS-2005>
4.74691677093506

> <r_mmod_Van_der_Waal_Energy-OPLS-2005>
149.580291748047

> <r_mmod_Electrostatic_Energy-OPLS-2005>
-385.980712890625

> <r_mmod_Solvation_Energy-OPLS-2005>
-234.019821166992

> <b_mmod_Minimization_Converged-OPLS-2005>
0

> <r_mmod_RMS_Derivative-OPLS-2005>
1.03019344806671

$$$$
42
                    3D
 Structure written by MMmdl.
165175  0  0  1  0            999 V2000
  -30.7254  -14.3531   20.7100 C   0  0  0  0  0  0
  -30.4264  -12.2916   19.3906 C   0  0  0  0  0  0
  -29.4984  -12.5648   18.1930 C   0  0  0  0  0  0
  -28.0188  -12.4070   18.6005 C   0  0  0  0  0  0
  -27.6707  -13.2025   19.8886 C   0  0  2  0  0  0
  -28.6997  -12.8915   20.9949 C   0  0  0  0  0  0
  -25.2591  -13.8153   20.5624 C   0  0  0  0  0  0
  -24.1825  -13.0425   20.9135 C   0  0  0  0  0  0
  -24.6385  -11.6894   20.8711 C   0  0  0  0  0  0
  -23.9062  -10.4276   21.0390 C   0  0  0  0  0  0
  -24.3595   -9.4195   21.9183 C   0  0  0  0  0  0
  -23.6263   -8.2227   22.0736 C   0  0  0  0  0  0
  -22.4238   -8.0268   21.3537 C   0  0  0  0  0  0
  -21.9897   -9.0257   20.4645 C   0  0  0  0  0  0
  -22.7244  -10.2126   20.3042 C   0  0  0  0  0  0
  -21.6835   -6.0723   22.5277 C   0  0  0  0  0  0
  -21.4017   -6.5631   23.8223 C   0  0  0  0  0  0
  -21.3667   -5.6793   24.9188 C   0  0  0  0  0  0
  -21.6044   -4.3050   24.7245 C   0  0  0  0  0  0
  -21.8821   -3.8135   23.4363 C   0  0  0  0  0  0
  -21.9176   -4.6947   22.3408 C   0  0  0  0  0  0
  -22.7852  -13.5245   21.1830 C   0  0  0  0  0  0
  -22.1632   -4.2125   21.0988 F   0  0  0  0  0  0
  -21.5614   -3.4538   25.7761 F   0  0  0  0  0  0
  -30.0522  -13.1971   20.4832 N   0  0  0  0  0  0
  -26.3047  -12.9326   20.3381 N   0  0  0  0  0  0
  -25.9309  -11.6469   20.5705 N   0  0  0  0  0  0
  -22.0484  -12.8236   22.0399 N   0  0  0  0  0  0
  -25.4303  -15.1859   20.4020 N   0  0  0  0  0  0
  -31.7192  -14.7066   20.0640 O   0  0  0  0  0  0
  -21.6599   -6.8863   21.4236 O   0  0  0  0  0  0
  -22.3541  -14.5558   20.6689 O   0  0  0  0  0  0
  -24.6141  -31.8678   23.2104 C   0  0  0  0  0  0
  -25.9036  -32.4810   23.8393 C   0  0  1  0  0  0
  -27.2259  -27.4468   20.0520 C   0  0  0  0  0  0
  -25.5890  -33.8605   24.2325 N   0  0  0  0  0  0
  -23.3991  -30.4925   21.5543 C   0  0  2  0  0  0
  -24.8381  -28.9610   20.1128 C   0  0  0  0  0  0
  -22.7402  -29.4660   22.5038 C   0  0  0  0  0  0
  -18.0259  -28.1378   22.8499 C   0  0  0  0  0  0
  -24.1480  -36.7298   23.2640 C   0  0  0  0  0  0
  -25.9287  -30.8283   21.3662 C   0  0  0  0  0  0
  -25.9999  -29.4650   20.7106 C   0  0  0  0  0  0
  -27.1938  -28.7085   20.6884 C   0  0  0  0  0  0
  -26.0307  -26.9393   19.4908 C   0  0  0  0  0  0
  -24.8465  -27.6951   19.5068 C   0  0  0  0  0  0
  -23.5986  -29.8219   20.1694 C   0  0  0  0  0  0
  -25.4098  -36.3094   24.0345 C   0  0  1  0  0  0
  -20.5846  -28.3646   23.1338 C   0  0  2  0  0  0
  -20.6737  -26.9387   22.5423 C   0  0  0  0  0  0
  -19.5722  -26.6386   21.5210 C   0  0  0  0  0  0
  -18.1901  -26.7929   22.1620 C   0  0  0  0  0  0
  -19.1508  -28.8831   23.2908 C   0  0  0  0  0  0
  -18.9435  -30.1442   23.8908 C   0  0  0  0  0  0
  -17.6435  -30.6581   24.0560 C   0  0  0  0  0  0
  -25.9026  -34.9462   23.5137 C   0  0  0  0  0  0
  -16.5328  -29.9078   23.6333 C   0  0  0  0  0  0
  -16.7248  -28.6497   23.0357 C   0  0  0  0  0  0
  -26.4456  -31.6587   25.0725 C   0  0  0  0  0  0
  -25.3713  -31.3682   26.1468 C   0  0  0  0  0  0
  -27.0281  -30.3029   24.6100 C   0  0  0  0  0  0
  -27.6048  -32.4300   25.7464 C   0  0  0  0  0  0
  -27.5587  -37.1781   24.8457 C   0  0  0  0  0  0
  -21.4131  -29.3022   22.3768 N   0  0  0  0  0  0
  -26.4282  -37.3790   23.9426 N   0  0  0  0  0  0
  -24.6655  -31.0788   22.1004 N   0  0  0  0  0  0
  -23.4188  -28.8201   23.3067 O   0  0  0  0  0  0
  -28.4066  -26.7356   20.0208 O   0  0  0  0  0  0
  -26.5603  -34.8925   22.4707 O   0  0  0  0  0  0
  -23.5335  -32.1436   23.7499 O   0  0  0  0  0  0
  -30.1272  -19.2146   22.4570 C   0  0  0  0  0  0
  -30.1687  -18.3071   23.5311 C   0  0  0  0  0  0
  -28.7251  -23.4349   18.6253 C   0  0  0  0  0  0
  -30.4636  -24.5262   19.9451 C   0  0  0  0  0  0
  -30.2124  -17.3520   20.8763 C   0  0  0  0  0  0
  -29.3098  -22.1794   18.8923 C   0  0  0  0  0  0
  -30.4666  -22.1009   19.6925 C   0  0  0  0  0  0
  -29.2950  -24.6112   19.1599 C   0  0  0  0  0  0
  -31.0607  -23.2759   20.2074 C   0  0  0  0  0  0
  -30.1134  -18.7394   21.1253 C   0  0  0  0  0  0
  -30.2666  -16.4398   21.9576 C   0  0  0  0  0  0
  -30.2136  -16.9224   23.2823 C   0  0  0  0  0  0
  -28.9168  -19.6932   19.2380 C   0  0  0  0  0  0
  -28.7327  -20.8970   18.2987 C   0  0  0  0  0  0
  -31.0343  -20.7168   19.9649 C   0  0  0  0  0  0
  -32.3404  -23.2141   21.0244 C   0  0  0  0  0  0
  -28.6967  -25.9700   18.8419 C   0  0  0  0  0  0
  -30.0053  -19.6714   20.0533 N   0  0  0  0  0  0
  -30.2809  -15.0375   21.7694 N   0  0  0  0  0  0
  -28.0666  -18.7936   19.2142 O   0  0  0  0  0  0
  -30.2107  -16.0511   24.3200 F   0  0  0  0  0  0
  -31.4721  -12.4028   19.0973 H   0  0  0  0  0  0
  -30.3210  -11.2586   19.7225 H   0  0  0  0  0  0
  -29.7410  -11.8932   17.3693 H   0  0  0  0  0  0
  -29.6749  -13.5762   17.8217 H   0  0  0  0  0  0
  -27.8360  -11.3454   18.7650 H   0  0  0  0  0  0
  -27.3658  -12.7032   17.7787 H   0  0  0  0  0  0
  -27.7441  -14.2661   19.6592 H   0  0  0  0  0  0
  -28.6485  -11.8332   21.2563 H   0  0  0  0  0  0
  -28.4329  -13.4203   21.9098 H   0  0  0  0  0  0
  -25.2749   -9.5643   22.4757 H   0  0  0  0  0  0
  -23.9976   -7.4603   22.7424 H   0  0  0  0  0  0
  -21.0842   -8.8797   19.8938 H   0  0  0  0  0  0
  -22.3746  -10.9643   19.6112 H   0  0  0  0  0  0
  -21.2022   -7.6145   23.9738 H   0  0  0  0  0  0
  -21.1476   -6.0505   25.9090 H   0  0  0  0  0  0
  -22.0594   -2.7585   23.2873 H   0  0  0  0  0  0
  -22.4082  -11.9926   22.4833 H   0  0  0  0  0  0
  -21.1082  -13.1222   22.2583 H   0  0  0  0  0  0
  -24.6541  -15.8374   20.4438 H   0  0  0  0  0  0
  -26.2996  -15.6282   20.1245 H   0  0  0  0  0  0
  -26.7102  -32.5512   23.1147 H   0  0  0  0  0  0
  -25.0024  -33.9757   25.0459 H   0  0  0  0  0  0
  -22.6869  -31.3082   21.4173 H   0  0  0  0  0  0
  -23.3754  -35.9617   23.3272 H   0  0  0  0  0  0
  -24.3588  -36.8940   22.2062 H   0  0  0  0  0  0
  -23.7206  -37.6486   23.6665 H   0  0  0  0  0  0
  -26.0490  -31.5943   20.5990 H   0  0  0  0  0  0
  -26.8146  -30.8741   21.9876 H   0  0  0  0  0  0
  -28.0954  -29.0940   21.1427 H   0  0  0  0  0  0
  -25.9845  -25.9560   19.0459 H   0  0  0  0  0  0
  -23.9479  -27.2986   19.0537 H   0  0  0  0  0  0
  -23.6845  -30.5888   19.3991 H   0  0  0  0  0  0
  -22.7252  -29.2268   19.8941 H   0  0  0  0  0  0
  -25.1265  -36.1954   25.0838 H   0  0  0  0  0  0
  -20.9927  -28.3185   24.1463 H   0  0  0  0  0  0
  -20.5613  -26.2255   23.3605 H   0  0  0  0  0  0
  -21.6612  -26.7413   22.1226 H   0  0  0  0  0  0
  -19.6871  -25.6299   21.1230 H   0  0  0  0  0  0
  -19.6667  -27.3205   20.6750 H   0  0  0  0  0  0
  -17.4174  -26.6696   21.4017 H   0  0  0  0  0  0
  -18.0285  -26.0060   22.9003 H   0  0  0  0  0  0
  -19.7909  -30.7264   24.2284 H   0  0  0  0  0  0
  -17.4983  -31.6271   24.5148 H   0  0  0  0  0  0
  -15.5325  -30.2971   23.7662 H   0  0  0  0  0  0
  -15.8650  -28.0812   22.7070 H   0  0  0  0  0  0
  -24.5929  -30.6979   25.7803 H   0  0  0  0  0  0
  -24.8847  -32.2822   26.4882 H   0  0  0  0  0  0
  -25.8067  -30.8890   27.0244 H   0  0  0  0  0  0
  -26.2824  -29.6796   24.1155 H   0  0  0  0  0  0
  -27.4049  -29.7260   25.4553 H   0  0  0  0  0  0
  -27.8659  -30.4348   23.9250 H   0  0  0  0  0  0
  -27.2693  -33.3608   26.2042 H   0  0  0  0  0  0
  -28.3836  -32.6836   25.0261 H   0  0  0  0  0  0
  -28.0729  -31.8416   26.5361 H   0  0  0  0  0  0
  -28.2566  -38.0116   24.7565 H   0  0  0  0  0  0
  -28.1116  -36.2654   24.6183 H   0  0  0  0  0  0
  -27.2325  -37.1312   25.8863 H   0  0  0  0  0  0
  -20.9298  -29.8758   21.6998 H   0  0  0  0  0  0
  -26.0166  -38.2865   24.1456 H   0  0  0  0  0  0
  -30.0813  -20.2752   22.6648 H   0  0  0  0  0  0
  -30.1565  -18.6714   24.5486 H   0  0  0  0  0  0
  -27.8459  -23.4947   17.9977 H   0  0  0  0  0  0
  -30.9041  -25.4327   20.3358 H   0  0  0  0  0  0
  -30.2203  -16.9934   19.8570 H   0  0  0  0  0  0
  -29.2254  -20.6805   17.3503 H   0  0  0  0  0  0
  -27.6703  -21.0223   18.0890 H   0  0  0  0  0  0
  -31.6270  -20.7201   20.8768 H   0  0  0  0  0  0
  -31.7240  -20.4615   19.1601 H   0  0  0  0  0  0
  -32.7792  -24.2011   21.1735 H   0  0  0  0  0  0
  -33.0848  -22.5970   20.5179 H   0  0  0  0  0  0
  -32.1454  -22.7803   22.0055 H   0  0  0  0  0  0
  -27.8650  -25.8353   18.1532 H   0  0  0  0  0  0
  -29.4353  -26.5254   18.2639 H   0  0  0  0  0  0
  -29.7224  -14.5141   22.4274 H   0  0  0  0  0  0
  1 25  1  0  0  0
  1 30  2  0  0  0
  1 89  1  0  0  0
  2  3  1  0  0  0
  2 25  1  0  0  0
  2 92  1  0  0  0
  2 93  1  0  0  0
  3  4  1  0  0  0
  3 94  1  0  0  0
  3 95  1  0  0  0
  4  5  1  0  0  0
  4 96  1  0  0  0
  4 97  1  0  0  0
  5  6  1  0  0  0
  5 26  1  0  0  0
  5 98  1  0  0  0
  6 25  1  0  0  0
  6 99  1  0  0  0
  6100  1  0  0  0
  7  8  2  0  0  0
  7 26  1  0  0  0
  7 29  1  0  0  0
  8  9  1  0  0  0
  8 22  1  0  0  0
  9 10  1  0  0  0
  9 27  2  0  0  0
 10 11  2  0  0  0
 10 15  1  0  0  0
 11 12  1  0  0  0
 11101  1  0  0  0
 12 13  2  0  0  0
 12102  1  0  0  0
 13 14  1  0  0  0
 13 31  1  0  0  0
 14 15  2  0  0  0
 14103  1  0  0  0
 15104  1  0  0  0
 16 17  2  0  0  0
 16 21  1  0  0  0
 16 31  1  0  0  0
 17 18  1  0  0  0
 17105  1  0  0  0
 18 19  2  0  0  0
 18106  1  0  0  0
 19 20  1  0  0  0
 19 24  1  0  0  0
 20 21  2  0  0  0
 20107  1  0  0  0
 21 23  1  0  0  0
 22 28  1  0  0  0
 22 32  2  0  0  0
 26 27  1  0  0  0
 28108  1  0  0  0
 28109  1  0  0  0
 29110  1  0  0  0
 29111  1  0  0  0
 33 34  1  0  0  0
 33 66  1  0  0  0
 33 70  2  0  0  0
 34 36  1  0  0  0
 34 59  1  0  0  0
 34112  1  0  0  0
 35 44  2  0  0  0
 35 45  1  0  0  0
 35 68  1  0  0  0
 36 56  1  0  0  0
 36113  1  0  0  0
 37 39  1  0  0  0
 37 47  1  0  0  0
 37 66  1  0  0  0
 37114  1  0  0  0
 38 43  2  0  0  0
 38 46  1  0  0  0
 38 47  1  0  0  0
 39 64  1  0  0  0
 39 67  2  0  0  0
 40 52  1  0  0  0
 40 53  2  0  0  0
 40 58  1  0  0  0
 41115  1  0  0  0
 41116  1  0  0  0
 41117  1  0  0  0
 41 48  1  0  0  0
 42 43  1  0  0  0
 42 66  1  0  0  0
 42118  1  0  0  0
 42119  1  0  0  0
 43 44  1  0  0  0
 44120  1  0  0  0
 45 46  2  0  0  0
 45121  1  0  0  0
 46122  1  0  0  0
 47123  1  0  0  0
 47124  1  0  0  0
 48 56  1  0  0  0
 48 65  1  0  0  0
 48125  1  0  0  0
 49 50  1  0  0  0
 49 53  1  0  0  0
 49 64  1  0  0  0
 49126  1  0  0  0
 50 51  1  0  0  0
 50127  1  0  0  0
 50128  1  0  0  0
 51 52  1  0  0  0
 51129  1  0  0  0
 51130  1  0  0  0
 52131  1  0  0  0
 52132  1  0  0  0
 53 54  1  0  0  0
 54 55  2  0  0  0
 54133  1  0  0  0
 55 57  1  0  0  0
 55134  1  0  0  0
 56 69  2  0  0  0
 57 58  2  0  0  0
 57135  1  0  0  0
 58136  1  0  0  0
 59 60  1  0  0  0
 59 61  1  0  0  0
 59 62  1  0  0  0
 60137  1  0  0  0
 60138  1  0  0  0
 60139  1  0  0  0
 61140  1  0  0  0
 61141  1  0  0  0
 61142  1  0  0  0
 62143  1  0  0  0
 62144  1  0  0  0
 62145  1  0  0  0
 63 65  1  0  0  0
 63146  1  0  0  0
 63147  1  0  0  0
 63148  1  0  0  0
 64149  1  0  0  0
 65150  1  0  0  0
 68 87  1  0  0  0
 71 72  2  0  0  0
 71 80  1  0  0  0
 71151  1  0  0  0
 72 82  1  0  0  0
 72152  1  0  0  0
 73 76  2  0  0  0
 73 78  1  0  0  0
 73153  1  0  0  0
 74 78  2  0  0  0
 74 79  1  0  0  0
 74154  1  0  0  0
 75 80  2  0  0  0
 75 81  1  0  0  0
 75155  1  0  0  0
 76 77  1  0  0  0
 76 84  1  0  0  0
 77 79  2  0  0  0
 77 85  1  0  0  0
 78 87  1  0  0  0
 79 86  1  0  0  0
 80 88  1  0  0  0
 81 82  2  0  0  0
 81 89  1  0  0  0
 82 91  1  0  0  0
 83 84  1  0  0  0
 83 88  1  0  0  0
 83 90  2  0  0  0
 84156  1  0  0  0
 84157  1  0  0  0
 85 88  1  0  0  0
 85158  1  0  0  0
 85159  1  0  0  0
 86160  1  0  0  0
 86161  1  0  0  0
 86162  1  0  0  0
 87163  1  0  0  0
 87164  1  0  0  0
 89165  1  0  0  0
M  ISO  4   1 100  68 101  87 101  89 100
M  END
> <chiral flag>
0

> <version>
0

> <s_m_source_file>
/data/baiqing/PycharmProjects/Reinvent-master-3.2/result/LINK_invent/BTK/process_docking_weight1_custom_product_contain_oxygen_bond_distance_aromatic_linkinvent_7_9_3/rearranged_h_0061.sdf

> <i_m_source_file_index>
42

> <r_mmod_Potential_Energy-OPLS-2005>
35.478630065918

> <r_mmod_Stretch_Energy-OPLS-2005>
37.2404479980469

> <r_mmod_Bend_Energy-OPLS-2005>
93.3330078125

> <r_mmod_Torsional_Energy-OPLS-2005>
291.487335205078

> <r_mmod_Improper_Torsional_Energy-OPLS-2005>
3.61969566345215

> <r_mmod_Van_der_Waal_Energy-OPLS-2005>
193.549468994141

> <r_mmod_Electrostatic_Energy-OPLS-2005>
-382.103942871094

> <r_mmod_Solvation_Energy-OPLS-2005>
-211.260818481445

> <b_mmod_Minimization_Converged-OPLS-2005>
0

> <r_mmod_RMS_Derivative-OPLS-2005>
3.04057431221008

$$$$
43
                    3D
 Structure written by MMmdl.
158166  0  0  1  0            999 V2000
  -30.6801  -14.5050   20.4616 C   0  0  0  0  0  0
  -30.4130  -12.2895   19.4303 C   0  0  0  0  0  0
  -29.4934  -12.4674   18.2054 C   0  0  0  0  0  0
  -28.0110  -12.3523   18.6167 C   0  0  0  0  0  0
  -27.6543  -13.2083   19.8635 C   0  0  2  0  0  0
  -28.7023  -13.0370   20.9865 C   0  0  0  0  0  0
  -25.2606  -13.8177   20.5723 C   0  0  0  0  0  0
  -24.1836  -13.0461   20.9193 C   0  0  0  0  0  0
  -24.6372  -11.6923   20.8732 C   0  0  0  0  0  0
  -23.9026  -10.4305   21.0396 C   0  0  0  0  0  0
  -24.3578   -9.4228   21.9179 C   0  0  0  0  0  0
  -23.6277   -8.2251   22.0752 C   0  0  0  0  0  0
  -22.4262   -8.0279   21.3541 C   0  0  0  0  0  0
  -21.9877   -9.0249   20.4642 C   0  0  0  0  0  0
  -22.7192  -10.2146   20.3058 C   0  0  0  0  0  0
  -21.6861   -6.0727   22.5283 C   0  0  0  0  0  0
  -21.4001   -6.5635   23.8208 C   0  0  0  0  0  0
  -21.3665   -5.6796   24.9175 C   0  0  0  0  0  0
  -21.6048   -4.3057   24.7228 C   0  0  0  0  0  0
  -21.8811   -3.8146   23.4345 C   0  0  0  0  0  0
  -21.9187   -4.6956   22.3400 C   0  0  0  0  0  0
  -22.7865  -13.5270   21.1862 C   0  0  0  0  0  0
  -22.1670   -4.2143   21.0980 F   0  0  0  0  0  0
  -21.5633   -3.4546   25.7740 F   0  0  0  0  0  0
  -30.0231  -13.3174   20.4064 N   0  0  0  0  0  0
  -26.3006  -12.9324   20.3356 N   0  0  0  0  0  0
  -25.9301  -11.6487   20.5774 N   0  0  0  0  0  0
  -22.0489  -12.8272   22.0415 N   0  0  0  0  0  0
  -25.4372  -15.1885   20.4169 N   0  0  0  0  0  0
  -31.8777  -14.6236   20.1992 O   0  0  0  0  0  0
  -21.6636   -6.8874   21.4247 O   0  0  0  0  0  0
  -22.3547  -14.5565   20.6710 O   0  0  0  0  0  0
  -24.6171  -31.8663   23.2113 C   0  0  0  0  0  0
  -25.9054  -32.4824   23.8402 C   0  0  1  0  0  0
  -27.2341  -27.4029   20.1026 C   0  0  0  0  0  0
  -25.5894  -33.8620   24.2324 N   0  0  0  0  0  0
  -23.4070  -30.4901   21.5494 C   0  0  2  0  0  0
  -24.8578  -28.9585   20.1109 C   0  0  0  0  0  0
  -22.7390  -29.4671   22.4956 C   0  0  0  0  0  0
  -18.0310  -28.1323   22.8380 C   0  0  0  0  0  0
  -24.1467  -36.7313   23.2640 C   0  0  0  0  0  0
  -25.9372  -30.8250   21.3702 C   0  0  0  0  0  0
  -26.0155  -29.4539   20.7238 C   0  0  0  0  0  0
  -27.2040  -28.6796   20.7241 C   0  0  0  0  0  0
  -26.0574  -26.9446   19.4683 C   0  0  0  0  0  0
  -24.8773  -27.7086   19.4733 C   0  0  0  0  0  0
  -23.6215  -29.8265   20.1612 C   0  0  0  0  0  0
  -25.4090  -36.3121   24.0349 C   0  0  1  0  0  0
  -20.5867  -28.3699   23.1315 C   0  0  2  0  0  0
  -20.6841  -26.9392   22.5575 C   0  0  0  0  0  0
  -19.5937  -26.6250   21.5264 C   0  0  0  0  0  0
  -18.2016  -26.7885   22.1490 C   0  0  0  0  0  0
  -19.1535  -28.8836   23.2798 C   0  0  0  0  0  0
  -18.9409  -30.1469   23.8725 C   0  0  0  0  0  0
  -17.6364  -30.6532   24.0363 C   0  0  0  0  0  0
  -25.9025  -34.9496   23.5137 C   0  0  0  0  0  0
  -16.5297  -29.8935   23.6227 C   0  0  0  0  0  0
  -16.7283  -28.6354   23.0268 C   0  0  0  0  0  0
  -26.4494  -31.6598   25.0717 C   0  0  0  0  0  0
  -25.3751  -31.3709   26.1466 C   0  0  0  0  0  0
  -27.0323  -30.3032   24.6091 C   0  0  0  0  0  0
  -27.6047  -32.4323   25.7503 C   0  0  0  0  0  0
  -27.5571  -37.1817   24.8480 C   0  0  0  0  0  0
  -21.4130  -29.3067   22.3693 N   0  0  0  0  0  0
  -26.4275  -37.3813   23.9431 N   0  0  0  0  0  0
  -24.6717  -31.0713   22.1041 N   0  0  0  0  0  0
  -23.4126  -28.8186   23.2997 O   0  0  0  0  0  0
  -28.3872  -26.6338   20.1608 O   0  0  0  0  0  0
  -26.5595  -34.8956   22.4693 O   0  0  0  0  0  0
  -23.5356  -32.1422   23.7501 O   0  0  0  0  0  0
  -28.8775  -17.2474   23.4372 C   0  0  0  0  0  0
  -28.2875  -18.4261   22.9508 C   0  0  0  0  0  0
  -29.4257  -16.3110   22.5475 C   0  0  0  0  0  0
  -28.2549  -18.7154   21.5712 C   0  0  0  0  0  0
  -28.8253  -17.7692   20.6644 C   0  0  0  0  0  0
  -29.3977  -16.5513   21.1559 C   0  0  0  0  0  0
  -27.3662  -19.8408   21.1706 C   0  0  0  0  0  0
  -27.5924  -21.1095   20.7450 C   0  0  0  0  0  0
  -28.0788  -24.1375   19.6662 C   0  0  0  0  0  0
  -28.8128  -18.0544   19.1630 C   0  0  0  0  0  0
  -28.9182  -21.8304   20.4970 C   0  0  0  0  0  0
  -28.6011  -25.5460   19.2274 C   0  0  0  0  0  0
  -29.8877  -15.5748   20.2354 N   0  0  0  0  0  0
  -28.9053  -23.3169   20.3591 N   0  0  0  0  0  0
  -26.9709  -23.7616   19.2819 O   0  0  0  0  0  0
  -31.4626  -12.3636   19.1380 H   0  0  0  0  0  0
  -30.2895  -11.2943   19.8621 H   0  0  0  0  0  0
  -29.7228  -11.7197   17.4446 H   0  0  0  0  0  0
  -29.6770  -13.4377   17.7409 H   0  0  0  0  0  0
  -27.8087  -11.3011   18.8219 H   0  0  0  0  0  0
  -27.3652  -12.6277   17.7809 H   0  0  0  0  0  0
  -27.6748  -14.2481   19.5416 H   0  0  0  0  0  0
  -28.6825  -12.0211   21.3853 H   0  0  0  0  0  0
  -28.4831  -13.6997   21.8242 H   0  0  0  0  0  0
  -25.2723   -9.5730   22.4747 H   0  0  0  0  0  0
  -24.0003   -7.4639   22.7461 H   0  0  0  0  0  0
  -21.0807   -8.8747   19.8939 H   0  0  0  0  0  0
  -22.3625  -10.9676   19.6167 H   0  0  0  0  0  0
  -21.1986   -7.6143   23.9713 H   0  0  0  0  0  0
  -21.1509   -6.0526   25.9081 H   0  0  0  0  0  0
  -22.0577   -2.7611   23.2850 H   0  0  0  0  0  0
  -22.4091  -11.9963   22.4857 H   0  0  0  0  0  0
  -21.1101  -13.1312   22.2572 H   0  0  0  0  0  0
  -24.6856  -15.8555   20.5516 H   0  0  0  0  0  0
  -26.3189  -15.6239   20.1761 H   0  0  0  0  0  0
  -26.7106  -32.5582   23.1166 H   0  0  0  0  0  0
  -25.0061  -33.9786   25.0484 H   0  0  0  0  0  0
  -22.6931  -31.3063   21.4098 H   0  0  0  0  0  0
  -23.3739  -35.9634   23.3321 H   0  0  0  0  0  0
  -24.3557  -36.8908   22.2045 H   0  0  0  0  0  0
  -23.7203  -37.6516   23.6633 H   0  0  0  0  0  0
  -26.0371  -31.5816   20.5919 H   0  0  0  0  0  0
  -26.8293  -30.8896   21.9806 H   0  0  0  0  0  0
  -28.0980  -29.0611   21.2038 H   0  0  0  0  0  0
  -26.0160  -25.9890   18.9737 H   0  0  0  0  0  0
  -23.9937  -27.3292   18.9774 H   0  0  0  0  0  0
  -23.7271  -30.5990   19.3997 H   0  0  0  0  0  0
  -22.7450  -29.2443   19.8697 H   0  0  0  0  0  0
  -25.1259  -36.1995   25.0838 H   0  0  0  0  0  0
  -20.9908  -28.3378   24.1484 H   0  0  0  0  0  0
  -20.5678  -26.2329   23.3802 H   0  0  0  0  0  0
  -21.6771  -26.7402   22.1509 H   0  0  0  0  0  0
  -19.7196  -25.6093   21.1481 H   0  0  0  0  0  0
  -19.7032  -27.2861   20.6662 H   0  0  0  0  0  0
  -17.4346  -26.6680   21.3803 H   0  0  0  0  0  0
  -18.0174  -26.0021   22.8829 H   0  0  0  0  0  0
  -19.7879  -30.7389   24.1949 H   0  0  0  0  0  0
  -17.4816  -31.6233   24.4870 H   0  0  0  0  0  0
  -15.5260  -30.2752   23.7543 H   0  0  0  0  0  0
  -15.8702  -28.0564   22.7027 H   0  0  0  0  0  0
  -24.5923  -30.7050   25.7841 H   0  0  0  0  0  0
  -24.8957  -32.2861   26.4918 H   0  0  0  0  0  0
  -25.8123  -30.8895   27.0221 H   0  0  0  0  0  0
  -26.2879  -29.6805   24.1108 H   0  0  0  0  0  0
  -27.4043  -29.7257   25.4572 H   0  0  0  0  0  0
  -27.8738  -30.4349   23.9280 H   0  0  0  0  0  0
  -27.2620  -33.3601   26.2097 H   0  0  0  0  0  0
  -28.3861  -32.6909   25.0348 H   0  0  0  0  0  0
  -28.0685  -31.8424   26.5422 H   0  0  0  0  0  0
  -28.2615  -38.0094   24.7515 H   0  0  0  0  0  0
  -28.1032  -36.2625   24.6309 H   0  0  0  0  0  0
  -27.2289  -37.1488   25.8887 H   0  0  0  0  0  0
  -20.9260  -29.8810   21.6926 H   0  0  0  0  0  0
  -26.0168  -38.2890   24.1459 H   0  0  0  0  0  0
  -28.8743  -17.0424   24.5008 H   0  0  0  0  0  0
  -27.8169  -19.1003   23.6531 H   0  0  0  0  0  0
  -29.8511  -15.4029   22.9526 H   0  0  0  0  0  0
  -26.3230  -19.5739   21.2442 H   0  0  0  0  0  0
  -26.7094  -21.6912   20.5355 H   0  0  0  0  0  0
  -28.0014  -18.7177   18.8690 H   0  0  0  0  0  0
  -28.7084  -17.1466   18.5708 H   0  0  0  0  0  0
  -29.7485  -18.5369   18.8765 H   0  0  0  0  0  0
  -29.3578  -21.4046   19.5942 H   0  0  0  0  0  0
  -29.5877  -21.5720   21.3193 H   0  0  0  0  0  0
  -28.1992  -25.8083   18.2460 H   0  0  0  0  0  0
  -29.6769  -25.4607   19.0702 H   0  0  0  0  0  0
  -30.0626  -15.9635   19.3221 H   0  0  0  0  0  0
  -29.7691  -23.7615   20.6442 H   0  0  0  0  0  0
  1 25  1  0  0  0
  1 30  2  0  0  0
  1 83  1  0  0  0
  2  3  1  0  0  0
  2 25  1  0  0  0
  2 86  1  0  0  0
  2 87  1  0  0  0
  3  4  1  0  0  0
  3 88  1  0  0  0
  3 89  1  0  0  0
  4  5  1  0  0  0
  4 90  1  0  0  0
  4 91  1  0  0  0
  5  6  1  0  0  0
  5 26  1  0  0  0
  5 92  1  0  0  0
  6 25  1  0  0  0
  6 93  1  0  0  0
  6 94  1  0  0  0
  7  8  2  0  0  0
  7 26  1  0  0  0
  7 29  1  0  0  0
  8  9  1  0  0  0
  8 22  1  0  0  0
  9 10  1  0  0  0
  9 27  2  0  0  0
 10 11  2  0  0  0
 10 15  1  0  0  0
 11 12  1  0  0  0
 11 95  1  0  0  0
 12 13  2  0  0  0
 12 96  1  0  0  0
 13 14  1  0  0  0
 13 31  1  0  0  0
 14 15  2  0  0  0
 14 97  1  0  0  0
 15 98  1  0  0  0
 16 17  2  0  0  0
 16 21  1  0  0  0
 16 31  1  0  0  0
 17 18  1  0  0  0
 17 99  1  0  0  0
 18 19  2  0  0  0
 18100  1  0  0  0
 19 20  1  0  0  0
 19 24  1  0  0  0
 20 21  2  0  0  0
 20101  1  0  0  0
 21 23  1  0  0  0
 22 28  1  0  0  0
 22 32  2  0  0  0
 26 27  1  0  0  0
 28102  1  0  0  0
 28103  1  0  0  0
 29104  1  0  0  0
 29105  1  0  0  0
 33 34  1  0  0  0
 33 66  1  0  0  0
 33 70  2  0  0  0
 34 36  1  0  0  0
 34 59  1  0  0  0
 34106  1  0  0  0
 35 44  2  0  0  0
 35 45  1  0  0  0
 35 68  1  0  0  0
 36 56  1  0  0  0
 36107  1  0  0  0
 37 39  1  0  0  0
 37 47  1  0  0  0
 37 66  1  0  0  0
 37108  1  0  0  0
 38 43  2  0  0  0
 38 46  1  0  0  0
 38 47  1  0  0  0
 39 64  1  0  0  0
 39 67  2  0  0  0
 40 52  1  0  0  0
 40 53  2  0  0  0
 40 58  1  0  0  0
 41109  1  0  0  0
 41110  1  0  0  0
 41111  1  0  0  0
 41 48  1  0  0  0
 42 43  1  0  0  0
 42 66  1  0  0  0
 42112  1  0  0  0
 42113  1  0  0  0
 43 44  1  0  0  0
 44114  1  0  0  0
 45 46  2  0  0  0
 45115  1  0  0  0
 46116  1  0  0  0
 47117  1  0  0  0
 47118  1  0  0  0
 48 56  1  0  0  0
 48 65  1  0  0  0
 48119  1  0  0  0
 49 50  1  0  0  0
 49 53  1  0  0  0
 49 64  1  0  0  0
 49120  1  0  0  0
 50 51  1  0  0  0
 50121  1  0  0  0
 50122  1  0  0  0
 51 52  1  0  0  0
 51123  1  0  0  0
 51124  1  0  0  0
 52125  1  0  0  0
 52126  1  0  0  0
 53 54  1  0  0  0
 54 55  2  0  0  0
 54127  1  0  0  0
 55 57  1  0  0  0
 55128  1  0  0  0
 56 69  2  0  0  0
 57 58  2  0  0  0
 57129  1  0  0  0
 58130  1  0  0  0
 59 60  1  0  0  0
 59 61  1  0  0  0
 59 62  1  0  0  0
 60131  1  0  0  0
 60132  1  0  0  0
 60133  1  0  0  0
 61134  1  0  0  0
 61135  1  0  0  0
 61136  1  0  0  0
 62137  1  0  0  0
 62138  1  0  0  0
 62139  1  0  0  0
 63 65  1  0  0  0
 63140  1  0  0  0
 63141  1  0  0  0
 63142  1  0  0  0
 64143  1  0  0  0
 65144  1  0  0  0
 68 82  1  0  0  0
 71 72  2  0  0  0
 71 73  1  0  0  0
 71145  1  0  0  0
 72 74  1  0  0  0
 72146  1  0  0  0
 73 76  2  0  0  0
 73147  1  0  0  0
 74 75  2  0  0  0
 74 77  1  0  0  0
 75 76  1  0  0  0
 75 80  1  0  0  0
 76 83  1  0  0  0
 77 78  2  0  0  0
 77148  1  0  0  0
 78 81  1  0  0  0
 78149  1  0  0  0
 79 82  1  0  0  0
 79 84  1  0  0  0
 79 85  2  0  0  0
 80150  1  0  0  0
 80151  1  0  0  0
 80152  1  0  0  0
 81 84  1  0  0  0
 81153  1  0  0  0
 81154  1  0  0  0
 82155  1  0  0  0
 82156  1  0  0  0
 83157  1  0  0  0
 84158  1  0  0  0
M  ISO  4   1 100  68 101  82 101  83 100
M  END
> <chiral flag>
0

> <version>
0

> <s_m_source_file>
/data/baiqing/PycharmProjects/Reinvent-master-3.2/result/LINK_invent/BTK/process_docking_weight1_custom_product_contain_oxygen_bond_distance_aromatic_linkinvent_7_9_3/rearranged_h_0061.sdf

> <i_m_source_file_index>
43

> <r_mmod_Potential_Energy-OPLS-2005>
43.3096733093262

> <r_mmod_Stretch_Energy-OPLS-2005>
47.0907592773438

> <r_mmod_Bend_Energy-OPLS-2005>
142.137817382812

> <r_mmod_Torsional_Energy-OPLS-2005>
303.62841796875

> <r_mmod_Improper_Torsional_Energy-OPLS-2005>
25.0537300109863

> <r_mmod_Van_der_Waal_Energy-OPLS-2005>
145.502365112305

> <r_mmod_Electrostatic_Energy-OPLS-2005>
-421.988311767578

> <r_mmod_Solvation_Energy-OPLS-2005>
-223.855728149414

> <b_mmod_Minimization_Converged-OPLS-2005>
0

> <r_mmod_RMS_Derivative-OPLS-2005>
5.55924797058105

$$$$
44
                    3D
 Structure written by MMmdl.
160169  0  0  1  0            999 V2000
  -30.6587  -14.5723   20.5305 C   0  0  0  0  0  0
  -30.4287  -12.3659   19.4388 C   0  0  0  0  0  0
  -29.4918  -12.5070   18.2189 C   0  0  0  0  0  0
  -28.0145  -12.3614   18.6308 C   0  0  0  0  0  0
  -27.6528  -13.2186   19.8732 C   0  0  2  0  0  0
  -28.6991  -13.0473   20.9976 C   0  0  0  0  0  0
  -25.2475  -13.8136   20.5631 C   0  0  0  0  0  0
  -24.1784  -13.0412   20.9199 C   0  0  0  0  0  0
  -24.6384  -11.6897   20.8770 C   0  0  0  0  0  0
  -23.9066  -10.4290   21.0407 C   0  0  0  0  0  0
  -24.3615   -9.4211   21.9183 C   0  0  0  0  0  0
  -23.6296   -8.2237   22.0747 C   0  0  0  0  0  0
  -22.4280   -8.0276   21.3532 C   0  0  0  0  0  0
  -21.9920   -9.0255   20.4638 C   0  0  0  0  0  0
  -22.7238  -10.2144   20.3048 C   0  0  0  0  0  0
  -21.6854   -6.0734   22.5289 C   0  0  0  0  0  0
  -21.4012   -6.5631   23.8216 C   0  0  0  0  0  0
  -21.3662   -5.6786   24.9170 C   0  0  0  0  0  0
  -21.6047   -4.3047   24.7229 C   0  0  0  0  0  0
  -21.8821   -3.8145   23.4344 C   0  0  0  0  0  0
  -21.9202   -4.6967   22.3402 C   0  0  0  0  0  0
  -22.7816  -13.5208   21.1871 C   0  0  0  0  0  0
  -22.1679   -4.2161   21.0979 F   0  0  0  0  0  0
  -21.5649   -3.4531   25.7737 F   0  0  0  0  0  0
  -30.0188  -13.3708   20.4350 N   0  0  0  0  0  0
  -26.2974  -12.9363   20.3379 N   0  0  0  0  0  0
  -25.9320  -11.6523   20.5824 N   0  0  0  0  0  0
  -22.0465  -12.8210   22.0441 N   0  0  0  0  0  0
  -25.3995  -15.1816   20.3852 N   0  0  0  0  0  0
  -31.8174  -14.7109   20.1277 O   0  0  0  0  0  0
  -21.6629   -6.8882   21.4244 O   0  0  0  0  0  0
  -22.3493  -14.5517   20.6732 O   0  0  0  0  0  0
  -24.6194  -31.8669   23.2070 C   0  0  0  0  0  0
  -25.9071  -32.4823   23.8380 C   0  0  1  0  0  0
  -27.2333  -27.3827   20.1056 C   0  0  0  0  0  0
  -25.5924  -33.8609   24.2322 N   0  0  0  0  0  0
  -23.4101  -30.4895   21.5461 C   0  0  2  0  0  0
  -24.8558  -28.9475   20.1144 C   0  0  0  0  0  0
  -22.7435  -29.4664   22.4964 C   0  0  0  0  0  0
  -18.0279  -28.1371   22.8475 C   0  0  0  0  0  0
  -24.1491  -36.7304   23.2635 C   0  0  0  0  0  0
  -25.9438  -30.8152   21.3679 C   0  0  0  0  0  0
  -26.0171  -29.4443   20.7168 C   0  0  0  0  0  0
  -27.2042  -28.6693   20.7111 C   0  0  0  0  0  0
  -26.0423  -26.9063   19.5092 C   0  0  0  0  0  0
  -24.8661  -27.6802   19.5073 C   0  0  0  0  0  0
  -23.6242  -29.8232   20.1603 C   0  0  0  0  0  0
  -25.4109  -36.3092   24.0331 C   0  0  1  0  0  0
  -20.5879  -28.3638   23.1251 C   0  0  2  0  0  0
  -20.6796  -26.9404   22.5304 C   0  0  0  0  0  0
  -19.5712  -26.6376   21.5174 C   0  0  0  0  0  0
  -18.1943  -26.7899   22.1654 C   0  0  0  0  0  0
  -19.1540  -28.8826   23.2865 C   0  0  0  0  0  0
  -18.9456  -30.1441   23.8871 C   0  0  0  0  0  0
  -17.6436  -30.6537   24.0572 C   0  0  0  0  0  0
  -25.9048  -34.9465   23.5112 C   0  0  0  0  0  0
  -16.5330  -29.9053   23.6319 C   0  0  0  0  0  0
  -16.7258  -28.6489   23.0308 C   0  0  0  0  0  0
  -26.4484  -31.6593   25.0710 C   0  0  0  0  0  0
  -25.3737  -31.3702   26.1441 C   0  0  0  0  0  0
  -27.0317  -30.3031   24.6114 C   0  0  0  0  0  0
  -27.6060  -32.4309   25.7487 C   0  0  0  0  0  0
  -27.5573  -37.1809   24.8460 C   0  0  0  0  0  0
  -21.4166  -29.3021   22.3683 N   0  0  0  0  0  0
  -26.4292  -37.3780   23.9405 N   0  0  0  0  0  0
  -24.6768  -31.0735   22.0991 N   0  0  0  0  0  0
  -23.4171  -28.8254   23.3065 O   0  0  0  0  0  0
  -28.4111  -26.6441   20.1354 O   0  0  0  0  0  0
  -26.5591  -34.8913   22.4677 O   0  0  0  0  0  0
  -23.5376  -32.1465   23.7421 O   0  0  0  0  0  0
  -31.5845  -19.0018   20.5923 C   0  0  0  0  0  0
  -30.4962  -19.8924   20.6440 C   0  0  0  0  0  0
  -31.3879  -17.6123   20.6816 C   0  0  0  0  0  0
  -27.8418  -23.9711   21.6058 C   0  0  0  0  0  0
  -29.1812  -19.4032   20.7747 C   0  0  0  0  0  0
  -28.3238  -24.0841   20.2682 C   0  0  0  0  0  0
  -28.9939  -17.9820   20.9015 C   0  0  0  0  0  0
  -30.0949  -17.0600   20.8286 C   0  0  0  0  0  0
  -27.7429  -22.6425   21.9178 C   0  0  0  0  0  0
  -28.5442  -22.7769   19.8672 C   0  0  0  0  0  0
  -27.5863  -17.4505   21.1247 C   0  0  0  0  0  0
  -27.9677  -20.3788   20.7297 C   0  0  0  0  0  0
  -28.5417  -25.3700   19.4435 C   0  0  0  0  0  0
  -28.1453  -21.8567   20.8436 N   0  0  0  0  0  0
  -29.8837  -15.6228   20.9260 N   0  0  0  0  0  0
  -27.2659  -22.0802   23.0638 O   0  0  0  0  0  0
  -29.0184  -22.3425   18.6675 O   0  0  0  0  0  0
  -31.4662  -12.4978   19.1235 H   0  0  0  0  0  0
  -30.3664  -11.3660   19.8707 H   0  0  0  0  0  0
  -29.7388  -11.7601   17.4640 H   0  0  0  0  0  0
  -29.6485  -13.4812   17.7495 H   0  0  0  0  0  0
  -27.8264  -11.3062   18.8350 H   0  0  0  0  0  0
  -27.3639  -12.6272   17.7969 H   0  0  0  0  0  0
  -27.6795  -14.2583   19.5473 H   0  0  0  0  0  0
  -28.6955  -12.0204   21.3686 H   0  0  0  0  0  0
  -28.4509  -13.6767   21.8545 H   0  0  0  0  0  0
  -25.2739   -9.5711   22.4781 H   0  0  0  0  0  0
  -23.9993   -7.4632   22.7479 H   0  0  0  0  0  0
  -21.0844   -8.8756   19.8968 H   0  0  0  0  0  0
  -22.3656  -10.9678   19.6179 H   0  0  0  0  0  0
  -21.1992   -7.6142   23.9700 H   0  0  0  0  0  0
  -21.1473   -6.0527   25.9067 H   0  0  0  0  0  0
  -22.0586   -2.7606   23.2844 H   0  0  0  0  0  0
  -22.4037  -11.9854   22.4837 H   0  0  0  0  0  0
  -21.1088  -13.1250   22.2605 H   0  0  0  0  0  0
  -24.6113  -15.8137   20.4726 H   0  0  0  0  0  0
  -26.2058  -15.6132   19.9562 H   0  0  0  0  0  0
  -26.7133  -32.5534   23.1134 H   0  0  0  0  0  0
  -25.0078  -33.9767   25.0459 H   0  0  0  0  0  0
  -22.7003  -31.3069   21.4005 H   0  0  0  0  0  0
  -23.3753  -35.9641   23.3310 H   0  0  0  0  0  0
  -24.3567  -36.8922   22.2047 H   0  0  0  0  0  0
  -23.7258  -37.6513   23.6653 H   0  0  0  0  0  0
  -26.0577  -31.5814   20.6007 H   0  0  0  0  0  0
  -26.8299  -30.8742   21.9871 H   0  0  0  0  0  0
  -28.0993  -29.0496   21.1814 H   0  0  0  0  0  0
  -25.9856  -25.9284   19.0537 H   0  0  0  0  0  0
  -23.9691  -27.2900   19.0460 H   0  0  0  0  0  0
  -23.7465  -30.5990   19.4044 H   0  0  0  0  0  0
  -22.7504  -29.2471   19.8563 H   0  0  0  0  0  0
  -25.1292  -36.1951   25.0825 H   0  0  0  0  0  0
  -20.9981  -28.3187   24.1380 H   0  0  0  0  0  0
  -20.5821  -26.2223   23.3475 H   0  0  0  0  0  0
  -21.6647  -26.7477   22.1039 H   0  0  0  0  0  0
  -19.6799  -25.6280   21.1204 H   0  0  0  0  0  0
  -19.6570  -27.3199   20.6699 H   0  0  0  0  0  0
  -17.4189  -26.6510   21.4110 H   0  0  0  0  0  0
  -18.0450  -26.0111   22.9136 H   0  0  0  0  0  0
  -19.7931  -30.7275   24.2238 H   0  0  0  0  0  0
  -17.4979  -31.6236   24.5146 H   0  0  0  0  0  0
  -15.5328  -30.2977   23.7613 H   0  0  0  0  0  0
  -15.8661  -28.0794   22.6999 H   0  0  0  0  0  0
  -24.5924  -30.7045   25.7744 H   0  0  0  0  0  0
  -24.8901  -32.2860   26.4866 H   0  0  0  0  0  0
  -25.8068  -30.8867   27.0213 H   0  0  0  0  0  0
  -26.2858  -29.6801   24.1162 H   0  0  0  0  0  0
  -27.4071  -29.7260   25.4577 H   0  0  0  0  0  0
  -27.8708  -30.4333   23.9274 H   0  0  0  0  0  0
  -27.2684  -33.3612   26.2074 H   0  0  0  0  0  0
  -28.3872  -32.6880   25.0315 H   0  0  0  0  0  0
  -28.0738  -31.8433   26.5408 H   0  0  0  0  0  0
  -28.2593  -38.0099   24.7494 H   0  0  0  0  0  0
  -28.1074  -36.2636   24.6314 H   0  0  0  0  0  0
  -27.2282  -37.1477   25.8857 H   0  0  0  0  0  0
  -20.9340  -29.8751   21.6899 H   0  0  0  0  0  0
  -26.0185  -38.2861   24.1410 H   0  0  0  0  0  0
  -32.5878  -19.3890   20.4778 H   0  0  0  0  0  0
  -30.6819  -20.9546   20.5747 H   0  0  0  0  0  0
  -32.2674  -16.9885   20.6487 H   0  0  0  0  0  0
  -27.5540  -24.7882   22.2539 H   0  0  0  0  0  0
  -26.9654  -17.6345   20.2496 H   0  0  0  0  0  0
  -27.1238  -17.9361   21.9826 H   0  0  0  0  0  0
  -27.5593  -16.3853   21.3432 H   0  0  0  0  0  0
  -27.2667  -20.0843   21.5072 H   0  0  0  0  0  0
  -27.4489  -20.2017   19.7867 H   0  0  0  0  0  0
  -27.9477  -25.3274   18.5314 H   0  0  0  0  0  0
  -29.5714  -25.3269   19.0851 H   0  0  0  0  0  0
  -28.9530  -15.3468   21.1940 H   0  0  0  0  0  0
  -26.9555  -22.7851   23.6269 H   0  0  0  0  0  0
  -29.3614  -21.4622   18.7782 H   0  0  0  0  0  0
  1 25  1  0  0  0
  1 30  2  0  0  0
  1 85  1  0  0  0
  2  3  1  0  0  0
  2 25  1  0  0  0
  2 88  1  0  0  0
  2 89  1  0  0  0
  3  4  1  0  0  0
  3 90  1  0  0  0
  3 91  1  0  0  0
  4  5  1  0  0  0
  4 92  1  0  0  0
  4 93  1  0  0  0
  5  6  1  0  0  0
  5 26  1  0  0  0
  5 94  1  0  0  0
  6 25  1  0  0  0
  6 95  1  0  0  0
  6 96  1  0  0  0
  7  8  2  0  0  0
  7 26  1  0  0  0
  7 29  1  0  0  0
  8  9  1  0  0  0
  8 22  1  0  0  0
  9 10  1  0  0  0
  9 27  2  0  0  0
 10 11  2  0  0  0
 10 15  1  0  0  0
 11 12  1  0  0  0
 11 97  1  0  0  0
 12 13  2  0  0  0
 12 98  1  0  0  0
 13 14  1  0  0  0
 13 31  1  0  0  0
 14 15  2  0  0  0
 14 99  1  0  0  0
 15100  1  0  0  0
 16 17  2  0  0  0
 16 21  1  0  0  0
 16 31  1  0  0  0
 17 18  1  0  0  0
 17101  1  0  0  0
 18 19  2  0  0  0
 18102  1  0  0  0
 19 20  1  0  0  0
 19 24  1  0  0  0
 20 21  2  0  0  0
 20103  1  0  0  0
 21 23  1  0  0  0
 22 28  1  0  0  0
 22 32  2  0  0  0
 26 27  1  0  0  0
 28104  1  0  0  0
 28105  1  0  0  0
 29106  1  0  0  0
 29107  1  0  0  0
 33 34  1  0  0  0
 33 66  1  0  0  0
 33 70  2  0  0  0
 34 36  1  0  0  0
 34 59  1  0  0  0
 34108  1  0  0  0
 35 44  2  0  0  0
 35 45  1  0  0  0
 35 68  1  0  0  0
 36 56  1  0  0  0
 36109  1  0  0  0
 37 39  1  0  0  0
 37 47  1  0  0  0
 37 66  1  0  0  0
 37110  1  0  0  0
 38 43  2  0  0  0
 38 46  1  0  0  0
 38 47  1  0  0  0
 39 64  1  0  0  0
 39 67  2  0  0  0
 40 52  1  0  0  0
 40 53  2  0  0  0
 40 58  1  0  0  0
 41111  1  0  0  0
 41112  1  0  0  0
 41113  1  0  0  0
 41 48  1  0  0  0
 42 43  1  0  0  0
 42 66  1  0  0  0
 42114  1  0  0  0
 42115  1  0  0  0
 43 44  1  0  0  0
 44116  1  0  0  0
 45 46  2  0  0  0
 45117  1  0  0  0
 46118  1  0  0  0
 47119  1  0  0  0
 47120  1  0  0  0
 48 56  1  0  0  0
 48 65  1  0  0  0
 48121  1  0  0  0
 49 50  1  0  0  0
 49 53  1  0  0  0
 49 64  1  0  0  0
 49122  1  0  0  0
 50 51  1  0  0  0
 50123  1  0  0  0
 50124  1  0  0  0
 51 52  1  0  0  0
 51125  1  0  0  0
 51126  1  0  0  0
 52127  1  0  0  0
 52128  1  0  0  0
 53 54  1  0  0  0
 54 55  2  0  0  0
 54129  1  0  0  0
 55 57  1  0  0  0
 55130  1  0  0  0
 56 69  2  0  0  0
 57 58  2  0  0  0
 57131  1  0  0  0
 58132  1  0  0  0
 59 60  1  0  0  0
 59 61  1  0  0  0
 59 62  1  0  0  0
 60133  1  0  0  0
 60134  1  0  0  0
 60135  1  0  0  0
 61136  1  0  0  0
 61137  1  0  0  0
 61138  1  0  0  0
 62139  1  0  0  0
 62140  1  0  0  0
 62141  1  0  0  0
 63 65  1  0  0  0
 63142  1  0  0  0
 63143  1  0  0  0
 63144  1  0  0  0
 64145  1  0  0  0
 65146  1  0  0  0
 68 83  1  0  0  0
 71 72  2  0  0  0
 71 73  1  0  0  0
 71147  1  0  0  0
 72 75  1  0  0  0
 72148  1  0  0  0
 73 78  2  0  0  0
 73149  1  0  0  0
 74 76  1  0  0  0
 74 79  2  0  0  0
 74150  1  0  0  0
 75 77  2  0  0  0
 75 82  1  0  0  0
 76 80  2  0  0  0
 76 83  1  0  0  0
 77 78  1  0  0  0
 77 81  1  0  0  0
 78 85  1  0  0  0
 79 84  1  0  0  0
 79 86  1  0  0  0
 80 84  1  0  0  0
 80 87  1  0  0  0
 81151  1  0  0  0
 81152  1  0  0  0
 81153  1  0  0  0
 82 84  1  0  0  0
 82154  1  0  0  0
 82155  1  0  0  0
 83156  1  0  0  0
 83157  1  0  0  0
 85158  1  0  0  0
 86159  1  0  0  0
 87160  1  0  0  0
M  ISO  4   1 100  68 101  83 101  85 100
M  END
> <chiral flag>
0

> <version>
0

> <s_m_source_file>
/data/baiqing/PycharmProjects/Reinvent-master-3.2/result/LINK_invent/BTK/process_docking_weight1_custom_product_contain_oxygen_bond_distance_aromatic_linkinvent_7_9_3/rearranged_h_0061.sdf

> <i_m_source_file_index>
44

> <r_mmod_Potential_Energy-OPLS-2005>
-19.8923969268799

> <r_mmod_Stretch_Energy-OPLS-2005>
57.9071388244629

> <r_mmod_Bend_Energy-OPLS-2005>
131.501007080078

> <r_mmod_Torsional_Energy-OPLS-2005>
225.982681274414

> <r_mmod_Improper_Torsional_Energy-OPLS-2005>
6.12912702560425

> <r_mmod_Van_der_Waal_Energy-OPLS-2005>
150.370529174805

> <r_mmod_Electrostatic_Energy-OPLS-2005>
-391.270111083984

> <r_mmod_Solvation_Energy-OPLS-2005>
-226.812072753906

> <b_mmod_Minimization_Converged-OPLS-2005>
0

> <r_mmod_RMS_Derivative-OPLS-2005>
4.52646684646606

$$$$
45
                    3D
 Structure written by MMmdl.
163171  0  0  1  0            999 V2000
  -30.6734  -14.7219   20.4477 C   0  0  0  0  0  0
  -30.4193  -12.4422   19.4400 C   0  0  0  0  0  0
  -29.4904  -12.5081   18.2073 C   0  0  0  0  0  0
  -28.0143  -12.3552   18.6208 C   0  0  0  0  0  0
  -27.6417  -13.2386   19.8399 C   0  0  2  0  0  0
  -28.7060  -13.1713   20.9604 C   0  0  0  0  0  0
  -25.2538  -13.8243   20.5711 C   0  0  0  0  0  0
  -24.1817  -13.0460   20.9249 C   0  0  0  0  0  0
  -24.6380  -11.6946   20.8739 C   0  0  0  0  0  0
  -23.9026  -10.4334   21.0430 C   0  0  0  0  0  0
  -24.3587   -9.4245   21.9186 C   0  0  0  0  0  0
  -23.6306   -8.2263   22.0716 C   0  0  0  0  0  0
  -22.4288   -8.0296   21.3537 C   0  0  0  0  0  0
  -21.9914   -9.0256   20.4621 C   0  0  0  0  0  0
  -22.7194  -10.2176   20.3061 C   0  0  0  0  0  0
  -21.6852   -6.0749   22.5266 C   0  0  0  0  0  0
  -21.4013   -6.5619   23.8206 C   0  0  0  0  0  0
  -21.3685   -5.6753   24.9156 C   0  0  0  0  0  0
  -21.6077   -4.3022   24.7196 C   0  0  0  0  0  0
  -21.8813   -3.8138   23.4301 C   0  0  0  0  0  0
  -21.9195   -4.6983   22.3379 C   0  0  0  0  0  0
  -22.7826  -13.5302   21.1870 C   0  0  0  0  0  0
  -22.1668   -4.2160   21.0967 F   0  0  0  0  0  0
  -21.5664   -3.4499   25.7720 F   0  0  0  0  0  0
  -30.0026  -13.5206   20.3673 N   0  0  0  0  0  0
  -26.2964  -12.9427   20.3290 N   0  0  0  0  0  0
  -25.9323  -11.6565   20.5782 N   0  0  0  0  0  0
  -22.0410  -12.8365   22.0437 N   0  0  0  0  0  0
  -25.4198  -15.1943   20.4118 N   0  0  0  0  0  0
  -31.8734  -14.7555   20.1712 O   0  0  0  0  0  0
  -21.6638   -6.8904   21.4240 O   0  0  0  0  0  0
  -22.3569  -14.5602   20.6669 O   0  0  0  0  0  0
  -24.6304  -31.8487   23.1983 C   0  0  0  0  0  0
  -25.9151  -32.4702   23.8242 C   0  0  1  0  0  0
  -27.2175  -27.2279   20.1250 C   0  0  0  0  0  0
  -25.5983  -33.8504   24.2186 N   0  0  0  0  0  0
  -23.4266  -30.4723   21.5378 C   0  0  2  0  0  0
  -24.8794  -28.9139   20.1029 C   0  0  0  0  0  0
  -22.7447  -29.4571   22.4841 C   0  0  0  0  0  0
  -18.0253  -28.1408   22.8457 C   0  0  0  0  0  0
  -24.1542  -36.7280   23.2602 C   0  0  0  0  0  0
  -25.9717  -30.7511   21.3802 C   0  0  0  0  0  0
  -26.0450  -29.3701   20.7253 C   0  0  0  0  0  0
  -27.2090  -28.5296   20.7387 C   0  0  0  0  0  0
  -26.0354  -26.8680   19.4409 C   0  0  0  0  0  0
  -24.8792  -27.6729   19.4501 C   0  0  0  0  0  0
  -23.6532  -29.8074   20.1548 C   0  0  0  0  0  0
  -25.4152  -36.3006   24.0273 C   0  0  1  0  0  0
  -20.5889  -28.3730   23.1266 C   0  0  2  0  0  0
  -20.6782  -26.9444   22.5437 C   0  0  0  0  0  0
  -19.5819  -26.6458   21.5171 C   0  0  0  0  0  0
  -18.1978  -26.7924   22.1597 C   0  0  0  0  0  0
  -19.1520  -28.8859   23.2884 C   0  0  0  0  0  0
  -18.9447  -30.1422   23.8938 C   0  0  0  0  0  0
  -17.6454  -30.6557   24.0615 C   0  0  0  0  0  0
  -25.9063  -34.9401   23.5002 C   0  0  0  0  0  0
  -16.5343  -29.9094   23.6382 C   0  0  0  0  0  0
  -16.7232  -28.6558   23.0297 C   0  0  0  0  0  0
  -26.4545  -31.6510   25.0596 C   0  0  0  0  0  0
  -25.3810  -31.3611   26.1342 C   0  0  0  0  0  0
  -27.0365  -30.2931   24.6056 C   0  0  0  0  0  0
  -27.6114  -32.4223   25.7365 C   0  0  0  0  0  0
  -27.5602  -37.1788   24.8437 C   0  0  0  0  0  0
  -21.4120  -29.3108   22.3620 N   0  0  0  0  0  0
  -26.4321  -37.3729   23.9360 N   0  0  0  0  0  0
  -24.6948  -31.0452   22.0953 N   0  0  0  0  0  0
  -23.4153  -28.8092   23.2929 O   0  0  0  0  0  0
  -28.3213  -26.3394   20.2239 O   0  0  0  0  0  0
  -26.5626  -34.8901   22.4565 O   0  0  0  0  0  0
  -23.5515  -32.1248   23.7393 O   0  0  0  0  0  0
  -32.1235  -19.0607   20.8187 C   0  0  0  0  0  0
  -31.1899  -20.1089   20.6705 C   0  0  0  0  0  0
  -31.7225  -17.7045   20.7826 C   0  0  0  0  0  0
  -29.8131  -19.8506   20.4553 C   0  0  0  0  0  0
  -30.3628  -17.3340   20.6029 C   0  0  0  0  0  0
  -29.4243  -18.4362   20.4435 C   0  0  0  0  0  0
  -28.8366  -21.0448   20.1562 C   0  0  0  0  0  0
  -26.3856  -24.7047   22.2733 C   0  0  0  0  0  0
  -25.7448  -23.1523   20.4166 C   0  0  0  0  0  0
  -26.7644  -22.2602   22.5188 C   0  0  0  0  0  0
  -28.3359  -24.8697   19.8205 C   0  0  0  0  0  0
  -28.2480  -23.6290   20.8801 C   0  0  1  0  0  0
  -26.8096  -23.4265   21.4995 C   0  0  0  0  0  0
  -29.9470  -15.8961   20.6020 N   0  0  0  0  0  0
  -29.0658  -22.3205   20.6645 N   0  0  0  0  0  0
  -27.8416  -20.8124   19.4735 O   0  0  0  0  0  0
  -28.1190  -18.1126   20.2801 F   0  0  0  0  0  0
  -31.4565  -12.5305   19.1134 H   0  0  0  0  0  0
  -30.3408  -11.4699   19.9280 H   0  0  0  0  0  0
  -29.7599  -11.7284   17.4911 H   0  0  0  0  0  0
  -29.6215  -13.4584   17.6892 H   0  0  0  0  0  0
  -27.8443  -11.3086   18.8654 H   0  0  0  0  0  0
  -27.3664  -12.5804   17.7719 H   0  0  0  0  0  0
  -27.6383  -14.2658   19.4723 H   0  0  0  0  0  0
  -28.7458  -12.1728   21.3919 H   0  0  0  0  0  0
  -28.4565  -13.8537   21.7725 H   0  0  0  0  0  0
  -25.2700   -9.5768   22.4781 H   0  0  0  0  0  0
  -24.0013   -7.4676   22.7438 H   0  0  0  0  0  0
  -21.0817   -8.8786   19.8949 H   0  0  0  0  0  0
  -22.3594  -10.9737   19.6221 H   0  0  0  0  0  0
  -21.1967   -7.6109   23.9730 H   0  0  0  0  0  0
  -21.1533   -6.0456   25.9073 H   0  0  0  0  0  0
  -22.0568   -2.7595   23.2770 H   0  0  0  0  0  0
  -22.3862  -12.0007   22.4899 H   0  0  0  0  0  0
  -21.1051  -13.1522   22.2550 H   0  0  0  0  0  0
  -24.6519  -15.8496   20.5183 H   0  0  0  0  0  0
  -26.2659  -15.6313   20.0703 H   0  0  0  0  0  0
  -26.7161  -32.5371   23.0924 H   0  0  0  0  0  0
  -25.0104  -33.9585   25.0323 H   0  0  0  0  0  0
  -22.7215  -31.2928   21.3926 H   0  0  0  0  0  0
  -23.3787  -35.9641   23.3231 H   0  0  0  0  0  0
  -24.3600  -36.8957   22.2026 H   0  0  0  0  0  0
  -23.7415  -37.6492   23.6682 H   0  0  0  0  0  0
  -26.1081  -31.5076   20.6058 H   0  0  0  0  0  0
  -26.8520  -30.8026   22.0096 H   0  0  0  0  0  0
  -28.0986  -28.8521   21.2585 H   0  0  0  0  0  0
  -25.9627  -25.9296   18.9167 H   0  0  0  0  0  0
  -23.9804  -27.3316   18.9529 H   0  0  0  0  0  0
  -23.7983  -30.5823   19.4028 H   0  0  0  0  0  0
  -22.7701  -29.2430   19.8437 H   0  0  0  0  0  0
  -25.1413  -36.1732   25.0781 H   0  0  0  0  0  0
  -21.0063  -28.3315   24.1370 H   0  0  0  0  0  0
  -20.5751  -26.2360   23.3656 H   0  0  0  0  0  0
  -21.6625  -26.7553   22.1223 H   0  0  0  0  0  0
  -19.7145  -25.6417   21.1091 H   0  0  0  0  0  0
  -19.6768  -27.3470   20.6853 H   0  0  0  0  0  0
  -17.4199  -26.6623   21.4071 H   0  0  0  0  0  0
  -18.0413  -26.0089   22.9008 H   0  0  0  0  0  0
  -19.7937  -30.7167   24.2311 H   0  0  0  0  0  0
  -17.5020  -31.6242   24.5246 H   0  0  0  0  0  0
  -15.5336  -30.2997   23.7714 H   0  0  0  0  0  0
  -15.8605  -28.0976   22.6903 H   0  0  0  0  0  0
  -24.6053  -30.6890   25.7637 H   0  0  0  0  0  0
  -24.8959  -32.2764   26.4758 H   0  0  0  0  0  0
  -25.8212  -30.8787   27.0086 H   0  0  0  0  0  0
  -26.2889  -29.6617   24.1246 H   0  0  0  0  0  0
  -27.4181  -29.7278   25.4555 H   0  0  0  0  0  0
  -27.8720  -30.4136   23.9160 H   0  0  0  0  0  0
  -27.2747  -33.3534   26.1945 H   0  0  0  0  0  0
  -28.3955  -32.6734   25.0195 H   0  0  0  0  0  0
  -28.0726  -31.8296   26.5282 H   0  0  0  0  0  0
  -28.2570  -38.0125   24.7502 H   0  0  0  0  0  0
  -28.1157  -36.2654   24.6274 H   0  0  0  0  0  0
  -27.2262  -37.1442   25.8817 H   0  0  0  0  0  0
  -20.9277  -29.8725   21.6728 H   0  0  0  0  0  0
  -26.0150  -38.2744   24.1473 H   0  0  0  0  0  0
  -33.1741  -19.3041   20.9546 H   0  0  0  0  0  0
  -31.5639  -21.1271   20.7022 H   0  0  0  0  0  0
  -32.4989  -16.9637   20.9039 H   0  0  0  0  0  0
  -25.6508  -24.4900   23.0514 H   0  0  0  0  0  0
  -25.9138  -25.4465   21.6310 H   0  0  0  0  0  0
  -27.2283  -25.1957   22.7623 H   0  0  0  0  0  0
  -24.7632  -22.9535   20.8478 H   0  0  0  0  0  0
  -25.9811  -22.3125   19.7723 H   0  0  0  0  0  0
  -25.6327  -24.0079   19.7602 H   0  0  0  0  0  0
  -25.8107  -22.2112   23.0514 H   0  0  0  0  0  0
  -27.5509  -22.3746   23.2637 H   0  0  0  0  0  0
  -26.8872  -21.2899   22.0407 H   0  0  0  0  0  0
  -27.6651  -24.6743   18.9843 H   0  0  0  0  0  0
  -29.3158  -24.7484   19.3614 H   0  0  0  0  0  0
  -28.8298  -24.0230   21.7136 H   0  0  0  0  0  0
  -28.9507  -15.7481   20.6706 H   0  0  0  0  0  0
  -29.9462  -22.3521   21.1563 H   0  0  0  0  0  0
  1 25  1  0  0  0
  1 30  2  0  0  0
  1 84  1  0  0  0
  2  3  1  0  0  0
  2 25  1  0  0  0
  2 88  1  0  0  0
  2 89  1  0  0  0
  3  4  1  0  0  0
  3 90  1  0  0  0
  3 91  1  0  0  0
  4  5  1  0  0  0
  4 92  1  0  0  0
  4 93  1  0  0  0
  5  6  1  0  0  0
  5 26  1  0  0  0
  5 94  1  0  0  0
  6 25  1  0  0  0
  6 95  1  0  0  0
  6 96  1  0  0  0
  7  8  2  0  0  0
  7 26  1  0  0  0
  7 29  1  0  0  0
  8  9  1  0  0  0
  8 22  1  0  0  0
  9 10  1  0  0  0
  9 27  2  0  0  0
 10 11  2  0  0  0
 10 15  1  0  0  0
 11 12  1  0  0  0
 11 97  1  0  0  0
 12 13  2  0  0  0
 12 98  1  0  0  0
 13 14  1  0  0  0
 13 31  1  0  0  0
 14 15  2  0  0  0
 14 99  1  0  0  0
 15100  1  0  0  0
 16 17  2  0  0  0
 16 21  1  0  0  0
 16 31  1  0  0  0
 17 18  1  0  0  0
 17101  1  0  0  0
 18 19  2  0  0  0
 18102  1  0  0  0
 19 20  1  0  0  0
 19 24  1  0  0  0
 20 21  2  0  0  0
 20103  1  0  0  0
 21 23  1  0  0  0
 22 28  1  0  0  0
 22 32  2  0  0  0
 26 27  1  0  0  0
 28104  1  0  0  0
 28105  1  0  0  0
 29106  1  0  0  0
 29107  1  0  0  0
 33 34  1  0  0  0
 33 66  1  0  0  0
 33 70  2  0  0  0
 34 36  1  0  0  0
 34 59  1  0  0  0
 34108  1  0  0  0
 35 44  2  0  0  0
 35 45  1  0  0  0
 35 68  1  0  0  0
 36 56  1  0  0  0
 36109  1  0  0  0
 37 39  1  0  0  0
 37 47  1  0  0  0
 37 66  1  0  0  0
 37110  1  0  0  0
 38 43  2  0  0  0
 38 46  1  0  0  0
 38 47  1  0  0  0
 39 64  1  0  0  0
 39 67  2  0  0  0
 40 52  1  0  0  0
 40 53  2  0  0  0
 40 58  1  0  0  0
 41111  1  0  0  0
 41112  1  0  0  0
 41113  1  0  0  0
 41 48  1  0  0  0
 42 43  1  0  0  0
 42 66  1  0  0  0
 42114  1  0  0  0
 42115  1  0  0  0
 43 44  1  0  0  0
 44116  1  0  0  0
 45 46  2  0  0  0
 45117  1  0  0  0
 46118  1  0  0  0
 47119  1  0  0  0
 47120  1  0  0  0
 48 56  1  0  0  0
 48 65  1  0  0  0
 48121  1  0  0  0
 49 50  1  0  0  0
 49 53  1  0  0  0
 49 64  1  0  0  0
 49122  1  0  0  0
 50 51  1  0  0  0
 50123  1  0  0  0
 50124  1  0  0  0
 51 52  1  0  0  0
 51125  1  0  0  0
 51126  1  0  0  0
 52127  1  0  0  0
 52128  1  0  0  0
 53 54  1  0  0  0
 54 55  2  0  0  0
 54129  1  0  0  0
 55 57  1  0  0  0
 55130  1  0  0  0
 56 69  2  0  0  0
 57 58  2  0  0  0
 57131  1  0  0  0
 58132  1  0  0  0
 59 60  1  0  0  0
 59 61  1  0  0  0
 59 62  1  0  0  0
 60133  1  0  0  0
 60134  1  0  0  0
 60135  1  0  0  0
 61136  1  0  0  0
 61137  1  0  0  0
 61138  1  0  0  0
 62139  1  0  0  0
 62140  1  0  0  0
 62141  1  0  0  0
 63 65  1  0  0  0
 63142  1  0  0  0
 63143  1  0  0  0
 63144  1  0  0  0
 64145  1  0  0  0
 65146  1  0  0  0
 68 81  1  0  0  0
 71 72  2  0  0  0
 71 73  1  0  0  0
 71147  1  0  0  0
 72 74  1  0  0  0
 72148  1  0  0  0
 73 75  2  0  0  0
 73149  1  0  0  0
 74 76  2  0  0  0
 74 77  1  0  0  0
 75 76  1  0  0  0
 75 84  1  0  0  0
 76 87  1  0  0  0
 77 85  1  0  0  0
 77 86  2  0  0  0
 78150  1  0  0  0
 78151  1  0  0  0
 78152  1  0  0  0
 78 83  1  0  0  0
 79 83  1  0  0  0
 79153  1  0  0  0
 79154  1  0  0  0
 79155  1  0  0  0
 80 83  1  0  0  0
 80156  1  0  0  0
 80157  1  0  0  0
 80158  1  0  0  0
 81159  1  0  0  0
 81160  1  0  0  0
 81 82  1  0  0  0
 82 83  1  0  0  0
 82 85  1  0  0  0
 82161  1  0  0  0
 84162  1  0  0  0
 85163  1  0  0  0
M  ISO  4   1 100  68 101  81 101  84 100
M  END
> <chiral flag>
0

> <version>
0

> <s_m_source_file>
/data/baiqing/PycharmProjects/Reinvent-master-3.2/result/LINK_invent/BTK/process_docking_weight1_custom_product_contain_oxygen_bond_distance_aromatic_linkinvent_7_9_3/rearranged_h_0061.sdf

> <i_m_source_file_index>
45

> <r_mmod_Potential_Energy-OPLS-2005>
169.292297363281

> <r_mmod_Stretch_Energy-OPLS-2005>
150.028106689453

> <r_mmod_Bend_Energy-OPLS-2005>
216.707046508789

> <r_mmod_Torsional_Energy-OPLS-2005>
244.753936767578

> <r_mmod_Improper_Torsional_Energy-OPLS-2005>
5.92786598205566

> <r_mmod_Van_der_Waal_Energy-OPLS-2005>
143.272811889648

> <r_mmod_Electrostatic_Energy-OPLS-2005>
-466.907836914062

> <r_mmod_Solvation_Energy-OPLS-2005>
-214.531433105469

> <b_mmod_Minimization_Converged-OPLS-2005>
0

> <r_mmod_RMS_Derivative-OPLS-2005>
8.56861114501953

$$$$
46
                    3D
 Structure written by MMmdl.
146154  0  0  1  0            999 V2000
  -30.2970  -15.6886   20.2935 C   0  0  0  0  0  0
  -30.4138  -13.1080   19.5626 C   0  0  0  0  0  0
  -29.5533  -12.6754   18.3396 C   0  0  0  0  0  0
  -28.1250  -12.3146   18.7710 C   0  0  0  0  0  0
  -27.5907  -13.3229   19.8126 C   0  0  2  0  0  0
  -28.5993  -13.6777   20.9338 C   0  0  0  0  0  0
  -25.2275  -13.8304   20.5800 C   0  0  0  0  0  0
  -24.1679  -13.0426   20.9273 C   0  0  0  0  0  0
  -24.6409  -11.6946   20.8738 C   0  0  0  0  0  0
  -23.9117  -10.4280   21.0370 C   0  0  0  0  0  0
  -24.3646   -9.4190   21.9156 C   0  0  0  0  0  0
  -23.6292   -8.2245   22.0752 C   0  0  0  0  0  0
  -22.4269   -8.0286   21.3545 C   0  0  0  0  0  0
  -21.9913   -9.0262   20.4651 C   0  0  0  0  0  0
  -22.7271  -10.2120   20.3034 C   0  0  0  0  0  0
  -21.6860   -6.0729   22.5284 C   0  0  0  0  0  0
  -21.4021   -6.5636   23.8220 C   0  0  0  0  0  0
  -21.3647   -5.6784   24.9171 C   0  0  0  0  0  0
  -21.6035   -4.3052   24.7224 C   0  0  0  0  0  0
  -21.8825   -3.8138   23.4347 C   0  0  0  0  0  0
  -21.9192   -4.6956   22.3402 C   0  0  0  0  0  0
  -22.7688  -13.5141   21.1908 C   0  0  0  0  0  0
  -22.1666   -4.2145   21.0979 F   0  0  0  0  0  0
  -21.5602   -3.4537   25.7732 F   0  0  0  0  0  0
  -29.7764  -14.3100   20.2881 N   0  0  0  0  0  0
  -26.2747  -12.9673   20.3239 N   0  0  0  0  0  0
  -25.9364  -11.6728   20.5678 N   0  0  0  0  0  0
  -22.0366  -12.8123   22.0472 N   0  0  0  0  0  0
  -25.3827  -15.2056   20.4278 N   0  0  0  0  0  0
  -31.5247  -15.5875   20.0883 O   0  0  0  0  0  0
  -21.6638   -6.8878   21.4246 O   0  0  0  0  0  0
  -22.3360  -14.5440   20.6744 O   0  0  0  0  0  0
  -24.6915  -31.7903   23.1439 C   0  0  0  0  0  0
  -25.9470  -32.4409   23.8016 C   0  0  1  0  0  0
  -27.2247  -26.6373   20.2071 C   0  0  0  0  0  0
  -25.6015  -33.8244   24.1866 N   0  0  0  0  0  0
  -23.5200  -30.3945   21.4942 C   0  0  2  0  0  0
  -24.9766  -28.7245   20.1060 C   0  0  0  0  0  0
  -22.7792  -29.4294   22.4609 C   0  0  0  0  0  0
  -18.0353  -28.1436   22.8424 C   0  0  0  0  0  0
  -24.1475  -36.7109   23.2664 C   0  0  0  0  0  0
  -26.1041  -30.4997   21.4202 C   0  0  0  0  0  0
  -26.1648  -29.0602   20.7653 C   0  0  0  0  0  0
  -27.2652  -28.0440   20.7880 C   0  0  0  0  0  0
  -26.0076  -26.5290   19.4807 C   0  0  0  0  0  0
  -24.9423  -27.4840   19.4407 C   0  0  0  0  0  0
  -23.7764  -29.6884   20.1293 C   0  0  0  0  0  0
  -25.4129  -36.2832   24.0267 C   0  0  1  0  0  0
  -20.5998  -28.3811   23.1082 C   0  0  2  0  0  0
  -20.6802  -26.9449   22.5400 C   0  0  0  0  0  0
  -19.5783  -26.6358   21.5207 C   0  0  0  0  0  0
  -18.1959  -26.7966   22.1590 C   0  0  0  0  0  0
  -19.1626  -28.8937   23.2739 C   0  0  0  0  0  0
  -18.9555  -30.1509   23.8810 C   0  0  0  0  0  0
  -17.6549  -30.6611   24.0551 C   0  0  0  0  0  0
  -25.9137  -34.9253   23.4893 C   0  0  0  0  0  0
  -16.5428  -29.9105   23.6351 C   0  0  0  0  0  0
  -16.7337  -28.6523   23.0367 C   0  0  0  0  0  0
  -26.4616  -31.6513   25.0701 C   0  0  0  0  0  0
  -25.3659  -31.3888   26.1297 C   0  0  0  0  0  0
  -27.0572  -30.2828   24.6719 C   0  0  0  0  0  0
  -27.6013  -32.4436   25.7547 C   0  0  0  0  0  0
  -27.5526  -37.1696   24.8454 C   0  0  0  0  0  0
  -21.4431  -29.3055   22.3383 N   0  0  0  0  0  0
  -26.4203  -37.3638   23.9438 N   0  0  0  0  0  0
  -24.7959  -30.9289   22.0723 N   0  0  0  0  0  0
  -23.4193  -28.7903   23.2989 O   0  0  0  0  0  0
  -28.1621  -25.3817   20.3399 O   0  0  0  0  0  0
  -26.5800  -34.8860   22.4525 O   0  0  0  0  0  0
  -23.5920  -32.1022   23.6335 O   0  0  0  0  0  0
  -31.1190  -19.1614   17.6715 C   0  0  0  0  0  0
  -30.5482  -18.3408   18.6321 C   0  0  0  0  0  0
  -30.9746  -20.5251   17.7694 C   0  0  0  0  0  0
  -29.4275  -20.4074   19.7720 C   0  0  0  0  0  0
  -29.7661  -18.7264   19.7613 C   0  0  0  0  0  0
  -30.1902  -21.1055   18.7635 C   0  0  0  0  0  0
  -28.6389  -21.9303   20.4961 C   0  0  0  0  0  0
  -28.1090  -23.6581   19.8578 C   0  0  0  0  0  0
  -29.5910  -17.1093   20.3872 N   0  0  0  0  0  0
  -28.3376  -21.7985   21.6874 O   0  0  0  0  0  0
  -30.2625  -22.4586   18.7069 F   0  0  0  0  0  0
  -31.4161  -13.3462   19.2045 H   0  0  0  0  0  0
  -30.5603  -12.2684   20.2446 H   0  0  0  0  0  0
  -30.0182  -11.8378   17.8192 H   0  0  0  0  0  0
  -29.5166  -13.4962   17.6233 H   0  0  0  0  0  0
  -28.1448  -11.3137   19.2042 H   0  0  0  0  0  0
  -27.4644  -12.2662   17.9049 H   0  0  0  0  0  0
  -27.4455  -14.2396   19.2387 H   0  0  0  0  0  0
  -28.8601  -12.8004   21.5277 H   0  0  0  0  0  0
  -28.1598  -14.3964   21.6256 H   0  0  0  0  0  0
  -25.2794   -9.5654   22.4734 H   0  0  0  0  0  0
  -23.9984   -7.4638   22.7489 H   0  0  0  0  0  0
  -21.0832   -8.8786   19.8980 H   0  0  0  0  0  0
  -22.3725  -10.9645   19.6141 H   0  0  0  0  0  0
  -21.2045   -7.6153   23.9719 H   0  0  0  0  0  0
  -21.1444   -6.0515   25.9073 H   0  0  0  0  0  0
  -22.0610   -2.7606   23.2851 H   0  0  0  0  0  0
  -22.4006  -11.9792   22.4848 H   0  0  0  0  0  0
  -21.0990  -13.1138   22.2714 H   0  0  0  0  0  0
  -24.6062  -15.8472   20.5482 H   0  0  0  0  0  0
  -26.2228  -15.6576   20.0900 H   0  0  0  0  0  0
  -26.7557  -32.4852   23.0732 H   0  0  0  0  0  0
  -25.0074  -33.9288   24.9956 H   0  0  0  0  0  0
  -22.8522  -31.2372   21.2973 H   0  0  0  0  0  0
  -23.3758  -35.9415   23.3240 H   0  0  0  0  0  0
  -24.3537  -36.8866   22.2092 H   0  0  0  0  0  0
  -23.7206  -37.6247   23.6818 H   0  0  0  0  0  0
  -26.3234  -31.2246   20.6350 H   0  0  0  0  0  0
  -26.9503  -30.5597   22.0929 H   0  0  0  0  0  0
  -28.1517  -28.2995   21.3498 H   0  0  0  0  0  0
  -25.8254  -25.5945   18.9685 H   0  0  0  0  0  0
  -24.0488  -27.2199   18.8909 H   0  0  0  0  0  0
  -23.9503  -30.4490   19.3658 H   0  0  0  0  0  0
  -22.8806  -29.1570   19.8020 H   0  0  0  0  0  0
  -25.1346  -36.1527   25.0750 H   0  0  0  0  0  0
  -21.0108  -28.3456   24.1199 H   0  0  0  0  0  0
  -20.5604  -26.2465   23.3697 H   0  0  0  0  0  0
  -21.6667  -26.7331   22.1267 H   0  0  0  0  0  0
  -19.6944  -25.6246   21.1291 H   0  0  0  0  0  0
  -19.6734  -27.3122   20.6704 H   0  0  0  0  0  0
  -17.4240  -26.6726   21.3976 H   0  0  0  0  0  0
  -18.0313  -26.0141   22.9012 H   0  0  0  0  0  0
  -19.8053  -30.7320   24.2138 H   0  0  0  0  0  0
  -17.5130  -31.6283   24.5185 H   0  0  0  0  0  0
  -15.5436  -30.3001   23.7728 H   0  0  0  0  0  0
  -15.8732  -28.0817   22.7155 H   0  0  0  0  0  0
  -24.5847  -30.7228   25.7597 H   0  0  0  0  0  0
  -24.8870  -32.3148   26.4495 H   0  0  0  0  0  0
  -25.7819  -30.9191   27.0218 H   0  0  0  0  0  0
  -26.3308  -29.6371   24.1771 H   0  0  0  0  0  0
  -27.3981  -29.7362   25.5526 H   0  0  0  0  0  0
  -27.9290  -30.3876   24.0259 H   0  0  0  0  0  0
  -27.2475  -33.3792   26.1886 H   0  0  0  0  0  0
  -28.3960  -32.6928   25.0506 H   0  0  0  0  0  0
  -28.0534  -31.8757   26.5681 H   0  0  0  0  0  0
  -28.2494  -38.0044   24.7557 H   0  0  0  0  0  0
  -28.1059  -36.2575   24.6177 H   0  0  0  0  0  0
  -27.2278  -37.1218   25.8865 H   0  0  0  0  0  0
  -20.9730  -29.8748   21.6487 H   0  0  0  0  0  0
  -25.9982  -38.2641   24.1556 H   0  0  0  0  0  0
  -31.7089  -18.7362   16.8712 H   0  0  0  0  0  0
  -30.7709  -17.3112   18.4079 H   0  0  0  0  0  0
  -31.4820  -21.1588   17.0554 H   0  0  0  0  0  0
  -27.0330  -23.5072   19.7785 H   0  0  0  0  0  0
  -28.4144  -23.6799   18.8143 H   0  0  0  0  0  0
  -28.6931  -16.9929   20.8340 H   0  0  0  0  0  0
  1 25  1  0  0  0
  1 30  2  0  0  0
  1 79  1  0  0  0
  2  3  1  0  0  0
  2 25  1  0  0  0
  2 82  1  0  0  0
  2 83  1  0  0  0
  3  4  1  0  0  0
  3 84  1  0  0  0
  3 85  1  0  0  0
  4  5  1  0  0  0
  4 86  1  0  0  0
  4 87  1  0  0  0
  5  6  1  0  0  0
  5 26  1  0  0  0
  5 88  1  0  0  0
  6 25  1  0  0  0
  6 89  1  0  0  0
  6 90  1  0  0  0
  7  8  2  0  0  0
  7 26  1  0  0  0
  7 29  1  0  0  0
  8  9  1  0  0  0
  8 22  1  0  0  0
  9 10  1  0  0  0
  9 27  2  0  0  0
 10 11  2  0  0  0
 10 15  1  0  0  0
 11 12  1  0  0  0
 11 91  1  0  0  0
 12 13  2  0  0  0
 12 92  1  0  0  0
 13 14  1  0  0  0
 13 31  1  0  0  0
 14 15  2  0  0  0
 14 93  1  0  0  0
 15 94  1  0  0  0
 16 17  2  0  0  0
 16 21  1  0  0  0
 16 31  1  0  0  0
 17 18  1  0  0  0
 17 95  1  0  0  0
 18 19  2  0  0  0
 18 96  1  0  0  0
 19 20  1  0  0  0
 19 24  1  0  0  0
 20 21  2  0  0  0
 20 97  1  0  0  0
 21 23  1  0  0  0
 22 28  1  0  0  0
 22 32  2  0  0  0
 26 27  1  0  0  0
 28 98  1  0  0  0
 28 99  1  0  0  0
 29100  1  0  0  0
 29101  1  0  0  0
 33 34  1  0  0  0
 33 66  1  0  0  0
 33 70  2  0  0  0
 34 36  1  0  0  0
 34 59  1  0  0  0
 34102  1  0  0  0
 35 44  2  0  0  0
 35 45  1  0  0  0
 35 68  1  0  0  0
 36 56  1  0  0  0
 36103  1  0  0  0
 37 39  1  0  0  0
 37 47  1  0  0  0
 37 66  1  0  0  0
 37104  1  0  0  0
 38 43  2  0  0  0
 38 46  1  0  0  0
 38 47  1  0  0  0
 39 64  1  0  0  0
 39 67  2  0  0  0
 40 52  1  0  0  0
 40 53  2  0  0  0
 40 58  1  0  0  0
 41105  1  0  0  0
 41106  1  0  0  0
 41107  1  0  0  0
 41 48  1  0  0  0
 42 43  1  0  0  0
 42 66  1  0  0  0
 42108  1  0  0  0
 42109  1  0  0  0
 43 44  1  0  0  0
 44110  1  0  0  0
 45 46  2  0  0  0
 45111  1  0  0  0
 46112  1  0  0  0
 47113  1  0  0  0
 47114  1  0  0  0
 48 56  1  0  0  0
 48 65  1  0  0  0
 48115  1  0  0  0
 49 50  1  0  0  0
 49 53  1  0  0  0
 49 64  1  0  0  0
 49116  1  0  0  0
 50 51  1  0  0  0
 50117  1  0  0  0
 50118  1  0  0  0
 51 52  1  0  0  0
 51119  1  0  0  0
 51120  1  0  0  0
 52121  1  0  0  0
 52122  1  0  0  0
 53 54  1  0  0  0
 54 55  2  0  0  0
 54123  1  0  0  0
 55 57  1  0  0  0
 55124  1  0  0  0
 56 69  2  0  0  0
 57 58  2  0  0  0
 57125  1  0  0  0
 58126  1  0  0  0
 59 60  1  0  0  0
 59 61  1  0  0  0
 59 62  1  0  0  0
 60127  1  0  0  0
 60128  1  0  0  0
 60129  1  0  0  0
 61130  1  0  0  0
 61131  1  0  0  0
 61132  1  0  0  0
 62133  1  0  0  0
 62134  1  0  0  0
 62135  1  0  0  0
 63 65  1  0  0  0
 63136  1  0  0  0
 63137  1  0  0  0
 63138  1  0  0  0
 64139  1  0  0  0
 65140  1  0  0  0
 68 78  1  0  0  0
 71 72  2  0  0  0
 71 73  1  0  0  0
 71141  1  0  0  0
 72 75  1  0  0  0
 72142  1  0  0  0
 73 76  2  0  0  0
 73143  1  0  0  0
 74 75  2  0  0  0
 74 76  1  0  0  0
 74 77  1  0  0  0
 75 79  1  0  0  0
 76 81  1  0  0  0
 77 78  1  0  0  0
 77 80  2  0  0  0
 78144  1  0  0  0
 78145  1  0  0  0
 79146  1  0  0  0
M  ISO  4   1 100  68 101  78 101  79 100
M  END
> <chiral flag>
0

> <version>
0

> <s_m_source_file>
/data/baiqing/PycharmProjects/Reinvent-master-3.2/result/LINK_invent/BTK/process_docking_weight1_custom_product_contain_oxygen_bond_distance_aromatic_linkinvent_7_9_3/rearranged_h_0061.sdf

> <i_m_source_file_index>
46

> <r_mmod_Potential_Energy-OPLS-2005>
3058.80419921875

> <r_mmod_Stretch_Energy-OPLS-2005>
1338.35278320312

> <r_mmod_Bend_Energy-OPLS-2005>
833.236450195312

> <r_mmod_Torsional_Energy-OPLS-2005>
260.449523925781

> <r_mmod_Improper_Torsional_Energy-OPLS-2005>
4.14604520797729

> <r_mmod_Van_der_Waal_Energy-OPLS-2005>
154.834396362305

> <r_mmod_Electrostatic_Energy-OPLS-2005>
-312.654357910156

> <r_mmod_Solvation_Energy-OPLS-2005>
-226.867950439453

> <b_mmod_Minimization_Converged-OPLS-2005>
0

> <r_mmod_RMS_Derivative-OPLS-2005>
2.90641617774963

$$$$
47
                    3D
 Structure written by MMmdl.
156164  0  0  1  0            999 V2000
  -30.6664  -14.5529   20.5337 C   0  0  0  0  0  0
  -30.4293  -12.3453   19.4383 C   0  0  0  0  0  0
  -29.5023  -12.5082   18.2152 C   0  0  0  0  0  0
  -28.0235  -12.3569   18.6250 C   0  0  0  0  0  0
  -27.6574  -13.2112   19.8683 C   0  0  2  0  0  0
  -28.7007  -13.0318   20.9947 C   0  0  0  0  0  0
  -25.2572  -13.8160   20.5675 C   0  0  0  0  0  0
  -24.1832  -13.0434   20.9183 C   0  0  0  0  0  0
  -24.6387  -11.6904   20.8728 C   0  0  0  0  0  0
  -23.9052  -10.4288   21.0393 C   0  0  0  0  0  0
  -24.3608   -9.4206   21.9170 C   0  0  0  0  0  0
  -23.6282   -8.2242   22.0748 C   0  0  0  0  0  0
  -22.4263   -8.0276   21.3545 C   0  0  0  0  0  0
  -21.9890   -9.0249   20.4646 C   0  0  0  0  0  0
  -22.7221  -10.2128   20.3045 C   0  0  0  0  0  0
  -21.6855   -6.0722   22.5270 C   0  0  0  0  0  0
  -21.4021   -6.5630   23.8204 C   0  0  0  0  0  0
  -21.3659   -5.6784   24.9166 C   0  0  0  0  0  0
  -21.6040   -4.3045   24.7220 C   0  0  0  0  0  0
  -21.8822   -3.8136   23.4346 C   0  0  0  0  0  0
  -21.9199   -4.6953   22.3399 C   0  0  0  0  0  0
  -22.7855  -13.5234   21.1836 C   0  0  0  0  0  0
  -22.1665   -4.2136   21.0978 F   0  0  0  0  0  0
  -21.5624   -3.4531   25.7736 F   0  0  0  0  0  0
  -30.0250  -13.3514   20.4369 N   0  0  0  0  0  0
  -26.3003  -12.9335   20.3330 N   0  0  0  0  0  0
  -25.9315  -11.6493   20.5744 N   0  0  0  0  0  0
  -22.0495  -12.8242   22.0403 N   0  0  0  0  0  0
  -25.4285  -15.1877   20.4069 N   0  0  0  0  0  0
  -31.8192  -14.7074   20.1192 O   0  0  0  0  0  0
  -21.6636   -6.8868   21.4237 O   0  0  0  0  0  0
  -22.3540  -14.5538   20.6675 O   0  0  0  0  0  0
  -24.6199  -31.8645   23.2074 C   0  0  0  0  0  0
  -25.9078  -32.4799   23.8372 C   0  0  1  0  0  0
  -27.2259  -27.3754   20.1031 C   0  0  0  0  0  0
  -25.5917  -33.8601   24.2304 N   0  0  0  0  0  0
  -23.4103  -30.4876   21.5493 C   0  0  2  0  0  0
  -24.8557  -28.9537   20.1096 C   0  0  0  0  0  0
  -22.7446  -29.4626   22.4970 C   0  0  0  0  0  0
  -18.0277  -28.1377   22.8477 C   0  0  0  0  0  0
  -24.1489  -36.7304   23.2633 C   0  0  0  0  0  0
  -25.9462  -30.8112   21.3716 C   0  0  0  0  0  0
  -26.0206  -29.4437   20.7129 C   0  0  0  0  0  0
  -27.2077  -28.6637   20.7045 C   0  0  0  0  0  0
  -26.0403  -26.9268   19.4729 C   0  0  0  0  0  0
  -24.8644  -27.6984   19.4831 C   0  0  0  0  0  0
  -23.6212  -29.8260   20.1624 C   0  0  0  0  0  0
  -25.4105  -36.3090   24.0333 C   0  0  1  0  0  0
  -20.5870  -28.3664   23.1305 C   0  0  2  0  0  0
  -20.6769  -26.9395   22.5421 C   0  0  0  0  0  0
  -19.5750  -26.6382   21.5207 C   0  0  0  0  0  0
  -18.1925  -26.7925   22.1615 C   0  0  0  0  0  0
  -19.1528  -28.8842   23.2886 C   0  0  0  0  0  0
  -18.9455  -30.1446   23.8899 C   0  0  0  0  0  0
  -17.6458  -30.6583   24.0563 C   0  0  0  0  0  0
  -25.9040  -34.9460   23.5114 C   0  0  0  0  0  0
  -16.5349  -29.9081   23.6325 C   0  0  0  0  0  0
  -16.7262  -28.6497   23.0342 C   0  0  0  0  0  0
  -26.4480  -31.6595   25.0729 C   0  0  0  0  0  0
  -25.3740  -31.3761   26.1485 C   0  0  0  0  0  0
  -27.0289  -30.3011   24.6160 C   0  0  0  0  0  0
  -27.6050  -32.4323   25.7489 C   0  0  0  0  0  0
  -27.5585  -37.1791   24.8448 C   0  0  0  0  0  0
  -21.4166  -29.3026   22.3713 N   0  0  0  0  0  0
  -26.4282  -37.3783   23.9416 N   0  0  0  0  0  0
  -24.6768  -31.0700   22.1001 N   0  0  0  0  0  0
  -23.4198  -28.8163   23.3024 O   0  0  0  0  0  0
  -28.3672  -26.5783   20.1565 O   0  0  0  0  0  0
  -26.5599  -34.8918   22.4673 O   0  0  0  0  0  0
  -23.5381  -32.1425   23.7435 O   0  0  0  0  0  0
  -29.0013  -17.8942   20.7082 C   0  0  0  0  0  0
  -29.1595  -19.3027   20.5891 C   0  0  0  0  0  0
  -31.3963  -17.6231   20.8769 C   0  0  0  0  0  0
  -31.5684  -19.0292   20.7685 C   0  0  0  0  0  0
  -30.1149  -17.0231   20.8352 C   0  0  0  0  0  0
  -30.4425  -19.8975   20.6262 C   0  0  0  0  0  0
  -29.2563  -24.2525   20.6254 C   0  0  0  0  0  0
  -32.9913  -19.5665   20.8044 C   0  0  0  0  0  0
  -28.2001  -25.1458   19.9153 C   0  0  0  0  0  0
  -29.0881  -22.7005   20.5498 C   0  0  0  0  0  0
  -31.1255  -21.9322   18.9016 N   0  0  0  0  0  0
  -29.8965  -15.5961   20.9478 N   0  0  0  0  0  0
  -30.1624  -24.7772   21.2819 O   0  0  0  0  0  0
  -31.5917  -22.1796   21.4606 O   0  0  0  0  0  0
  -30.6843  -21.7221   20.3932 S   0  0  2  0  0  0
  -31.4732  -12.4507   19.1379 H   0  0  0  0  0  0
  -30.3392  -11.3425   19.8574 H   0  0  0  0  0  0
  -29.7550  -11.7742   17.4489 H   0  0  0  0  0  0
  -29.6603  -13.4885   17.7626 H   0  0  0  0  0  0
  -27.8463  -11.3018   18.8374 H   0  0  0  0  0  0
  -27.3730  -12.6124   17.7876 H   0  0  0  0  0  0
  -27.6883  -14.2527   19.5476 H   0  0  0  0  0  0
  -28.6933  -12.0040   21.3605 H   0  0  0  0  0  0
  -28.4574  -13.6519   21.8587 H   0  0  0  0  0  0
  -25.2757   -9.5687   22.4738 H   0  0  0  0  0  0
  -23.9998   -7.4637   22.7462 H   0  0  0  0  0  0
  -21.0819   -8.8765   19.8954 H   0  0  0  0  0  0
  -22.3672  -10.9664   19.6150 H   0  0  0  0  0  0
  -21.2019   -7.6138   23.9704 H   0  0  0  0  0  0
  -21.1472   -6.0512   25.9068 H   0  0  0  0  0  0
  -22.0605   -2.7597   23.2850 H   0  0  0  0  0  0
  -22.4105  -11.9909   22.4808 H   0  0  0  0  0  0
  -21.1116  -13.1274   22.2597 H   0  0  0  0  0  0
  -24.6566  -15.8393   20.4990 H   0  0  0  0  0  0
  -26.2696  -15.6212   20.0505 H   0  0  0  0  0  0
  -26.7145  -32.5485   23.1121 H   0  0  0  0  0  0
  -25.0074  -33.9755   25.0454 H   0  0  0  0  0  0
  -22.6996  -31.3053   21.4108 H   0  0  0  0  0  0
  -23.3751  -35.9636   23.3291 H   0  0  0  0  0  0
  -24.3591  -36.8927   22.2050 H   0  0  0  0  0  0
  -23.7247  -37.6508   23.6654 H   0  0  0  0  0  0
  -26.0723  -31.5797   20.6077 H   0  0  0  0  0  0
  -26.8280  -30.8564   21.9988 H   0  0  0  0  0  0
  -28.1025  -29.0339   21.1852 H   0  0  0  0  0  0
  -25.9933  -25.9742   18.9670 H   0  0  0  0  0  0
  -23.9717  -27.3210   19.0034 H   0  0  0  0  0  0
  -23.7343  -30.6035   19.4057 H   0  0  0  0  0  0
  -22.7430  -29.2506   19.8624 H   0  0  0  0  0  0
  -25.1281  -36.1936   25.0825 H   0  0  0  0  0  0
  -20.9950  -28.3236   24.1431 H   0  0  0  0  0  0
  -20.5660  -26.2269   23.3610 H   0  0  0  0  0  0
  -21.6642  -26.7437   22.1216 H   0  0  0  0  0  0
  -19.6912  -25.6298   21.1232 H   0  0  0  0  0  0
  -19.6692  -27.3194   20.6742 H   0  0  0  0  0  0
  -17.4199  -26.6663   21.4015 H   0  0  0  0  0  0
  -18.0327  -26.0070   22.9008 H   0  0  0  0  0  0
  -19.7938  -30.7250   24.2272 H   0  0  0  0  0  0
  -17.5018  -31.6260   24.5170 H   0  0  0  0  0  0
  -15.5346  -30.2977   23.7655 H   0  0  0  0  0  0
  -15.8667  -28.0816   22.7055 H   0  0  0  0  0  0
  -24.5871  -30.7142   25.7850 H   0  0  0  0  0  0
  -24.8985  -32.2949   26.4922 H   0  0  0  0  0  0
  -25.8084  -30.8936   27.0249 H   0  0  0  0  0  0
  -26.2836  -29.6796   24.1180 H   0  0  0  0  0  0
  -27.3978  -29.7231   25.4646 H   0  0  0  0  0  0
  -27.8716  -30.4286   23.9361 H   0  0  0  0  0  0
  -27.2655  -33.3614   26.2076 H   0  0  0  0  0  0
  -28.3839  -32.6904   25.0304 H   0  0  0  0  0  0
  -28.0732  -31.8450   26.5397 H   0  0  0  0  0  0
  -28.2571  -38.0118   24.7537 H   0  0  0  0  0  0
  -28.1106  -36.2654   24.6201 H   0  0  0  0  0  0
  -27.2320  -37.1371   25.8854 H   0  0  0  0  0  0
  -20.9342  -29.8746   21.6929 H   0  0  0  0  0  0
  -26.0166  -38.2850   24.1456 H   0  0  0  0  0  0
  -28.0010  -17.4849   20.6821 H   0  0  0  0  0  0
  -28.2870  -19.9271   20.4660 H   0  0  0  0  0  0
  -32.2730  -17.0029   20.9959 H   0  0  0  0  0  0
  -33.7249  -18.7651   20.7111 H   0  0  0  0  0  0
  -33.1819  -20.0779   21.7484 H   0  0  0  0  0  0
  -33.1738  -20.2641   19.9872 H   0  0  0  0  0  0
  -27.2285  -24.8076   20.2758 H   0  0  0  0  0  0
  -28.2395  -24.9556   18.8424 H   0  0  0  0  0  0
  -28.4387  -22.4371   19.7187 H   0  0  0  0  0  0
  -28.5910  -22.3670   21.4578 H   0  0  0  0  0  0
  -30.5136  -21.4188   18.2542 H   0  0  0  0  0  0
  -28.9630  -15.3201   21.2115 H   0  0  0  0  0  0
  1 25  1  0  0  0
  1 30  2  0  0  0
  1 82  1  0  0  0
  2  3  1  0  0  0
  2 25  1  0  0  0
  2 86  1  0  0  0
  2 87  1  0  0  0
  3  4  1  0  0  0
  3 88  1  0  0  0
  3 89  1  0  0  0
  4  5  1  0  0  0
  4 90  1  0  0  0
  4 91  1  0  0  0
  5  6  1  0  0  0
  5 26  1  0  0  0
  5 92  1  0  0  0
  6 25  1  0  0  0
  6 93  1  0  0  0
  6 94  1  0  0  0
  7  8  2  0  0  0
  7 26  1  0  0  0
  7 29  1  0  0  0
  8  9  1  0  0  0
  8 22  1  0  0  0
  9 10  1  0  0  0
  9 27  2  0  0  0
 10 11  2  0  0  0
 10 15  1  0  0  0
 11 12  1  0  0  0
 11 95  1  0  0  0
 12 13  2  0  0  0
 12 96  1  0  0  0
 13 14  1  0  0  0
 13 31  1  0  0  0
 14 15  2  0  0  0
 14 97  1  0  0  0
 15 98  1  0  0  0
 16 17  2  0  0  0
 16 21  1  0  0  0
 16 31  1  0  0  0
 17 18  1  0  0  0
 17 99  1  0  0  0
 18 19  2  0  0  0
 18100  1  0  0  0
 19 20  1  0  0  0
 19 24  1  0  0  0
 20 21  2  0  0  0
 20101  1  0  0  0
 21 23  1  0  0  0
 22 28  1  0  0  0
 22 32  2  0  0  0
 26 27  1  0  0  0
 28102  1  0  0  0
 28103  1  0  0  0
 29104  1  0  0  0
 29105  1  0  0  0
 33 34  1  0  0  0
 33 66  1  0  0  0
 33 70  2  0  0  0
 34 36  1  0  0  0
 34 59  1  0  0  0
 34106  1  0  0  0
 35 44  2  0  0  0
 35 45  1  0  0  0
 35 68  1  0  0  0
 36 56  1  0  0  0
 36107  1  0  0  0
 37 39  1  0  0  0
 37 47  1  0  0  0
 37 66  1  0  0  0
 37108  1  0  0  0
 38 43  2  0  0  0
 38 46  1  0  0  0
 38 47  1  0  0  0
 39 64  1  0  0  0
 39 67  2  0  0  0
 40 52  1  0  0  0
 40 53  2  0  0  0
 40 58  1  0  0  0
 41109  1  0  0  0
 41110  1  0  0  0
 41111  1  0  0  0
 41 48  1  0  0  0
 42 43  1  0  0  0
 42 66  1  0  0  0
 42112  1  0  0  0
 42113  1  0  0  0
 43 44  1  0  0  0
 44114  1  0  0  0
 45 46  2  0  0  0
 45115  1  0  0  0
 46116  1  0  0  0
 47117  1  0  0  0
 47118  1  0  0  0
 48 56  1  0  0  0
 48 65  1  0  0  0
 48119  1  0  0  0
 49 50  1  0  0  0
 49 53  1  0  0  0
 49 64  1  0  0  0
 49120  1  0  0  0
 50 51  1  0  0  0
 50121  1  0  0  0
 50122  1  0  0  0
 51 52  1  0  0  0
 51123  1  0  0  0
 51124  1  0  0  0
 52125  1  0  0  0
 52126  1  0  0  0
 53 54  1  0  0  0
 54 55  2  0  0  0
 54127  1  0  0  0
 55 57  1  0  0  0
 55128  1  0  0  0
 56 69  2  0  0  0
 57 58  2  0  0  0
 57129  1  0  0  0
 58130  1  0  0  0
 59 60  1  0  0  0
 59 61  1  0  0  0
 59 62  1  0  0  0
 60131  1  0  0  0
 60132  1  0  0  0
 60133  1  0  0  0
 61134  1  0  0  0
 61135  1  0  0  0
 61136  1  0  0  0
 62137  1  0  0  0
 62138  1  0  0  0
 62139  1  0  0  0
 63 65  1  0  0  0
 63140  1  0  0  0
 63141  1  0  0  0
 63142  1  0  0  0
 64143  1  0  0  0
 65144  1  0  0  0
 68 79  1  0  0  0
 71 72  2  0  0  0
 71 75  1  0  0  0
 71145  1  0  0  0
 72 76  1  0  0  0
 72146  1  0  0  0
 73 74  1  0  0  0
 73 75  2  0  0  0
 73147  1  0  0  0
 74 76  2  0  0  0
 74 78  1  0  0  0
 75 82  1  0  0  0
 76 85  1  0  0  0
 77 79  1  0  0  0
 77 80  1  0  0  0
 77 83  2  0  0  0
 78148  1  0  0  0
 78149  1  0  0  0
 78150  1  0  0  0
 79151  1  0  0  0
 79152  1  0  0  0
 80153  1  0  0  0
 80154  1  0  0  0
 80 85  1  0  0  0
 81 85  2  0  0  0
 81155  1  0  0  0
 82156  1  0  0  0
 84 85  2  0  0  0
M  ISO  4   1 100  68 101  79 101  82 100
M  END
> <chiral flag>
0

> <version>
0

> <s_m_source_file>
/data/baiqing/PycharmProjects/Reinvent-master-3.2/result/LINK_invent/BTK/process_docking_weight1_custom_product_contain_oxygen_bond_distance_aromatic_linkinvent_7_9_3/rearranged_h_0061.sdf

> <i_m_source_file_index>
47

> <r_mmod_Potential_Energy-OPLS-2005>
-143.19921875

> <r_mmod_Stretch_Energy-OPLS-2005>
56.993350982666

> <r_mmod_Bend_Energy-OPLS-2005>
117.150863647461

> <r_mmod_Torsional_Energy-OPLS-2005>
218.113235473633

> <r_mmod_Improper_Torsional_Energy-OPLS-2005>
4.92129802703857

> <r_mmod_Van_der_Waal_Energy-OPLS-2005>
145.916030883789

> <r_mmod_Electrostatic_Energy-OPLS-2005>
-390.760833740234

> <r_mmod_Solvation_Energy-OPLS-2005>
-322.271942138672

> <b_mmod_Minimization_Converged-OPLS-2005>
0

> <r_mmod_RMS_Derivative-OPLS-2005>
1.31520533561707

$$$$
48
                    3D
 Structure written by MMmdl.
155164  0  0  1  0            999 V2000
  -30.6269  -14.9114   20.4304 C   0  0  0  0  0  0
  -30.4056  -12.5656   19.5182 C   0  0  0  0  0  0
  -29.5168  -12.5458   18.2591 C   0  0  0  0  0  0
  -28.0570  -12.2840   18.6741 C   0  0  0  0  0  0
  -27.6205  -13.2311   19.8217 C   0  0  2  0  0  0
  -28.6510  -13.3424   20.9695 C   0  0  0  0  0  0
  -25.2472  -13.8139   20.5620 C   0  0  0  0  0  0
  -24.1770  -13.0392   20.9126 C   0  0  0  0  0  0
  -24.6391  -11.6859   20.8662 C   0  0  0  0  0  0
  -23.9071  -10.4247   21.0361 C   0  0  0  0  0  0
  -24.3661   -9.4208   21.9149 C   0  0  0  0  0  0
  -23.6343   -8.2263   22.0765 C   0  0  0  0  0  0
  -22.4312   -8.0284   21.3537 C   0  0  0  0  0  0
  -21.9930   -9.0228   20.4647 C   0  0  0  0  0  0
  -22.7252  -10.2103   20.3016 C   0  0  0  0  0  0
  -21.6876   -6.0754   22.5298 C   0  0  0  0  0  0
  -21.4026   -6.5645   23.8230 C   0  0  0  0  0  0
  -21.3680   -5.6797   24.9179 C   0  0  0  0  0  0
  -21.6039   -4.3054   24.7216 C   0  0  0  0  0  0
  -21.8823   -3.8161   23.4329 C   0  0  0  0  0  0
  -21.9201   -4.6988   22.3396 C   0  0  0  0  0  0
  -22.7820  -13.5167   21.1854 C   0  0  0  0  0  0
  -22.1652   -4.2188   21.0972 F   0  0  0  0  0  0
  -21.5641   -3.4509   25.7723 F   0  0  0  0  0  0
  -29.9447  -13.7015   20.3753 N   0  0  0  0  0  0
  -26.2847  -12.9361   20.3130 N   0  0  0  0  0  0
  -25.9322  -11.6511   20.5694 N   0  0  0  0  0  0
  -22.0530  -12.8071   22.0434 N   0  0  0  0  0  0
  -25.4181  -15.1870   20.4116 N   0  0  0  0  0  0
  -31.8001  -14.9019   20.0531 O   0  0  0  0  0  0
  -21.6627   -6.8903   21.4267 O   0  0  0  0  0  0
  -22.3482  -14.5516   20.6905 O   0  0  0  0  0  0
  -24.6386  -31.8421   23.1888 C   0  0  0  0  0  0
  -25.9147  -32.4729   23.8250 C   0  0  1  0  0  0
  -27.2818  -27.2093   20.1346 C   0  0  0  0  0  0
  -25.5925  -33.8526   24.2195 N   0  0  0  0  0  0
  -23.4477  -30.4520   21.5349 C   0  0  2  0  0  0
  -24.9021  -28.8610   20.1323 C   0  0  0  0  0  0
  -22.7568  -29.4488   22.4913 C   0  0  0  0  0  0
  -18.0295  -28.1553   22.8536 C   0  0  0  0  0  0
  -24.1482  -36.7280   23.2639 C   0  0  0  0  0  0
  -25.9904  -30.7314   21.3760 C   0  0  0  0  0  0
  -26.0754  -29.3394   20.7330 C   0  0  0  0  0  0
  -27.2642  -28.5338   20.7084 C   0  0  0  0  0  0
  -26.0740  -26.7947   19.5357 C   0  0  0  0  0  0
  -24.9059  -27.5955   19.5289 C   0  0  0  0  0  0
  -23.6780  -29.7603   20.1613 C   0  0  0  0  0  0
  -25.4104  -36.3036   24.0317 C   0  0  1  0  0  0
  -20.5924  -28.3795   23.1453 C   0  0  2  0  0  0
  -20.6695  -26.9410   22.5885 C   0  0  0  0  0  0
  -19.5774  -26.6434   21.5472 C   0  0  0  0  0  0
  -18.1863  -26.8062   22.1720 C   0  0  0  0  0  0
  -19.1577  -28.8999   23.2904 C   0  0  0  0  0  0
  -18.9592  -30.1640   23.8856 C   0  0  0  0  0  0
  -17.6653  -30.6815   24.0669 C   0  0  0  0  0  0
  -25.9039  -34.9421   23.5061 C   0  0  0  0  0  0
  -16.5502  -29.9314   23.6504 C   0  0  0  0  0  0
  -16.7316  -28.6766   23.0414 C   0  0  0  0  0  0
  -26.4498  -31.6568   25.0668 C   0  0  0  0  0  0
  -25.3712  -31.3714   26.1391 C   0  0  0  0  0  0
  -27.0339  -30.2985   24.6167 C   0  0  0  0  0  0
  -27.6047  -32.4317   25.7460 C   0  0  0  0  0  0
  -27.5585  -37.1774   24.8463 C   0  0  0  0  0  0
  -21.4222  -29.3138   22.3824 N   0  0  0  0  0  0
  -26.4284  -37.3760   23.9420 N   0  0  0  0  0  0
  -24.7113  -31.0293   22.0956 N   0  0  0  0  0  0
  -23.4265  -28.7953   23.2928 O   0  0  0  0  0  0
  -28.4410  -26.3967   19.9536 O   0  0  0  0  0  0
  -26.5656  -34.8926   22.4654 O   0  0  0  0  0  0
  -23.5515  -32.1315   23.7135 O   0  0  0  0  0  0
  -27.4688  -18.2607   19.1557 C   0  0  0  0  0  0
  -28.2362  -17.1652   19.5893 C   0  0  0  0  0  0
  -27.8255  -19.6029   19.3983 C   0  0  0  0  0  0
  -29.0025  -19.9679   20.1188 C   0  0  0  0  0  0
  -29.4084  -17.3484   20.3348 C   0  0  0  0  0  0
  -29.7605  -18.7675   20.5844 C   0  0  0  0  0  0
  -29.4864  -22.5734   19.4102 C   0  0  0  0  0  0
  -28.5513  -22.2987   21.2450 C   0  0  0  0  0  0
  -28.4679  -23.5140   20.2177 C   0  0  1  0  0  0
  -26.8668  -20.6500   18.8356 C   0  0  0  0  0  0
  -28.7926  -25.0763   20.6345 C   0  0  0  0  0  0
  -29.3006  -21.4508   20.2864 N   0  0  0  0  0  0
  -30.1120  -16.1333   20.9148 N   0  0  0  0  0  0
  -30.1228  -22.6573   18.3794 O   0  0  0  0  0  0
  -30.8779  -18.9853   21.3199 F   0  0  0  0  0  0
  -31.4585  -12.6404   19.2354 H   0  0  0  0  0  0
  -30.3035  -11.6168   20.0599 H   0  0  0  0  0  0
  -29.8542  -11.7848   17.5523 H   0  0  0  0  0  0
  -29.5851  -13.5068   17.7473 H   0  0  0  0  0  0
  -27.9871  -11.2451   19.0091 H   0  0  0  0  0  0
  -27.3903  -12.3741   17.8163 H   0  0  0  0  0  0
  -27.5586  -14.1984   19.3408 H   0  0  0  0  0  0
  -28.7214  -12.4194   21.5525 H   0  0  0  0  0  0
  -28.3370  -14.1314   21.6589 H   0  0  0  0  0  0
  -25.2842   -9.5692   22.4612 H   0  0  0  0  0  0
  -24.0076   -7.4658   22.7475 H   0  0  0  0  0  0
  -21.0880   -8.8749   19.8925 H   0  0  0  0  0  0
  -22.3765  -10.9624   19.6080 H   0  0  0  0  0  0
  -21.2013   -7.6138   23.9750 H   0  0  0  0  0  0
  -21.1499   -6.0494   25.9087 H   0  0  0  0  0  0
  -22.0590   -2.7615   23.2805 H   0  0  0  0  0  0
  -22.4270  -11.9699   22.4624 H   0  0  0  0  0  0
  -21.1226  -13.1141   22.2826 H   0  0  0  0  0  0
  -24.6645  -15.8497   20.5381 H   0  0  0  0  0  0
  -26.2954  -15.6326   20.1846 H   0  0  0  0  0  0
  -26.7234  -32.5361   23.0994 H   0  0  0  0  0  0
  -25.0025  -33.9619   25.0308 H   0  0  0  0  0  0
  -22.7489  -31.2727   21.3654 H   0  0  0  0  0  0
  -23.3766  -35.9598   23.3260 H   0  0  0  0  0  0
  -24.3583  -36.8953   22.2067 H   0  0  0  0  0  0
  -23.7211  -37.6456   23.6697 H   0  0  0  0  0  0
  -26.1146  -31.4754   20.5872 H   0  0  0  0  0  0
  -26.8732  -30.8059   22.0004 H   0  0  0  0  0  0
  -28.1831  -28.9231   21.1245 H   0  0  0  0  0  0
  -26.0413  -25.8315   19.0463 H   0  0  0  0  0  0
  -24.0104  -27.2119   19.0601 H   0  0  0  0  0  0
  -23.8336  -30.5263   19.3997 H   0  0  0  0  0  0
  -22.7913  -29.1988   19.8509 H   0  0  0  0  0  0
  -25.1282  -36.1884   25.0822 H   0  0  0  0  0  0
  -20.9974  -28.3604   24.1609 H   0  0  0  0  0  0
  -20.5187  -26.2649   23.4307 H   0  0  0  0  0  0
  -21.6702  -26.7218   22.2096 H   0  0  0  0  0  0
  -19.6909  -25.6345   21.1484 H   0  0  0  0  0  0
  -19.6862  -27.3344   20.7075 H   0  0  0  0  0  0
  -17.4022  -26.6586   21.4238 H   0  0  0  0  0  0
  -18.0306  -26.0352   22.9319 H   0  0  0  0  0  0
  -19.8137  -30.7429   24.2164 H   0  0  0  0  0  0
  -17.5307  -31.6502   24.5334 H   0  0  0  0  0  0
  -15.5611  -30.3368   23.7910 H   0  0  0  0  0  0
  -15.8578  -28.1277   22.7158 H   0  0  0  0  0  0
  -24.5923  -30.7051   25.7708 H   0  0  0  0  0  0
  -24.8888  -32.2878   26.4790 H   0  0  0  0  0  0
  -25.8034  -30.8908   27.0181 H   0  0  0  0  0  0
  -26.2909  -29.6761   24.1218 H   0  0  0  0  0  0
  -27.4038  -29.7241   25.4666 H   0  0  0  0  0  0
  -27.8778  -30.4272   23.9404 H   0  0  0  0  0  0
  -27.2660  -33.3643   26.1995 H   0  0  0  0  0  0
  -28.3886  -32.6846   25.0310 H   0  0  0  0  0  0
  -28.0692  -31.8473   26.5412 H   0  0  0  0  0  0
  -28.2554  -38.0117   24.7562 H   0  0  0  0  0  0
  -28.1118  -36.2650   24.6210 H   0  0  0  0  0  0
  -27.2323  -37.1336   25.8870 H   0  0  0  0  0  0
  -20.9326  -29.9356   21.7535 H   0  0  0  0  0  0
  -26.0151  -38.2833   24.1470 H   0  0  0  0  0  0
  -26.5528  -18.0677   18.6199 H   0  0  0  0  0  0
  -27.8892  -16.1772   19.3512 H   0  0  0  0  0  0
  -27.5787  -21.8989   21.5342 H   0  0  0  0  0  0
  -29.1580  -22.5068   22.1272 H   0  0  0  0  0  0
  -27.4906  -23.4911   19.7374 H   0  0  0  0  0  0
  -25.9093  -20.2318   18.5161 H   0  0  0  0  0  0
  -27.2910  -21.1568   17.9677 H   0  0  0  0  0  0
  -26.6229  -21.4025   19.5768 H   0  0  0  0  0  0
  -29.8843  -25.1355   20.6189 H   0  0  0  0  0  0
  -28.5448  -25.2149   21.6867 H   0  0  0  0  0  0
  -30.8801  -16.5056   21.4504 H   0  0  0  0  0  0
  1 25  1  0  0  0
  1 30  2  0  0  0
  1 83  1  0  0  0
  2  3  1  0  0  0
  2 25  1  0  0  0
  2 86  1  0  0  0
  2 87  1  0  0  0
  3  4  1  0  0  0
  3 88  1  0  0  0
  3 89  1  0  0  0
  4  5  1  0  0  0
  4 90  1  0  0  0
  4 91  1  0  0  0
  5  6  1  0  0  0
  5 26  1  0  0  0
  5 92  1  0  0  0
  6 25  1  0  0  0
  6 93  1  0  0  0
  6 94  1  0  0  0
  7  8  2  0  0  0
  7 26  1  0  0  0
  7 29  1  0  0  0
  8  9  1  0  0  0
  8 22  1  0  0  0
  9 10  1  0  0  0
  9 27  2  0  0  0
 10 11  2  0  0  0
 10 15  1  0  0  0
 11 12  1  0  0  0
 11 95  1  0  0  0
 12 13  2  0  0  0
 12 96  1  0  0  0
 13 14  1  0  0  0
 13 31  1  0  0  0
 14 15  2  0  0  0
 14 97  1  0  0  0
 15 98  1  0  0  0
 16 17  2  0  0  0
 16 21  1  0  0  0
 16 31  1  0  0  0
 17 18  1  0  0  0
 17 99  1  0  0  0
 18 19  2  0  0  0
 18100  1  0  0  0
 19 20  1  0  0  0
 19 24  1  0  0  0
 20 21  2  0  0  0
 20101  1  0  0  0
 21 23  1  0  0  0
 22 28  1  0  0  0
 22 32  2  0  0  0
 26 27  1  0  0  0
 28102  1  0  0  0
 28103  1  0  0  0
 29104  1  0  0  0
 29105  1  0  0  0
 33 34  1  0  0  0
 33 66  1  0  0  0
 33 70  2  0  0  0
 34 36  1  0  0  0
 34 59  1  0  0  0
 34106  1  0  0  0
 35 44  2  0  0  0
 35 45  1  0  0  0
 35 68  1  0  0  0
 36 56  1  0  0  0
 36107  1  0  0  0
 37 39  1  0  0  0
 37 47  1  0  0  0
 37 66  1  0  0  0
 37108  1  0  0  0
 38 43  2  0  0  0
 38 46  1  0  0  0
 38 47  1  0  0  0
 39 64  1  0  0  0
 39 67  2  0  0  0
 40 52  1  0  0  0
 40 53  2  0  0  0
 40 58  1  0  0  0
 41109  1  0  0  0
 41110  1  0  0  0
 41111  1  0  0  0
 41 48  1  0  0  0
 42 43  1  0  0  0
 42 66  1  0  0  0
 42112  1  0  0  0
 42113  1  0  0  0
 43 44  1  0  0  0
 44114  1  0  0  0
 45 46  2  0  0  0
 45115  1  0  0  0
 46116  1  0  0  0
 47117  1  0  0  0
 47118  1  0  0  0
 48 56  1  0  0  0
 48 65  1  0  0  0
 48119  1  0  0  0
 49 50  1  0  0  0
 49 53  1  0  0  0
 49 64  1  0  0  0
 49120  1  0  0  0
 50 51  1  0  0  0
 50121  1  0  0  0
 50122  1  0  0  0
 51 52  1  0  0  0
 51123  1  0  0  0
 51124  1  0  0  0
 52125  1  0  0  0
 52126  1  0  0  0
 53 54  1  0  0  0
 54 55  2  0  0  0
 54127  1  0  0  0
 55 57  1  0  0  0
 55128  1  0  0  0
 56 69  2  0  0  0
 57 58  2  0  0  0
 57129  1  0  0  0
 58130  1  0  0  0
 59 60  1  0  0  0
 59 61  1  0  0  0
 59 62  1  0  0  0
 60131  1  0  0  0
 60132  1  0  0  0
 60133  1  0  0  0
 61134  1  0  0  0
 61135  1  0  0  0
 61136  1  0  0  0
 62137  1  0  0  0
 62138  1  0  0  0
 62139  1  0  0  0
 63 65  1  0  0  0
 63140  1  0  0  0
 63141  1  0  0  0
 63142  1  0  0  0
 64143  1  0  0  0
 65144  1  0  0  0
 68 81  1  0  0  0
 71 72  2  0  0  0
 71 73  1  0  0  0
 71145  1  0  0  0
 72 75  1  0  0  0
 72146  1  0  0  0
 73 74  2  0  0  0
 73 80  1  0  0  0
 74 76  1  0  0  0
 74 82  1  0  0  0
 75 76  2  0  0  0
 75 83  1  0  0  0
 76 85  1  0  0  0
 77 79  1  0  0  0
 77 82  1  0  0  0
 77 84  2  0  0  0
 78 79  1  0  0  0
 78 82  1  0  0  0
 78147  1  0  0  0
 78148  1  0  0  0
 79 81  1  0  0  0
 79149  1  0  0  0
 80150  1  0  0  0
 80151  1  0  0  0
 80152  1  0  0  0
 81153  1  0  0  0
 81154  1  0  0  0
 83155  1  0  0  0
M  ISO  4   1 100  68 101  81 101  83 100
M  END
> <chiral flag>
0

> <version>
0

> <s_m_source_file>
/data/baiqing/PycharmProjects/Reinvent-master-3.2/result/LINK_invent/BTK/process_docking_weight1_custom_product_contain_oxygen_bond_distance_aromatic_linkinvent_7_9_3/rearranged_h_0061.sdf

> <i_m_source_file_index>
48

> <r_mmod_Potential_Energy-OPLS-2005>
478.628143310547

> <r_mmod_Stretch_Energy-OPLS-2005>
190.138259887695

> <r_mmod_Bend_Energy-OPLS-2005>
309.531921386719

> <r_mmod_Torsional_Energy-OPLS-2005>
318.017608642578

> <r_mmod_Improper_Torsional_Energy-OPLS-2005>
11.9150037765503

> <r_mmod_Van_der_Waal_Energy-OPLS-2005>
126.37572479248

> <r_mmod_Electrostatic_Energy-OPLS-2005>
-407.613189697266

> <r_mmod_Solvation_Energy-OPLS-2005>
-217.566070556641

> <b_mmod_Minimization_Converged-OPLS-2005>
0

> <r_mmod_RMS_Derivative-OPLS-2005>
11.3438472747803

$$$$
49
                    3D
 Structure written by MMmdl.
160169  0  0  1  0            999 V2000
  -30.6017  -14.6296   20.5117 C   0  0  0  0  0  0
  -30.4408  -12.3858   19.4452 C   0  0  0  0  0  0
  -29.5062  -12.5032   18.2210 C   0  0  0  0  0  0
  -28.0277  -12.3437   18.6315 C   0  0  0  0  0  0
  -27.6541  -13.2072   19.8647 C   0  0  2  0  0  0
  -28.6978  -13.0379   20.9917 C   0  0  0  0  0  0
  -25.2526  -13.8098   20.5564 C   0  0  0  0  0  0
  -24.1813  -13.0393   20.9182 C   0  0  0  0  0  0
  -24.6394  -11.6871   20.8768 C   0  0  0  0  0  0
  -23.9060  -10.4272   21.0427 C   0  0  0  0  0  0
  -24.3618   -9.4190   21.9199 C   0  0  0  0  0  0
  -23.6296   -8.2229   22.0752 C   0  0  0  0  0  0
  -22.4274   -8.0281   21.3547 C   0  0  0  0  0  0
  -21.9919   -9.0249   20.4643 C   0  0  0  0  0  0
  -22.7243  -10.2129   20.3064 C   0  0  0  0  0  0
  -21.6846   -6.0744   22.5287 C   0  0  0  0  0  0
  -21.4001   -6.5643   23.8224 C   0  0  0  0  0  0
  -21.3657   -5.6798   24.9181 C   0  0  0  0  0  0
  -21.6043   -4.3059   24.7228 C   0  0  0  0  0  0
  -21.8819   -3.8153   23.4346 C   0  0  0  0  0  0
  -21.9189   -4.6975   22.3403 C   0  0  0  0  0  0
  -22.7840  -13.5202   21.1859 C   0  0  0  0  0  0
  -22.1659   -4.2167   21.0985 F   0  0  0  0  0  0
  -21.5637   -3.4538   25.7738 F   0  0  0  0  0  0
  -30.0134  -13.3951   20.4341 N   0  0  0  0  0  0
  -26.2984  -12.9286   20.3299 N   0  0  0  0  0  0
  -25.9325  -11.6457   20.5791 N   0  0  0  0  0  0
  -22.0487  -12.8212   22.0432 N   0  0  0  0  0  0
  -25.4151  -15.1778   20.3728 N   0  0  0  0  0  0
  -31.7582  -14.8148   20.1176 O   0  0  0  0  0  0
  -21.6627   -6.8887   21.4244 O   0  0  0  0  0  0
  -22.3544  -14.5529   20.6735 O   0  0  0  0  0  0
  -24.6279  -31.8596   23.2006 C   0  0  0  0  0  0
  -25.9113  -32.4781   23.8347 C   0  0  1  0  0  0
  -27.2309  -27.3219   20.1177 C   0  0  0  0  0  0
  -25.5920  -33.8566   24.2287 N   0  0  0  0  0  0
  -23.4223  -30.4837   21.5411 C   0  0  2  0  0  0
  -24.8701  -28.9401   20.1103 C   0  0  0  0  0  0
  -22.7496  -29.4622   22.4895 C   0  0  0  0  0  0
  -18.0294  -28.1386   22.8465 C   0  0  0  0  0  0
  -24.1490  -36.7300   23.2644 C   0  0  0  0  0  0
  -25.9627  -30.7945   21.3681 C   0  0  0  0  0  0
  -26.0393  -29.4207   20.7135 C   0  0  0  0  0  0
  -27.2231  -28.6241   20.7057 C   0  0  0  0  0  0
  -26.0363  -26.8955   19.4900 C   0  0  0  0  0  0
  -24.8696  -27.6813   19.4918 C   0  0  0  0  0  0
  -23.6388  -29.8217   20.1554 C   0  0  0  0  0  0
  -25.4097  -36.3083   24.0358 C   0  0  1  0  0  0
  -20.5896  -28.3683   23.1269 C   0  0  2  0  0  0
  -20.6779  -26.9400   22.5396 C   0  0  0  0  0  0
  -19.5754  -26.6388   21.5195 C   0  0  0  0  0  0
  -18.1937  -26.7925   22.1612 C   0  0  0  0  0  0
  -19.1544  -28.8852   23.2865 C   0  0  0  0  0  0
  -18.9474  -30.1453   23.8880 C   0  0  0  0  0  0
  -17.6479  -30.6578   24.0562 C   0  0  0  0  0  0
  -25.9041  -34.9453   23.5123 C   0  0  0  0  0  0
  -16.5366  -29.9079   23.6323 C   0  0  0  0  0  0
  -16.7288  -28.6512   23.0321 C   0  0  0  0  0  0
  -26.4495  -31.6575   25.0706 C   0  0  0  0  0  0
  -25.3748  -31.3693   26.1458 C   0  0  0  0  0  0
  -27.0312  -30.3003   24.6104 C   0  0  0  0  0  0
  -27.6059  -32.4300   25.7491 C   0  0  0  0  0  0
  -27.5575  -37.1799   24.8467 C   0  0  0  0  0  0
  -21.4206  -29.3055   22.3678 N   0  0  0  0  0  0
  -26.4274  -37.3779   23.9436 N   0  0  0  0  0  0
  -24.6904  -31.0622   22.0943 N   0  0  0  0  0  0
  -23.4236  -28.8143   23.2943 O   0  0  0  0  0  0
  -28.3505  -26.4740   20.1720 O   0  0  0  0  0  0
  -26.5607  -34.8929   22.4685 O   0  0  0  0  0  0
  -23.5444  -32.1384   23.7339 O   0  0  0  0  0  0
  -30.7928  -19.2609   20.0552 C   0  0  0  0  0  0
  -30.8116  -17.8362   20.1182 C   0  0  0  0  0  0
  -28.7514  -19.3090   21.3232 C   0  0  0  0  0  0
  -28.7806  -17.8840   21.4211 C   0  0  0  0  0  0
  -29.7649  -20.0389   20.6549 C   0  0  0  0  0  0
  -29.8135  -17.1041   20.8139 C   0  0  0  0  0  0
  -30.8173  -23.1715   22.3160 C   0  0  0  0  0  0
  -28.9571  -22.4282   20.2465 C   0  0  0  0  0  0
  -29.8920  -24.2793   21.8051 C   0  0  0  0  0  0
  -31.1008  -22.0122   21.3507 C   0  0  0  0  0  0
  -29.2819  -23.9812   20.4125 C   0  0  1  0  0  0
  -27.6714  -17.2191   22.2235 C   0  0  0  0  0  0
  -28.1170  -25.0116   20.0714 C   0  0  0  0  0  0
  -29.8650  -21.5024   20.7298 N   0  0  0  0  0  0
  -29.7717  -15.6436   20.9131 N   0  0  0  0  0  0
  -31.3063  -23.2112   23.4472 O   0  0  0  0  0  0
  -27.9077  -22.0903   19.6910 O   0  0  0  0  0  0
  -31.4810  -12.5201   19.1437 H   0  0  0  0  0  0
  -30.3838  -11.3852   19.8773 H   0  0  0  0  0  0
  -29.7672  -11.7542   17.4727 H   0  0  0  0  0  0
  -29.6508  -13.4742   17.7427 H   0  0  0  0  0  0
  -27.8591  -11.2890   18.8547 H   0  0  0  0  0  0
  -27.3738  -12.5816   17.7914 H   0  0  0  0  0  0
  -27.6792  -14.2454   19.5335 H   0  0  0  0  0  0
  -28.7116  -12.0052   21.3420 H   0  0  0  0  0  0
  -28.4411  -13.6396   21.8657 H   0  0  0  0  0  0
  -25.2762   -9.5669   22.4775 H   0  0  0  0  0  0
  -24.0007   -7.4608   22.7467 H   0  0  0  0  0  0
  -21.0854   -8.8771   19.8938 H   0  0  0  0  0  0
  -22.3709  -10.9675   19.6180 H   0  0  0  0  0  0
  -21.1984   -7.6150   23.9732 H   0  0  0  0  0  0
  -21.1476   -6.0522   25.9090 H   0  0  0  0  0  0
  -22.0598   -2.7620   23.2838 H   0  0  0  0  0  0
  -22.4093  -11.9862   22.4809 H   0  0  0  0  0  0
  -21.1113  -13.1252   22.2648 H   0  0  0  0  0  0
  -24.6280  -15.8138   20.4334 H   0  0  0  0  0  0
  -26.2353  -15.5998   19.9581 H   0  0  0  0  0  0
  -26.7178  -32.5459   23.1104 H   0  0  0  0  0  0
  -25.0060  -33.9682   25.0430 H   0  0  0  0  0  0
  -22.7180  -31.3051   21.3953 H   0  0  0  0  0  0
  -23.3740  -35.9637   23.3293 H   0  0  0  0  0  0
  -24.3601  -36.8926   22.2062 H   0  0  0  0  0  0
  -23.7251  -37.6508   23.6663 H   0  0  0  0  0  0
  -26.0859  -31.5578   20.5973 H   0  0  0  0  0  0
  -26.8488  -30.8507   21.9898 H   0  0  0  0  0  0
  -28.1195  -28.9890   21.1865 H   0  0  0  0  0  0
  -25.9710  -25.9382   18.9981 H   0  0  0  0  0  0
  -23.9750  -27.3048   19.0167 H   0  0  0  0  0  0
  -23.7675  -30.6016   19.4033 H   0  0  0  0  0  0
  -22.7598  -29.2551   19.8443 H   0  0  0  0  0  0
  -25.1266  -36.1943   25.0849 H   0  0  0  0  0  0
  -20.9976  -28.3244   24.1392 H   0  0  0  0  0  0
  -20.5650  -26.2280   23.3585 H   0  0  0  0  0  0
  -21.6645  -26.7405   22.1194 H   0  0  0  0  0  0
  -19.6902  -25.6301   21.1219 H   0  0  0  0  0  0
  -19.6704  -27.3196   20.6725 H   0  0  0  0  0  0
  -17.4193  -26.6666   21.4028 H   0  0  0  0  0  0
  -18.0348  -26.0067   22.9019 H   0  0  0  0  0  0
  -19.7956  -30.7278   24.2234 H   0  0  0  0  0  0
  -17.5033  -31.6255   24.5181 H   0  0  0  0  0  0
  -15.5356  -30.2984   23.7664 H   0  0  0  0  0  0
  -15.8687  -28.0857   22.6990 H   0  0  0  0  0  0
  -24.5958  -30.6981   25.7839 H   0  0  0  0  0  0
  -24.8878  -32.2826   26.4875 H   0  0  0  0  0  0
  -25.8114  -30.8930   27.0238 H   0  0  0  0  0  0
  -26.2842  -29.6783   24.1154 H   0  0  0  0  0  0
  -27.4066  -29.7243   25.4572 H   0  0  0  0  0  0
  -27.8705  -30.4313   23.9264 H   0  0  0  0  0  0
  -27.2681  -33.3627   26.2017 H   0  0  0  0  0  0
  -28.3904  -32.6803   25.0336 H   0  0  0  0  0  0
  -28.0669  -31.8431   26.5447 H   0  0  0  0  0  0
  -28.2569  -38.0117   24.7513 H   0  0  0  0  0  0
  -28.1092  -36.2643   24.6270 H   0  0  0  0  0  0
  -27.2301  -37.1427   25.8871 H   0  0  0  0  0  0
  -20.9372  -29.8863   21.6972 H   0  0  0  0  0  0
  -26.0164  -38.2859   24.1417 H   0  0  0  0  0  0
  -31.6029  -19.7608   19.5424 H   0  0  0  0  0  0
  -31.6208  -17.3126   19.6295 H   0  0  0  0  0  0
  -27.9586  -19.8527   21.8198 H   0  0  0  0  0  0
  -30.4534  -25.2128   21.7747 H   0  0  0  0  0  0
  -29.0911  -24.4148   22.5333 H   0  0  0  0  0  0
  -31.6011  -21.2182   21.9073 H   0  0  0  0  0  0
  -31.7952  -22.3411   20.5786 H   0  0  0  0  0  0
  -30.0721  -24.1687   19.6831 H   0  0  0  0  0  0
  -27.3448  -17.8624   23.0411 H   0  0  0  0  0  0
  -27.9788  -16.2732   22.6703 H   0  0  0  0  0  0
  -26.8086  -17.0402   21.5865 H   0  0  0  0  0  0
  -27.8071  -24.7988   19.0477 H   0  0  0  0  0  0
  -27.2697  -24.7586   20.7098 H   0  0  0  0  0  0
  -28.8952  -15.2874   21.2624 H   0  0  0  0  0  0
  1 25  1  0  0  0
  1 30  2  0  0  0
  1 85  1  0  0  0
  2  3  1  0  0  0
  2 25  1  0  0  0
  2 88  1  0  0  0
  2 89  1  0  0  0
  3  4  1  0  0  0
  3 90  1  0  0  0
  3 91  1  0  0  0
  4  5  1  0  0  0
  4 92  1  0  0  0
  4 93  1  0  0  0
  5  6  1  0  0  0
  5 26  1  0  0  0
  5 94  1  0  0  0
  6 25  1  0  0  0
  6 95  1  0  0  0
  6 96  1  0  0  0
  7  8  2  0  0  0
  7 26  1  0  0  0
  7 29  1  0  0  0
  8  9  1  0  0  0
  8 22  1  0  0  0
  9 10  1  0  0  0
  9 27  2  0  0  0
 10 11  2  0  0  0
 10 15  1  0  0  0
 11 12  1  0  0  0
 11 97  1  0  0  0
 12 13  2  0  0  0
 12 98  1  0  0  0
 13 14  1  0  0  0
 13 31  1  0  0  0
 14 15  2  0  0  0
 14 99  1  0  0  0
 15100  1  0  0  0
 16 17  2  0  0  0
 16 21  1  0  0  0
 16 31  1  0  0  0
 17 18  1  0  0  0
 17101  1  0  0  0
 18 19  2  0  0  0
 18102  1  0  0  0
 19 20  1  0  0  0
 19 24  1  0  0  0
 20 21  2  0  0  0
 20103  1  0  0  0
 21 23  1  0  0  0
 22 28  1  0  0  0
 22 32  2  0  0  0
 26 27  1  0  0  0
 28104  1  0  0  0
 28105  1  0  0  0
 29106  1  0  0  0
 29107  1  0  0  0
 33 34  1  0  0  0
 33 66  1  0  0  0
 33 70  2  0  0  0
 34 36  1  0  0  0
 34 59  1  0  0  0
 34108  1  0  0  0
 35 44  2  0  0  0
 35 45  1  0  0  0
 35 68  1  0  0  0
 36 56  1  0  0  0
 36109  1  0  0  0
 37 39  1  0  0  0
 37 47  1  0  0  0
 37 66  1  0  0  0
 37110  1  0  0  0
 38 43  2  0  0  0
 38 46  1  0  0  0
 38 47  1  0  0  0
 39 64  1  0  0  0
 39 67  2  0  0  0
 40 52  1  0  0  0
 40 53  2  0  0  0
 40 58  1  0  0  0
 41111  1  0  0  0
 41112  1  0  0  0
 41113  1  0  0  0
 41 48  1  0  0  0
 42 43  1  0  0  0
 42 66  1  0  0  0
 42114  1  0  0  0
 42115  1  0  0  0
 43 44  1  0  0  0
 44116  1  0  0  0
 45 46  2  0  0  0
 45117  1  0  0  0
 46118  1  0  0  0
 47119  1  0  0  0
 47120  1  0  0  0
 48 56  1  0  0  0
 48 65  1  0  0  0
 48121  1  0  0  0
 49 50  1  0  0  0
 49 53  1  0  0  0
 49 64  1  0  0  0
 49122  1  0  0  0
 50 51  1  0  0  0
 50123  1  0  0  0
 50124  1  0  0  0
 51 52  1  0  0  0
 51125  1  0  0  0
 51126  1  0  0  0
 52127  1  0  0  0
 52128  1  0  0  0
 53 54  1  0  0  0
 54 55  2  0  0  0
 54129  1  0  0  0
 55 57  1  0  0  0
 55130  1  0  0  0
 56 69  2  0  0  0
 57 58  2  0  0  0
 57131  1  0  0  0
 58132  1  0  0  0
 59 60  1  0  0  0
 59 61  1  0  0  0
 59 62  1  0  0  0
 60133  1  0  0  0
 60134  1  0  0  0
 60135  1  0  0  0
 61136  1  0  0  0
 61137  1  0  0  0
 61138  1  0  0  0
 62139  1  0  0  0
 62140  1  0  0  0
 62141  1  0  0  0
 63 65  1  0  0  0
 63142  1  0  0  0
 63143  1  0  0  0
 63144  1  0  0  0
 64145  1  0  0  0
 65146  1  0  0  0
 68 83  1  0  0  0
 71 72  2  0  0  0
 71 75  1  0  0  0
 71147  1  0  0  0
 72 76  1  0  0  0
 72148  1  0  0  0
 73 74  1  0  0  0
 73 75  2  0  0  0
 73149  1  0  0  0
 74 76  2  0  0  0
 74 82  1  0  0  0
 75 84  1  0  0  0
 76 85  1  0  0  0
 77 79  1  0  0  0
 77 80  1  0  0  0
 77 86  2  0  0  0
 78 81  1  0  0  0
 78 84  1  0  0  0
 78 87  2  0  0  0
 79 81  1  0  0  0
 79150  1  0  0  0
 79151  1  0  0  0
 80 84  1  0  0  0
 80152  1  0  0  0
 80153  1  0  0  0
 81 83  1  0  0  0
 81154  1  0  0  0
 82155  1  0  0  0
 82156  1  0  0  0
 82157  1  0  0  0
 83158  1  0  0  0
 83159  1  0  0  0
 85160  1  0  0  0
M  ISO  4   1 100  68 101  83 101  85 100
M  END
> <chiral flag>
0

> <version>
0

> <s_m_source_file>
/data/baiqing/PycharmProjects/Reinvent-master-3.2/result/LINK_invent/BTK/process_docking_weight1_custom_product_contain_oxygen_bond_distance_aromatic_linkinvent_7_9_3/rearranged_h_0061.sdf

> <i_m_source_file_index>
49

> <r_mmod_Potential_Energy-OPLS-2005>
40.5718536376953

> <r_mmod_Stretch_Energy-OPLS-2005>
84.7053146362305

> <r_mmod_Bend_Energy-OPLS-2005>
135.928237915039

> <r_mmod_Torsional_Energy-OPLS-2005>
290.030426025391

> <r_mmod_Improper_Torsional_Energy-OPLS-2005>
4.97360467910767

> <r_mmod_Van_der_Waal_Energy-OPLS-2005>
163.582885742188

> <r_mmod_Electrostatic_Energy-OPLS-2005>
-451.6416015625

> <r_mmod_Solvation_Energy-OPLS-2005>
-233.817932128906

> <b_mmod_Minimization_Converged-OPLS-2005>
0

> <r_mmod_RMS_Derivative-OPLS-2005>
2.44249486923218

$$$$
50
                    3D
 Structure written by MMmdl.
167176  0  0  1  0            999 V2000
  -30.7625  -14.4833   20.4315 C   0  0  0  0  0  0
  -30.3868  -12.2346   19.4937 C   0  0  0  0  0  0
  -29.5261  -12.4137   18.2271 C   0  0  0  0  0  0
  -28.0194  -12.4261   18.5656 C   0  0  0  0  0  0
  -27.6574  -13.2503   19.8361 C   0  0  2  0  0  0
  -28.6981  -13.1108   20.9723 C   0  0  0  0  0  0
  -25.2520  -13.8342   20.5226 C   0  0  0  0  0  0
  -24.1872  -13.0592   20.9106 C   0  0  0  0  0  0
  -24.6538  -11.7099   20.8751 C   0  0  0  0  0  0
  -23.9219  -10.4484   21.0460 C   0  0  0  0  0  0
  -24.3770   -9.4376   21.9203 C   0  0  0  0  0  0
  -23.6440   -8.2422   22.0767 C   0  0  0  0  0  0
  -22.4406   -8.0453   21.3575 C   0  0  0  0  0  0
  -22.0091   -9.0440   20.4663 C   0  0  0  0  0  0
  -22.7420  -10.2322   20.3068 C   0  0  0  0  0  0
  -21.6900   -6.0888   22.5307 C   0  0  0  0  0  0
  -21.4064   -6.5760   23.8240 C   0  0  0  0  0  0
  -21.3647   -5.6871   24.9180 C   0  0  0  0  0  0
  -21.6001   -4.3145   24.7191 C   0  0  0  0  0  0
  -21.8794   -3.8271   23.4309 C   0  0  0  0  0  0
  -21.9219   -4.7131   22.3391 C   0  0  0  0  0  0
  -22.7913  -13.5385   21.1839 C   0  0  0  0  0  0
  -22.1676   -4.2320   21.0966 F   0  0  0  0  0  0
  -21.5593   -3.4609   25.7706 F   0  0  0  0  0  0
  -30.0294  -13.3328   20.3964 N   0  0  0  0  0  0
  -26.3024  -12.9575   20.3048 N   0  0  0  0  0  0
  -25.9474  -11.6750   20.5786 N   0  0  0  0  0  0
  -22.0606  -12.8329   22.0410 N   0  0  0  0  0  0
  -25.4132  -15.1991   20.2971 N   0  0  0  0  0  0
  -31.9857  -14.4859   20.3281 O   0  0  0  0  0  0
  -21.6701   -6.9080   21.4279 O   0  0  0  0  0  0
  -22.3557  -14.5702   20.6794 O   0  0  0  0  0  0
  -24.6189  -31.8646   23.2056 C   0  0  0  0  0  0
  -25.9056  -32.4808   23.8379 C   0  0  1  0  0  0
  -27.2494  -27.4118   20.1542 C   0  0  0  0  0  0
  -25.5907  -33.8585   24.2355 N   0  0  0  0  0  0
  -23.4107  -30.4795   21.5480 C   0  0  2  0  0  0
  -24.8688  -28.9426   20.1165 C   0  0  0  0  0  0
  -22.7480  -29.4594   22.5041 C   0  0  0  0  0  0
  -18.0282  -28.1392   22.8537 C   0  0  0  0  0  0
  -24.1468  -36.7276   23.2621 C   0  0  0  0  0  0
  -25.9336  -30.8349   21.3474 C   0  0  0  0  0  0
  -26.0232  -29.4576   20.7220 C   0  0  0  0  0  0
  -27.2182  -28.6982   20.7402 C   0  0  0  0  0  0
  -26.0839  -26.9177   19.5290 C   0  0  0  0  0  0
  -24.8950  -27.6735   19.5097 C   0  0  0  0  0  0
  -23.6243  -29.8047   20.1654 C   0  0  0  0  0  0
  -25.4076  -36.3088   24.0373 C   0  0  1  0  0  0
  -20.5874  -28.3648   23.1365 C   0  0  2  0  0  0
  -20.6764  -26.9402   22.5418 C   0  0  0  0  0  0
  -19.5715  -26.6401   21.5229 C   0  0  0  0  0  0
  -18.1879  -26.7945   22.1619 C   0  0  0  0  0  0
  -19.1517  -28.8837   23.2917 C   0  0  0  0  0  0
  -18.9453  -30.1458   23.8921 C   0  0  0  0  0  0
  -17.6434  -30.6588   24.0583 C   0  0  0  0  0  0
  -25.9049  -34.9459   23.5163 C   0  0  0  0  0  0
  -16.5343  -29.9089   23.6370 C   0  0  0  0  0  0
  -16.7256  -28.6505   23.0413 C   0  0  0  0  0  0
  -26.4536  -31.6581   25.0685 C   0  0  0  0  0  0
  -25.3816  -31.3572   26.1439 C   0  0  0  0  0  0
  -27.0429  -30.3082   24.5963 C   0  0  0  0  0  0
  -27.6191  -32.4244   25.7406 C   0  0  0  0  0  0
  -27.5602  -37.1700   24.8437 C   0  0  0  0  0  0
  -21.4184  -29.2983   22.3781 N   0  0  0  0  0  0
  -26.4236  -37.3801   23.9523 N   0  0  0  0  0  0
  -24.6739  -31.0741   22.0946 N   0  0  0  0  0  0
  -23.4219  -28.8153   23.3101 O   0  0  0  0  0  0
  -28.3778  -26.6179   20.2061 O   0  0  0  0  0  0
  -26.5593  -34.8912   22.4731 O   0  0  0  0  0  0
  -23.5384  -32.1417   23.7429 O   0  0  0  0  0  0
  -28.2754  -18.0407   21.9604 C   0  0  0  0  0  0
  -29.0491  -19.2002   21.8293 C   0  0  0  0  0  0
  -28.7064  -16.8366   21.3837 C   0  0  0  0  0  0
  -30.2722  -19.1767   21.1214 C   0  0  0  0  0  0
  -30.7310  -17.9474   20.5614 C   0  0  0  0  0  0
  -29.9140  -16.7709   20.6633 C   0  0  0  0  0  0
  -30.3558  -22.4028   22.3268 C   0  0  0  0  0  0
  -29.4904  -23.6647   22.4746 C   0  0  0  0  0  0
  -28.9101  -23.5669   20.0357 C   0  0  0  0  0  0
  -29.7184  -22.2484   19.9190 C   0  0  0  0  0  0
  -29.3609  -24.5010   21.1718 C   0  0  1  0  0  0
  -32.0777  -17.9504   19.8263 C   0  0  0  0  0  0
  -30.2797  -15.7606   18.4597 C   0  0  0  0  0  0
  -31.0847  -20.4724   20.9542 C   0  0  0  0  0  0
  -28.3706  -25.6924   21.3185 C   0  0  0  0  0  0
  -30.3534  -21.7411   21.1468 N   0  0  0  0  0  0
  -30.1376  -15.5708   19.9139 N   0  0  0  0  0  0
  -30.9837  -22.0060   23.3124 O   0  0  0  0  0  0
  -31.4524  -12.1986   19.2623 H   0  0  0  0  0  0
  -30.1494  -11.2791   19.9654 H   0  0  0  0  0  0
  -29.7388  -11.6238   17.5059 H   0  0  0  0  0  0
  -29.7998  -13.3323   17.7191 H   0  0  0  0  0  0
  -27.6850  -11.3948   18.6651 H   0  0  0  0  0  0
  -27.4748  -12.8367   17.7121 H   0  0  0  0  0  0
  -27.6821  -14.2947   19.5183 H   0  0  0  0  0  0
  -28.6310  -12.1210   21.4241 H   0  0  0  0  0  0
  -28.4943  -13.8215   21.7748 H   0  0  0  0  0  0
  -25.2945   -9.5870   22.4748 H   0  0  0  0  0  0
  -24.0174   -7.4815   22.7445 H   0  0  0  0  0  0
  -21.1061   -8.8989   19.8917 H   0  0  0  0  0  0
  -22.3938  -10.9880   19.6174 H   0  0  0  0  0  0
  -21.2062   -7.6261   23.9848 H   0  0  0  0  0  0
  -21.1466   -6.0555   25.9079 H   0  0  0  0  0  0
  -22.0566   -2.7747   23.2743 H   0  0  0  0  0  0
  -22.4386  -12.0093   22.4818 H   0  0  0  0  0  0
  -21.1214  -13.1296   22.2644 H   0  0  0  0  0  0
  -24.6334  -15.8455   20.3537 H   0  0  0  0  0  0
  -26.0823  -15.4948   19.5964 H   0  0  0  0  0  0
  -26.7162  -32.5558   23.1181 H   0  0  0  0  0  0
  -25.0185  -33.9763   25.0594 H   0  0  0  0  0  0
  -22.6957  -31.2922   21.4026 H   0  0  0  0  0  0
  -23.3815  -35.9513   23.3101 H   0  0  0  0  0  0
  -24.3612  -36.9090   22.2076 H   0  0  0  0  0  0
  -23.7091  -37.6358   23.6764 H   0  0  0  0  0  0
  -26.0036  -31.5723   20.5509 H   0  0  0  0  0  0
  -26.8363  -30.9286   21.9370 H   0  0  0  0  0  0
  -28.1093  -29.0816   21.2194 H   0  0  0  0  0  0
  -26.1040  -25.9363   19.0798 H   0  0  0  0  0  0
  -24.0085  -27.2760   19.0333 H   0  0  0  0  0  0
  -23.7180  -30.5732   19.3944 H   0  0  0  0  0  0
  -22.7531  -29.2082   19.8894 H   0  0  0  0  0  0
  -25.1202  -36.1926   25.0850 H   0  0  0  0  0  0
  -20.9940  -28.3203   24.1501 H   0  0  0  0  0  0
  -20.5744  -26.2247   23.3590 H   0  0  0  0  0  0
  -21.6634  -26.7489   22.1150 H   0  0  0  0  0  0
  -19.6870  -25.6317   21.1215 H   0  0  0  0  0  0
  -19.6664  -27.3263   20.6798 H   0  0  0  0  0  0
  -17.4197  -26.6836   21.3955 H   0  0  0  0  0  0
  -18.0165  -26.0034   22.8942 H   0  0  0  0  0  0
  -19.7912  -30.7271   24.2320 H   0  0  0  0  0  0
  -17.4987  -31.6299   24.5148 H   0  0  0  0  0  0
  -15.5327  -30.2977   23.7693 H   0  0  0  0  0  0
  -15.8672  -28.0810   22.7150 H   0  0  0  0  0  0
  -24.6111  -30.6796   25.7754 H   0  0  0  0  0  0
  -24.8825  -32.2619   26.4895 H   0  0  0  0  0  0
  -25.8174  -30.8775   27.0206 H   0  0  0  0  0  0
  -26.2940  -29.6637   24.1348 H   0  0  0  0  0  0
  -27.4720  -29.7485   25.4292 H   0  0  0  0  0  0
  -27.8488  -30.4542   23.8764 H   0  0  0  0  0  0
  -27.3051  -33.3683   26.1854 H   0  0  0  0  0  0
  -28.4046  -32.6525   25.0187 H   0  0  0  0  0  0
  -28.0796  -31.8381   26.5374 H   0  0  0  0  0  0
  -28.2434  -38.0169   24.7841 H   0  0  0  0  0  0
  -28.1290  -36.2762   24.5840 H   0  0  0  0  0  0
  -27.2399  -37.0854   25.8825 H   0  0  0  0  0  0
  -20.9410  -29.8727   21.7009 H   0  0  0  0  0  0
  -26.0112  -38.2833   24.1712 H   0  0  0  0  0  0
  -27.3261  -18.0931   22.4769 H   0  0  0  0  0  0
  -28.6622  -20.1097   22.2697 H   0  0  0  0  0  0
  -28.0631  -15.9753   21.4481 H   0  0  0  0  0  0
  -29.9050  -24.2681   23.2808 H   0  0  0  0  0  0
  -28.5099  -23.3419   22.8346 H   0  0  0  0  0  0
  -27.8562  -23.3172   20.1768 H   0  0  0  0  0  0
  -28.9507  -24.1090   19.0888 H   0  0  0  0  0  0
  -30.4981  -22.3915   19.1739 H   0  0  0  0  0  0
  -29.0716  -21.4559   19.5382 H   0  0  0  0  0  0
  -30.3494  -24.8986   20.9376 H   0  0  0  0  0  0
  -32.8139  -18.5761   20.3322 H   0  0  0  0  0  0
  -31.9568  -18.3482   18.8179 H   0  0  0  0  0  0
  -32.5300  -16.9652   19.7438 H   0  0  0  0  0  0
  -29.3535  -15.4753   17.9636 H   0  0  0  0  0  0
  -31.0930  -15.1684   18.0275 H   0  0  0  0  0  0
  -30.4677  -16.7928   18.1695 H   0  0  0  0  0  0
  -31.5117  -20.5018   19.9479 H   0  0  0  0  0  0
  -31.9444  -20.3971   21.6250 H   0  0  0  0  0  0
  -28.5793  -26.2433   22.2390 H   0  0  0  0  0  0
  -27.3759  -25.2649   21.4585 H   0  0  0  0  0  0
  1 25  1  0  0  0
  1 30  2  0  0  0
  1 87  1  0  0  0
  2  3  1  0  0  0
  2 25  1  0  0  0
  2 89  1  0  0  0
  2 90  1  0  0  0
  3  4  1  0  0  0
  3 91  1  0  0  0
  3 92  1  0  0  0
  4  5  1  0  0  0
  4 93  1  0  0  0
  4 94  1  0  0  0
  5  6  1  0  0  0
  5 26  1  0  0  0
  5 95  1  0  0  0
  6 25  1  0  0  0
  6 96  1  0  0  0
  6 97  1  0  0  0
  7  8  2  0  0  0
  7 26  1  0  0  0
  7 29  1  0  0  0
  8  9  1  0  0  0
  8 22  1  0  0  0
  9 10  1  0  0  0
  9 27  2  0  0  0
 10 11  2  0  0  0
 10 15  1  0  0  0
 11 12  1  0  0  0
 11 98  1  0  0  0
 12 13  2  0  0  0
 12 99  1  0  0  0
 13 14  1  0  0  0
 13 31  1  0  0  0
 14 15  2  0  0  0
 14100  1  0  0  0
 15101  1  0  0  0
 16 17  2  0  0  0
 16 21  1  0  0  0
 16 31  1  0  0  0
 17 18  1  0  0  0
 17102  1  0  0  0
 18 19  2  0  0  0
 18103  1  0  0  0
 19 20  1  0  0  0
 19 24  1  0  0  0
 20 21  2  0  0  0
 20104  1  0  0  0
 21 23  1  0  0  0
 22 28  1  0  0  0
 22 32  2  0  0  0
 26 27  1  0  0  0
 28105  1  0  0  0
 28106  1  0  0  0
 29107  1  0  0  0
 29108  1  0  0  0
 33 34  1  0  0  0
 33 66  1  0  0  0
 33 70  2  0  0  0
 34 36  1  0  0  0
 34 59  1  0  0  0
 34109  1  0  0  0
 35 44  2  0  0  0
 35 45  1  0  0  0
 35 68  1  0  0  0
 36 56  1  0  0  0
 36110  1  0  0  0
 37 39  1  0  0  0
 37 47  1  0  0  0
 37 66  1  0  0  0
 37111  1  0  0  0
 38 43  2  0  0  0
 38 46  1  0  0  0
 38 47  1  0  0  0
 39 64  1  0  0  0
 39 67  2  0  0  0
 40 52  1  0  0  0
 40 53  2  0  0  0
 40 58  1  0  0  0
 41112  1  0  0  0
 41113  1  0  0  0
 41114  1  0  0  0
 41 48  1  0  0  0
 42 43  1  0  0  0
 42 66  1  0  0  0
 42115  1  0  0  0
 42116  1  0  0  0
 43 44  1  0  0  0
 44117  1  0  0  0
 45 46  2  0  0  0
 45118  1  0  0  0
 46119  1  0  0  0
 47120  1  0  0  0
 47121  1  0  0  0
 48 56  1  0  0  0
 48 65  1  0  0  0
 48122  1  0  0  0
 49 50  1  0  0  0
 49 53  1  0  0  0
 49 64  1  0  0  0
 49123  1  0  0  0
 50 51  1  0  0  0
 50124  1  0  0  0
 50125  1  0  0  0
 51 52  1  0  0  0
 51126  1  0  0  0
 51127  1  0  0  0
 52128  1  0  0  0
 52129  1  0  0  0
 53 54  1  0  0  0
 54 55  2  0  0  0
 54130  1  0  0  0
 55 57  1  0  0  0
 55131  1  0  0  0
 56 69  2  0  0  0
 57 58  2  0  0  0
 57132  1  0  0  0
 58133  1  0  0  0
 59 60  1  0  0  0
 59 61  1  0  0  0
 59 62  1  0  0  0
 60134  1  0  0  0
 60135  1  0  0  0
 60136  1  0  0  0
 61137  1  0  0  0
 61138  1  0  0  0
 61139  1  0  0  0
 62140  1  0  0  0
 62141  1  0  0  0
 62142  1  0  0  0
 63 65  1  0  0  0
 63143  1  0  0  0
 63144  1  0  0  0
 63145  1  0  0  0
 64146  1  0  0  0
 65147  1  0  0  0
 68 85  1  0  0  0
 71 72  2  0  0  0
 71 73  1  0  0  0
 71148  1  0  0  0
 72 74  1  0  0  0
 72149  1  0  0  0
 73 76  2  0  0  0
 73150  1  0  0  0
 74 75  2  0  0  0
 74 84  1  0  0  0
 75 76  1  0  0  0
 75 82  1  0  0  0
 76 87  1  0  0  0
 77 78  1  0  0  0
 77 86  1  0  0  0
 77 88  2  0  0  0
 78 81  1  0  0  0
 78151  1  0  0  0
 78152  1  0  0  0
 79 80  1  0  0  0
 79 81  1  0  0  0
 79153  1  0  0  0
 79154  1  0  0  0
 80 86  1  0  0  0
 80155  1  0  0  0
 80156  1  0  0  0
 81 85  1  0  0  0
 81157  1  0  0  0
 82158  1  0  0  0
 82159  1  0  0  0
 82160  1  0  0  0
 83 87  1  0  0  0
 83161  1  0  0  0
 83162  1  0  0  0
 83163  1  0  0  0
 84 86  1  0  0  0
 84164  1  0  0  0
 84165  1  0  0  0
 85166  1  0  0  0
 85167  1  0  0  0
M  ISO  4   1 100  68 101  85 101  87 100
M  END
> <chiral flag>
0

> <version>
0

> <s_m_source_file>
/data/baiqing/PycharmProjects/Reinvent-master-3.2/result/LINK_invent/BTK/process_docking_weight1_custom_product_contain_oxygen_bond_distance_aromatic_linkinvent_7_9_3/rearranged_h_0061.sdf

> <i_m_source_file_index>
50

> <r_mmod_Potential_Energy-OPLS-2005>
233.749877929688

> <r_mmod_Stretch_Energy-OPLS-2005>
47.323860168457

> <r_mmod_Bend_Energy-OPLS-2005>
114.631408691406

> <r_mmod_Torsional_Energy-OPLS-2005>
380.560699462891

> <r_mmod_Improper_Torsional_Energy-OPLS-2005>
29.7073078155518

> <r_mmod_Van_der_Waal_Energy-OPLS-2005>
159.501235961914

> <r_mmod_Electrostatic_Energy-OPLS-2005>
-336.245971679688

> <r_mmod_Solvation_Energy-OPLS-2005>
-207.601379394531

> <b_mmod_Minimization_Converged-OPLS-2005>
0

> <r_mmod_RMS_Derivative-OPLS-2005>
8.40653610229492

$$$$
51
                    3D
 Structure written by MMmdl.
151159  0  0  1  0            999 V2000
  -30.6154  -14.7290   20.4305 C   0  0  0  0  0  0
  -30.4260  -12.4369   19.4787 C   0  0  0  0  0  0
  -29.5097  -12.5027   18.2374 C   0  0  0  0  0  0
  -28.0335  -12.3371   18.6453 C   0  0  0  0  0  0
  -27.6402  -13.2348   19.8492 C   0  0  2  0  0  0
  -28.6824  -13.1664   20.9864 C   0  0  0  0  0  0
  -25.2496  -13.8212   20.5690 C   0  0  0  0  0  0
  -24.1792  -13.0447   20.9204 C   0  0  0  0  0  0
  -24.6384  -11.6927   20.8739 C   0  0  0  0  0  0
  -23.9065  -10.4300   21.0403 C   0  0  0  0  0  0
  -24.3620   -9.4216   21.9179 C   0  0  0  0  0  0
  -23.6298   -8.2248   22.0752 C   0  0  0  0  0  0
  -22.4279   -8.0280   21.3545 C   0  0  0  0  0  0
  -21.9906   -9.0252   20.4649 C   0  0  0  0  0  0
  -22.7232  -10.2136   20.3058 C   0  0  0  0  0  0
  -21.6857   -6.0734   22.5278 C   0  0  0  0  0  0
  -21.4017   -6.5637   23.8210 C   0  0  0  0  0  0
  -21.3662   -5.6791   24.9172 C   0  0  0  0  0  0
  -21.6045   -4.3052   24.7222 C   0  0  0  0  0  0
  -21.8821   -3.8144   23.4343 C   0  0  0  0  0  0
  -21.9195   -4.6961   22.3400 C   0  0  0  0  0  0
  -22.7813  -13.5224   21.1862 C   0  0  0  0  0  0
  -22.1665   -4.2147   21.0976 F   0  0  0  0  0  0
  -21.5628   -3.4536   25.7735 F   0  0  0  0  0  0
  -29.9876  -13.5041   20.4079 N   0  0  0  0  0  0
  -26.2921  -12.9421   20.3265 N   0  0  0  0  0  0
  -25.9314  -11.6560   20.5738 N   0  0  0  0  0  0
  -22.0458  -12.8221   22.0424 N   0  0  0  0  0  0
  -25.4192  -15.1938   20.4118 N   0  0  0  0  0  0
  -31.8123  -14.7952   20.1361 O   0  0  0  0  0  0
  -21.6645   -6.8877   21.4240 O   0  0  0  0  0  0
  -22.3489  -14.5518   20.6694 O   0  0  0  0  0  0
  -24.6307  -31.8547   23.1978 C   0  0  0  0  0  0
  -25.9141  -32.4742   23.8316 C   0  0  1  0  0  0
  -27.2195  -27.2670   20.1182 C   0  0  0  0  0  0
  -25.5943  -33.8548   24.2231 N   0  0  0  0  0  0
  -23.4249  -30.4784   21.5405 C   0  0  2  0  0  0
  -24.8697  -28.9245   20.1080 C   0  0  0  0  0  0
  -22.7486  -29.4603   22.4904 C   0  0  0  0  0  0
  -18.0287  -28.1381   22.8478 C   0  0  0  0  0  0
  -24.1490  -36.7287   23.2632 C   0  0  0  0  0  0
  -25.9708  -30.7685   21.3765 C   0  0  0  0  0  0
  -26.0402  -29.3927   20.7153 C   0  0  0  0  0  0
  -27.2137  -28.5751   20.7102 C   0  0  0  0  0  0
  -26.0177  -26.8579   19.4968 C   0  0  0  0  0  0
  -24.8630  -27.6651   19.4903 C   0  0  0  0  0  0
  -23.6409  -29.8114   20.1559 C   0  0  0  0  0  0
  -25.4117  -36.3061   24.0312 C   0  0  1  0  0  0
  -20.5888  -28.3687   23.1272 C   0  0  2  0  0  0
  -20.6769  -26.9407   22.5404 C   0  0  0  0  0  0
  -19.5746  -26.6376   21.5206 C   0  0  0  0  0  0
  -18.1930  -26.7920   22.1625 C   0  0  0  0  0  0
  -19.1540  -28.8854   23.2867 C   0  0  0  0  0  0
  -18.9466  -30.1460   23.8874 C   0  0  0  0  0  0
  -17.6465  -30.6582   24.0561 C   0  0  0  0  0  0
  -25.9069  -34.9435   23.5074 C   0  0  0  0  0  0
  -16.5356  -29.9078   23.6332 C   0  0  0  0  0  0
  -16.7276  -28.6502   23.0342 C   0  0  0  0  0  0
  -26.4500  -31.6577   25.0715 C   0  0  0  0  0  0
  -25.3728  -31.3743   26.1441 C   0  0  0  0  0  0
  -27.0342  -30.2978   24.6234 C   0  0  0  0  0  0
  -27.6033  -32.4336   25.7503 C   0  0  0  0  0  0
  -27.5584  -37.1789   24.8450 C   0  0  0  0  0  0
  -21.4195  -29.3034   22.3656 N   0  0  0  0  0  0
  -26.4277  -37.3774   23.9420 N   0  0  0  0  0  0
  -24.6944  -31.0524   22.0943 N   0  0  0  0  0  0
  -23.4192  -28.8148   23.3003 O   0  0  0  0  0  0
  -28.3459  -26.4166   20.1951 O   0  0  0  0  0  0
  -26.5650  -34.8919   22.4648 O   0  0  0  0  0  0
  -23.5466  -32.1367   23.7292 O   0  0  0  0  0  0
  -31.1160  -18.6623   18.3377 C   0  0  0  0  0  0
  -30.5111  -19.8283   18.8366 C   0  0  0  0  0  0
  -30.8936  -17.4078   18.9313 C   0  0  0  0  0  0
  -29.4311  -18.4826   20.5515 C   0  0  0  0  0  0
  -29.6340  -19.7993   19.9461 C   0  0  0  0  0  0
  -30.0627  -17.2551   20.0656 C   0  0  0  0  0  0
  -28.8867  -22.3038   19.7739 C   0  0  0  0  0  0
  -28.5431  -23.6821   20.5165 C   0  0  0  0  0  0
  -28.4173  -25.0294   19.6202 C   0  0  0  0  0  0
  -29.0679  -21.0906   20.4375 N   0  0  0  0  0  0
  -29.8531  -15.8805   20.6082 N   0  0  0  0  0  0
  -28.9458  -22.3524   18.5432 O   0  0  0  0  0  0
  -31.4692  -12.5484   19.1781 H   0  0  0  0  0  0
  -30.3587  -11.4602   19.9609 H   0  0  0  0  0  0
  -29.7883  -11.7297   17.5198 H   0  0  0  0  0  0
  -29.6469  -13.4586   17.7298 H   0  0  0  0  0  0
  -27.8806  -11.2882   18.9012 H   0  0  0  0  0  0
  -27.3824  -12.5412   17.7943 H   0  0  0  0  0  0
  -27.6357  -14.2575   19.4711 H   0  0  0  0  0  0
  -28.7077  -12.1705   21.4309 H   0  0  0  0  0  0
  -28.4212  -13.8553   21.7906 H   0  0  0  0  0  0
  -25.2769   -9.5692   22.4748 H   0  0  0  0  0  0
  -24.0012   -7.4638   22.7468 H   0  0  0  0  0  0
  -21.0838   -8.8767   19.8954 H   0  0  0  0  0  0
  -22.3688  -10.9672   19.6165 H   0  0  0  0  0  0
  -21.2014   -7.6147   23.9713 H   0  0  0  0  0  0
  -21.1481   -6.0522   25.9076 H   0  0  0  0  0  0
  -22.0600   -2.7607   23.2843 H   0  0  0  0  0  0
  -22.4081  -11.9904   22.4848 H   0  0  0  0  0  0
  -21.1070  -13.1241   22.2606 H   0  0  0  0  0  0
  -24.6515  -15.8481   20.5201 H   0  0  0  0  0  0
  -26.2652  -15.6324   20.0706 H   0  0  0  0  0  0
  -26.7207  -32.5383   23.1058 H   0  0  0  0  0  0
  -25.0057  -33.9676   25.0352 H   0  0  0  0  0  0
  -22.7220  -31.3013   21.3948 H   0  0  0  0  0  0
  -23.3754  -35.9614   23.3254 H   0  0  0  0  0  0
  -24.3583  -36.8959   22.2054 H   0  0  0  0  0  0
  -23.7239  -37.6470   23.6695 H   0  0  0  0  0  0
  -26.1161  -31.5331   20.6118 H   0  0  0  0  0  0
  -26.8463  -30.8109   22.0126 H   0  0  0  0  0  0
  -28.1115  -28.9286   21.1966 H   0  0  0  0  0  0
  -25.9175  -25.8911   19.0328 H   0  0  0  0  0  0
  -23.9625  -27.2969   19.0193 H   0  0  0  0  0  0
  -23.7671  -30.5870   19.3990 H   0  0  0  0  0  0
  -22.7585  -29.2454   19.8512 H   0  0  0  0  0  0
  -25.1300  -36.1875   25.0800 H   0  0  0  0  0  0
  -20.9986  -28.3258   24.1393 H   0  0  0  0  0  0
  -20.5655  -26.2299   23.3605 H   0  0  0  0  0  0
  -21.6642  -26.7423   22.1216 H   0  0  0  0  0  0
  -19.6903  -25.6284   21.1245 H   0  0  0  0  0  0
  -19.6685  -27.3179   20.6731 H   0  0  0  0  0  0
  -17.4198  -26.6664   21.4028 H   0  0  0  0  0  0
  -18.0337  -26.0062   22.9027 H   0  0  0  0  0  0
  -19.7945  -30.7288   24.2218 H   0  0  0  0  0  0
  -17.5021  -31.6259   24.5172 H   0  0  0  0  0  0
  -15.5357  -30.2977   23.7668 H   0  0  0  0  0  0
  -15.8676  -28.0828   22.7046 H   0  0  0  0  0  0
  -24.5896  -30.7092   25.7780 H   0  0  0  0  0  0
  -24.8941  -32.2928   26.4853 H   0  0  0  0  0  0
  -25.8060  -30.8934   27.0221 H   0  0  0  0  0  0
  -26.2930  -29.6722   24.1245 H   0  0  0  0  0  0
  -27.3964  -29.7253   25.4782 H   0  0  0  0  0  0
  -27.8840  -30.4206   23.9515 H   0  0  0  0  0  0
  -27.2598  -33.3623   26.2074 H   0  0  0  0  0  0
  -28.3860  -32.6919   25.0358 H   0  0  0  0  0  0
  -28.0685  -31.8474   26.5437 H   0  0  0  0  0  0
  -28.2559  -38.0129   24.7562 H   0  0  0  0  0  0
  -28.1131  -36.2667   24.6192 H   0  0  0  0  0  0
  -27.2324  -37.1333   25.8856 H   0  0  0  0  0  0
  -20.9367  -29.8768   21.6880 H   0  0  0  0  0  0
  -26.0140  -38.2833   24.1459 H   0  0  0  0  0  0
  -31.7690  -18.7316   17.4788 H   0  0  0  0  0  0
  -30.7544  -20.7569   18.3420 H   0  0  0  0  0  0
  -31.3800  -16.5582   18.4753 H   0  0  0  0  0  0
  -28.7772  -18.4145   21.4089 H   0  0  0  0  0  0
  -29.3215  -23.8395   21.2628 H   0  0  0  0  0  0
  -27.6184  -23.5413   21.0761 H   0  0  0  0  0  0
  -27.6605  -24.8633   18.8596 H   0  0  0  0  0  0
  -29.3319  -25.0626   19.0287 H   0  0  0  0  0  0
  -28.8205  -21.1081   21.4181 H   0  0  0  0  0  0
  -28.9523  -15.7181   21.0328 H   0  0  0  0  0  0
  1 25  1  0  0  0
  1 30  2  0  0  0
  1 81  1  0  0  0
  2  3  1  0  0  0
  2 25  1  0  0  0
  2 83  1  0  0  0
  2 84  1  0  0  0
  3  4  1  0  0  0
  3 85  1  0  0  0
  3 86  1  0  0  0
  4  5  1  0  0  0
  4 87  1  0  0  0
  4 88  1  0  0  0
  5  6  1  0  0  0
  5 26  1  0  0  0
  5 89  1  0  0  0
  6 25  1  0  0  0
  6 90  1  0  0  0
  6 91  1  0  0  0
  7  8  2  0  0  0
  7 26  1  0  0  0
  7 29  1  0  0  0
  8  9  1  0  0  0
  8 22  1  0  0  0
  9 10  1  0  0  0
  9 27  2  0  0  0
 10 11  2  0  0  0
 10 15  1  0  0  0
 11 12  1  0  0  0
 11 92  1  0  0  0
 12 13  2  0  0  0
 12 93  1  0  0  0
 13 14  1  0  0  0
 13 31  1  0  0  0
 14 15  2  0  0  0
 14 94  1  0  0  0
 15 95  1  0  0  0
 16 17  2  0  0  0
 16 21  1  0  0  0
 16 31  1  0  0  0
 17 18  1  0  0  0
 17 96  1  0  0  0
 18 19  2  0  0  0
 18 97  1  0  0  0
 19 20  1  0  0  0
 19 24  1  0  0  0
 20 21  2  0  0  0
 20 98  1  0  0  0
 21 23  1  0  0  0
 22 28  1  0  0  0
 22 32  2  0  0  0
 26 27  1  0  0  0
 28 99  1  0  0  0
 28100  1  0  0  0
 29101  1  0  0  0
 29102  1  0  0  0
 33 34  1  0  0  0
 33 66  1  0  0  0
 33 70  2  0  0  0
 34 36  1  0  0  0
 34 59  1  0  0  0
 34103  1  0  0  0
 35 44  2  0  0  0
 35 45  1  0  0  0
 35 68  1  0  0  0
 36 56  1  0  0  0
 36104  1  0  0  0
 37 39  1  0  0  0
 37 47  1  0  0  0
 37 66  1  0  0  0
 37105  1  0  0  0
 38 43  2  0  0  0
 38 46  1  0  0  0
 38 47  1  0  0  0
 39 64  1  0  0  0
 39 67  2  0  0  0
 40 52  1  0  0  0
 40 53  2  0  0  0
 40 58  1  0  0  0
 41106  1  0  0  0
 41107  1  0  0  0
 41108  1  0  0  0
 41 48  1  0  0  0
 42 43  1  0  0  0
 42 66  1  0  0  0
 42109  1  0  0  0
 42110  1  0  0  0
 43 44  1  0  0  0
 44111  1  0  0  0
 45 46  2  0  0  0
 45112  1  0  0  0
 46113  1  0  0  0
 47114  1  0  0  0
 47115  1  0  0  0
 48 56  1  0  0  0
 48 65  1  0  0  0
 48116  1  0  0  0
 49 50  1  0  0  0
 49 53  1  0  0  0
 49 64  1  0  0  0
 49117  1  0  0  0
 50 51  1  0  0  0
 50118  1  0  0  0
 50119  1  0  0  0
 51 52  1  0  0  0
 51120  1  0  0  0
 51121  1  0  0  0
 52122  1  0  0  0
 52123  1  0  0  0
 53 54  1  0  0  0
 54 55  2  0  0  0
 54124  1  0  0  0
 55 57  1  0  0  0
 55125  1  0  0  0
 56 69  2  0  0  0
 57 58  2  0  0  0
 57126  1  0  0  0
 58127  1  0  0  0
 59 60  1  0  0  0
 59 61  1  0  0  0
 59 62  1  0  0  0
 60128  1  0  0  0
 60129  1  0  0  0
 60130  1  0  0  0
 61131  1  0  0  0
 61132  1  0  0  0
 61133  1  0  0  0
 62134  1  0  0  0
 62135  1  0  0  0
 62136  1  0  0  0
 63 65  1  0  0  0
 63137  1  0  0  0
 63138  1  0  0  0
 63139  1  0  0  0
 64140  1  0  0  0
 65141  1  0  0  0
 68 79  1  0  0  0
 71 72  2  0  0  0
 71 73  1  0  0  0
 71142  1  0  0  0
 72 75  1  0  0  0
 72143  1  0  0  0
 73 76  2  0  0  0
 73144  1  0  0  0
 74 75  2  0  0  0
 74 76  1  0  0  0
 74145  1  0  0  0
 75 80  1  0  0  0
 76 81  1  0  0  0
 77 78  1  0  0  0
 77 80  1  0  0  0
 77 82  2  0  0  0
 78 79  1  0  0  0
 78146  1  0  0  0
 78147  1  0  0  0
 79148  1  0  0  0
 79149  1  0  0  0
 80150  1  0  0  0
 81151  1  0  0  0
M  ISO  4   1 100  68 101  79 101  81 100
M  END
> <chiral flag>
0

> <version>
0

> <s_m_source_file>
/data/baiqing/PycharmProjects/Reinvent-master-3.2/result/LINK_invent/BTK/process_docking_weight1_custom_product_contain_oxygen_bond_distance_aromatic_linkinvent_7_9_3/rearranged_h_0061.sdf

> <i_m_source_file_index>
51

> <r_mmod_Potential_Energy-OPLS-2005>
140.410675048828

> <r_mmod_Stretch_Energy-OPLS-2005>
126.903961181641

> <r_mmod_Bend_Energy-OPLS-2005>
167.898818969727

> <r_mmod_Torsional_Energy-OPLS-2005>
232.681365966797

> <r_mmod_Improper_Torsional_Energy-OPLS-2005>
4.74691677093506

> <r_mmod_Van_der_Waal_Energy-OPLS-2005>
149.580291748047

> <r_mmod_Electrostatic_Energy-OPLS-2005>
-385.980712890625

> <r_mmod_Solvation_Energy-OPLS-2005>
-234.019821166992

> <b_mmod_Minimization_Converged-OPLS-2005>
0

> <r_mmod_RMS_Derivative-OPLS-2005>
1.03019344806671

$$$$
52
                    3D
 Structure written by MMmdl.
158167  0  0  1  0            999 V2000
  -30.5712  -14.8766   20.4019 C   0  0  0  0  0  0
  -30.4228  -12.5321   19.4792 C   0  0  0  0  0  0
  -29.5019  -12.5145   18.2389 C   0  0  0  0  0  0
  -28.0358  -12.3201   18.6613 C   0  0  0  0  0  0
  -27.6265  -13.2481   19.8359 C   0  0  2  0  0  0
  -28.6764  -13.2547   20.9699 C   0  0  0  0  0  0
  -25.2442  -13.8231   20.5707 C   0  0  0  0  0  0
  -24.1777  -13.0429   20.9218 C   0  0  0  0  0  0
  -24.6405  -11.6919   20.8733 C   0  0  0  0  0  0
  -23.9094  -10.4276   21.0392 C   0  0  0  0  0  0
  -24.3640   -9.4191   21.9177 C   0  0  0  0  0  0
  -23.6302   -8.2227   22.0762 C   0  0  0  0  0  0
  -22.4294   -8.0269   21.3542 C   0  0  0  0  0  0
  -21.9918   -9.0249   20.4651 C   0  0  0  0  0  0
  -22.7260  -10.2122   20.3038 C   0  0  0  0  0  0
  -21.6861   -6.0721   22.5266 C   0  0  0  0  0  0
  -21.4030   -6.5632   23.8200 C   0  0  0  0  0  0
  -21.3665   -5.6788   24.9166 C   0  0  0  0  0  0
  -21.6032   -4.3049   24.7224 C   0  0  0  0  0  0
  -21.8834   -3.8140   23.4354 C   0  0  0  0  0  0
  -21.9203   -4.6944   22.3405 C   0  0  0  0  0  0
  -22.7786  -13.5172   21.1880 C   0  0  0  0  0  0
  -22.1654   -4.2127   21.0974 F   0  0  0  0  0  0
  -21.5629   -3.4537   25.7743 F   0  0  0  0  0  0
  -29.9544  -13.6342   20.3621 N   0  0  0  0  0  0
  -26.2881  -12.9466   20.3268 N   0  0  0  0  0  0
  -25.9341  -11.6593   20.5750 N   0  0  0  0  0  0
  -22.0454  -12.8146   22.0443 N   0  0  0  0  0  0
  -25.4041  -15.1962   20.4121 N   0  0  0  0  0  0
  -31.7758  -14.9076   20.1300 O   0  0  0  0  0  0
  -21.6664   -6.8868   21.4228 O   0  0  0  0  0  0
  -22.3452  -14.5467   20.6715 O   0  0  0  0  0  0
  -24.6421  -31.8438   23.1852 C   0  0  0  0  0  0
  -25.9207  -32.4696   23.8237 C   0  0  1  0  0  0
  -27.2188  -27.1520   20.1289 C   0  0  0  0  0  0
  -25.5952  -33.8500   24.2174 N   0  0  0  0  0  0
  -23.4450  -30.4612   21.5293 C   0  0  2  0  0  0
  -24.8921  -28.8837   20.0986 C   0  0  0  0  0  0
  -22.7565  -29.4551   22.4846 C   0  0  0  0  0  0
  -18.0333  -28.1398   22.8493 C   0  0  0  0  0  0
  -24.1483  -36.7259   23.2645 C   0  0  0  0  0  0
  -25.9969  -30.7171   21.3809 C   0  0  0  0  0  0
  -26.0644  -29.3295   20.7201 C   0  0  0  0  0  0
  -27.2241  -28.4749   20.7216 C   0  0  0  0  0  0
  -26.0207  -26.7946   19.4737 C   0  0  0  0  0  0
  -24.8817  -27.6303   19.4627 C   0  0  0  0  0  0
  -23.6696  -29.7872   20.1475 C   0  0  0  0  0  0
  -25.4123  -36.3034   24.0309 C   0  0  1  0  0  0
  -20.5944  -28.3745   23.1247 C   0  0  2  0  0  0
  -20.6830  -26.9447   22.5402 C   0  0  0  0  0  0
  -19.5768  -26.6386   21.5236 C   0  0  0  0  0  0
  -18.1996  -26.7892   22.1734 C   0  0  0  0  0  0
  -19.1605  -28.8879   23.2837 C   0  0  0  0  0  0
  -18.9509  -30.1496   23.8859 C   0  0  0  0  0  0
  -17.6518  -30.6616   24.0592 C   0  0  0  0  0  0
  -25.9080  -34.9413   23.5049 C   0  0  0  0  0  0
  -16.5394  -29.9110   23.6371 C   0  0  0  0  0  0
  -16.7330  -28.6528   23.0378 C   0  0  0  0  0  0
  -26.4525  -31.6585   25.0705 C   0  0  0  0  0  0
  -25.3695  -31.3805   26.1399 C   0  0  0  0  0  0
  -27.0419  -30.2979   24.6320 C   0  0  0  0  0  0
  -27.6027  -32.4376   25.7515 C   0  0  0  0  0  0
  -27.5567  -37.1791   24.8467 C   0  0  0  0  0  0
  -21.4261  -29.3061   22.3610 N   0  0  0  0  0  0
  -26.4292  -37.3749   23.9394 N   0  0  0  0  0  0
  -24.7153  -31.0280   22.0878 N   0  0  0  0  0  0
  -23.4197  -28.8112   23.3004 O   0  0  0  0  0  0
  -28.2906  -26.2100   20.2572 O   0  0  0  0  0  0
  -26.5662  -34.8911   22.4631 O   0  0  0  0  0  0
  -23.5552  -32.1329   23.7072 O   0  0  0  0  0  0
  -29.2256  -18.3589   22.5527 C   0  0  0  0  0  0
  -30.4180  -17.9805   23.2120 C   0  0  0  0  0  0
  -31.4871  -17.6932   21.0411 C   0  0  0  0  0  0
  -29.2992  -18.6010   21.1534 C   0  0  0  0  0  0
  -30.1715  -17.5589   20.5464 C   0  0  0  0  0  0
  -31.5905  -17.7712   22.4496 C   0  0  0  0  0  0
  -28.4443  -21.0479   21.5701 C   0  0  0  0  0  0
  -28.7564  -22.6007   21.3672 C   0  0  0  0  0  0
  -28.6449  -22.0810   18.9980 C   0  0  0  0  0  0
  -29.4759  -20.7622   19.4965 C   0  0  0  0  0  0
  -28.2062  -23.2296   20.0391 C   0  0  2  0  0  0
  -28.4582  -24.8340   19.5751 C   0  0  0  0  0  0
  -29.0348  -20.0818   20.7601 N   0  0  0  0  0  0
  -29.8066  -16.0676   20.5233 N   0  0  0  0  0  0
  -27.6128  -20.7774   22.4419 O   0  0  0  0  0  0
  -32.7734  -17.5515   23.0689 F   0  0  0  0  0  0
  -31.4571  -12.6630   19.1588 H   0  0  0  0  0  0
  -30.3911  -11.5751   20.0019 H   0  0  0  0  0  0
  -29.8055  -11.7231   17.5515 H   0  0  0  0  0  0
  -29.6053  -13.4538   17.6920 H   0  0  0  0  0  0
  -27.9107  -11.2792   18.9563 H   0  0  0  0  0  0
  -27.3724  -12.4773   17.8092 H   0  0  0  0  0  0
  -27.5907  -14.2542   19.4168 H   0  0  0  0  0  0
  -28.7481  -12.2770   21.4478 H   0  0  0  0  0  0
  -28.3992  -13.9652   21.7493 H   0  0  0  0  0  0
  -25.2787   -9.5674   22.4765 H   0  0  0  0  0  0
  -24.0003   -7.4619   22.7488 H   0  0  0  0  0  0
  -21.0840   -8.8777   19.8966 H   0  0  0  0  0  0
  -22.3713  -10.9661   19.6141 H   0  0  0  0  0  0
  -21.2034   -7.6137   23.9719 H   0  0  0  0  0  0
  -21.1459   -6.0500   25.9073 H   0  0  0  0  0  0
  -22.0617   -2.7591   23.2860 H   0  0  0  0  0  0
  -22.4114  -11.9811   22.4811 H   0  0  0  0  0  0
  -21.1068  -13.1139   22.2703 H   0  0  0  0  0  0
  -24.6274  -15.8350   20.5422 H   0  0  0  0  0  0
  -26.2424  -15.6599   20.0870 H   0  0  0  0  0  0
  -26.7277  -32.5290   23.0962 H   0  0  0  0  0  0
  -25.0072  -33.9613   25.0307 H   0  0  0  0  0  0
  -22.7458  -31.2874   21.3791 H   0  0  0  0  0  0
  -23.3747  -35.9593   23.3325 H   0  0  0  0  0  0
  -24.3554  -36.8876   22.2052 H   0  0  0  0  0  0
  -23.7249  -37.6464   23.6688 H   0  0  0  0  0  0
  -26.1614  -31.4704   20.6097 H   0  0  0  0  0  0
  -26.8658  -30.7615   22.0264 H   0  0  0  0  0  0
  -28.1222  -28.8080   21.2234 H   0  0  0  0  0  0
  -25.9308  -25.8224   19.0114 H   0  0  0  0  0  0
  -23.9798  -27.2906   18.9724 H   0  0  0  0  0  0
  -23.8046  -30.5656   19.3945 H   0  0  0  0  0  0
  -22.7819  -29.2325   19.8401 H   0  0  0  0  0  0
  -25.1315  -36.1862   25.0805 H   0  0  0  0  0  0
  -21.0044  -28.3361   24.1371 H   0  0  0  0  0  0
  -20.5750  -26.2361   23.3610 H   0  0  0  0  0  0
  -21.6672  -26.7426   22.1187 H   0  0  0  0  0  0
  -19.6948  -25.6269   21.1299 H   0  0  0  0  0  0
  -19.6667  -27.3163   20.6720 H   0  0  0  0  0  0
  -17.4158  -26.6483   21.4279 H   0  0  0  0  0  0
  -18.0592  -26.0141   22.9267 H   0  0  0  0  0  0
  -19.8011  -30.7293   24.2190 H   0  0  0  0  0  0
  -17.5077  -31.6319   24.5204 H   0  0  0  0  0  0
  -15.5398  -30.2998   23.7735 H   0  0  0  0  0  0
  -15.8735  -28.0849   22.7097 H   0  0  0  0  0  0
  -24.5832  -30.7223   25.7691 H   0  0  0  0  0  0
  -24.8938  -32.3006   26.4794 H   0  0  0  0  0  0
  -25.7931  -30.8960   27.0202 H   0  0  0  0  0  0
  -26.3073  -29.6663   24.1313 H   0  0  0  0  0  0
  -27.4024  -29.7323   25.4920 H   0  0  0  0  0  0
  -27.8962  -30.4199   23.9664 H   0  0  0  0  0  0
  -27.2593  -33.3672   26.2060 H   0  0  0  0  0  0
  -28.3858  -32.6956   25.0379 H   0  0  0  0  0  0
  -28.0696  -31.8551   26.5464 H   0  0  0  0  0  0
  -28.2610  -38.0059   24.7485 H   0  0  0  0  0  0
  -28.1035  -36.2594   24.6347 H   0  0  0  0  0  0
  -27.2276  -37.1500   25.8867 H   0  0  0  0  0  0
  -20.9503  -29.8727   21.6749 H   0  0  0  0  0  0
  -26.0159  -38.2828   24.1366 H   0  0  0  0  0  0
  -28.4377  -18.7360   23.1842 H   0  0  0  0  0  0
  -30.4546  -17.9512   24.2934 H   0  0  0  0  0  0
  -32.3456  -17.3053   20.5084 H   0  0  0  0  0  0
  -29.8366  -22.7320   21.4074 H   0  0  0  0  0  0
  -28.3630  -23.1547   22.2180 H   0  0  0  0  0  0
  -27.7358  -21.7113   18.5148 H   0  0  0  0  0  0
  -29.1947  -22.5417   18.1759 H   0  0  0  0  0  0
  -30.5148  -21.0594   19.6640 H   0  0  0  0  0  0
  -29.5202  -20.0252   18.6958 H   0  0  0  0  0  0
  -27.1210  -23.1524   20.1233 H   0  0  0  0  0  0
  -29.5210  -24.8517   19.3350 H   0  0  0  0  0  0
  -27.9884  -24.9355   18.5975 H   0  0  0  0  0  0
  -28.8217  -15.8811   20.6381 H   0  0  0  0  0  0
  1 25  1  0  0  0
  1 30  2  0  0  0
  1 84  1  0  0  0
  2  3  1  0  0  0
  2 25  1  0  0  0
  2 87  1  0  0  0
  2 88  1  0  0  0
  3  4  1  0  0  0
  3 89  1  0  0  0
  3 90  1  0  0  0
  4  5  1  0  0  0
  4 91  1  0  0  0
  4 92  1  0  0  0
  5  6  1  0  0  0
  5 26  1  0  0  0
  5 93  1  0  0  0
  6 25  1  0  0  0
  6 94  1  0  0  0
  6 95  1  0  0  0
  7  8  2  0  0  0
  7 26  1  0  0  0
  7 29  1  0  0  0
  8  9  1  0  0  0
  8 22  1  0  0  0
  9 10  1  0  0  0
  9 27  2  0  0  0
 10 11  2  0  0  0
 10 15  1  0  0  0
 11 12  1  0  0  0
 11 96  1  0  0  0
 12 13  2  0  0  0
 12 97  1  0  0  0
 13 14  1  0  0  0
 13 31  1  0  0  0
 14 15  2  0  0  0
 14 98  1  0  0  0
 15 99  1  0  0  0
 16 17  2  0  0  0
 16 21  1  0  0  0
 16 31  1  0  0  0
 17 18  1  0  0  0
 17100  1  0  0  0
 18 19  2  0  0  0
 18101  1  0  0  0
 19 20  1  0  0  0
 19 24  1  0  0  0
 20 21  2  0  0  0
 20102  1  0  0  0
 21 23  1  0  0  0
 22 28  1  0  0  0
 22 32  2  0  0  0
 26 27  1  0  0  0
 28103  1  0  0  0
 28104  1  0  0  0
 29105  1  0  0  0
 29106  1  0  0  0
 33 34  1  0  0  0
 33 66  1  0  0  0
 33 70  2  0  0  0
 34 36  1  0  0  0
 34 59  1  0  0  0
 34107  1  0  0  0
 35 44  2  0  0  0
 35 45  1  0  0  0
 35 68  1  0  0  0
 36 56  1  0  0  0
 36108  1  0  0  0
 37 39  1  0  0  0
 37 47  1  0  0  0
 37 66  1  0  0  0
 37109  1  0  0  0
 38 43  2  0  0  0
 38 46  1  0  0  0
 38 47  1  0  0  0
 39 64  1  0  0  0
 39 67  2  0  0  0
 40 52  1  0  0  0
 40 53  2  0  0  0
 40 58  1  0  0  0
 41110  1  0  0  0
 41111  1  0  0  0
 41112  1  0  0  0
 41 48  1  0  0  0
 42 43  1  0  0  0
 42 66  1  0  0  0
 42113  1  0  0  0
 42114  1  0  0  0
 43 44  1  0  0  0
 44115  1  0  0  0
 45 46  2  0  0  0
 45116  1  0  0  0
 46117  1  0  0  0
 47118  1  0  0  0
 47119  1  0  0  0
 48 56  1  0  0  0
 48 65  1  0  0  0
 48120  1  0  0  0
 49 50  1  0  0  0
 49 53  1  0  0  0
 49 64  1  0  0  0
 49121  1  0  0  0
 50 51  1  0  0  0
 50122  1  0  0  0
 50123  1  0  0  0
 51 52  1  0  0  0
 51124  1  0  0  0
 51125  1  0  0  0
 52126  1  0  0  0
 52127  1  0  0  0
 53 54  1  0  0  0
 54 55  2  0  0  0
 54128  1  0  0  0
 55 57  1  0  0  0
 55129  1  0  0  0
 56 69  2  0  0  0
 57 58  2  0  0  0
 57130  1  0  0  0
 58131  1  0  0  0
 59 60  1  0  0  0
 59 61  1  0  0  0
 59 62  1  0  0  0
 60132  1  0  0  0
 60133  1  0  0  0
 60134  1  0  0  0
 61135  1  0  0  0
 61136  1  0  0  0
 61137  1  0  0  0
 62138  1  0  0  0
 62139  1  0  0  0
 62140  1  0  0  0
 63 65  1  0  0  0
 63141  1  0  0  0
 63142  1  0  0  0
 63143  1  0  0  0
 64144  1  0  0  0
 65145  1  0  0  0
 68 82  1  0  0  0
 71 72  2  0  0  0
 71 74  1  0  0  0
 71146  1  0  0  0
 72 76  1  0  0  0
 72147  1  0  0  0
 73 75  1  0  0  0
 73 76  2  0  0  0
 73148  1  0  0  0
 74 75  2  0  0  0
 74 83  1  0  0  0
 75 84  1  0  0  0
 76 86  1  0  0  0
 77 78  1  0  0  0
 77 83  1  0  0  0
 77 85  2  0  0  0
 78 81  1  0  0  0
 78149  1  0  0  0
 78150  1  0  0  0
 79 80  1  0  0  0
 79 81  1  0  0  0
 79151  1  0  0  0
 79152  1  0  0  0
 80 83  1  0  0  0
 80153  1  0  0  0
 80154  1  0  0  0
 81 82  1  0  0  0
 81155  1  0  0  0
 82156  1  0  0  0
 82157  1  0  0  0
 84158  1  0  0  0
M  ISO  4   1 100  68 101  82 101  84 100
M  END
> <chiral flag>
0

> <version>
0

> <s_m_source_file>
/data/baiqing/PycharmProjects/Reinvent-master-3.2/result/LINK_invent/BTK/process_docking_weight1_custom_product_contain_oxygen_bond_distance_aromatic_linkinvent_7_9_3/rearranged_h_0061.sdf

> <i_m_source_file_index>
52

> <r_mmod_Potential_Energy-OPLS-2005>
852.043151855469

> <r_mmod_Stretch_Energy-OPLS-2005>
241.865539550781

> <r_mmod_Bend_Energy-OPLS-2005>
313.280853271484

> <r_mmod_Torsional_Energy-OPLS-2005>
514.681701660156

> <r_mmod_Improper_Torsional_Energy-OPLS-2005>
37.8759651184082

> <r_mmod_Van_der_Waal_Energy-OPLS-2005>
174.046081542969

> <r_mmod_Electrostatic_Energy-OPLS-2005>
-373.628204345703

> <r_mmod_Solvation_Energy-OPLS-2005>
-216.796539306641

> <b_mmod_Minimization_Converged-OPLS-2005>
0

> <r_mmod_RMS_Derivative-OPLS-2005>
4.73274993896484

$$$$
53
                    3D
 Structure written by MMmdl.
164172  0  0  1  0            999 V2000
  -30.6857  -14.5034   20.5343 C   0  0  0  0  0  0
  -30.4240  -12.3170   19.4229 C   0  0  0  0  0  0
  -29.4953  -12.5031   18.2051 C   0  0  0  0  0  0
  -28.0169  -12.3526   18.6183 C   0  0  0  0  0  0
  -27.6542  -13.2061   19.8624 C   0  0  2  0  0  0
  -28.6991  -13.0175   20.9873 C   0  0  0  0  0  0
  -25.2507  -13.8096   20.5607 C   0  0  0  0  0  0
  -24.1802  -13.0384   20.9186 C   0  0  0  0  0  0
  -24.6382  -11.6866   20.8751 C   0  0  0  0  0  0
  -23.9053  -10.4262   21.0406 C   0  0  0  0  0  0
  -24.3607   -9.4189   21.9186 C   0  0  0  0  0  0
  -23.6286   -8.2229   22.0760 C   0  0  0  0  0  0
  -22.4270   -8.0272   21.3546 C   0  0  0  0  0  0
  -21.9899   -9.0238   20.4643 C   0  0  0  0  0  0
  -22.7227  -10.2113   20.3052 C   0  0  0  0  0  0
  -21.6853   -6.0729   22.5278 C   0  0  0  0  0  0
  -21.4013   -6.5637   23.8210 C   0  0  0  0  0  0
  -21.3654   -5.6790   24.9173 C   0  0  0  0  0  0
  -21.6043   -4.3052   24.7225 C   0  0  0  0  0  0
  -21.8822   -3.8142   23.4346 C   0  0  0  0  0  0
  -21.9193   -4.6958   22.3401 C   0  0  0  0  0  0
  -22.7832  -13.5196   21.1854 C   0  0  0  0  0  0
  -22.1667   -4.2149   21.0977 F   0  0  0  0  0  0
  -21.5623   -3.4529   25.7732 F   0  0  0  0  0  0
  -30.0291  -13.3150   20.4269 N   0  0  0  0  0  0
  -26.2977  -12.9305   20.3294 N   0  0  0  0  0  0
  -25.9309  -11.6466   20.5755 N   0  0  0  0  0  0
  -22.0467  -12.8206   22.0414 N   0  0  0  0  0  0
  -25.4065  -15.1786   20.3855 N   0  0  0  0  0  0
  -31.8420  -14.6665   20.1351 O   0  0  0  0  0  0
  -21.6636   -6.8873   21.4241 O   0  0  0  0  0  0
  -22.3537  -14.5512   20.6701 O   0  0  0  0  0  0
  -24.6178  -31.8655   23.2047 C   0  0  0  0  0  0
  -25.9071  -32.4793   23.8347 C   0  0  1  0  0  0
  -27.2399  -27.4100   20.1016 C   0  0  0  0  0  0
  -25.5927  -33.8597   24.2297 N   0  0  0  0  0  0
  -23.4060  -30.4896   21.5439 C   0  0  2  0  0  0
  -24.8530  -28.9474   20.1154 C   0  0  0  0  0  0
  -22.7393  -29.4700   22.4956 C   0  0  0  0  0  0
  -18.0283  -28.1404   22.8510 C   0  0  0  0  0  0
  -24.1491  -36.7276   23.2638 C   0  0  0  0  0  0
  -25.9378  -30.8242   21.3609 C   0  0  0  0  0  0
  -26.0144  -29.4551   20.7104 C   0  0  0  0  0  0
  -27.2099  -28.6968   20.6954 C   0  0  0  0  0  0
  -26.0546  -26.9223   19.5013 C   0  0  0  0  0  0
  -24.8693  -27.6822   19.5051 C   0  0  0  0  0  0
  -23.6153  -29.8157   20.1614 C   0  0  0  0  0  0
  -25.4117  -36.3072   24.0325 C   0  0  1  0  0  0
  -20.5874  -28.3691   23.1311 C   0  0  2  0  0  0
  -20.6804  -26.9435   22.5407 C   0  0  0  0  0  0
  -19.5767  -26.6404   21.5222 C   0  0  0  0  0  0
  -18.1935  -26.7961   22.1625 C   0  0  0  0  0  0
  -19.1535  -28.8863   23.2912 C   0  0  0  0  0  0
  -18.9466  -30.1484   23.8905 C   0  0  0  0  0  0
  -17.6467  -30.6616   24.0585 C   0  0  0  0  0  0
  -25.9050  -34.9459   23.5106 C   0  0  0  0  0  0
  -16.5359  -29.9117   23.6348 C   0  0  0  0  0  0
  -16.7274  -28.6539   23.0358 C   0  0  0  0  0  0
  -26.4520  -31.6579   25.0671 C   0  0  0  0  0  0
  -25.3788  -31.3695   26.1408 C   0  0  0  0  0  0
  -27.0347  -30.3015   24.6045 C   0  0  0  0  0  0
  -27.6070  -32.4319   25.7453 C   0  0  0  0  0  0
  -27.5575  -37.1792   24.8475 C   0  0  0  0  0  0
  -21.4127  -29.3060   22.3700 N   0  0  0  0  0  0
  -26.4295  -37.3763   23.9410 N   0  0  0  0  0  0
  -24.6719  -31.0748   22.0943 N   0  0  0  0  0  0
  -23.4152  -28.8279   23.3035 O   0  0  0  0  0  0
  -28.4128  -26.6722   20.1253 O   0  0  0  0  0  0
  -26.5598  -34.8937   22.4657 O   0  0  0  0  0  0
  -23.5371  -32.1437   23.7442 O   0  0  0  0  0  0
  -31.6795  -18.7535   21.7273 C   0  0  0  0  0  0
  -31.4231  -17.3803   21.5531 C   0  0  0  0  0  0
  -30.7292  -19.7139   21.3296 C   0  0  0  0  0  0
  -29.2690  -17.9156   20.5157 C   0  0  0  0  0  0
  -30.2164  -16.9426   20.9630 C   0  0  0  0  0  0
  -29.5227  -19.3113   20.7226 C   0  0  0  0  0  0
  -28.2310  -16.9961   18.3637 C   0  0  0  0  0  0
  -30.0122  -24.7299   21.8241 C   0  0  0  0  0  0
  -27.9949  -17.4396   19.8175 C   0  0  0  0  0  0
  -29.7107  -23.0057   19.9468 C   0  0  0  0  0  0
  -28.3259  -25.2387   19.9560 C   0  0  0  0  0  0
  -29.6464  -24.5162   20.3448 C   0  0  1  0  0  0
  -29.9059  -15.5399   20.9116 N   0  0  0  0  0  0
  -28.8569  -22.1432   20.7918 N   0  0  0  0  0  0
  -28.1591  -20.6401   18.8176 O   0  0  0  0  0  0
  -27.0812  -20.3416   21.0964 O   0  0  0  0  0  0
  -28.2844  -20.5852   20.2821 S   0  0  0  0  0  0
  -31.4675  -12.4174   19.1221 H   0  0  0  0  0  0
  -30.3265  -11.3108   19.8336 H   0  0  0  0  0  0
  -29.7426  -11.7789   17.4278 H   0  0  0  0  0  0
  -29.6550  -13.4896   17.7662 H   0  0  0  0  0  0
  -27.8409  -11.2974   18.8310 H   0  0  0  0  0  0
  -27.3637  -12.6057   17.7825 H   0  0  0  0  0  0
  -27.6843  -14.2465   19.5431 H   0  0  0  0  0  0
  -28.6773  -11.9927   21.3614 H   0  0  0  0  0  0
  -28.4594  -13.6472   21.8455 H   0  0  0  0  0  0
  -25.2751   -9.5673   22.4754 H   0  0  0  0  0  0
  -23.9991   -7.4624   22.7481 H   0  0  0  0  0  0
  -21.0834   -8.8751   19.8949 H   0  0  0  0  0  0
  -22.3689  -10.9650   19.6156 H   0  0  0  0  0  0
  -21.2013   -7.6144   23.9719 H   0  0  0  0  0  0
  -21.1470   -6.0515   25.9078 H   0  0  0  0  0  0
  -22.0607   -2.7605   23.2839 H   0  0  0  0  0  0
  -22.4067  -11.9851   22.4786 H   0  0  0  0  0  0
  -21.1095  -13.1262   22.2631 H   0  0  0  0  0  0
  -24.6063  -15.8004   20.4374 H   0  0  0  0  0  0
  -26.1989  -15.5928   19.9172 H   0  0  0  0  0  0
  -26.7126  -32.5492   23.1091 H   0  0  0  0  0  0
  -25.0133  -33.9774   25.0482 H   0  0  0  0  0  0
  -22.6998  -31.3089   21.3991 H   0  0  0  0  0  0
  -23.3767  -35.9594   23.3316 H   0  0  0  0  0  0
  -24.3602  -36.8869   22.2051 H   0  0  0  0  0  0
  -23.7267  -37.6496   23.6651 H   0  0  0  0  0  0
  -26.0510  -31.5860   20.5887 H   0  0  0  0  0  0
  -26.8274  -30.8799   21.9768 H   0  0  0  0  0  0
  -28.1091  -29.0885   21.1513 H   0  0  0  0  0  0
  -26.0262  -25.9541   19.0235 H   0  0  0  0  0  0
  -23.9763  -27.2879   19.0396 H   0  0  0  0  0  0
  -23.7248  -30.5878   19.3979 H   0  0  0  0  0  0
  -22.7395  -29.2332   19.8669 H   0  0  0  0  0  0
  -25.1326  -36.1892   25.0818 H   0  0  0  0  0  0
  -20.9996  -28.3259   24.1422 H   0  0  0  0  0  0
  -20.5739  -26.2306   23.3604 H   0  0  0  0  0  0
  -21.6674  -26.7517   22.1175 H   0  0  0  0  0  0
  -19.6930  -25.6311   21.1256 H   0  0  0  0  0  0
  -19.6693  -27.3226   20.6762 H   0  0  0  0  0  0
  -17.4222  -26.6739   21.4008 H   0  0  0  0  0  0
  -18.0323  -26.0098   22.9009 H   0  0  0  0  0  0
  -19.7939  -30.7326   24.2239 H   0  0  0  0  0  0
  -17.5022  -31.6287   24.5205 H   0  0  0  0  0  0
  -15.5367  -30.3023   23.7684 H   0  0  0  0  0  0
  -15.8676  -28.0873   22.7045 H   0  0  0  0  0  0
  -24.5959  -30.7037   25.7757 H   0  0  0  0  0  0
  -24.8988  -32.2858   26.4839 H   0  0  0  0  0  0
  -25.8141  -30.8875   27.0163 H   0  0  0  0  0  0
  -26.2855  -29.6738   24.1183 H   0  0  0  0  0  0
  -27.4249  -29.7283   25.4472 H   0  0  0  0  0  0
  -27.8647  -30.4359   23.9100 H   0  0  0  0  0  0
  -27.2654  -33.3630   26.2009 H   0  0  0  0  0  0
  -28.3895  -32.6865   25.0279 H   0  0  0  0  0  0
  -28.0717  -31.8445   26.5388 H   0  0  0  0  0  0
  -28.2607  -38.0076   24.7528 H   0  0  0  0  0  0
  -28.1069  -36.2625   24.6307 H   0  0  0  0  0  0
  -27.2308  -37.1435   25.8883 H   0  0  0  0  0  0
  -20.9294  -29.8677   21.6836 H   0  0  0  0  0  0
  -26.0165  -38.2826   24.1430 H   0  0  0  0  0  0
  -32.5996  -19.0724   22.1972 H   0  0  0  0  0  0
  -32.1522  -16.6638   21.9072 H   0  0  0  0  0  0
  -30.9296  -20.7588   21.5057 H   0  0  0  0  0  0
  -27.2933  -16.6961   17.8932 H   0  0  0  0  0  0
  -28.9146  -16.1490   18.3002 H   0  0  0  0  0  0
  -28.6489  -17.8053   17.7638 H   0  0  0  0  0  0
  -30.9660  -24.2591   22.0645 H   0  0  0  0  0  0
  -29.2596  -24.3117   22.4930 H   0  0  0  0  0  0
  -30.1045  -25.7914   22.0568 H   0  0  0  0  0  0
  -27.2082  -18.1889   19.8270 H   0  0  0  0  0  0
  -27.5859  -16.6183   20.3993 H   0  0  0  0  0  0
  -30.7398  -22.6484   20.0084 H   0  0  0  0  0  0
  -29.4189  -22.8951   18.9019 H   0  0  0  0  0  0
  -27.5118  -24.8291   20.5563 H   0  0  0  0  0  0
  -28.0980  -25.0229   18.9111 H   0  0  0  0  0  0
  -30.4286  -25.0029   19.7599 H   0  0  0  0  0  0
  -28.9412  -15.2924   21.0672 H   0  0  0  0  0  0
  -29.0471  -22.1798   21.7947 H   0  0  0  0  0  0
  1 25  1  0  0  0
  1 30  2  0  0  0
  1 83  1  0  0  0
  2  3  1  0  0  0
  2 25  1  0  0  0
  2 88  1  0  0  0
  2 89  1  0  0  0
  3  4  1  0  0  0
  3 90  1  0  0  0
  3 91  1  0  0  0
  4  5  1  0  0  0
  4 92  1  0  0  0
  4 93  1  0  0  0
  5  6  1  0  0  0
  5 26  1  0  0  0
  5 94  1  0  0  0
  6 25  1  0  0  0
  6 95  1  0  0  0
  6 96  1  0  0  0
  7  8  2  0  0  0
  7 26  1  0  0  0
  7 29  1  0  0  0
  8  9  1  0  0  0
  8 22  1  0  0  0
  9 10  1  0  0  0
  9 27  2  0  0  0
 10 11  2  0  0  0
 10 15  1  0  0  0
 11 12  1  0  0  0
 11 97  1  0  0  0
 12 13  2  0  0  0
 12 98  1  0  0  0
 13 14  1  0  0  0
 13 31  1  0  0  0
 14 15  2  0  0  0
 14 99  1  0  0  0
 15100  1  0  0  0
 16 17  2  0  0  0
 16 21  1  0  0  0
 16 31  1  0  0  0
 17 18  1  0  0  0
 17101  1  0  0  0
 18 19  2  0  0  0
 18102  1  0  0  0
 19 20  1  0  0  0
 19 24  1  0  0  0
 20 21  2  0  0  0
 20103  1  0  0  0
 21 23  1  0  0  0
 22 28  1  0  0  0
 22 32  2  0  0  0
 26 27  1  0  0  0
 28104  1  0  0  0
 28105  1  0  0  0
 29106  1  0  0  0
 29107  1  0  0  0
 33 34  1  0  0  0
 33 66  1  0  0  0
 33 70  2  0  0  0
 34 36  1  0  0  0
 34 59  1  0  0  0
 34108  1  0  0  0
 35 44  2  0  0  0
 35 45  1  0  0  0
 35 68  1  0  0  0
 36 56  1  0  0  0
 36109  1  0  0  0
 37 39  1  0  0  0
 37 47  1  0  0  0
 37 66  1  0  0  0
 37110  1  0  0  0
 38 43  2  0  0  0
 38 46  1  0  0  0
 38 47  1  0  0  0
 39 64  1  0  0  0
 39 67  2  0  0  0
 40 52  1  0  0  0
 40 53  2  0  0  0
 40 58  1  0  0  0
 41111  1  0  0  0
 41112  1  0  0  0
 41113  1  0  0  0
 41 48  1  0  0  0
 42 43  1  0  0  0
 42 66  1  0  0  0
 42114  1  0  0  0
 42115  1  0  0  0
 43 44  1  0  0  0
 44116  1  0  0  0
 45 46  2  0  0  0
 45117  1  0  0  0
 46118  1  0  0  0
 47119  1  0  0  0
 47120  1  0  0  0
 48 56  1  0  0  0
 48 65  1  0  0  0
 48121  1  0  0  0
 49 50  1  0  0  0
 49 53  1  0  0  0
 49 64  1  0  0  0
 49122  1  0  0  0
 50 51  1  0  0  0
 50123  1  0  0  0
 50124  1  0  0  0
 51 52  1  0  0  0
 51125  1  0  0  0
 51126  1  0  0  0
 52127  1  0  0  0
 52128  1  0  0  0
 53 54  1  0  0  0
 54 55  2  0  0  0
 54129  1  0  0  0
 55 57  1  0  0  0
 55130  1  0  0  0
 56 69  2  0  0  0
 57 58  2  0  0  0
 57131  1  0  0  0
 58132  1  0  0  0
 59 60  1  0  0  0
 59 61  1  0  0  0
 59 62  1  0  0  0
 60133  1  0  0  0
 60134  1  0  0  0
 60135  1  0  0  0
 61136  1  0  0  0
 61137  1  0  0  0
 61138  1  0  0  0
 62139  1  0  0  0
 62140  1  0  0  0
 62141  1  0  0  0
 63 65  1  0  0  0
 63142  1  0  0  0
 63143  1  0  0  0
 63144  1  0  0  0
 64145  1  0  0  0
 65146  1  0  0  0
 68 81  1  0  0  0
 71 72  2  0  0  0
 71 73  1  0  0  0
 71147  1  0  0  0
 72 75  1  0  0  0
 72148  1  0  0  0
 73 76  2  0  0  0
 73149  1  0  0  0
 74 75  2  0  0  0
 74 76  1  0  0  0
 74 79  1  0  0  0
 75 83  1  0  0  0
 76 87  1  0  0  0
 77 79  1  0  0  0
 77150  1  0  0  0
 77151  1  0  0  0
 77152  1  0  0  0
 78153  1  0  0  0
 78154  1  0  0  0
 78155  1  0  0  0
 78 82  1  0  0  0
 79156  1  0  0  0
 79157  1  0  0  0
 80 82  1  0  0  0
 80 84  1  0  0  0
 80158  1  0  0  0
 80159  1  0  0  0
 81 82  1  0  0  0
 81160  1  0  0  0
 81161  1  0  0  0
 82162  1  0  0  0
 83163  1  0  0  0
 84164  1  0  0  0
 84 87  1  0  0  0
 85 87  2  0  0  0
 86 87  2  0  0  0
M  ISO  4   1 100  68 101  81 101  83 100
M  END
> <chiral flag>
0

> <version>
0

> <s_m_source_file>
/data/baiqing/PycharmProjects/Reinvent-master-3.2/result/LINK_invent/BTK/process_docking_weight1_custom_product_contain_oxygen_bond_distance_aromatic_linkinvent_7_9_3/rearranged_h_0061.sdf

> <i_m_source_file_index>
53

> <r_mmod_Potential_Energy-OPLS-2005>
-105.430000305176

> <r_mmod_Stretch_Energy-OPLS-2005>
45.4560546875

> <r_mmod_Bend_Energy-OPLS-2005>
109.601303100586

> <r_mmod_Torsional_Energy-OPLS-2005>
235.852920532227

> <r_mmod_Improper_Torsional_Energy-OPLS-2005>
8.73658084869385

> <r_mmod_Van_der_Waal_Energy-OPLS-2005>
140.682037353516

> <r_mmod_Electrostatic_Energy-OPLS-2005>
-425.660400390625

> <r_mmod_Solvation_Energy-OPLS-2005>
-238.105346679688

> <b_mmod_Minimization_Converged-OPLS-2005>
0

> <r_mmod_RMS_Derivative-OPLS-2005>
2.66256952285767

$$$$
54
                    3D
 Structure written by MMmdl.
165174  0  0  1  0            999 V2000
  -30.8018  -14.5032   20.4976 C   0  0  0  0  0  0
  -30.3721  -12.3232   19.4291 C   0  0  0  0  0  0
  -29.4613  -12.4485   18.1960 C   0  0  0  0  0  0
  -27.9961  -12.3135   18.6286 C   0  0  0  0  0  0
  -27.6388  -13.2244   19.8340 C   0  0  2  0  0  0
  -28.6882  -13.1607   20.9624 C   0  0  0  0  0  0
  -25.2534  -13.8238   20.5757 C   0  0  0  0  0  0
  -24.1791  -13.0485   20.9232 C   0  0  0  0  0  0
  -24.6344  -11.6945   20.8733 C   0  0  0  0  0  0
  -23.9010  -10.4332   21.0341 C   0  0  0  0  0  0
  -24.3562   -9.4271   21.9116 C   0  0  0  0  0  0
  -23.6268   -8.2296   22.0702 C   0  0  0  0  0  0
  -22.4270   -8.0293   21.3522 C   0  0  0  0  0  0
  -21.9892   -9.0237   20.4600 C   0  0  0  0  0  0
  -22.7181  -10.2164   20.2999 C   0  0  0  0  0  0
  -21.6819   -6.0769   22.5316 C   0  0  0  0  0  0
  -21.3997   -6.5659   23.8271 C   0  0  0  0  0  0
  -21.3648   -5.6797   24.9209 C   0  0  0  0  0  0
  -21.5996   -4.3067   24.7243 C   0  0  0  0  0  0
  -21.8816   -3.8168   23.4373 C   0  0  0  0  0  0
  -21.9196   -4.6996   22.3431 C   0  0  0  0  0  0
  -22.7829  -13.5294   21.1879 C   0  0  0  0  0  0
  -22.1627   -4.2149   21.0993 F   0  0  0  0  0  0
  -21.5648   -3.4560   25.7749 F   0  0  0  0  0  0
  -30.0031  -13.4055   20.3623 N   0  0  0  0  0  0
  -26.2924  -12.9417   20.3277 N   0  0  0  0  0  0
  -25.9262  -11.6573   20.5772 N   0  0  0  0  0  0
  -22.0536  -12.8356   22.0527 N   0  0  0  0  0  0
  -25.4276  -15.1939   20.4314 N   0  0  0  0  0  0
  -31.9828  -14.4692   20.1491 O   0  0  0  0  0  0
  -21.6659   -6.8877   21.4233 O   0  0  0  0  0  0
  -22.3577  -14.5606   20.6705 O   0  0  0  0  0  0
  -24.6190  -31.8663   23.2102 C   0  0  0  0  0  0
  -25.9077  -32.4816   23.8397 C   0  0  1  0  0  0
  -27.2195  -27.3843   20.0895 C   0  0  0  0  0  0
  -25.5911  -33.8610   24.2329 N   0  0  0  0  0  0
  -23.4088  -30.4931   21.5552 C   0  0  2  0  0  0
  -24.8501  -28.9634   20.1141 C   0  0  0  0  0  0
  -22.7439  -29.4653   22.5003 C   0  0  0  0  0  0
  -18.0273  -28.1383   22.8489 C   0  0  0  0  0  0
  -24.1490  -36.7285   23.2638 C   0  0  0  0  0  0
  -25.9459  -30.8139   21.3768 C   0  0  0  0  0  0
  -26.0178  -29.4484   20.7159 C   0  0  0  0  0  0
  -27.2036  -28.6662   20.7032 C   0  0  0  0  0  0
  -26.0331  -26.9563   19.4432 C   0  0  0  0  0  0
  -24.8549  -27.7174   19.4757 C   0  0  0  0  0  0
  -23.6180  -29.8360   20.1682 C   0  0  0  0  0  0
  -25.4116  -36.3101   24.0340 C   0  0  1  0  0  0
  -20.5867  -28.3669   23.1316 C   0  0  2  0  0  0
  -20.6772  -26.9411   22.5402 C   0  0  0  0  0  0
  -19.5744  -26.6395   21.5210 C   0  0  0  0  0  0
  -18.1925  -26.7925   22.1628 C   0  0  0  0  0  0
  -19.1523  -28.8848   23.2894 C   0  0  0  0  0  0
  -18.9450  -30.1458   23.8901 C   0  0  0  0  0  0
  -17.6450  -30.6590   24.0565 C   0  0  0  0  0  0
  -25.9050  -34.9464   23.5136 C   0  0  0  0  0  0
  -16.5343  -29.9088   23.6330 C   0  0  0  0  0  0
  -16.7262  -28.6506   23.0350 C   0  0  0  0  0  0
  -26.4487  -31.6602   25.0739 C   0  0  0  0  0  0
  -25.3744  -31.3690   26.1484 C   0  0  0  0  0  0
  -27.0336  -30.3036   24.6159 C   0  0  0  0  0  0
  -27.6056  -32.4342   25.7478 C   0  0  0  0  0  0
  -27.5586  -37.1789   24.8473 C   0  0  0  0  0  0
  -21.4162  -29.3026   22.3718 N   0  0  0  0  0  0
  -26.4304  -37.3787   23.9415 N   0  0  0  0  0  0
  -24.6764  -31.0726   22.1031 N   0  0  0  0  0  0
  -23.4197  -28.8209   23.3073 O   0  0  0  0  0  0
  -28.3630  -26.5901   20.1470 O   0  0  0  0  0  0
  -26.5617  -34.8911   22.4702 O   0  0  0  0  0  0
  -23.5369  -32.1444   23.7471 O   0  0  0  0  0  0
  -29.7913  -18.0865   17.9305 C   0  0  0  0  0  0
  -29.0881  -19.1476   18.5033 C   0  0  0  0  0  0
  -29.0995  -17.9552   20.6172 C   0  0  0  0  0  0
  -30.2663  -17.0106   18.7132 C   0  0  0  0  0  0
  -28.8205  -19.1384   19.8765 C   0  0  0  0  0  0
  -29.8720  -16.8559   20.0985 C   0  0  0  0  0  0
  -27.2109  -22.2865   20.7407 C   0  0  0  0  0  0
  -28.4743  -22.7141   20.6661 C   0  0  0  0  0  0
  -27.1665  -20.8409   20.5902 C   0  0  0  0  0  0
  -29.3922  -21.5184   20.5293 C   0  0  0  0  0  0
  -31.3405  -16.1977   18.0115 C   0  0  0  0  0  0
  -30.9738  -14.7488   23.5965 C   0  0  0  0  0  0
  -28.9745  -24.1729   20.7799 C   0  0  0  0  0  0
  -28.2597  -25.1708   19.8179 C   0  0  0  0  0  0
  -28.4404  -20.3895   20.4764 N   0  0  0  0  0  0
  -30.3072  -15.8037   20.9990 N   0  0  0  0  0  0
  -26.1529  -20.1390   20.5737 O   0  0  0  0  0  0
  -32.4744  -16.5372   22.2497 O   0  0  0  0  0  0
  -30.2448  -17.2716   23.2059 O   0  0  0  0  0  0
  -31.0633  -16.2405   22.5393 S   0  0  0  0  0  0
  -31.4201  -12.3410   19.1279 H   0  0  0  0  0  0
  -30.2255  -11.3574   19.9168 H   0  0  0  0  0  0
  -29.7012  -11.6724   17.4640 H   0  0  0  0  0  0
  -29.6192  -13.4073   17.6944 H   0  0  0  0  0  0
  -27.8342  -11.2669   18.8875 H   0  0  0  0  0  0
  -27.3310  -12.5189   17.7890 H   0  0  0  0  0  0
  -27.6483  -14.2430   19.4399 H   0  0  0  0  0  0
  -28.6667  -12.1860   21.4570 H   0  0  0  0  0  0
  -28.4586  -13.8892   21.7411 H   0  0  0  0  0  0
  -25.2650   -9.5796   22.4737 H   0  0  0  0  0  0
  -23.9950   -7.4752   22.7486 H   0  0  0  0  0  0
  -21.0804   -8.8776   19.8948 H   0  0  0  0  0  0
  -22.3568  -10.9744   19.6182 H   0  0  0  0  0  0
  -21.1960   -7.6145   23.9835 H   0  0  0  0  0  0
  -21.1445   -6.0461   25.9126 H   0  0  0  0  0  0
  -22.0583   -2.7621   23.2887 H   0  0  0  0  0  0
  -22.4233  -12.0035   22.4878 H   0  0  0  0  0  0
  -21.1283  -13.1508   22.3132 H   0  0  0  0  0  0
  -24.6948  -15.8675   20.6295 H   0  0  0  0  0  0
  -26.3185  -15.6184   20.2146 H   0  0  0  0  0  0
  -26.7149  -32.5502   23.1147 H   0  0  0  0  0  0
  -25.0044  -33.9783   25.0461 H   0  0  0  0  0  0
  -22.6967  -31.3098   21.4200 H   0  0  0  0  0  0
  -23.3766  -35.9605   23.3322 H   0  0  0  0  0  0
  -24.3581  -36.8876   22.2048 H   0  0  0  0  0  0
  -23.7229  -37.6483   23.6645 H   0  0  0  0  0  0
  -26.0804  -31.5856   20.6176 H   0  0  0  0  0  0
  -26.8232  -30.8496   22.0109 H   0  0  0  0  0  0
  -28.1009  -29.0353   21.1822 H   0  0  0  0  0  0
  -25.9667  -26.0361   18.8850 H   0  0  0  0  0  0
  -23.9617  -27.3416   18.9958 H   0  0  0  0  0  0
  -23.7381  -30.6158   19.4150 H   0  0  0  0  0  0
  -22.7370  -29.2666   19.8669 H   0  0  0  0  0  0
  -25.1296  -36.1954   25.0833 H   0  0  0  0  0  0
  -20.9945  -28.3223   24.1446 H   0  0  0  0  0  0
  -20.5704  -26.2268   23.3581 H   0  0  0  0  0  0
  -21.6639  -26.7475   22.1177 H   0  0  0  0  0  0
  -19.6909  -25.6315   21.1222 H   0  0  0  0  0  0
  -19.6680  -27.3220   20.6754 H   0  0  0  0  0  0
  -17.4191  -26.6667   21.4036 H   0  0  0  0  0  0
  -18.0339  -26.0071   22.9031 H   0  0  0  0  0  0
  -19.7929  -30.7274   24.2267 H   0  0  0  0  0  0
  -17.5010  -31.6271   24.5165 H   0  0  0  0  0  0
  -15.5346  -30.2994   23.7663 H   0  0  0  0  0  0
  -15.8659  -28.0836   22.7060 H   0  0  0  0  0  0
  -24.5882  -30.7103   25.7780 H   0  0  0  0  0  0
  -24.8989  -32.2843   26.5013 H   0  0  0  0  0  0
  -25.8085  -30.8755   27.0196 H   0  0  0  0  0  0
  -26.2888  -29.6760   24.1251 H   0  0  0  0  0  0
  -27.4130  -29.7316   25.4640 H   0  0  0  0  0  0
  -27.8725  -30.4346   23.9320 H   0  0  0  0  0  0
  -27.2658  -33.3597   26.2144 H   0  0  0  0  0  0
  -28.3787  -32.6996   25.0250 H   0  0  0  0  0  0
  -28.0839  -31.8438   26.5307 H   0  0  0  0  0  0
  -28.2616  -38.0075   24.7536 H   0  0  0  0  0  0
  -28.1075  -36.2612   24.6298 H   0  0  0  0  0  0
  -27.2309  -37.1434   25.8877 H   0  0  0  0  0  0
  -20.9338  -29.8709   21.6893 H   0  0  0  0  0  0
  -26.0191  -38.2866   24.1413 H   0  0  0  0  0  0
  -30.0744  -18.1928   16.8891 H   0  0  0  0  0  0
  -28.8367  -20.0161   17.9109 H   0  0  0  0  0  0
  -28.7643  -17.9692   21.6353 H   0  0  0  0  0  0
  -26.3415  -22.9124   20.8695 H   0  0  0  0  0  0
  -30.0471  -21.4261   21.3992 H   0  0  0  0  0  0
  -30.0085  -21.6003   19.6284 H   0  0  0  0  0  0
  -31.0466  -15.1640   17.8502 H   0  0  0  0  0  0
  -32.2608  -16.2497   18.5939 H   0  0  0  0  0  0
  -31.6218  -16.6143   17.0426 H   0  0  0  0  0  0
  -31.4878  -13.9080   23.1363 H   0  0  0  0  0  0
  -29.9306  -14.5098   23.7861 H   0  0  0  0  0  0
  -31.4647  -14.9740   24.5410 H   0  0  0  0  0  0
  -30.0533  -24.2167   20.6139 H   0  0  0  0  0  0
  -28.8070  -24.4771   21.8148 H   0  0  0  0  0  0
  -27.2382  -24.8161   19.8010 H   0  0  0  0  0  0
  -28.6426  -25.0317   18.8069 H   0  0  0  0  0  0
  1 25  1  0  0  0
  1 30  2  0  0  0
  1 86  1  0  0  0
  2  3  1  0  0  0
  2 25  1  0  0  0
  2 91  1  0  0  0
  2 92  1  0  0  0
  3  4  1  0  0  0
  3 93  1  0  0  0
  3 94  1  0  0  0
  4  5  1  0  0  0
  4 95  1  0  0  0
  4 96  1  0  0  0
  5  6  1  0  0  0
  5 26  1  0  0  0
  5 97  1  0  0  0
  6 25  1  0  0  0
  6 98  1  0  0  0
  6 99  1  0  0  0
  7  8  2  0  0  0
  7 26  1  0  0  0
  7 29  1  0  0  0
  8  9  1  0  0  0
  8 22  1  0  0  0
  9 10  1  0  0  0
  9 27  2  0  0  0
 10 11  2  0  0  0
 10 15  1  0  0  0
 11 12  1  0  0  0
 11100  1  0  0  0
 12 13  2  0  0  0
 12101  1  0  0  0
 13 14  1  0  0  0
 13 31  1  0  0  0
 14 15  2  0  0  0
 14102  1  0  0  0
 15103  1  0  0  0
 16 17  2  0  0  0
 16 21  1  0  0  0
 16 31  1  0  0  0
 17 18  1  0  0  0
 17104  1  0  0  0
 18 19  2  0  0  0
 18105  1  0  0  0
 19 20  1  0  0  0
 19 24  1  0  0  0
 20 21  2  0  0  0
 20106  1  0  0  0
 21 23  1  0  0  0
 22 28  1  0  0  0
 22 32  2  0  0  0
 26 27  1  0  0  0
 28107  1  0  0  0
 28108  1  0  0  0
 29109  1  0  0  0
 29110  1  0  0  0
 33 34  1  0  0  0
 33 66  1  0  0  0
 33 70  2  0  0  0
 34 36  1  0  0  0
 34 59  1  0  0  0
 34111  1  0  0  0
 35 44  2  0  0  0
 35 45  1  0  0  0
 35 68  1  0  0  0
 36 56  1  0  0  0
 36112  1  0  0  0
 37 39  1  0  0  0
 37 47  1  0  0  0
 37 66  1  0  0  0
 37113  1  0  0  0
 38 43  2  0  0  0
 38 46  1  0  0  0
 38 47  1  0  0  0
 39 64  1  0  0  0
 39 67  2  0  0  0
 40 52  1  0  0  0
 40 53  2  0  0  0
 40 58  1  0  0  0
 41114  1  0  0  0
 41115  1  0  0  0
 41116  1  0  0  0
 41 48  1  0  0  0
 42 43  1  0  0  0
 42 66  1  0  0  0
 42117  1  0  0  0
 42118  1  0  0  0
 43 44  1  0  0  0
 44119  1  0  0  0
 45 46  2  0  0  0
 45120  1  0  0  0
 46121  1  0  0  0
 47122  1  0  0  0
 47123  1  0  0  0
 48 56  1  0  0  0
 48 65  1  0  0  0
 48124  1  0  0  0
 49 50  1  0  0  0
 49 53  1  0  0  0
 49 64  1  0  0  0
 49125  1  0  0  0
 50 51  1  0  0  0
 50126  1  0  0  0
 50127  1  0  0  0
 51 52  1  0  0  0
 51128  1  0  0  0
 51129  1  0  0  0
 52130  1  0  0  0
 52131  1  0  0  0
 53 54  1  0  0  0
 54 55  2  0  0  0
 54132  1  0  0  0
 55 57  1  0  0  0
 55133  1  0  0  0
 56 69  2  0  0  0
 57 58  2  0  0  0
 57134  1  0  0  0
 58135  1  0  0  0
 59 60  1  0  0  0
 59 61  1  0  0  0
 59 62  1  0  0  0
 60136  1  0  0  0
 60137  1  0  0  0
 60138  1  0  0  0
 61139  1  0  0  0
 61140  1  0  0  0
 61141  1  0  0  0
 62142  1  0  0  0
 62143  1  0  0  0
 62144  1  0  0  0
 63 65  1  0  0  0
 63145  1  0  0  0
 63146  1  0  0  0
 63147  1  0  0  0
 64148  1  0  0  0
 65149  1  0  0  0
 68 84  1  0  0  0
 71 72  2  0  0  0
 71 74  1  0  0  0
 71150  1  0  0  0
 72 75  1  0  0  0
 72151  1  0  0  0
 73 75  2  0  0  0
 73 76  1  0  0  0
 73152  1  0  0  0
 74 76  2  0  0  0
 74 81  1  0  0  0
 75 85  1  0  0  0
 76 86  1  0  0  0
 77 78  2  0  0  0
 77 79  1  0  0  0
 77153  1  0  0  0
 78 80  1  0  0  0
 78 83  1  0  0  0
 79 85  1  0  0  0
 79 87  2  0  0  0
 80 85  1  0  0  0
 80154  1  0  0  0
 80155  1  0  0  0
 81156  1  0  0  0
 81157  1  0  0  0
 81158  1  0  0  0
 82159  1  0  0  0
 82160  1  0  0  0
 82161  1  0  0  0
 82 90  1  0  0  0
 83 84  1  0  0  0
 83162  1  0  0  0
 83163  1  0  0  0
 84164  1  0  0  0
 84165  1  0  0  0
 86 90  1  0  0  0
 88 90  2  0  0  0
 89 90  2  0  0  0
M  ISO  4   1 100  68 101  84 101  86 100
M  END
> <chiral flag>
0

> <version>
0

> <s_m_source_file>
/data/baiqing/PycharmProjects/Reinvent-master-3.2/result/LINK_invent/BTK/process_docking_weight1_custom_product_contain_oxygen_bond_distance_aromatic_linkinvent_7_9_3/rearranged_h_0061.sdf

> <i_m_source_file_index>
54

> <r_mmod_Potential_Energy-OPLS-2005>
229.595855712891

> <r_mmod_Stretch_Energy-OPLS-2005>
63.4500007629395

> <r_mmod_Bend_Energy-OPLS-2005>
210.003723144531

> <r_mmod_Torsional_Energy-OPLS-2005>
369.149169921875

> <r_mmod_Improper_Torsional_Energy-OPLS-2005>
7.27112579345703

> <r_mmod_Van_der_Waal_Energy-OPLS-2005>
158.46907043457

> <r_mmod_Electrostatic_Energy-OPLS-2005>
-389.306091308594

> <r_mmod_Solvation_Energy-OPLS-2005>
-230.66943359375

> <b_mmod_Minimization_Converged-OPLS-2005>
0

> <r_mmod_RMS_Derivative-OPLS-2005>
8.21886348724365

$$$$
55
                    3D
 Structure written by MMmdl.
162171  0  0  1  0            999 V2000
  -30.6107  -14.7160   20.4599 C   0  0  0  0  0  0
  -30.4324  -12.4274   19.5064 C   0  0  0  0  0  0
  -29.5244  -12.5041   18.2601 C   0  0  0  0  0  0
  -28.0470  -12.3365   18.6633 C   0  0  0  0  0  0
  -27.6472  -13.2301   19.8669 C   0  0  2  0  0  0
  -28.6815  -13.1523   21.0107 C   0  0  0  0  0  0
  -25.2511  -13.8198   20.5725 C   0  0  0  0  0  0
  -24.1791  -13.0441   20.9203 C   0  0  0  0  0  0
  -24.6381  -11.6923   20.8749 C   0  0  0  0  0  0
  -23.9053  -10.4292   21.0409 C   0  0  0  0  0  0
  -24.3608   -9.4198   21.9182 C   0  0  0  0  0  0
  -23.6279   -8.2236   22.0744 C   0  0  0  0  0  0
  -22.4255   -8.0283   21.3550 C   0  0  0  0  0  0
  -21.9889   -9.0257   20.4658 C   0  0  0  0  0  0
  -22.7221  -10.2131   20.3061 C   0  0  0  0  0  0
  -21.6865   -6.0727   22.5289 C   0  0  0  0  0  0
  -21.4028   -6.5628   23.8224 C   0  0  0  0  0  0
  -21.3659   -5.6786   24.9187 C   0  0  0  0  0  0
  -21.6037   -4.3053   24.7236 C   0  0  0  0  0  0
  -21.8816   -3.8136   23.4365 C   0  0  0  0  0  0
  -21.9192   -4.6951   22.3416 C   0  0  0  0  0  0
  -22.7814  -13.5231   21.1872 C   0  0  0  0  0  0
  -22.1658   -4.2132   21.0992 F   0  0  0  0  0  0
  -21.5613   -3.4546   25.7748 F   0  0  0  0  0  0
  -29.9943  -13.4871   20.4443 N   0  0  0  0  0  0
  -26.2949  -12.9401   20.3329 N   0  0  0  0  0  0
  -25.9314  -11.6546   20.5773 N   0  0  0  0  0  0
  -22.0445  -12.8232   22.0432 N   0  0  0  0  0  0
  -25.4201  -15.1934   20.4216 N   0  0  0  0  0  0
  -31.7827  -14.8183   20.0840 O   0  0  0  0  0  0
  -21.6625   -6.8875   21.4251 O   0  0  0  0  0  0
  -22.3509  -14.5544   20.6715 O   0  0  0  0  0  0
  -24.6288  -31.8569   23.2025 C   0  0  0  0  0  0
  -25.9126  -32.4766   23.8349 C   0  0  1  0  0  0
  -27.2153  -27.2740   20.1172 C   0  0  0  0  0  0
  -25.5936  -33.8567   24.2268 N   0  0  0  0  0  0
  -23.4241  -30.4819   21.5455 C   0  0  2  0  0  0
  -24.8704  -28.9352   20.1071 C   0  0  0  0  0  0
  -22.7481  -29.4608   22.4916 C   0  0  0  0  0  0
  -18.0293  -28.1377   22.8484 C   0  0  0  0  0  0
  -24.1492  -36.7288   23.2638 C   0  0  0  0  0  0
  -25.9712  -30.7705   21.3845 C   0  0  0  0  0  0
  -26.0426  -29.3968   20.7201 C   0  0  0  0  0  0
  -27.2166  -28.5772   20.7187 C   0  0  0  0  0  0
  -26.0196  -26.8849   19.4685 C   0  0  0  0  0  0
  -24.8629  -27.6851   19.4731 C   0  0  0  0  0  0
  -23.6412  -29.8217   20.1593 C   0  0  0  0  0  0
  -25.4119  -36.3073   24.0323 C   0  0  1  0  0  0
  -20.5896  -28.3682   23.1277 C   0  0  2  0  0  0
  -20.6783  -26.9400   22.5404 C   0  0  0  0  0  0
  -19.5758  -26.6376   21.5207 C   0  0  0  0  0  0
  -18.1943  -26.7920   22.1625 C   0  0  0  0  0  0
  -19.1546  -28.8845   23.2882 C   0  0  0  0  0  0
  -18.9469  -30.1451   23.8897 C   0  0  0  0  0  0
  -17.6464  -30.6581   24.0561 C   0  0  0  0  0  0
  -25.9055  -34.9440   23.5093 C   0  0  0  0  0  0
  -16.5354  -29.9073   23.6334 C   0  0  0  0  0  0
  -16.7277  -28.6492   23.0352 C   0  0  0  0  0  0
  -26.4484  -31.6599   25.0740 C   0  0  0  0  0  0
  -25.3712  -31.3791   26.1482 C   0  0  0  0  0  0
  -27.0312  -30.3005   24.6250 C   0  0  0  0  0  0
  -27.6034  -32.4340   25.7502 C   0  0  0  0  0  0
  -27.5576  -37.1811   24.8460 C   0  0  0  0  0  0
  -21.4191  -29.3035   22.3658 N   0  0  0  0  0  0
  -26.4296  -37.3767   23.9390 N   0  0  0  0  0  0
  -24.6933  -31.0536   22.1005 N   0  0  0  0  0  0
  -23.4189  -28.8145   23.3005 O   0  0  0  0  0  0
  -28.3087  -26.3780   20.1793 O   0  0  0  0  0  0
  -26.5616  -34.8900   22.4656 O   0  0  0  0  0  0
  -23.5444  -32.1391   23.7326 O   0  0  0  0  0  0
  -30.1689  -18.3721   17.9478 C   0  0  0  0  0  0
  -30.1231  -17.1736   18.6781 C   0  0  0  0  0  0
  -29.6794  -18.4694   20.6810 C   0  0  0  0  0  0
  -30.0348  -19.6365   18.5618 C   0  0  0  0  0  0
  -29.7395  -19.7408   19.9518 C   0  0  0  0  0  0
  -29.9138  -17.1671   20.0700 C   0  0  0  0  0  0
  -30.4260  -21.3956   21.6380 C   0  0  0  0  0  0
  -29.7523  -20.9566   16.4695 C   0  0  0  0  0  0
  -30.2587  -20.8095   17.7043 C   0  0  0  0  0  0
  -30.4412  -22.8005   22.2789 C   0  0  0  0  0  0
  -29.2981  -23.7539   21.8931 C   0  0  0  0  0  0
  -28.7329  -22.2293   20.0237 C   0  0  0  0  0  0
  -29.0865  -23.7600   20.3842 C   0  0  1  0  0  0
  -28.0590  -24.9180   19.9349 C   0  0  0  0  0  0
  -29.6203  -21.1020   20.5781 N   0  0  0  0  0  0
  -29.8620  -15.8478   20.7450 N   0  0  0  0  0  0
  -31.2161  -20.5764   22.1225 O   0  0  0  0  0  0
  -31.4806  -12.5308   19.2241 H   0  0  0  0  0  0
  -30.3523  -11.4481   19.9827 H   0  0  0  0  0  0
  -29.8033  -11.7301   17.5438 H   0  0  0  0  0  0
  -29.6687  -13.4611   17.7565 H   0  0  0  0  0  0
  -27.9050  -11.2875   18.9261 H   0  0  0  0  0  0
  -27.3946  -12.5287   17.8124 H   0  0  0  0  0  0
  -27.6486  -14.2549   19.4969 H   0  0  0  0  0  0
  -28.6986  -12.1514   21.4458 H   0  0  0  0  0  0
  -28.4148  -13.8326   21.8217 H   0  0  0  0  0  0
  -25.2753   -9.5652   22.4757 H   0  0  0  0  0  0
  -23.9983   -7.4614   22.7452 H   0  0  0  0  0  0
  -21.0810   -8.8787   19.8970 H   0  0  0  0  0  0
  -22.3683  -10.9675   19.6179 H   0  0  0  0  0  0
  -21.2032   -7.6145   23.9726 H   0  0  0  0  0  0
  -21.1484   -6.0521   25.9089 H   0  0  0  0  0  0
  -22.0593   -2.7599   23.2879 H   0  0  0  0  0  0
  -22.4050  -11.9907   22.4852 H   0  0  0  0  0  0
  -21.1076  -13.1289   22.2647 H   0  0  0  0  0  0
  -24.6529  -15.8454   20.5418 H   0  0  0  0  0  0
  -26.2728  -15.6421   20.1107 H   0  0  0  0  0  0
  -26.7189  -32.5410   23.1084 H   0  0  0  0  0  0
  -25.0085  -33.9713   25.0407 H   0  0  0  0  0  0
  -22.7211  -31.3054   21.4043 H   0  0  0  0  0  0
  -23.3739  -35.9644   23.3328 H   0  0  0  0  0  0
  -24.3568  -36.8868   22.2045 H   0  0  0  0  0  0
  -23.7271  -37.6510   23.6634 H   0  0  0  0  0  0
  -26.1149  -31.5385   20.6226 H   0  0  0  0  0  0
  -26.8463  -30.8124   22.0210 H   0  0  0  0  0  0
  -28.1086  -28.9194   21.2246 H   0  0  0  0  0  0
  -25.9410  -25.9368   18.9589 H   0  0  0  0  0  0
  -23.9655  -27.3251   18.9881 H   0  0  0  0  0  0
  -23.7650  -30.6034   19.4092 H   0  0  0  0  0  0
  -22.7582  -29.2586   19.8514 H   0  0  0  0  0  0
  -25.1305  -36.1924   25.0820 H   0  0  0  0  0  0
  -20.9992  -28.3248   24.1395 H   0  0  0  0  0  0
  -20.5684  -26.2277   23.3593 H   0  0  0  0  0  0
  -21.6650  -26.7421   22.1200 H   0  0  0  0  0  0
  -19.6919  -25.6289   21.1231 H   0  0  0  0  0  0
  -19.6701  -27.3183   20.6739 H   0  0  0  0  0  0
  -17.4205  -26.6654   21.4039 H   0  0  0  0  0  0
  -18.0352  -26.0063   22.9019 H   0  0  0  0  0  0
  -19.7945  -30.7273   24.2258 H   0  0  0  0  0  0
  -17.5019  -31.6263   24.5149 H   0  0  0  0  0  0
  -15.5358  -30.2976   23.7662 H   0  0  0  0  0  0
  -15.8676  -28.0810   22.7070 H   0  0  0  0  0  0
  -24.5859  -30.7158   25.7835 H   0  0  0  0  0  0
  -24.8956  -32.2992   26.4895 H   0  0  0  0  0  0
  -25.8048  -30.8983   27.0264 H   0  0  0  0  0  0
  -26.2908  -29.6773   24.1233 H   0  0  0  0  0  0
  -27.3912  -29.7254   25.4791 H   0  0  0  0  0  0
  -27.8819  -30.4244   23.9543 H   0  0  0  0  0  0
  -27.2637  -33.3639   26.2071 H   0  0  0  0  0  0
  -28.3855  -32.6908   25.0341 H   0  0  0  0  0  0
  -28.0692  -31.8481   26.5435 H   0  0  0  0  0  0
  -28.2620  -38.0079   24.7460 H   0  0  0  0  0  0
  -28.1044  -36.2611   24.6346 H   0  0  0  0  0  0
  -27.2283  -37.1526   25.8861 H   0  0  0  0  0  0
  -20.9348  -29.8767   21.6889 H   0  0  0  0  0  0
  -26.0174  -38.2844   24.1374 H   0  0  0  0  0  0
  -30.3720  -18.3115   16.8883 H   0  0  0  0  0  0
  -30.2595  -16.2459   18.1387 H   0  0  0  0  0  0
  -29.4798  -18.4987   21.7415 H   0  0  0  0  0  0
  -29.9646  -21.8391   15.8823 H   0  0  0  0  0  0
  -29.1120  -20.2045   16.0323 H   0  0  0  0  0  0
  -30.8999  -21.5829   18.1036 H   0  0  0  0  0  0
  -31.3909  -23.2581   22.0000 H   0  0  0  0  0  0
  -30.4690  -22.6911   23.3634 H   0  0  0  0  0  0
  -29.5252  -24.7614   22.2462 H   0  0  0  0  0  0
  -28.3775  -23.4495   22.3951 H   0  0  0  0  0  0
  -28.6201  -22.1644   18.9462 H   0  0  0  0  0  0
  -27.7287  -22.0301   20.4003 H   0  0  0  0  0  0
  -30.0378  -23.9998   19.9052 H   0  0  0  0  0  0
  -27.1053  -24.6548   20.3939 H   0  0  0  0  0  0
  -27.9129  -24.8036   18.8594 H   0  0  0  0  0  0
  -29.0250  -15.6732   21.2807 H   0  0  0  0  0  0
  1 25  1  0  0  0
  1 30  2  0  0  0
  1 86  1  0  0  0
  2  3  1  0  0  0
  2 25  1  0  0  0
  2 88  1  0  0  0
  2 89  1  0  0  0
  3  4  1  0  0  0
  3 90  1  0  0  0
  3 91  1  0  0  0
  4  5  1  0  0  0
  4 92  1  0  0  0
  4 93  1  0  0  0
  5  6  1  0  0  0
  5 26  1  0  0  0
  5 94  1  0  0  0
  6 25  1  0  0  0
  6 95  1  0  0  0
  6 96  1  0  0  0
  7  8  2  0  0  0
  7 26  1  0  0  0
  7 29  1  0  0  0
  8  9  1  0  0  0
  8 22  1  0  0  0
  9 10  1  0  0  0
  9 27  2  0  0  0
 10 11  2  0  0  0
 10 15  1  0  0  0
 11 12  1  0  0  0
 11 97  1  0  0  0
 12 13  2  0  0  0
 12 98  1  0  0  0
 13 14  1  0  0  0
 13 31  1  0  0  0
 14 15  2  0  0  0
 14 99  1  0  0  0
 15100  1  0  0  0
 16 17  2  0  0  0
 16 21  1  0  0  0
 16 31  1  0  0  0
 17 18  1  0  0  0
 17101  1  0  0  0
 18 19  2  0  0  0
 18102  1  0  0  0
 19 20  1  0  0  0
 19 24  1  0  0  0
 20 21  2  0  0  0
 20103  1  0  0  0
 21 23  1  0  0  0
 22 28  1  0  0  0
 22 32  2  0  0  0
 26 27  1  0  0  0
 28104  1  0  0  0
 28105  1  0  0  0
 29106  1  0  0  0
 29107  1  0  0  0
 33 34  1  0  0  0
 33 66  1  0  0  0
 33 70  2  0  0  0
 34 36  1  0  0  0
 34 59  1  0  0  0
 34108  1  0  0  0
 35 44  2  0  0  0
 35 45  1  0  0  0
 35 68  1  0  0  0
 36 56  1  0  0  0
 36109  1  0  0  0
 37 39  1  0  0  0
 37 47  1  0  0  0
 37 66  1  0  0  0
 37110  1  0  0  0
 38 43  2  0  0  0
 38 46  1  0  0  0
 38 47  1  0  0  0
 39 64  1  0  0  0
 39 67  2  0  0  0
 40 52  1  0  0  0
 40 53  2  0  0  0
 40 58  1  0  0  0
 41111  1  0  0  0
 41112  1  0  0  0
 41113  1  0  0  0
 41 48  1  0  0  0
 42 43  1  0  0  0
 42 66  1  0  0  0
 42114  1  0  0  0
 42115  1  0  0  0
 43 44  1  0  0  0
 44116  1  0  0  0
 45 46  2  0  0  0
 45117  1  0  0  0
 46118  1  0  0  0
 47119  1  0  0  0
 47120  1  0  0  0
 48 56  1  0  0  0
 48 65  1  0  0  0
 48121  1  0  0  0
 49 50  1  0  0  0
 49 53  1  0  0  0
 49 64  1  0  0  0
 49122  1  0  0  0
 50 51  1  0  0  0
 50123  1  0  0  0
 50124  1  0  0  0
 51 52  1  0  0  0
 51125  1  0  0  0
 51126  1  0  0  0
 52127  1  0  0  0
 52128  1  0  0  0
 53 54  1  0  0  0
 54 55  2  0  0  0
 54129  1  0  0  0
 55 57  1  0  0  0
 55130  1  0  0  0
 56 69  2  0  0  0
 57 58  2  0  0  0
 57131  1  0  0  0
 58132  1  0  0  0
 59 60  1  0  0  0
 59 61  1  0  0  0
 59 62  1  0  0  0
 60133  1  0  0  0
 60134  1  0  0  0
 60135  1  0  0  0
 61136  1  0  0  0
 61137  1  0  0  0
 61138  1  0  0  0
 62139  1  0  0  0
 62140  1  0  0  0
 62141  1  0  0  0
 63 65  1  0  0  0
 63142  1  0  0  0
 63143  1  0  0  0
 63144  1  0  0  0
 64145  1  0  0  0
 65146  1  0  0  0
 68 84  1  0  0  0
 71 72  2  0  0  0
 71 74  1  0  0  0
 71147  1  0  0  0
 72 76  1  0  0  0
 72148  1  0  0  0
 73 75  1  0  0  0
 73 76  2  0  0  0
 73149  1  0  0  0
 74 75  2  0  0  0
 74 79  1  0  0  0
 75 85  1  0  0  0
 76 86  1  0  0  0
 77 80  1  0  0  0
 77 85  1  0  0  0
 77 87  2  0  0  0
 78 79  2  0  0  0
 78150  1  0  0  0
 78151  1  0  0  0
 79152  1  0  0  0
 80 81  1  0  0  0
 80153  1  0  0  0
 80154  1  0  0  0
 81 83  1  0  0  0
 81155  1  0  0  0
 81156  1  0  0  0
 82 83  1  0  0  0
 82 85  1  0  0  0
 82157  1  0  0  0
 82158  1  0  0  0
 83 84  1  0  0  0
 83159  1  0  0  0
 84160  1  0  0  0
 84161  1  0  0  0
 86162  1  0  0  0
M  ISO  4   1 100  68 101  84 101  86 100
M  END
> <chiral flag>
0

> <version>
0

> <s_m_source_file>
/data/baiqing/PycharmProjects/Reinvent-master-3.2/result/LINK_invent/BTK/process_docking_weight1_custom_product_contain_oxygen_bond_distance_aromatic_linkinvent_7_9_3/rearranged_h_0061.sdf

> <i_m_source_file_index>
55

> <r_mmod_Potential_Energy-OPLS-2005>
269.056518554688

> <r_mmod_Stretch_Energy-OPLS-2005>
128.843109130859

> <r_mmod_Bend_Energy-OPLS-2005>
160.247329711914

> <r_mmod_Torsional_Energy-OPLS-2005>
313.748596191406

> <r_mmod_Improper_Torsional_Energy-OPLS-2005>
5.28277206420898

> <r_mmod_Van_der_Waal_Energy-OPLS-2005>
161.263076782227

> <r_mmod_Electrostatic_Energy-OPLS-2005>
-350.929412841797

> <r_mmod_Solvation_Energy-OPLS-2005>
-226.397689819336

> <b_mmod_Minimization_Converged-OPLS-2005>
0

> <r_mmod_RMS_Derivative-OPLS-2005>
3.21131253242493

$$$$
56
                    3D
 Structure written by MMmdl.
148156  0  0  1  0            999 V2000
  -30.5246  -14.8087   20.4987 C   0  0  0  0  0  0
  -30.4493  -12.5208   19.4595 C   0  0  0  0  0  0
  -29.5176  -12.5363   18.2291 C   0  0  0  0  0  0
  -28.0335  -12.3589   18.6226 C   0  0  0  0  0  0
  -27.6303  -13.2354   19.8388 C   0  0  2  0  0  0
  -28.6720  -13.1523   20.9713 C   0  0  0  0  0  0
  -25.2413  -13.8181   20.5613 C   0  0  0  0  0  0
  -24.1735  -13.0422   20.9217 C   0  0  0  0  0  0
  -24.6338  -11.6918   20.8711 C   0  0  0  0  0  0
  -23.9025  -10.4290   21.0395 C   0  0  0  0  0  0
  -24.3589   -9.4211   21.9179 C   0  0  0  0  0  0
  -23.6289   -8.2225   22.0749 C   0  0  0  0  0  0
  -22.4278   -8.0244   21.3530 C   0  0  0  0  0  0
  -21.9883   -9.0207   20.4631 C   0  0  0  0  0  0
  -22.7189  -10.2110   20.3054 C   0  0  0  0  0  0
  -21.6844   -6.0718   22.5270 C   0  0  0  0  0  0
  -21.4007   -6.5635   23.8209 C   0  0  0  0  0  0
  -21.3654   -5.6785   24.9166 C   0  0  0  0  0  0
  -21.6050   -4.3050   24.7201 C   0  0  0  0  0  0
  -21.8829   -3.8138   23.4317 C   0  0  0  0  0  0
  -21.9198   -4.6953   22.3375 C   0  0  0  0  0  0
  -22.7776  -13.5220   21.1859 C   0  0  0  0  0  0
  -22.1670   -4.2157   21.0957 F   0  0  0  0  0  0
  -21.5616   -3.4523   25.7708 F   0  0  0  0  0  0
  -29.9568  -13.5582   20.3929 N   0  0  0  0  0  0
  -26.2839  -12.9393   20.3150 N   0  0  0  0  0  0
  -25.9270  -11.6543   20.5646 N   0  0  0  0  0  0
  -22.0403  -12.8242   22.0421 N   0  0  0  0  0  0
  -25.4021  -15.1897   20.3918 N   0  0  0  0  0  0
  -31.7330  -14.9482   20.2775 O   0  0  0  0  0  0
  -21.6632   -6.8852   21.4238 O   0  0  0  0  0  0
  -22.3469  -14.5520   20.6702 O   0  0  0  0  0  0
  -24.6313  -31.8544   23.1928 C   0  0  0  0  0  0
  -25.9124  -32.4742   23.8308 C   0  0  1  0  0  0
  -27.2326  -27.2449   20.1440 C   0  0  0  0  0  0
  -25.5922  -33.8556   24.2241 N   0  0  0  0  0  0
  -23.4289  -30.4690   21.5393 C   0  0  2  0  0  0
  -24.8768  -28.8979   20.1216 C   0  0  0  0  0  0
  -22.7491  -29.4597   22.4957 C   0  0  0  0  0  0
  -18.0328  -28.1345   22.8462 C   0  0  0  0  0  0
  -24.1485  -36.7275   23.2650 C   0  0  0  0  0  0
  -25.9738  -30.7555   21.3743 C   0  0  0  0  0  0
  -26.0489  -29.3720   20.7290 C   0  0  0  0  0  0
  -27.2292  -28.5584   20.7265 C   0  0  0  0  0  0
  -26.0354  -26.8279   19.5249 C   0  0  0  0  0  0
  -24.8757  -27.6304   19.5114 C   0  0  0  0  0  0
  -23.6485  -29.7923   20.1597 C   0  0  0  0  0  0
  -25.4115  -36.3074   24.0333 C   0  0  1  0  0  0
  -20.5876  -28.3677   23.1265 C   0  0  2  0  0  0
  -20.6779  -26.9401   22.5382 C   0  0  0  0  0  0
  -19.5777  -26.6383   21.5161 C   0  0  0  0  0  0
  -18.1945  -26.7912   22.1527 C   0  0  0  0  0  0
  -19.1554  -28.8836   23.2890 C   0  0  0  0  0  0
  -18.9463  -30.1415   23.8932 C   0  0  0  0  0  0
  -17.6434  -30.6541   24.0615 C   0  0  0  0  0  0
  -25.9056  -34.9431   23.5088 C   0  0  0  0  0  0
  -16.5351  -29.9038   23.6336 C   0  0  0  0  0  0
  -16.7317  -28.6463   23.0335 C   0  0  0  0  0  0
  -26.4500  -31.6556   25.0693 C   0  0  0  0  0  0
  -25.3691  -31.3672   26.1383 C   0  0  0  0  0  0
  -27.0373  -30.2975   24.6170 C   0  0  0  0  0  0
  -27.6028  -32.4316   25.7478 C   0  0  0  0  0  0
  -27.5577  -37.1816   24.8494 C   0  0  0  0  0  0
  -21.4202  -29.3025   22.3671 N   0  0  0  0  0  0
  -26.4305  -37.3761   23.9402 N   0  0  0  0  0  0
  -24.6969  -31.0458   22.0916 N   0  0  0  0  0  0
  -23.4167  -28.8180   23.3102 O   0  0  0  0  0  0
  -28.3592  -26.3840   20.0964 O   0  0  0  0  0  0
  -26.5658  -34.8934   22.4687 O   0  0  0  0  0  0
  -23.5454  -32.1407   23.7221 O   0  0  0  0  0  0
  -29.5405  -19.8809   22.3758 C   0  0  0  0  0  0
  -29.9539  -17.4462   22.4461 C   0  0  0  0  0  0
  -29.3076  -19.8687   20.9732 C   0  0  0  0  0  0
  -29.7289  -17.3021   21.0605 C   0  0  0  0  0  0
  -29.8428  -18.6981   23.0910 C   0  0  0  0  0  0
  -29.3824  -18.5388   20.3516 C   0  0  0  0  0  0
  -28.7250  -23.6806   19.9218 C   0  0  0  0  0  0
  -28.2997  -24.9643   20.3273 C   0  0  0  0  0  0
  -28.7296  -22.3261   20.7014 C   0  0  0  0  0  0
  -29.0869  -21.1317   20.2346 N   0  0  0  0  0  0
  -29.6551  -15.9070   20.5122 N   0  0  0  0  0  0
  -30.0170  -18.7661   24.4348 F   0  0  0  0  0  0
  -29.1014  -18.4514   19.0277 F   0  0  0  0  0  0
  -31.4767  -12.7266   19.1484 H   0  0  0  0  0  0
  -30.4711  -11.5407   19.9349 H   0  0  0  0  0  0
  -29.8117  -11.7675   17.5136 H   0  0  0  0  0  0
  -29.6427  -13.4915   17.7120 H   0  0  0  0  0  0
  -27.8657  -11.3035   18.8463 H   0  0  0  0  0  0
  -27.4022  -12.5997   17.7687 H   0  0  0  0  0  0
  -27.6220  -14.2607   19.4709 H   0  0  0  0  0  0
  -28.7307  -12.1400   21.3728 H   0  0  0  0  0  0
  -28.3929  -13.7994   21.8050 H   0  0  0  0  0  0
  -25.2732   -9.5716   22.4752 H   0  0  0  0  0  0
  -23.9994   -7.4637   22.7500 H   0  0  0  0  0  0
  -21.0797   -8.8714   19.8935 H   0  0  0  0  0  0
  -22.3633  -10.9640   19.6143 H   0  0  0  0  0  0
  -21.2020   -7.6153   23.9715 H   0  0  0  0  0  0
  -21.1465   -6.0504   25.9067 H   0  0  0  0  0  0
  -22.0621   -2.7606   23.2805 H   0  0  0  0  0  0
  -22.4001  -11.9954   22.4897 H   0  0  0  0  0  0
  -21.0980  -13.1257   22.2498 H   0  0  0  0  0  0
  -24.6027  -15.8130   20.4496 H   0  0  0  0  0  0
  -26.1961  -15.6127   19.9321 H   0  0  0  0  0  0
  -26.7198  -32.5395   23.1065 H   0  0  0  0  0  0
  -25.0047  -33.9668   25.0369 H   0  0  0  0  0  0
  -22.7283  -31.2919   21.3850 H   0  0  0  0  0  0
  -23.3753  -35.9607   23.3341 H   0  0  0  0  0  0
  -24.3545  -36.8875   22.2058 H   0  0  0  0  0  0
  -23.7244  -37.6480   23.6660 H   0  0  0  0  0  0
  -26.1098  -31.5124   20.6005 H   0  0  0  0  0  0
  -26.8515  -30.8096   22.0088 H   0  0  0  0  0  0
  -28.1329  -28.9268   21.1918 H   0  0  0  0  0  0
  -25.9934  -25.8560   19.0577 H   0  0  0  0  0  0
  -23.9794  -27.2488   19.0419 H   0  0  0  0  0  0
  -23.7827  -30.5617   19.3980 H   0  0  0  0  0  0
  -22.7651  -29.2272   19.8579 H   0  0  0  0  0  0
  -25.1312  -36.1933   25.0830 H   0  0  0  0  0  0
  -20.9920  -28.3255   24.1419 H   0  0  0  0  0  0
  -20.5644  -26.2307   23.3587 H   0  0  0  0  0  0
  -21.6669  -26.7411   22.1222 H   0  0  0  0  0  0
  -19.6989  -25.6325   21.1152 H   0  0  0  0  0  0
  -19.6692  -27.3180   20.6690 H   0  0  0  0  0  0
  -17.4303  -26.6763   21.3842 H   0  0  0  0  0  0
  -18.0224  -25.9995   22.8828 H   0  0  0  0  0  0
  -19.7924  -30.7233   24.2315 H   0  0  0  0  0  0
  -17.4979  -31.6234   24.5220 H   0  0  0  0  0  0
  -15.5354  -30.2927   23.7622 H   0  0  0  0  0  0
  -15.8723  -28.0803   22.6964 H   0  0  0  0  0  0
  -24.5907  -30.6992   25.7684 H   0  0  0  0  0  0
  -24.8834  -32.2827   26.4775 H   0  0  0  0  0  0
  -25.7990  -30.8868   27.0190 H   0  0  0  0  0  0
  -26.2972  -29.6691   24.1199 H   0  0  0  0  0  0
  -27.4086  -29.7251   25.4690 H   0  0  0  0  0  0
  -27.8836  -30.4273   23.9411 H   0  0  0  0  0  0
  -27.2626  -33.3673   26.1958 H   0  0  0  0  0  0
  -28.3890  -32.6807   25.0319 H   0  0  0  0  0  0
  -28.0651  -31.8498   26.5474 H   0  0  0  0  0  0
  -28.2664  -38.0046   24.7459 H   0  0  0  0  0  0
  -28.1010  -36.2574   24.6444 H   0  0  0  0  0  0
  -27.2276  -37.1625   25.8897 H   0  0  0  0  0  0
  -20.9433  -29.8647   21.6753 H   0  0  0  0  0  0
  -26.0193  -38.2859   24.1328 H   0  0  0  0  0  0
  -29.5211  -20.7998   22.9431 H   0  0  0  0  0  0
  -30.1644  -16.5720   23.0433 H   0  0  0  0  0  0
  -29.1749  -23.4848   18.9447 H   0  0  0  0  0  0
  -28.4636  -25.0840   19.2647 H   0  0  0  0  0  0
  -28.4200  -22.4486   21.7448 H   0  0  0  0  0  0
  -28.7156  -15.6521   20.2532 H   0  0  0  0  0  0
  1 25  1  0  0  0
  1 30  2  0  0  0
  1 81  1  0  0  0
  2  3  1  0  0  0
  2 25  1  0  0  0
  2 84  1  0  0  0
  2 85  1  0  0  0
  3  4  1  0  0  0
  3 86  1  0  0  0
  3 87  1  0  0  0
  4  5  1  0  0  0
  4 88  1  0  0  0
  4 89  1  0  0  0
  5  6  1  0  0  0
  5 26  1  0  0  0
  5 90  1  0  0  0
  6 25  1  0  0  0
  6 91  1  0  0  0
  6 92  1  0  0  0
  7  8  2  0  0  0
  7 26  1  0  0  0
  7 29  1  0  0  0
  8  9  1  0  0  0
  8 22  1  0  0  0
  9 10  1  0  0  0
  9 27  2  0  0  0
 10 11  2  0  0  0
 10 15  1  0  0  0
 11 12  1  0  0  0
 11 93  1  0  0  0
 12 13  2  0  0  0
 12 94  1  0  0  0
 13 14  1  0  0  0
 13 31  1  0  0  0
 14 15  2  0  0  0
 14 95  1  0  0  0
 15 96  1  0  0  0
 16 17  2  0  0  0
 16 21  1  0  0  0
 16 31  1  0  0  0
 17 18  1  0  0  0
 17 97  1  0  0  0
 18 19  2  0  0  0
 18 98  1  0  0  0
 19 20  1  0  0  0
 19 24  1  0  0  0
 20 21  2  0  0  0
 20 99  1  0  0  0
 21 23  1  0  0  0
 22 28  1  0  0  0
 22 32  2  0  0  0
 26 27  1  0  0  0
 28100  1  0  0  0
 28101  1  0  0  0
 29102  1  0  0  0
 29103  1  0  0  0
 33 34  1  0  0  0
 33 66  1  0  0  0
 33 70  2  0  0  0
 34 36  1  0  0  0
 34 59  1  0  0  0
 34104  1  0  0  0
 35 44  2  0  0  0
 35 45  1  0  0  0
 35 68  1  0  0  0
 36 56  1  0  0  0
 36105  1  0  0  0
 37 39  1  0  0  0
 37 47  1  0  0  0
 37 66  1  0  0  0
 37106  1  0  0  0
 38 43  2  0  0  0
 38 46  1  0  0  0
 38 47  1  0  0  0
 39 64  1  0  0  0
 39 67  2  0  0  0
 40 52  1  0  0  0
 40 53  2  0  0  0
 40 58  1  0  0  0
 41107  1  0  0  0
 41108  1  0  0  0
 41109  1  0  0  0
 41 48  1  0  0  0
 42 43  1  0  0  0
 42 66  1  0  0  0
 42110  1  0  0  0
 42111  1  0  0  0
 43 44  1  0  0  0
 44112  1  0  0  0
 45 46  2  0  0  0
 45113  1  0  0  0
 46114  1  0  0  0
 47115  1  0  0  0
 47116  1  0  0  0
 48 56  1  0  0  0
 48 65  1  0  0  0
 48117  1  0  0  0
 49 50  1  0  0  0
 49 53  1  0  0  0
 49 64  1  0  0  0
 49118  1  0  0  0
 50 51  1  0  0  0
 50119  1  0  0  0
 50120  1  0  0  0
 51 52  1  0  0  0
 51121  1  0  0  0
 51122  1  0  0  0
 52123  1  0  0  0
 52124  1  0  0  0
 53 54  1  0  0  0
 54 55  2  0  0  0
 54125  1  0  0  0
 55 57  1  0  0  0
 55126  1  0  0  0
 56 69  2  0  0  0
 57 58  2  0  0  0
 57127  1  0  0  0
 58128  1  0  0  0
 59 60  1  0  0  0
 59 61  1  0  0  0
 59 62  1  0  0  0
 60129  1  0  0  0
 60130  1  0  0  0
 60131  1  0  0  0
 61132  1  0  0  0
 61133  1  0  0  0
 61134  1  0  0  0
 62135  1  0  0  0
 62136  1  0  0  0
 62137  1  0  0  0
 63 65  1  0  0  0
 63138  1  0  0  0
 63139  1  0  0  0
 63140  1  0  0  0
 64141  1  0  0  0
 65142  1  0  0  0
 68 78  1  0  0  0
 71 73  2  0  0  0
 71 75  1  0  0  0
 71143  1  0  0  0
 72 74  1  0  0  0
 72 75  2  0  0  0
 72144  1  0  0  0
 73 76  1  0  0  0
 73 80  1  0  0  0
 74 76  2  0  0  0
 74 81  1  0  0  0
 75 82  1  0  0  0
 76 83  1  0  0  0
 77 78  2  0  0  0
 77 79  1  0  0  0
 77145  1  0  0  0
 78146  1  0  0  0
 79 80  2  0  0  0
 79147  1  0  0  0
 81148  1  0  0  0
M  ISO  4   1 100  68 101  78 101  81 100
M  END
> <chiral flag>
0

> <version>
0

> <s_m_source_file>
/data/baiqing/PycharmProjects/Reinvent-master-3.2/result/LINK_invent/BTK/process_docking_weight1_custom_product_contain_oxygen_bond_distance_aromatic_linkinvent_7_9_3/rearranged_h_0061.sdf

> <i_m_source_file_index>
56

> <r_mmod_Potential_Energy-OPLS-2005>
539.640625

> <r_mmod_Stretch_Energy-OPLS-2005>
149.988098144531

> <r_mmod_Bend_Energy-OPLS-2005>
408.029510498047

> <r_mmod_Torsional_Energy-OPLS-2005>
270.774963378906

> <r_mmod_Improper_Torsional_Energy-OPLS-2005>
21.3241424560547

> <r_mmod_Van_der_Waal_Energy-OPLS-2005>
139.514251708984

> <r_mmod_Electrostatic_Energy-OPLS-2005>
-347.895141601562

> <r_mmod_Solvation_Energy-OPLS-2005>
-208.995910644531

> <b_mmod_Minimization_Converged-OPLS-2005>
0

> <r_mmod_RMS_Derivative-OPLS-2005>
6.56444025039673

$$$$
57
                    3D
 Structure written by MMmdl.
153161  0  0  1  0            999 V2000
  -30.6146  -14.7997   20.4250 C   0  0  0  0  0  0
  -30.4268  -12.4867   19.4841 C   0  0  0  0  0  0
  -29.5081  -12.5046   18.2429 C   0  0  0  0  0  0
  -28.0376  -12.3207   18.6605 C   0  0  0  0  0  0
  -27.6347  -13.2409   19.8430 C   0  0  2  0  0  0
  -28.6795  -13.2234   20.9802 C   0  0  0  0  0  0
  -25.2480  -13.8221   20.5710 C   0  0  0  0  0  0
  -24.1788  -13.0447   20.9225 C   0  0  0  0  0  0
  -24.6394  -11.6929   20.8755 C   0  0  0  0  0  0
  -23.9078  -10.4297   21.0411 C   0  0  0  0  0  0
  -24.3627   -9.4206   21.9182 C   0  0  0  0  0  0
  -23.6301   -8.2243   22.0747 C   0  0  0  0  0  0
  -22.4282   -8.0283   21.3542 C   0  0  0  0  0  0
  -21.9923   -9.0256   20.4642 C   0  0  0  0  0  0
  -22.7253  -10.2136   20.3056 C   0  0  0  0  0  0
  -21.6857   -6.0738   22.5276 C   0  0  0  0  0  0
  -21.4016   -6.5643   23.8207 C   0  0  0  0  0  0
  -21.3659   -5.6796   24.9169 C   0  0  0  0  0  0
  -21.6046   -4.3058   24.7222 C   0  0  0  0  0  0
  -21.8819   -3.8149   23.4343 C   0  0  0  0  0  0
  -21.9193   -4.6966   22.3398 C   0  0  0  0  0  0
  -22.7805  -13.5209   21.1881 C   0  0  0  0  0  0
  -22.1662   -4.2151   21.0976 F   0  0  0  0  0  0
  -21.5626   -3.4538   25.7734 F   0  0  0  0  0  0
  -29.9757  -13.5751   20.3882 N   0  0  0  0  0  0
  -26.2902  -12.9442   20.3266 N   0  0  0  0  0  0
  -25.9326  -11.6573   20.5762 N   0  0  0  0  0  0
  -22.0470  -12.8185   22.0442 N   0  0  0  0  0  0
  -25.4161  -15.1944   20.4102 N   0  0  0  0  0  0
  -31.8186  -14.8260   20.1564 O   0  0  0  0  0  0
  -21.6645   -6.8881   21.4239 O   0  0  0  0  0  0
  -22.3475  -14.5510   20.6729 O   0  0  0  0  0  0
  -24.6348  -31.8523   23.1939 C   0  0  0  0  0  0
  -25.9158  -32.4736   23.8307 C   0  0  1  0  0  0
  -27.2175  -27.2298   20.1459 C   0  0  0  0  0  0
  -25.5943  -33.8536   24.2243 N   0  0  0  0  0  0
  -23.4327  -30.4746   21.5361 C   0  0  2  0  0  0
  -24.8799  -28.9130   20.1092 C   0  0  0  0  0  0
  -22.7522  -29.4605   22.4877 C   0  0  0  0  0  0
  -18.0310  -28.1380   22.8474 C   0  0  0  0  0  0
  -24.1495  -36.7269   23.2642 C   0  0  0  0  0  0
  -25.9800  -30.7574   21.3756 C   0  0  0  0  0  0
  -26.0515  -29.3764   20.7200 C   0  0  0  0  0  0
  -27.2235  -28.5494   20.7218 C   0  0  0  0  0  0
  -26.0231  -26.8401   19.5020 C   0  0  0  0  0  0
  -24.8737  -27.6560   19.4859 C   0  0  0  0  0  0
  -23.6503  -29.8014   20.1546 C   0  0  0  0  0  0
  -25.4117  -36.3057   24.0333 C   0  0  1  0  0  0
  -20.5918  -28.3705   23.1241 C   0  0  2  0  0  0
  -20.6792  -26.9415   22.5395 C   0  0  0  0  0  0
  -19.5768  -26.6373   21.5203 C   0  0  0  0  0  0
  -18.1949  -26.7925   22.1612 C   0  0  0  0  0  0
  -19.1565  -28.8856   23.2855 C   0  0  0  0  0  0
  -18.9486  -30.1459   23.8871 C   0  0  0  0  0  0
  -17.6484  -30.6578   24.0558 C   0  0  0  0  0  0
  -25.9058  -34.9431   23.5093 C   0  0  0  0  0  0
  -16.5373  -29.9073   23.6331 C   0  0  0  0  0  0
  -16.7296  -28.6493   23.0347 C   0  0  0  0  0  0
  -26.4508  -31.6572   25.0711 C   0  0  0  0  0  0
  -25.3718  -31.3739   26.1425 C   0  0  0  0  0  0
  -27.0370  -30.2994   24.6215 C   0  0  0  0  0  0
  -27.6058  -32.4316   25.7481 C   0  0  0  0  0  0
  -27.5582  -37.1788   24.8469 C   0  0  0  0  0  0
  -21.4228  -29.3053   22.3621 N   0  0  0  0  0  0
  -26.4284  -37.3761   23.9420 N   0  0  0  0  0  0
  -24.7020  -31.0482   22.0908 N   0  0  0  0  0  0
  -23.4211  -28.8159   23.2996 O   0  0  0  0  0  0
  -28.3029  -26.3186   20.2212 O   0  0  0  0  0  0
  -26.5632  -34.8918   22.4664 O   0  0  0  0  0  0
  -23.5491  -32.1349   23.7219 O   0  0  0  0  0  0
  -31.7343  -19.0754   19.3066 C   0  0  0  0  0  0
  -30.8648  -20.1492   19.5573 C   0  0  0  0  0  0
  -31.3948  -17.7558   19.6446 C   0  0  0  0  0  0
  -29.6031  -19.9842   20.1733 C   0  0  0  0  0  0
  -29.2847  -18.5805   20.5428 C   0  0  0  0  0  0
  -30.1713  -17.4304   20.2770 C   0  0  0  0  0  0
  -28.7592  -21.3248   20.2364 C   0  0  0  0  0  0
  -29.2723  -23.8798   20.6240 C   0  0  0  0  0  0
  -27.9743  -18.2688   21.2496 C   0  0  0  0  0  0
  -28.0666  -24.8162   20.1225 C   0  0  0  0  0  0
  -29.8650  -15.9792   20.5746 N   0  0  0  0  0  0
  -29.4475  -22.4865   20.5895 N   0  0  0  0  0  0
  -30.2196  -24.5073   21.1100 O   0  0  0  0  0  0
  -27.1390  -21.3251   19.8142 S   0  0  0  0  0  0
  -31.4667  -12.6044   19.1759 H   0  0  0  0  0  0
  -30.3752  -11.5225   19.9923 H   0  0  0  0  0  0
  -29.7994  -11.7180   17.5448 H   0  0  0  0  0  0
  -29.6250  -13.4492   17.7094 H   0  0  0  0  0  0
  -27.9092  -11.2762   18.9468 H   0  0  0  0  0  0
  -27.3766  -12.4851   17.8088 H   0  0  0  0  0  0
  -27.6149  -14.2523   19.4358 H   0  0  0  0  0  0
  -28.7252  -12.2434   21.4567 H   0  0  0  0  0  0
  -28.4059  -13.9342   21.7617 H   0  0  0  0  0  0
  -25.2772   -9.5680   22.4751 H   0  0  0  0  0  0
  -24.0010   -7.4634   22.7463 H   0  0  0  0  0  0
  -21.0853   -8.8778   19.8944 H   0  0  0  0  0  0
  -22.3714  -10.9673   19.6163 H   0  0  0  0  0  0
  -21.2015   -7.6150   23.9713 H   0  0  0  0  0  0
  -21.1479   -6.0523   25.9071 H   0  0  0  0  0  0
  -22.0601   -2.7610   23.2841 H   0  0  0  0  0  0
  -22.4109  -11.9850   22.4817 H   0  0  0  0  0  0
  -21.1078  -13.1173   22.2657 H   0  0  0  0  0  0
  -24.6433  -15.8437   20.5087 H   0  0  0  0  0  0
  -26.2526  -15.6284   20.0436 H   0  0  0  0  0  0
  -26.7222  -32.5369   23.1041 H   0  0  0  0  0  0
  -25.0109  -33.9662   25.0409 H   0  0  0  0  0  0
  -22.7311  -31.2980   21.3861 H   0  0  0  0  0  0
  -23.3762  -35.9594   23.3285 H   0  0  0  0  0  0
  -24.3598  -36.8907   22.2062 H   0  0  0  0  0  0
  -23.7241  -37.6465   23.6671 H   0  0  0  0  0  0
  -26.1261  -31.5141   20.6035 H   0  0  0  0  0  0
  -26.8551  -30.8057   22.0115 H   0  0  0  0  0  0
  -28.1192  -28.8999   21.2148 H   0  0  0  0  0  0
  -25.9509  -25.8744   19.0235 H   0  0  0  0  0  0
  -23.9777  -27.2957   18.9999 H   0  0  0  0  0  0
  -23.7698  -30.5719   19.3924 H   0  0  0  0  0  0
  -22.7681  -29.2315   19.8562 H   0  0  0  0  0  0
  -25.1300  -36.1891   25.0824 H   0  0  0  0  0  0
  -21.0026  -28.3278   24.1353 H   0  0  0  0  0  0
  -20.5683  -26.2317   23.3606 H   0  0  0  0  0  0
  -21.6657  -26.7415   22.1191 H   0  0  0  0  0  0
  -19.6932  -25.6284   21.1229 H   0  0  0  0  0  0
  -19.6697  -27.3173   20.6727 H   0  0  0  0  0  0
  -17.4220  -26.6674   21.4011 H   0  0  0  0  0  0
  -18.0347  -26.0067   22.9008 H   0  0  0  0  0  0
  -19.7969  -30.7286   24.2203 H   0  0  0  0  0  0
  -17.5043  -31.6252   24.5170 H   0  0  0  0  0  0
  -15.5374  -30.2965   23.7671 H   0  0  0  0  0  0
  -15.8701  -28.0807   22.7060 H   0  0  0  0  0  0
  -24.5892  -30.7090   25.7753 H   0  0  0  0  0  0
  -24.8902  -32.2913   26.4819 H   0  0  0  0  0  0
  -25.8012  -30.8936   27.0225 H   0  0  0  0  0  0
  -26.2972  -29.6716   24.1234 H   0  0  0  0  0  0
  -27.4067  -29.7279   25.4740 H   0  0  0  0  0  0
  -27.8834  -30.4290   23.9467 H   0  0  0  0  0  0
  -27.2683  -33.3641   26.2014 H   0  0  0  0  0  0
  -28.3880  -32.6828   25.0307 H   0  0  0  0  0  0
  -28.0706  -31.8465   26.5427 H   0  0  0  0  0  0
  -28.2584  -38.0102   24.7531 H   0  0  0  0  0  0
  -28.1096  -36.2634   24.6264 H   0  0  0  0  0  0
  -27.2311  -37.1401   25.8876 H   0  0  0  0  0  0
  -20.9421  -29.8769   21.6819 H   0  0  0  0  0  0
  -26.0161  -38.2835   24.1411 H   0  0  0  0  0  0
  -32.6788  -19.2684   18.8171 H   0  0  0  0  0  0
  -31.1853  -21.1259   19.2217 H   0  0  0  0  0  0
  -32.1178  -17.0034   19.3754 H   0  0  0  0  0  0
  -27.6297  -19.1127   21.8461 H   0  0  0  0  0  0
  -28.0823  -17.4307   21.9381 H   0  0  0  0  0  0
  -27.2016  -18.0154   20.5235 H   0  0  0  0  0  0
  -27.1845  -24.5526   20.7074 H   0  0  0  0  0  0
  -27.8533  -24.5588   19.0851 H   0  0  0  0  0  0
  -28.9117  -15.8040   20.8520 H   0  0  0  0  0  0
  -30.3747  -22.2692   20.9170 H   0  0  0  0  0  0
  1 25  1  0  0  0
  1 30  2  0  0  0
  1 81  1  0  0  0
  2  3  1  0  0  0
  2 25  1  0  0  0
  2 85  1  0  0  0
  2 86  1  0  0  0
  3  4  1  0  0  0
  3 87  1  0  0  0
  3 88  1  0  0  0
  4  5  1  0  0  0
  4 89  1  0  0  0
  4 90  1  0  0  0
  5  6  1  0  0  0
  5 26  1  0  0  0
  5 91  1  0  0  0
  6 25  1  0  0  0
  6 92  1  0  0  0
  6 93  1  0  0  0
  7  8  2  0  0  0
  7 26  1  0  0  0
  7 29  1  0  0  0
  8  9  1  0  0  0
  8 22  1  0  0  0
  9 10  1  0  0  0
  9 27  2  0  0  0
 10 11  2  0  0  0
 10 15  1  0  0  0
 11 12  1  0  0  0
 11 94  1  0  0  0
 12 13  2  0  0  0
 12 95  1  0  0  0
 13 14  1  0  0  0
 13 31  1  0  0  0
 14 15  2  0  0  0
 14 96  1  0  0  0
 15 97  1  0  0  0
 16 17  2  0  0  0
 16 21  1  0  0  0
 16 31  1  0  0  0
 17 18  1  0  0  0
 17 98  1  0  0  0
 18 19  2  0  0  0
 18 99  1  0  0  0
 19 20  1  0  0  0
 19 24  1  0  0  0
 20 21  2  0  0  0
 20100  1  0  0  0
 21 23  1  0  0  0
 22 28  1  0  0  0
 22 32  2  0  0  0
 26 27  1  0  0  0
 28101  1  0  0  0
 28102  1  0  0  0
 29103  1  0  0  0
 29104  1  0  0  0
 33 34  1  0  0  0
 33 66  1  0  0  0
 33 70  2  0  0  0
 34 36  1  0  0  0
 34 59  1  0  0  0
 34105  1  0  0  0
 35 44  2  0  0  0
 35 45  1  0  0  0
 35 68  1  0  0  0
 36 56  1  0  0  0
 36106  1  0  0  0
 37 39  1  0  0  0
 37 47  1  0  0  0
 37 66  1  0  0  0
 37107  1  0  0  0
 38 43  2  0  0  0
 38 46  1  0  0  0
 38 47  1  0  0  0
 39 64  1  0  0  0
 39 67  2  0  0  0
 40 52  1  0  0  0
 40 53  2  0  0  0
 40 58  1  0  0  0
 41108  1  0  0  0
 41109  1  0  0  0
 41110  1  0  0  0
 41 48  1  0  0  0
 42 43  1  0  0  0
 42 66  1  0  0  0
 42111  1  0  0  0
 42112  1  0  0  0
 43 44  1  0  0  0
 44113  1  0  0  0
 45 46  2  0  0  0
 45114  1  0  0  0
 46115  1  0  0  0
 47116  1  0  0  0
 47117  1  0  0  0
 48 56  1  0  0  0
 48 65  1  0  0  0
 48118  1  0  0  0
 49 50  1  0  0  0
 49 53  1  0  0  0
 49 64  1  0  0  0
 49119  1  0  0  0
 50 51  1  0  0  0
 50120  1  0  0  0
 50121  1  0  0  0
 51 52  1  0  0  0
 51122  1  0  0  0
 51123  1  0  0  0
 52124  1  0  0  0
 52125  1  0  0  0
 53 54  1  0  0  0
 54 55  2  0  0  0
 54126  1  0  0  0
 55 57  1  0  0  0
 55127  1  0  0  0
 56 69  2  0  0  0
 57 58  2  0  0  0
 57128  1  0  0  0
 58129  1  0  0  0
 59 60  1  0  0  0
 59 61  1  0  0  0
 59 62  1  0  0  0
 60130  1  0  0  0
 60131  1  0  0  0
 60132  1  0  0  0
 61133  1  0  0  0
 61134  1  0  0  0
 61135  1  0  0  0
 62136  1  0  0  0
 62137  1  0  0  0
 62138  1  0  0  0
 63 65  1  0  0  0
 63139  1  0  0  0
 63140  1  0  0  0
 63141  1  0  0  0
 64142  1  0  0  0
 65143  1  0  0  0
 68 80  1  0  0  0
 71 72  2  0  0  0
 71 73  1  0  0  0
 71144  1  0  0  0
 72 74  1  0  0  0
 72145  1  0  0  0
 73 76  2  0  0  0
 73146  1  0  0  0
 74 75  2  0  0  0
 74 77  1  0  0  0
 75 76  1  0  0  0
 75 79  1  0  0  0
 76 81  1  0  0  0
 77 82  1  0  0  0
 77 84  2  0  0  0
 78 80  1  0  0  0
 78 82  1  0  0  0
 78 83  2  0  0  0
 79147  1  0  0  0
 79148  1  0  0  0
 79149  1  0  0  0
 80150  1  0  0  0
 80151  1  0  0  0
 81152  1  0  0  0
 82153  1  0  0  0
M  ISO  4   1 100  68 101  80 101  81 100
M  END
> <chiral flag>
0

> <version>
0

> <s_m_source_file>
/data/baiqing/PycharmProjects/Reinvent-master-3.2/result/LINK_invent/BTK/process_docking_weight1_custom_product_contain_oxygen_bond_distance_aromatic_linkinvent_7_9_3/rearranged_h_0061.sdf

> <i_m_source_file_index>
57

> <r_mmod_Potential_Energy-OPLS-2005>
187.002899169922

> <r_mmod_Stretch_Energy-OPLS-2005>
164.067276000977

> <r_mmod_Bend_Energy-OPLS-2005>
223.825057983398

> <r_mmod_Torsional_Energy-OPLS-2005>
229.706024169922

> <r_mmod_Improper_Torsional_Energy-OPLS-2005>
4.89583921432495

> <r_mmod_Van_der_Waal_Energy-OPLS-2005>
147.920715332031

> <r_mmod_Electrostatic_Energy-OPLS-2005>
-447.970275878906

> <r_mmod_Solvation_Energy-OPLS-2005>
-245.78857421875

> <b_mmod_Minimization_Converged-OPLS-2005>
0

> <r_mmod_RMS_Derivative-OPLS-2005>
1.46980619430542

$$$$
58
                    3D
 Structure written by MMmdl.
157165  0  0  1  0            999 V2000
  -30.5989  -14.6693   20.5039 C   0  0  0  0  0  0
  -30.4431  -12.4128   19.4561 C   0  0  0  0  0  0
  -29.5122  -12.5204   18.2264 C   0  0  0  0  0  0
  -28.0346  -12.3530   18.6352 C   0  0  0  0  0  0
  -27.6551  -13.2192   19.8657 C   0  0  2  0  0  0
  -28.6984  -13.0675   20.9959 C   0  0  0  0  0  0
  -25.2563  -13.8177   20.5691 C   0  0  0  0  0  0
  -24.1826  -13.0438   20.9179 C   0  0  0  0  0  0
  -24.6398  -11.6909   20.8719 C   0  0  0  0  0  0
  -23.9067  -10.4292   21.0395 C   0  0  0  0  0  0
  -24.3617   -9.4209   21.9174 C   0  0  0  0  0  0
  -23.6295   -8.2244   22.0750 C   0  0  0  0  0  0
  -22.4274   -8.0282   21.3544 C   0  0  0  0  0  0
  -21.9907   -9.0255   20.4651 C   0  0  0  0  0  0
  -22.7234  -10.2134   20.3052 C   0  0  0  0  0  0
  -21.6855   -6.0736   22.5279 C   0  0  0  0  0  0
  -21.4014   -6.5637   23.8212 C   0  0  0  0  0  0
  -21.3655   -5.6789   24.9174 C   0  0  0  0  0  0
  -21.6051   -4.3053   24.7225 C   0  0  0  0  0  0
  -21.8818   -3.8144   23.4346 C   0  0  0  0  0  0
  -21.9191   -4.6962   22.3403 C   0  0  0  0  0  0
  -22.7848  -13.5232   21.1846 C   0  0  0  0  0  0
  -22.1664   -4.2148   21.0981 F   0  0  0  0  0  0
  -21.5626   -3.4535   25.7737 F   0  0  0  0  0  0
  -30.0125  -13.4282   20.4406 N   0  0  0  0  0  0
  -26.2995  -12.9363   20.3318 N   0  0  0  0  0  0
  -25.9327  -11.6510   20.5732 N   0  0  0  0  0  0
  -22.0488  -12.8234   22.0412 N   0  0  0  0  0  0
  -25.4275  -15.1901   20.4129 N   0  0  0  0  0  0
  -31.7390  -14.8572   20.0672 O   0  0  0  0  0  0
  -21.6644   -6.8876   21.4239 O   0  0  0  0  0  0
  -22.3533  -14.5538   20.6686 O   0  0  0  0  0  0
  -24.6263  -31.8560   23.1983 C   0  0  0  0  0  0
  -25.9106  -32.4753   23.8319 C   0  0  1  0  0  0
  -27.2375  -27.3028   20.1169 C   0  0  0  0  0  0
  -25.5912  -33.8554   24.2248 N   0  0  0  0  0  0
  -23.4215  -30.4758   21.5408 C   0  0  2  0  0  0
  -24.8695  -28.9204   20.1117 C   0  0  0  0  0  0
  -22.7472  -29.4599   22.4929 C   0  0  0  0  0  0
  -18.0282  -28.1385   22.8481 C   0  0  0  0  0  0
  -24.1488  -36.7288   23.2639 C   0  0  0  0  0  0
  -25.9615  -30.7802   21.3715 C   0  0  0  0  0  0
  -26.0354  -29.4047   20.7156 C   0  0  0  0  0  0
  -27.2166  -28.6059   20.7083 C   0  0  0  0  0  0
  -26.0433  -26.8626   19.5029 C   0  0  0  0  0  0
  -24.8761  -27.6557   19.4989 C   0  0  0  0  0  0
  -23.6370  -29.8022   20.1585 C   0  0  0  0  0  0
  -25.4111  -36.3069   24.0325 C   0  0  1  0  0  0
  -20.5881  -28.3682   23.1284 C   0  0  2  0  0  0
  -20.6767  -26.9406   22.5413 C   0  0  0  0  0  0
  -19.5748  -26.6382   21.5208 C   0  0  0  0  0  0
  -18.1928  -26.7929   22.1621 C   0  0  0  0  0  0
  -19.1536  -28.8852   23.2879 C   0  0  0  0  0  0
  -18.9460  -30.1455   23.8893 C   0  0  0  0  0  0
  -17.6459  -30.6589   24.0560 C   0  0  0  0  0  0
  -25.9050  -34.9438   23.5094 C   0  0  0  0  0  0
  -16.5350  -29.9085   23.6332 C   0  0  0  0  0  0
  -16.7269  -28.6506   23.0349 C   0  0  0  0  0  0
  -26.4486  -31.6582   25.0709 C   0  0  0  0  0  0
  -25.3716  -31.3737   26.1441 C   0  0  0  0  0  0
  -27.0330  -30.2999   24.6190 C   0  0  0  0  0  0
  -27.6042  -32.4325   25.7479 C   0  0  0  0  0  0
  -27.5582  -37.1792   24.8459 C   0  0  0  0  0  0
  -21.4185  -29.3031   22.3677 N   0  0  0  0  0  0
  -26.4286  -37.3769   23.9414 N   0  0  0  0  0  0
  -24.6885  -31.0550   22.0939 N   0  0  0  0  0  0
  -23.4187  -28.8153   23.3029 O   0  0  0  0  0  0
  -28.3955  -26.5070   20.1795 O   0  0  0  0  0  0
  -26.5628  -34.8915   22.4667 O   0  0  0  0  0  0
  -23.5425  -32.1365   23.7305 O   0  0  0  0  0  0
  -29.3189  -17.6246   19.4481 C   0  0  0  0  0  0
  -29.8810  -18.1093   21.7257 C   0  0  0  0  0  0
  -29.0283  -19.9756   20.2928 C   0  0  0  0  0  0
  -28.9595  -18.9975   19.2419 C   0  0  0  0  0  0
  -29.7564  -17.1288   20.7024 C   0  0  0  0  0  0
  -29.5435  -19.4885   21.5300 C   0  0  0  0  0  0
  -28.3609  -21.3798   20.1675 C   0  0  0  0  0  0
  -28.4438  -19.3768   17.8606 C   0  0  0  0  0  0
  -29.9179  -25.0722   19.0426 C   0  0  0  0  0  0
  -28.3607  -23.9142   20.7253 C   0  0  0  0  0  0
  -28.5200  -25.1115   19.6754 C   0  0  1  0  0  0
  -29.8217  -15.6891   20.9973 N   0  0  0  0  0  0
  -28.9970  -22.5541   20.4680 N   0  0  0  0  0  0
  -27.1851  -21.4206   19.7984 O   0  0  0  0  0  0
  -29.6473  -20.3301   22.5876 F   0  0  0  0  0  0
  -31.4834  -12.5484   19.1559 H   0  0  0  0  0  0
  -30.3886  -11.4145   19.8939 H   0  0  0  0  0  0
  -29.7835  -11.7695   17.4830 H   0  0  0  0  0  0
  -29.6493  -13.4891   17.7435 H   0  0  0  0  0  0
  -27.8707  -11.2989   18.8614 H   0  0  0  0  0  0
  -27.3818  -12.5883   17.7934 H   0  0  0  0  0  0
  -27.6751  -14.2563   19.5294 H   0  0  0  0  0  0
  -28.7157  -12.0400   21.3634 H   0  0  0  0  0  0
  -28.4356  -13.6817   21.8575 H   0  0  0  0  0  0
  -25.2766   -9.5691   22.4737 H   0  0  0  0  0  0
  -24.0012   -7.4638   22.7462 H   0  0  0  0  0  0
  -21.0840   -8.8776   19.8958 H   0  0  0  0  0  0
  -22.3695  -10.9669   19.6159 H   0  0  0  0  0  0
  -21.2011   -7.6146   23.9719 H   0  0  0  0  0  0
  -21.1478   -6.0517   25.9078 H   0  0  0  0  0  0
  -22.0601   -2.7608   23.2845 H   0  0  0  0  0  0
  -22.4119  -11.9916   22.4830 H   0  0  0  0  0  0
  -21.1101  -13.1258   22.2599 H   0  0  0  0  0  0
  -24.6615  -15.8445   20.5301 H   0  0  0  0  0  0
  -26.2822  -15.6332   20.0999 H   0  0  0  0  0  0
  -26.7172  -32.5413   23.1060 H   0  0  0  0  0  0
  -25.0039  -33.9689   25.0378 H   0  0  0  0  0  0
  -22.7161  -31.2960   21.3931 H   0  0  0  0  0  0
  -23.3751  -35.9622   23.3291 H   0  0  0  0  0  0
  -24.3579  -36.8922   22.2058 H   0  0  0  0  0  0
  -23.7245  -37.6485   23.6671 H   0  0  0  0  0  0
  -26.0950  -31.5422   20.6021 H   0  0  0  0  0  0
  -26.8407  -30.8291   22.0025 H   0  0  0  0  0  0
  -28.1131  -28.9754   21.1865 H   0  0  0  0  0  0
  -25.9774  -25.8912   19.0382 H   0  0  0  0  0  0
  -23.9792  -27.2746   19.0303 H   0  0  0  0  0  0
  -23.7546  -30.5736   19.3963 H   0  0  0  0  0  0
  -22.7575  -29.2279   19.8614 H   0  0  0  0  0  0
  -25.1296  -36.1909   25.0817 H   0  0  0  0  0  0
  -20.9970  -28.3261   24.1404 H   0  0  0  0  0  0
  -20.5655  -26.2293   23.3611 H   0  0  0  0  0  0
  -21.6639  -26.7430   22.1217 H   0  0  0  0  0  0
  -19.6908  -25.6292   21.1240 H   0  0  0  0  0  0
  -19.6693  -27.3188   20.6734 H   0  0  0  0  0  0
  -17.4197  -26.6669   21.4026 H   0  0  0  0  0  0
  -18.0336  -26.0075   22.9022 H   0  0  0  0  0  0
  -19.7938  -30.7272   24.2262 H   0  0  0  0  0  0
  -17.5016  -31.6267   24.5166 H   0  0  0  0  0  0
  -15.5351  -30.2984   23.7664 H   0  0  0  0  0  0
  -15.8668  -28.0825   22.7061 H   0  0  0  0  0  0
  -24.5881  -30.7094   25.7779 H   0  0  0  0  0  0
  -24.8915  -32.2908   26.4863 H   0  0  0  0  0  0
  -25.8036  -30.8917   27.0221 H   0  0  0  0  0  0
  -26.2909  -29.6748   24.1209 H   0  0  0  0  0  0
  -27.4004  -29.7266   25.4712 H   0  0  0  0  0  0
  -27.8789  -30.4274   23.9431 H   0  0  0  0  0  0
  -27.2645  -33.3621   26.2061 H   0  0  0  0  0  0
  -28.3846  -32.6896   25.0305 H   0  0  0  0  0  0
  -28.0719  -31.8451   26.5391 H   0  0  0  0  0  0
  -28.2584  -38.0103   24.7520 H   0  0  0  0  0  0
  -28.1091  -36.2634   24.6259 H   0  0  0  0  0  0
  -27.2303  -37.1415   25.8861 H   0  0  0  0  0  0
  -20.9363  -29.8743   21.6877 H   0  0  0  0  0  0
  -26.0163  -38.2840   24.1424 H   0  0  0  0  0  0
  -29.1795  -16.9218   18.6377 H   0  0  0  0  0  0
  -30.1869  -17.7989   22.7139 H   0  0  0  0  0  0
  -28.7139  -18.6292   17.1142 H   0  0  0  0  0  0
  -28.8637  -20.3274   17.5307 H   0  0  0  0  0  0
  -27.3568  -19.4612   17.8689 H   0  0  0  0  0  0
  -30.0897  -24.1342   18.5140 H   0  0  0  0  0  0
  -30.6980  -25.1786   19.7969 H   0  0  0  0  0  0
  -30.0441  -25.8776   18.3186 H   0  0  0  0  0  0
  -27.3006  -23.7863   20.9475 H   0  0  0  0  0  0
  -28.7990  -24.2539   21.6637 H   0  0  0  0  0  0
  -27.8290  -24.9367   18.8534 H   0  0  0  0  0  0
  -29.0060  -15.3400   21.4781 H   0  0  0  0  0  0
  -29.9736  -22.4743   20.7182 H   0  0  0  0  0  0
  1 25  1  0  0  0
  1 30  2  0  0  0
  1 82  1  0  0  0
  2  3  1  0  0  0
  2 25  1  0  0  0
  2 86  1  0  0  0
  2 87  1  0  0  0
  3  4  1  0  0  0
  3 88  1  0  0  0
  3 89  1  0  0  0
  4  5  1  0  0  0
  4 90  1  0  0  0
  4 91  1  0  0  0
  5  6  1  0  0  0
  5 26  1  0  0  0
  5 92  1  0  0  0
  6 25  1  0  0  0
  6 93  1  0  0  0
  6 94  1  0  0  0
  7  8  2  0  0  0
  7 26  1  0  0  0
  7 29  1  0  0  0
  8  9  1  0  0  0
  8 22  1  0  0  0
  9 10  1  0  0  0
  9 27  2  0  0  0
 10 11  2  0  0  0
 10 15  1  0  0  0
 11 12  1  0  0  0
 11 95  1  0  0  0
 12 13  2  0  0  0
 12 96  1  0  0  0
 13 14  1  0  0  0
 13 31  1  0  0  0
 14 15  2  0  0  0
 14 97  1  0  0  0
 15 98  1  0  0  0
 16 17  2  0  0  0
 16 21  1  0  0  0
 16 31  1  0  0  0
 17 18  1  0  0  0
 17 99  1  0  0  0
 18 19  2  0  0  0
 18100  1  0  0  0
 19 20  1  0  0  0
 19 24  1  0  0  0
 20 21  2  0  0  0
 20101  1  0  0  0
 21 23  1  0  0  0
 22 28  1  0  0  0
 22 32  2  0  0  0
 26 27  1  0  0  0
 28102  1  0  0  0
 28103  1  0  0  0
 29104  1  0  0  0
 29105  1  0  0  0
 33 34  1  0  0  0
 33 66  1  0  0  0
 33 70  2  0  0  0
 34 36  1  0  0  0
 34 59  1  0  0  0
 34106  1  0  0  0
 35 44  2  0  0  0
 35 45  1  0  0  0
 35 68  1  0  0  0
 36 56  1  0  0  0
 36107  1  0  0  0
 37 39  1  0  0  0
 37 47  1  0  0  0
 37 66  1  0  0  0
 37108  1  0  0  0
 38 43  2  0  0  0
 38 46  1  0  0  0
 38 47  1  0  0  0
 39 64  1  0  0  0
 39 67  2  0  0  0
 40 52  1  0  0  0
 40 53  2  0  0  0
 40 58  1  0  0  0
 41109  1  0  0  0
 41110  1  0  0  0
 41111  1  0  0  0
 41 48  1  0  0  0
 42 43  1  0  0  0
 42 66  1  0  0  0
 42112  1  0  0  0
 42113  1  0  0  0
 43 44  1  0  0  0
 44114  1  0  0  0
 45 46  2  0  0  0
 45115  1  0  0  0
 46116  1  0  0  0
 47117  1  0  0  0
 47118  1  0  0  0
 48 56  1  0  0  0
 48 65  1  0  0  0
 48119  1  0  0  0
 49 50  1  0  0  0
 49 53  1  0  0  0
 49 64  1  0  0  0
 49120  1  0  0  0
 50 51  1  0  0  0
 50121  1  0  0  0
 50122  1  0  0  0
 51 52  1  0  0  0
 51123  1  0  0  0
 51124  1  0  0  0
 52125  1  0  0  0
 52126  1  0  0  0
 53 54  1  0  0  0
 54 55  2  0  0  0
 54127  1  0  0  0
 55 57  1  0  0  0
 55128  1  0  0  0
 56 69  2  0  0  0
 57 58  2  0  0  0
 57129  1  0  0  0
 58130  1  0  0  0
 59 60  1  0  0  0
 59 61  1  0  0  0
 59 62  1  0  0  0
 60131  1  0  0  0
 60132  1  0  0  0
 60133  1  0  0  0
 61134  1  0  0  0
 61135  1  0  0  0
 61136  1  0  0  0
 62137  1  0  0  0
 62138  1  0  0  0
 62139  1  0  0  0
 63 65  1  0  0  0
 63140  1  0  0  0
 63141  1  0  0  0
 63142  1  0  0  0
 64143  1  0  0  0
 65144  1  0  0  0
 68 81  1  0  0  0
 71 74  2  0  0  0
 71 75  1  0  0  0
 71145  1  0  0  0
 72 75  2  0  0  0
 72 76  1  0  0  0
 72146  1  0  0  0
 73 74  1  0  0  0
 73 76  2  0  0  0
 73 77  1  0  0  0
 74 78  1  0  0  0
 75 82  1  0  0  0
 76 85  1  0  0  0
 77 83  1  0  0  0
 77 84  2  0  0  0
 78147  1  0  0  0
 78148  1  0  0  0
 78149  1  0  0  0
 79150  1  0  0  0
 79151  1  0  0  0
 79152  1  0  0  0
 79 81  1  0  0  0
 80 81  1  0  0  0
 80 83  1  0  0  0
 80153  1  0  0  0
 80154  1  0  0  0
 81155  1  0  0  0
 82156  1  0  0  0
 83157  1  0  0  0
M  ISO  4   1 100  68 101  81 101  82 100
M  END
> <chiral flag>
0

> <version>
0

> <s_m_source_file>
/data/baiqing/PycharmProjects/Reinvent-master-3.2/result/LINK_invent/BTK/process_docking_weight1_custom_product_contain_oxygen_bond_distance_aromatic_linkinvent_7_9_3/rearranged_h_0061.sdf

> <i_m_source_file_index>
58

> <r_mmod_Potential_Energy-OPLS-2005>
106.64136505127

> <r_mmod_Stretch_Energy-OPLS-2005>
91.8917846679688

> <r_mmod_Bend_Energy-OPLS-2005>
161.965423583984

> <r_mmod_Torsional_Energy-OPLS-2005>
267.680358886719

> <r_mmod_Improper_Torsional_Energy-OPLS-2005>
6.6960768699646

> <r_mmod_Van_der_Waal_Energy-OPLS-2005>
136.471054077148

> <r_mmod_Electrostatic_Energy-OPLS-2005>
-391.660125732422

> <r_mmod_Solvation_Energy-OPLS-2005>
-220.589477539062

> <b_mmod_Minimization_Converged-OPLS-2005>
0

> <r_mmod_RMS_Derivative-OPLS-2005>
1.08085405826569

$$$$
59
                    3D
 Structure written by MMmdl.
161170  0  0  1  0            999 V2000
  -30.5901  -14.7346   20.4466 C   0  0  0  0  0  0
  -30.4236  -12.4502   19.4480 C   0  0  0  0  0  0
  -29.4952  -12.5160   18.2161 C   0  0  0  0  0  0
  -28.0217  -12.3369   18.6337 C   0  0  0  0  0  0
  -27.6358  -13.2250   19.8464 C   0  0  2  0  0  0
  -28.6850  -13.1485   20.9752 C   0  0  0  0  0  0
  -25.2522  -13.8179   20.5710 C   0  0  0  0  0  0
  -24.1808  -13.0451   20.9218 C   0  0  0  0  0  0
  -24.6375  -11.6918   20.8752 C   0  0  0  0  0  0
  -23.9051  -10.4308   21.0404 C   0  0  0  0  0  0
  -24.3618   -9.4231   21.9181 C   0  0  0  0  0  0
  -23.6315   -8.2253   22.0743 C   0  0  0  0  0  0
  -22.4298   -8.0280   21.3536 C   0  0  0  0  0  0
  -21.9924   -9.0242   20.4626 C   0  0  0  0  0  0
  -22.7229  -10.2134   20.3049 C   0  0  0  0  0  0
  -21.6872   -6.0747   22.5282 C   0  0  0  0  0  0
  -21.4007   -6.5652   23.8210 C   0  0  0  0  0  0
  -21.3663   -5.6807   24.9176 C   0  0  0  0  0  0
  -21.6055   -4.3068   24.7230 C   0  0  0  0  0  0
  -21.8821   -3.8160   23.4345 C   0  0  0  0  0  0
  -21.9200   -4.6977   22.3401 C   0  0  0  0  0  0
  -22.7835  -13.5239   21.1903 C   0  0  0  0  0  0
  -22.1681   -4.2163   21.0981 F   0  0  0  0  0  0
  -21.5635   -3.4553   25.7737 F   0  0  0  0  0  0
  -29.9767  -13.5072   20.3803 N   0  0  0  0  0  0
  -26.2908  -12.9363   20.3271 N   0  0  0  0  0  0
  -25.9295  -11.6509   20.5743 N   0  0  0  0  0  0
  -22.0504  -12.8168   22.0422 N   0  0  0  0  0  0
  -25.4265  -15.1900   20.4122 N   0  0  0  0  0  0
  -31.7944  -14.8289   20.1879 O   0  0  0  0  0  0
  -21.6670   -6.8880   21.4237 O   0  0  0  0  0  0
  -22.3517  -14.5576   20.6805 O   0  0  0  0  0  0
  -24.6285  -31.8501   23.1976 C   0  0  0  0  0  0
  -25.9119  -32.4708   23.8303 C   0  0  1  0  0  0
  -27.2191  -27.2762   20.1371 C   0  0  0  0  0  0
  -25.5910  -33.8514   24.2212 N   0  0  0  0  0  0
  -23.4211  -30.4701   21.5413 C   0  0  2  0  0  0
  -24.8666  -28.9037   20.1223 C   0  0  0  0  0  0
  -22.7447  -29.4590   22.4972 C   0  0  0  0  0  0
  -18.0255  -28.1380   22.8487 C   0  0  0  0  0  0
  -24.1494  -36.7287   23.2651 C   0  0  0  0  0  0
  -25.9633  -30.7690   21.3711 C   0  0  0  0  0  0
  -26.0371  -29.3900   20.7205 C   0  0  0  0  0  0
  -27.2206  -28.5894   20.7100 C   0  0  0  0  0  0
  -26.0277  -26.8371   19.5305 C   0  0  0  0  0  0
  -24.8651  -27.6348   19.5181 C   0  0  0  0  0  0
  -23.6334  -29.7841   20.1646 C   0  0  0  0  0  0
  -25.4118  -36.3036   24.0322 C   0  0  1  0  0  0
  -20.5852  -28.3661   23.1296 C   0  0  2  0  0  0
  -20.6733  -26.9393   22.5400 C   0  0  0  0  0  0
  -19.5723  -26.6381   21.5187 C   0  0  0  0  0  0
  -18.1900  -26.7936   22.1596 C   0  0  0  0  0  0
  -19.1513  -28.8844   23.2880 C   0  0  0  0  0  0
  -18.9456  -30.1454   23.8889 C   0  0  0  0  0  0
  -17.6462  -30.6598   24.0547 C   0  0  0  0  0  0
  -25.9050  -34.9409   23.5076 C   0  0  0  0  0  0
  -16.5345  -29.9085   23.6359 C   0  0  0  0  0  0
  -16.7244  -28.6492   23.0395 C   0  0  0  0  0  0
  -26.4512  -31.6567   25.0713 C   0  0  0  0  0  0
  -25.3753  -31.3670   26.1445 C   0  0  0  0  0  0
  -27.0415  -30.3000   24.6230 C   0  0  0  0  0  0
  -27.6032  -32.4357   25.7490 C   0  0  0  0  0  0
  -27.5582  -37.1788   24.8465 C   0  0  0  0  0  0
  -21.4158  -29.3027   22.3717 N   0  0  0  0  0  0
  -26.4280  -37.3746   23.9421 N   0  0  0  0  0  0
  -24.6897  -31.0489   22.0928 N   0  0  0  0  0  0
  -23.4160  -28.8147   23.3071 O   0  0  0  0  0  0
  -28.3454  -26.4421   20.0792 O   0  0  0  0  0  0
  -26.5635  -34.8899   22.4652 O   0  0  0  0  0  0
  -23.5452  -32.1311   23.7305 O   0  0  0  0  0  0
  -30.7945  -20.0375   21.2589 C   0  0  0  0  0  0
  -31.2467  -17.6286   21.4638 C   0  0  0  0  0  0
  -29.3060  -18.4219   20.2297 C   0  0  0  0  0  0
  -31.5883  -18.9695   21.7293 C   0  0  0  0  0  0
  -29.6368  -19.8274   20.4744 C   0  0  0  0  0  0
  -30.1041  -17.2968   20.7067 C   0  0  0  0  0  0
  -28.5113  -21.0574   18.6366 C   0  0  0  0  0  0
  -27.8898  -22.3320   18.0221 C   0  0  0  0  0  0
  -28.4302  -23.6588   18.5872 C   0  0  0  0  0  0
  -28.9409  -22.3882   20.6852 C   0  0  0  0  0  0
  -28.1690  -23.6781   20.0847 C   0  0  1  0  0  0
  -32.8507  -19.2647   22.5137 C   0  0  0  0  0  0
  -28.3745  -25.1264   20.7812 C   0  0  0  0  0  0
  -28.9309  -21.0430   19.9375 N   0  0  0  0  0  0
  -29.7757  -15.8600   20.5242 N   0  0  0  0  0  0
  -28.5845  -20.0742   17.8927 O   0  0  0  0  0  0
  -31.4654  -12.5773   19.1475 H   0  0  0  0  0  0
  -30.3639  -11.4705   19.9235 H   0  0  0  0  0  0
  -29.7734  -11.7548   17.4861 H   0  0  0  0  0  0
  -29.6138  -13.4780   17.7137 H   0  0  0  0  0  0
  -27.8723  -11.2839   18.8775 H   0  0  0  0  0  0
  -27.3623  -12.5485   17.7908 H   0  0  0  0  0  0
  -27.6295  -14.2486   19.4715 H   0  0  0  0  0  0
  -28.7275  -12.1462   21.4029 H   0  0  0  0  0  0
  -28.4305  -13.8216   21.7956 H   0  0  0  0  0  0
  -25.2755   -9.5753   22.4753 H   0  0  0  0  0  0
  -24.0067   -7.4660   22.7452 H   0  0  0  0  0  0
  -21.0873   -8.8718   19.8921 H   0  0  0  0  0  0
  -22.3657  -10.9671   19.6165 H   0  0  0  0  0  0
  -21.1973   -7.6152   23.9714 H   0  0  0  0  0  0
  -21.1495   -6.0537   25.9079 H   0  0  0  0  0  0
  -22.0595   -2.7622   23.2841 H   0  0  0  0  0  0
  -22.4161  -11.9787   22.4692 H   0  0  0  0  0  0
  -21.1117  -13.1130   22.2695 H   0  0  0  0  0  0
  -24.6639  -15.8490   20.5226 H   0  0  0  0  0  0
  -26.2655  -15.6199   20.0447 H   0  0  0  0  0  0
  -26.7187  -32.5349   23.1036 H   0  0  0  0  0  0
  -25.0022  -33.9612   25.0339 H   0  0  0  0  0  0
  -22.7163  -31.2897   21.3860 H   0  0  0  0  0  0
  -23.3753  -35.9620   23.3256 H   0  0  0  0  0  0
  -24.3587  -36.8975   22.2076 H   0  0  0  0  0  0
  -23.7247  -37.6471   23.6724 H   0  0  0  0  0  0
  -26.0971  -31.5286   20.6002 H   0  0  0  0  0  0
  -26.8434  -30.8178   22.0007 H   0  0  0  0  0  0
  -28.1279  -28.9642   21.1633 H   0  0  0  0  0  0
  -25.9957  -25.8625   19.0641 H   0  0  0  0  0  0
  -23.9680  -27.2528   19.0498 H   0  0  0  0  0  0
  -23.7387  -30.5428   19.3883 H   0  0  0  0  0  0
  -22.7566  -29.1964   19.8845 H   0  0  0  0  0  0
  -25.1312  -36.1840   25.0812 H   0  0  0  0  0  0
  -20.9911  -28.3212   24.1428 H   0  0  0  0  0  0
  -20.5576  -26.2279   23.3588 H   0  0  0  0  0  0
  -21.6611  -26.7402   22.1222 H   0  0  0  0  0  0
  -19.6880  -25.6279   21.1241 H   0  0  0  0  0  0
  -19.6685  -27.3172   20.6703 H   0  0  0  0  0  0
  -17.4163  -26.6687   21.4004 H   0  0  0  0  0  0
  -18.0312  -26.0051   22.8965 H   0  0  0  0  0  0
  -19.7938  -30.7263   24.2258 H   0  0  0  0  0  0
  -17.5025  -31.6301   24.5104 H   0  0  0  0  0  0
  -15.5351  -30.2989   23.7713 H   0  0  0  0  0  0
  -15.8624  -28.0796   22.7180 H   0  0  0  0  0  0
  -24.5977  -30.6946   25.7799 H   0  0  0  0  0  0
  -24.8903  -32.2814   26.4872 H   0  0  0  0  0  0
  -25.8127  -30.8885   27.0215 H   0  0  0  0  0  0
  -26.3027  -29.6672   24.1304 H   0  0  0  0  0  0
  -27.4161  -29.7329   25.4763 H   0  0  0  0  0  0
  -27.8852  -30.4307   23.9445 H   0  0  0  0  0  0
  -27.2613  -33.3679   26.1994 H   0  0  0  0  0  0
  -28.3881  -32.6883   25.0349 H   0  0  0  0  0  0
  -28.0652  -31.8533   26.5464 H   0  0  0  0  0  0
  -28.2563  -38.0123   24.7552 H   0  0  0  0  0  0
  -28.1115  -36.2655   24.6238 H   0  0  0  0  0  0
  -27.2300  -37.1364   25.8865 H   0  0  0  0  0  0
  -20.9330  -29.8754   21.6933 H   0  0  0  0  0  0
  -26.0141  -38.2805   24.1444 H   0  0  0  0  0  0
  -31.1322  -21.0383   21.4807 H   0  0  0  0  0  0
  -31.8766  -16.8464   21.8658 H   0  0  0  0  0  0
  -28.4260  -18.2051   19.6411 H   0  0  0  0  0  0
  -26.8101  -22.2808   18.1731 H   0  0  0  0  0  0
  -28.0371  -22.3129   16.9417 H   0  0  0  0  0  0
  -27.9387  -24.5031   18.1030 H   0  0  0  0  0  0
  -29.4981  -23.7597   18.3885 H   0  0  0  0  0  0
  -28.5885  -22.2110   21.7006 H   0  0  0  0  0  0
  -29.9845  -22.6836   20.7783 H   0  0  0  0  0  0
  -27.1014  -23.4823   20.1994 H   0  0  0  0  0  0
  -32.9667  -20.3323   22.7047 H   0  0  0  0  0  0
  -33.7230  -18.9309   21.9515 H   0  0  0  0  0  0
  -32.8411  -18.7489   23.4742 H   0  0  0  0  0  0
  -29.3596  -25.1014   21.2467 H   0  0  0  0  0  0
  -27.6846  -25.1932   21.6253 H   0  0  0  0  0  0
  -28.7898  -15.6541   20.4848 H   0  0  0  0  0  0
  1 25  1  0  0  0
  1 30  2  0  0  0
  1 85  1  0  0  0
  2  3  1  0  0  0
  2 25  1  0  0  0
  2 87  1  0  0  0
  2 88  1  0  0  0
  3  4  1  0  0  0
  3 89  1  0  0  0
  3 90  1  0  0  0
  4  5  1  0  0  0
  4 91  1  0  0  0
  4 92  1  0  0  0
  5  6  1  0  0  0
  5 26  1  0  0  0
  5 93  1  0  0  0
  6 25  1  0  0  0
  6 94  1  0  0  0
  6 95  1  0  0  0
  7  8  2  0  0  0
  7 26  1  0  0  0
  7 29  1  0  0  0
  8  9  1  0  0  0
  8 22  1  0  0  0
  9 10  1  0  0  0
  9 27  2  0  0  0
 10 11  2  0  0  0
 10 15  1  0  0  0
 11 12  1  0  0  0
 11 96  1  0  0  0
 12 13  2  0  0  0
 12 97  1  0  0  0
 13 14  1  0  0  0
 13 31  1  0  0  0
 14 15  2  0  0  0
 14 98  1  0  0  0
 15 99  1  0  0  0
 16 17  2  0  0  0
 16 21  1  0  0  0
 16 31  1  0  0  0
 17 18  1  0  0  0
 17100  1  0  0  0
 18 19  2  0  0  0
 18101  1  0  0  0
 19 20  1  0  0  0
 19 24  1  0  0  0
 20 21  2  0  0  0
 20102  1  0  0  0
 21 23  1  0  0  0
 22 28  1  0  0  0
 22 32  2  0  0  0
 26 27  1  0  0  0
 28103  1  0  0  0
 28104  1  0  0  0
 29105  1  0  0  0
 29106  1  0  0  0
 33 34  1  0  0  0
 33 66  1  0  0  0
 33 70  2  0  0  0
 34 36  1  0  0  0
 34 59  1  0  0  0
 34107  1  0  0  0
 35 44  2  0  0  0
 35 45  1  0  0  0
 35 68  1  0  0  0
 36 56  1  0  0  0
 36108  1  0  0  0
 37 39  1  0  0  0
 37 47  1  0  0  0
 37 66  1  0  0  0
 37109  1  0  0  0
 38 43  2  0  0  0
 38 46  1  0  0  0
 38 47  1  0  0  0
 39 64  1  0  0  0
 39 67  2  0  0  0
 40 52  1  0  0  0
 40 53  2  0  0  0
 40 58  1  0  0  0
 41110  1  0  0  0
 41111  1  0  0  0
 41112  1  0  0  0
 41 48  1  0  0  0
 42 43  1  0  0  0
 42 66  1  0  0  0
 42113  1  0  0  0
 42114  1  0  0  0
 43 44  1  0  0  0
 44115  1  0  0  0
 45 46  2  0  0  0
 45116  1  0  0  0
 46117  1  0  0  0
 47118  1  0  0  0
 47119  1  0  0  0
 48 56  1  0  0  0
 48 65  1  0  0  0
 48120  1  0  0  0
 49 50  1  0  0  0
 49 53  1  0  0  0
 49 64  1  0  0  0
 49121  1  0  0  0
 50 51  1  0  0  0
 50122  1  0  0  0
 50123  1  0  0  0
 51 52  1  0  0  0
 51124  1  0  0  0
 51125  1  0  0  0
 52126  1  0  0  0
 52127  1  0  0  0
 53 54  1  0  0  0
 54 55  2  0  0  0
 54128  1  0  0  0
 55 57  1  0  0  0
 55129  1  0  0  0
 56 69  2  0  0  0
 57 58  2  0  0  0
 57130  1  0  0  0
 58131  1  0  0  0
 59 60  1  0  0  0
 59 61  1  0  0  0
 59 62  1  0  0  0
 60132  1  0  0  0
 60133  1  0  0  0
 60134  1  0  0  0
 61135  1  0  0  0
 61136  1  0  0  0
 61137  1  0  0  0
 62138  1  0  0  0
 62139  1  0  0  0
 62140  1  0  0  0
 63 65  1  0  0  0
 63141  1  0  0  0
 63142  1  0  0  0
 63143  1  0  0  0
 64144  1  0  0  0
 65145  1  0  0  0
 68 83  1  0  0  0
 71 74  2  0  0  0
 71 75  1  0  0  0
 71146  1  0  0  0
 72 74  1  0  0  0
 72 76  2  0  0  0
 72147  1  0  0  0
 73 75  2  0  0  0
 73 76  1  0  0  0
 73148  1  0  0  0
 74 82  1  0  0  0
 75 84  1  0  0  0
 76 85  1  0  0  0
 77 78  1  0  0  0
 77 84  1  0  0  0
 77 86  2  0  0  0
 78 79  1  0  0  0
 78149  1  0  0  0
 78150  1  0  0  0
 79 81  1  0  0  0
 79151  1  0  0  0
 79152  1  0  0  0
 80 81  1  0  0  0
 80 84  1  0  0  0
 80153  1  0  0  0
 80154  1  0  0  0
 81 83  1  0  0  0
 81155  1  0  0  0
 82156  1  0  0  0
 82157  1  0  0  0
 82158  1  0  0  0
 83159  1  0  0  0
 83160  1  0  0  0
 85161  1  0  0  0
M  ISO  4   1 100  68 101  83 101  85 100
M  END
> <chiral flag>
0

> <version>
0

> <s_m_source_file>
/data/baiqing/PycharmProjects/Reinvent-master-3.2/result/LINK_invent/BTK/process_docking_weight1_custom_product_contain_oxygen_bond_distance_aromatic_linkinvent_7_9_3/rearranged_h_0061.sdf

> <i_m_source_file_index>
59

> <r_mmod_Potential_Energy-OPLS-2005>
280.397125244141

> <r_mmod_Stretch_Energy-OPLS-2005>
128.097900390625

> <r_mmod_Bend_Energy-OPLS-2005>
173.810012817383

> <r_mmod_Torsional_Energy-OPLS-2005>
302.589935302734

> <r_mmod_Improper_Torsional_Energy-OPLS-2005>
7.60975313186646

> <r_mmod_Van_der_Waal_Energy-OPLS-2005>
146.268905639648

> <r_mmod_Electrostatic_Energy-OPLS-2005>
-333.133819580078

> <r_mmod_Solvation_Energy-OPLS-2005>
-220.437393188477

> <b_mmod_Minimization_Converged-OPLS-2005>
0

> <r_mmod_RMS_Derivative-OPLS-2005>
2.69669198989868

$$$$
60
                    3D
 Structure written by MMmdl.
163172  0  0  1  0            999 V2000
  -30.6114  -14.5962   20.4523 C   0  0  0  0  0  0
  -30.4373  -12.3588   19.4200 C   0  0  0  0  0  0
  -29.4967  -12.4794   18.2020 C   0  0  0  0  0  0
  -28.0206  -12.3233   18.6276 C   0  0  0  0  0  0
  -27.6439  -13.2010   19.8502 C   0  0  2  0  0  0
  -28.6975  -13.0720   20.9721 C   0  0  0  0  0  0
  -25.2556  -13.8128   20.5708 C   0  0  0  0  0  0
  -24.1810  -13.0413   20.9203 C   0  0  0  0  0  0
  -24.6372  -11.6887   20.8773 C   0  0  0  0  0  0
  -23.9051  -10.4278   21.0414 C   0  0  0  0  0  0
  -24.3601   -9.4196   21.9194 C   0  0  0  0  0  0
  -23.6284   -8.2228   22.0751 C   0  0  0  0  0  0
  -22.4269   -8.0265   21.3547 C   0  0  0  0  0  0
  -21.9898   -9.0236   20.4650 C   0  0  0  0  0  0
  -22.7218  -10.2127   20.3067 C   0  0  0  0  0  0
  -21.6849   -6.0734   22.5276 C   0  0  0  0  0  0
  -21.4009   -6.5638   23.8208 C   0  0  0  0  0  0
  -21.3664   -5.6789   24.9169 C   0  0  0  0  0  0
  -21.6047   -4.3053   24.7225 C   0  0  0  0  0  0
  -21.8827   -3.8149   23.4346 C   0  0  0  0  0  0
  -21.9190   -4.6964   22.3398 C   0  0  0  0  0  0
  -22.7847  -13.5225   21.1864 C   0  0  0  0  0  0
  -22.1665   -4.2144   21.0982 F   0  0  0  0  0  0
  -21.5628   -3.4533   25.7742 F   0  0  0  0  0  0
  -30.0072  -13.3791   20.3822 N   0  0  0  0  0  0
  -26.2948  -12.9271   20.3301 N   0  0  0  0  0  0
  -25.9285  -11.6453   20.5784 N   0  0  0  0  0  0
  -22.0497  -12.8225   22.0424 N   0  0  0  0  0  0
  -25.4287  -15.1860   20.4176 N   0  0  0  0  0  0
  -31.8231  -14.7494   20.2776 O   0  0  0  0  0  0
  -21.6640   -6.8865   21.4238 O   0  0  0  0  0  0
  -22.3540  -14.5535   20.6711 O   0  0  0  0  0  0
  -24.6191  -31.8665   23.2077 C   0  0  0  0  0  0
  -25.9084  -32.4810   23.8398 C   0  0  1  0  0  0
  -27.2138  -27.3940   20.1023 C   0  0  0  0  0  0
  -25.5947  -33.8615   24.2356 N   0  0  0  0  0  0
  -23.4054  -30.4924   21.5517 C   0  0  2  0  0  0
  -24.8457  -28.9567   20.1107 C   0  0  0  0  0  0
  -22.7468  -29.4640   22.5008 C   0  0  0  0  0  0
  -18.0331  -28.1344   22.8545 C   0  0  0  0  0  0
  -24.1493  -36.7309   23.2631 C   0  0  0  0  0  0
  -25.9395  -30.8284   21.3559 C   0  0  0  0  0  0
  -26.0144  -29.4590   20.6988 C   0  0  0  0  0  0
  -27.2049  -28.6908   20.6783 C   0  0  0  0  0  0
  -26.0287  -26.9209   19.4968 C   0  0  0  0  0  0
  -24.8491  -27.6880   19.5074 C   0  0  0  0  0  0
  -23.6115  -29.8307   20.1640 C   0  0  0  0  0  0
  -25.4114  -36.3087   24.0335 C   0  0  1  0  0  0
  -20.5920  -28.3646   23.1491 C   0  0  2  0  0  0
  -20.6814  -26.9371   22.5535 C   0  0  0  0  0  0
  -19.5818  -26.6464   21.5266 C   0  0  0  0  0  0
  -18.1995  -26.7921   22.1657 C   0  0  0  0  0  0
  -19.1576  -28.8816   23.3021 C   0  0  0  0  0  0
  -18.9471  -30.1461   23.8934 C   0  0  0  0  0  0
  -17.6446  -30.6588   24.0467 C   0  0  0  0  0  0
  -25.9043  -34.9457   23.5124 C   0  0  0  0  0  0
  -16.5355  -29.9043   23.6251 C   0  0  0  0  0  0
  -16.7317  -28.6446   23.0328 C   0  0  0  0  0  0
  -26.4502  -31.6584   25.0730 C   0  0  0  0  0  0
  -25.3759  -31.3696   26.1471 C   0  0  0  0  0  0
  -27.0329  -30.3027   24.6084 C   0  0  0  0  0  0
  -27.6072  -32.4304   25.7494 C   0  0  0  0  0  0
  -27.5581  -37.1808   24.8466 C   0  0  0  0  0  0
  -21.4178  -29.3094   22.3949 N   0  0  0  0  0  0
  -26.4283  -37.3790   23.9403 N   0  0  0  0  0  0
  -24.6735  -31.0786   22.0972 N   0  0  0  0  0  0
  -23.4300  -28.8063   23.2916 O   0  0  0  0  0  0
  -28.3518  -26.6055   20.1275 O   0  0  0  0  0  0
  -26.5591  -34.8910   22.4663 O   0  0  0  0  0  0
  -23.5372  -32.1417   23.7500 O   0  0  0  0  0  0
  -29.2479  -18.0870   20.3539 C   0  0  0  0  0  0
  -29.5786  -16.8117   22.3979 C   0  0  0  0  0  0
  -28.8375  -19.1522   22.5206 C   0  0  0  0  0  0
  -28.8883  -19.2529   21.0993 C   0  0  0  0  0  0
  -29.6024  -16.8607   20.9935 C   0  0  0  0  0  0
  -29.1634  -17.9262   23.1489 C   0  0  0  0  0  0
  -27.1452  -22.0391   19.4650 C   0  0  0  0  0  0
  -28.2609  -22.7024   19.7788 C   0  0  0  0  0  0
  -27.2541  -20.6566   19.8841 C   0  0  0  0  0  0
  -29.2539  -21.7383   20.4082 C   0  0  0  0  0  0
  -28.3465  -20.2939   23.4034 C   0  0  0  0  0  0
  -27.6653  -17.4459   24.8728 C   0  0  0  0  0  0
  -28.5523  -24.1829   19.4469 C   0  0  0  0  0  0
  -28.1809  -25.2214   20.5435 C   0  0  0  0  0  0
  -28.4822  -20.4709   20.4269 N   0  0  0  0  0  0
  -29.7541  -15.6328   20.2599 N   0  0  0  0  0  0
  -26.3765  -19.7937   19.7749 O   0  0  0  0  0  0
  -29.0032  -17.7701   24.4990 O   0  0  0  0  0  0
  -31.4744  -12.5005   19.1126 H   0  0  0  0  0  0
  -30.3815  -11.3658   19.8696 H   0  0  0  0  0  0
  -29.7499  -11.7258   17.4573 H   0  0  0  0  0  0
  -29.6360  -13.4467   17.7170 H   0  0  0  0  0  0
  -27.8598  -11.2716   18.8729 H   0  0  0  0  0  0
  -27.3590  -12.5429   17.7897 H   0  0  0  0  0  0
  -27.6451  -14.2294   19.4918 H   0  0  0  0  0  0
  -28.7009  -12.0675   21.3979 H   0  0  0  0  0  0
  -28.4678  -13.7524   21.7943 H   0  0  0  0  0  0
  -25.2748   -9.5674   22.4765 H   0  0  0  0  0  0
  -23.9999   -7.4618   22.7464 H   0  0  0  0  0  0
  -21.0829   -8.8772   19.8945 H   0  0  0  0  0  0
  -22.3685  -10.9678   19.6184 H   0  0  0  0  0  0
  -21.2011   -7.6142   23.9709 H   0  0  0  0  0  0
  -21.1472   -6.0520   25.9070 H   0  0  0  0  0  0
  -22.0607   -2.7607   23.2850 H   0  0  0  0  0  0
  -22.4100  -11.9884   22.4811 H   0  0  0  0  0  0
  -21.1129  -13.1279   22.2651 H   0  0  0  0  0  0
  -24.6640  -15.8418   20.5390 H   0  0  0  0  0  0
  -26.2935  -15.6394   20.1529 H   0  0  0  0  0  0
  -26.7181  -32.5478   23.1167 H   0  0  0  0  0  0
  -25.0140  -33.9783   25.0530 H   0  0  0  0  0  0
  -22.6856  -31.3034   21.4158 H   0  0  0  0  0  0
  -23.3739  -35.9650   23.3289 H   0  0  0  0  0  0
  -24.3605  -36.8923   22.2047 H   0  0  0  0  0  0
  -23.7262  -37.6519   23.6654 H   0  0  0  0  0  0
  -26.0518  -31.5966   20.5877 H   0  0  0  0  0  0
  -26.8331  -30.8852   21.9676 H   0  0  0  0  0  0
  -28.1097  -29.0783   21.1264 H   0  0  0  0  0  0
  -26.0138  -25.9491   19.0251 H   0  0  0  0  0  0
  -23.9463  -27.2941   19.0616 H   0  0  0  0  0  0
  -23.7230  -30.6094   19.4090 H   0  0  0  0  0  0
  -22.7312  -29.2582   19.8699 H   0  0  0  0  0  0
  -25.1281  -36.1941   25.0832 H   0  0  0  0  0  0
  -20.9974  -28.3206   24.1606 H   0  0  0  0  0  0
  -20.5565  -26.2228   23.3710 H   0  0  0  0  0  0
  -21.6723  -26.7231   22.1490 H   0  0  0  0  0  0
  -19.6701  -27.3405   20.6863 H   0  0  0  0  0  0
  -19.6986  -25.6416   21.1204 H   0  0  0  0  0  0
  -17.4323  -26.6718   21.3982 H   0  0  0  0  0  0
  -18.0408  -26.0070   22.9067 H   0  0  0  0  0  0
  -19.7980  -30.7296   24.2272 H   0  0  0  0  0  0
  -17.4934  -31.6328   24.4927 H   0  0  0  0  0  0
  -15.5327  -30.2907   23.7530 H   0  0  0  0  0  0
  -15.8723  -28.0738   22.7042 H   0  0  0  0  0  0
  -24.5931  -30.7039   25.7816 H   0  0  0  0  0  0
  -24.8943  -32.2856   26.4910 H   0  0  0  0  0  0
  -25.8106  -30.8879   27.0234 H   0  0  0  0  0  0
  -26.2879  -29.6793   24.1128 H   0  0  0  0  0  0
  -27.4111  -29.7256   25.4529 H   0  0  0  0  0  0
  -27.8703  -30.4371   23.9232 H   0  0  0  0  0  0
  -27.2696  -33.3597   26.2103 H   0  0  0  0  0  0
  -28.3872  -32.6881   25.0313 H   0  0  0  0  0  0
  -28.0758  -31.8406   26.5381 H   0  0  0  0  0  0
  -28.2588  -38.0115   24.7504 H   0  0  0  0  0  0
  -28.1087  -36.2637   24.6292 H   0  0  0  0  0  0
  -27.2307  -37.1469   25.8876 H   0  0  0  0  0  0
  -20.9209  -29.9299   21.7698 H   0  0  0  0  0  0
  -26.0158  -38.2846   24.1422 H   0  0  0  0  0  0
  -29.2145  -18.1290   19.2743 H   0  0  0  0  0  0
  -29.7853  -15.8872   22.9147 H   0  0  0  0  0  0
  -26.2839  -22.4567   18.9650 H   0  0  0  0  0  0
  -29.5789  -22.0695   21.3966 H   0  0  0  0  0  0
  -30.1316  -21.6313   19.7722 H   0  0  0  0  0  0
  -28.3195  -21.2631   22.9156 H   0  0  0  0  0  0
  -28.9778  -20.3958   24.2850 H   0  0  0  0  0  0
  -27.3293  -20.0832   23.7373 H   0  0  0  0  0  0
  -27.6668  -16.5929   25.5506 H   0  0  0  0  0  0
  -27.0294  -17.1824   24.0252 H   0  0  0  0  0  0
  -27.2090  -18.2897   25.3902 H   0  0  0  0  0  0
  -27.9903  -24.4403   18.5480 H   0  0  0  0  0  0
  -29.6017  -24.2788   19.1668 H   0  0  0  0  0  0
  -28.8227  -25.0467   21.4059 H   0  0  0  0  0  0
  -27.1711  -25.0327   20.9120 H   0  0  0  0  0  0
  -28.9055  -15.3445   19.7974 H   0  0  0  0  0  0
  1 25  1  0  0  0
  1 30  2  0  0  0
  1 86  1  0  0  0
  2  3  1  0  0  0
  2 25  1  0  0  0
  2 89  1  0  0  0
  2 90  1  0  0  0
  3  4  1  0  0  0
  3 91  1  0  0  0
  3 92  1  0  0  0
  4  5  1  0  0  0
  4 93  1  0  0  0
  4 94  1  0  0  0
  5  6  1  0  0  0
  5 26  1  0  0  0
  5 95  1  0  0  0
  6 25  1  0  0  0
  6 96  1  0  0  0
  6 97  1  0  0  0
  7  8  2  0  0  0
  7 26  1  0  0  0
  7 29  1  0  0  0
  8  9  1  0  0  0
  8 22  1  0  0  0
  9 10  1  0  0  0
  9 27  2  0  0  0
 10 11  2  0  0  0
 10 15  1  0  0  0
 11 12  1  0  0  0
 11 98  1  0  0  0
 12 13  2  0  0  0
 12 99  1  0  0  0
 13 14  1  0  0  0
 13 31  1  0  0  0
 14 15  2  0  0  0
 14100  1  0  0  0
 15101  1  0  0  0
 16 17  2  0  0  0
 16 21  1  0  0  0
 16 31  1  0  0  0
 17 18  1  0  0  0
 17102  1  0  0  0
 18 19  2  0  0  0
 18103  1  0  0  0
 19 20  1  0  0  0
 19 24  1  0  0  0
 20 21  2  0  0  0
 20104  1  0  0  0
 21 23  1  0  0  0
 22 28  1  0  0  0
 22 32  2  0  0  0
 26 27  1  0  0  0
 28105  1  0  0  0
 28106  1  0  0  0
 29107  1  0  0  0
 29108  1  0  0  0
 33 34  1  0  0  0
 33 66  1  0  0  0
 33 70  2  0  0  0
 34 36  1  0  0  0
 34 59  1  0  0  0
 34109  1  0  0  0
 35 44  2  0  0  0
 35 45  1  0  0  0
 35 68  1  0  0  0
 36 56  1  0  0  0
 36110  1  0  0  0
 37 39  1  0  0  0
 37 47  1  0  0  0
 37 66  1  0  0  0
 37111  1  0  0  0
 38 43  2  0  0  0
 38 46  1  0  0  0
 38 47  1  0  0  0
 39 64  1  0  0  0
 39 67  2  0  0  0
 40 52  1  0  0  0
 40 53  2  0  0  0
 40 58  1  0  0  0
 41112  1  0  0  0
 41113  1  0  0  0
 41114  1  0  0  0
 41 48  1  0  0  0
 42 43  1  0  0  0
 42 66  1  0  0  0
 42115  1  0  0  0
 42116  1  0  0  0
 43 44  1  0  0  0
 44117  1  0  0  0
 45 46  2  0  0  0
 45118  1  0  0  0
 46119  1  0  0  0
 47120  1  0  0  0
 47121  1  0  0  0
 48 56  1  0  0  0
 48 65  1  0  0  0
 48122  1  0  0  0
 49 50  1  0  0  0
 49 53  1  0  0  0
 49 64  1  0  0  0
 49123  1  0  0  0
 50 51  1  0  0  0
 50124  1  0  0  0
 50125  1  0  0  0
 51 52  1  0  0  0
 51126  1  0  0  0
 51127  1  0  0  0
 52128  1  0  0  0
 52129  1  0  0  0
 53 54  1  0  0  0
 54 55  2  0  0  0
 54130  1  0  0  0
 55 57  1  0  0  0
 55131  1  0  0  0
 56 69  2  0  0  0
 57 58  2  0  0  0
 57132  1  0  0  0
 58133  1  0  0  0
 59 60  1  0  0  0
 59 61  1  0  0  0
 59 62  1  0  0  0
 60134  1  0  0  0
 60135  1  0  0  0
 60136  1  0  0  0
 61137  1  0  0  0
 61138  1  0  0  0
 61139  1  0  0  0
 62140  1  0  0  0
 62141  1  0  0  0
 62142  1  0  0  0
 63 65  1  0  0  0
 63143  1  0  0  0
 63144  1  0  0  0
 63145  1  0  0  0
 64146  1  0  0  0
 65147  1  0  0  0
 68 84  1  0  0  0
 71 74  2  0  0  0
 71 75  1  0  0  0
 71148  1  0  0  0
 72 75  2  0  0  0
 72 76  1  0  0  0
 72149  1  0  0  0
 73 74  1  0  0  0
 73 76  2  0  0  0
 73 81  1  0  0  0
 74 85  1  0  0  0
 75 86  1  0  0  0
 76 88  1  0  0  0
 77 78  2  0  0  0
 77 79  1  0  0  0
 77150  1  0  0  0
 78 80  1  0  0  0
 78 83  1  0  0  0
 79 85  1  0  0  0
 79 87  2  0  0  0
 80 85  1  0  0  0
 80151  1  0  0  0
 80152  1  0  0  0
 81153  1  0  0  0
 81154  1  0  0  0
 81155  1  0  0  0
 82 88  1  0  0  0
 82156  1  0  0  0
 82157  1  0  0  0
 82158  1  0  0  0
 83 84  1  0  0  0
 83159  1  0  0  0
 83160  1  0  0  0
 84161  1  0  0  0
 84162  1  0  0  0
 86163  1  0  0  0
M  ISO  4   1 100  68 101  84 101  86 100
M  END
> <chiral flag>
0

> <version>
0

> <s_m_source_file>
/data/baiqing/PycharmProjects/Reinvent-master-3.2/result/LINK_invent/BTK/process_docking_weight1_custom_product_contain_oxygen_bond_distance_aromatic_linkinvent_7_9_3/rearranged_h_0061.sdf

> <i_m_source_file_index>
60

> <r_mmod_Potential_Energy-OPLS-2005>
204.075622558594

> <r_mmod_Stretch_Energy-OPLS-2005>
51.0472602844238

> <r_mmod_Bend_Energy-OPLS-2005>
153.773849487305

> <r_mmod_Torsional_Energy-OPLS-2005>
380.537994384766

> <r_mmod_Improper_Torsional_Energy-OPLS-2005>
17.1715850830078

> <r_mmod_Van_der_Waal_Energy-OPLS-2005>
135.005554199219

> <r_mmod_Electrostatic_Energy-OPLS-2005>
-347.496459960938

> <r_mmod_Solvation_Energy-OPLS-2005>
-224.521606445312

> <b_mmod_Minimization_Converged-OPLS-2005>
0

> <r_mmod_RMS_Derivative-OPLS-2005>
5.19363498687744

$$$$
61
                    3D
 Structure written by MMmdl.
155163  0  0  1  0            999 V2000
  -30.6515  -14.6582   20.4823 C   0  0  0  0  0  0
  -30.4236  -12.4008   19.4648 C   0  0  0  0  0  0
  -29.5046  -12.5010   18.2288 C   0  0  0  0  0  0
  -28.0285  -12.3394   18.6406 C   0  0  0  0  0  0
  -27.6459  -13.2265   19.8559 C   0  0  2  0  0  0
  -28.6895  -13.1273   20.9907 C   0  0  0  0  0  0
  -25.2524  -13.8192   20.5692 C   0  0  0  0  0  0
  -24.1807  -13.0444   20.9203 C   0  0  0  0  0  0
  -24.6389  -11.6920   20.8746 C   0  0  0  0  0  0
  -23.9063  -10.4297   21.0406 C   0  0  0  0  0  0
  -24.3615   -9.4210   21.9182 C   0  0  0  0  0  0
  -23.6291   -8.2243   22.0753 C   0  0  0  0  0  0
  -22.4274   -8.0281   21.3545 C   0  0  0  0  0  0
  -21.9909   -9.0256   20.4647 C   0  0  0  0  0  0
  -22.7236  -10.2134   20.3054 C   0  0  0  0  0  0
  -21.6855   -6.0733   22.5278 C   0  0  0  0  0  0
  -21.4016   -6.5636   23.8211 C   0  0  0  0  0  0
  -21.3660   -5.6789   24.9173 C   0  0  0  0  0  0
  -21.6045   -4.3053   24.7226 C   0  0  0  0  0  0
  -21.8818   -3.8143   23.4347 C   0  0  0  0  0  0
  -21.9193   -4.6960   22.3404 C   0  0  0  0  0  0
  -22.7827  -13.5229   21.1861 C   0  0  0  0  0  0
  -22.1661   -4.2145   21.0982 F   0  0  0  0  0  0
  -21.5630   -3.4535   25.7738 F   0  0  0  0  0  0
  -30.0003  -13.4524   20.4148 N   0  0  0  0  0  0
  -26.2952  -12.9392   20.3297 N   0  0  0  0  0  0
  -25.9319  -11.6538   20.5754 N   0  0  0  0  0  0
  -22.0469  -12.8220   22.0416 N   0  0  0  0  0  0
  -25.4220  -15.1912   20.4089 N   0  0  0  0  0  0
  -31.8294  -14.7337   20.1257 O   0  0  0  0  0  0
  -21.6642   -6.8875   21.4238 O   0  0  0  0  0  0
  -22.3515  -14.5534   20.6705 O   0  0  0  0  0  0
  -24.6261  -31.8585   23.2018 C   0  0  0  0  0  0
  -25.9114  -32.4766   23.8343 C   0  0  1  0  0  0
  -27.2229  -27.3169   20.1079 C   0  0  0  0  0  0
  -25.5933  -33.8567   24.2276 N   0  0  0  0  0  0
  -23.4188  -30.4822   21.5443 C   0  0  2  0  0  0
  -24.8626  -28.9340   20.1101 C   0  0  0  0  0  0
  -22.7470  -29.4620   22.4937 C   0  0  0  0  0  0
  -18.0287  -28.1384   22.8484 C   0  0  0  0  0  0
  -24.1493  -36.7282   23.2637 C   0  0  0  0  0  0
  -25.9595  -30.7867   21.3733 C   0  0  0  0  0  0
  -26.0302  -29.4143   20.7142 C   0  0  0  0  0  0
  -27.2096  -28.6151   20.7057 C   0  0  0  0  0  0
  -26.0254  -26.8774   19.4994 C   0  0  0  0  0  0
  -24.8615  -27.6709   19.4970 C   0  0  0  0  0  0
  -23.6321  -29.8158   20.1595 C   0  0  0  0  0  0
  -25.4115  -36.3074   24.0331 C   0  0  1  0  0  0
  -20.5885  -28.3686   23.1282 C   0  0  2  0  0  0
  -20.6777  -26.9410   22.5409 C   0  0  0  0  0  0
  -19.5758  -26.6385   21.5206 C   0  0  0  0  0  0
  -18.1936  -26.7929   22.1616 C   0  0  0  0  0  0
  -19.1537  -28.8852   23.2879 C   0  0  0  0  0  0
  -18.9461  -30.1456   23.8894 C   0  0  0  0  0  0
  -17.6461  -30.6588   24.0560 C   0  0  0  0  0  0
  -25.9052  -34.9443   23.5103 C   0  0  0  0  0  0
  -16.5352  -29.9083   23.6332 C   0  0  0  0  0  0
  -16.7274  -28.6500   23.0352 C   0  0  0  0  0  0
  -26.4505  -31.6576   25.0714 C   0  0  0  0  0  0
  -25.3745  -31.3706   26.1446 C   0  0  0  0  0  0
  -27.0352  -30.3001   24.6172 C   0  0  0  0  0  0
  -27.6067  -32.4311   25.7482 C   0  0  0  0  0  0
  -27.5588  -37.1788   24.8461 C   0  0  0  0  0  0
  -21.4184  -29.3037   22.3675 N   0  0  0  0  0  0
  -26.4292  -37.3772   23.9418 N   0  0  0  0  0  0
  -24.6868  -31.0600   22.0963 N   0  0  0  0  0  0
  -23.4195  -28.8161   23.3016 O   0  0  0  0  0  0
  -28.3641  -26.5042   20.1704 O   0  0  0  0  0  0
  -26.5615  -34.8912   22.4668 O   0  0  0  0  0  0
  -23.5428  -32.1385   23.7353 O   0  0  0  0  0  0
  -31.9853  -18.9864   20.7773 C   0  0  0  0  0  0
  -31.6175  -17.6273   20.7749 C   0  0  0  0  0  0
  -29.2911  -18.2881   20.6638 C   0  0  0  0  0  0
  -31.0258  -20.0212   20.7379 C   0  0  0  0  0  0
  -30.2635  -17.2191   20.7120 C   0  0  0  0  0  0
  -29.6466  -19.6912   20.6663 C   0  0  0  0  0  0
  -28.2291  -23.8766   20.2347 C   0  0  0  0  0  0
  -28.7155  -22.6350   19.8895 C   0  0  0  0  0  0
  -31.5289  -21.4550   20.7916 C   0  0  0  0  0  0
  -28.4743  -25.2143   19.4589 C   0  0  0  0  0  0
  -28.1941  -21.4666   22.2701 N   0  0  0  0  0  0
  -29.8983  -15.7872   20.7424 N   0  0  0  0  0  0
  -27.1281  -20.4809   20.0938 O   0  0  0  0  0  0
  -28.3202  -21.0173   20.7739 S   0  0  2  0  0  0
  -31.4680  -12.5002   19.1641 H   0  0  0  0  0  0
  -30.3409  -11.4166   19.9287 H   0  0  0  0  0  0
  -29.7740  -11.7406   17.4944 H   0  0  0  0  0  0
  -29.6479  -13.4650   17.7380 H   0  0  0  0  0  0
  -27.8700  -11.2889   18.8867 H   0  0  0  0  0  0
  -27.3744  -12.5542   17.7948 H   0  0  0  0  0  0
  -27.6517  -14.2542   19.4927 H   0  0  0  0  0  0
  -28.7035  -12.1233   21.4176 H   0  0  0  0  0  0
  -28.4375  -13.8017   21.8108 H   0  0  0  0  0  0
  -25.2759   -9.5687   22.4756 H   0  0  0  0  0  0
  -24.0003   -7.4634   22.7471 H   0  0  0  0  0  0
  -21.0843   -8.8771   19.8955 H   0  0  0  0  0  0
  -22.3693  -10.9671   19.6160 H   0  0  0  0  0  0
  -21.2009   -7.6145   23.9711 H   0  0  0  0  0  0
  -21.1485   -6.0521   25.9075 H   0  0  0  0  0  0
  -22.0598   -2.7605   23.2847 H   0  0  0  0  0  0
  -22.4082  -11.9885   22.4816 H   0  0  0  0  0  0
  -21.1085  -13.1242   22.2617 H   0  0  0  0  0  0
  -24.6515  -15.8428   20.5120 H   0  0  0  0  0  0
  -26.2611  -15.6270   20.0489 H   0  0  0  0  0  0
  -26.7173  -32.5429   23.1078 H   0  0  0  0  0  0
  -25.0101  -33.9711   25.0437 H   0  0  0  0  0  0
  -22.7130  -31.3029   21.4014 H   0  0  0  0  0  0
  -23.3762  -35.9608   23.3288 H   0  0  0  0  0  0
  -24.3591  -36.8915   22.2055 H   0  0  0  0  0  0
  -23.7236  -37.6476   23.6665 H   0  0  0  0  0  0
  -26.0963  -31.5508   20.6071 H   0  0  0  0  0  0
  -26.8384  -30.8306   22.0049 H   0  0  0  0  0  0
  -28.1080  -28.9804   21.1830 H   0  0  0  0  0  0
  -25.9488  -25.9008   19.0470 H   0  0  0  0  0  0
  -23.9609  -27.2931   19.0328 H   0  0  0  0  0  0
  -23.7527  -30.5916   19.4024 H   0  0  0  0  0  0
  -22.7516  -29.2458   19.8575 H   0  0  0  0  0  0
  -25.1293  -36.1919   25.0822 H   0  0  0  0  0  0
  -20.9980  -28.3262   24.1401 H   0  0  0  0  0  0
  -20.5683  -26.2290   23.3604 H   0  0  0  0  0  0
  -21.6646  -26.7451   22.1198 H   0  0  0  0  0  0
  -19.6923  -25.6296   21.1237 H   0  0  0  0  0  0
  -19.6703  -27.3192   20.6734 H   0  0  0  0  0  0
  -17.4210  -26.6679   21.4015 H   0  0  0  0  0  0
  -18.0340  -26.0070   22.9009 H   0  0  0  0  0  0
  -19.7937  -30.7271   24.2265 H   0  0  0  0  0  0
  -17.5015  -31.6266   24.5161 H   0  0  0  0  0  0
  -15.5353  -30.2980   23.7660 H   0  0  0  0  0  0
  -15.8674  -28.0816   22.7070 H   0  0  0  0  0  0
  -24.5914  -30.7066   25.7770 H   0  0  0  0  0  0
  -24.8943  -32.2868   26.4889 H   0  0  0  0  0  0
  -25.8073  -30.8864   27.0210 H   0  0  0  0  0  0
  -26.2921  -29.6735   24.1227 H   0  0  0  0  0  0
  -27.4085  -29.7271   25.4670 H   0  0  0  0  0  0
  -27.8777  -30.4286   23.9373 H   0  0  0  0  0  0
  -27.2683  -33.3609   26.2066 H   0  0  0  0  0  0
  -28.3871  -32.6877   25.0305 H   0  0  0  0  0  0
  -28.0748  -31.8435   26.5390 H   0  0  0  0  0  0
  -28.2578  -38.0111   24.7546 H   0  0  0  0  0  0
  -28.1112  -36.2643   24.6239 H   0  0  0  0  0  0
  -27.2314  -37.1382   25.8864 H   0  0  0  0  0  0
  -20.9366  -29.8737   21.6865 H   0  0  0  0  0  0
  -26.0170  -38.2844   24.1431 H   0  0  0  0  0  0
  -33.0370  -19.2315   20.8328 H   0  0  0  0  0  0
  -32.4211  -16.9104   20.8451 H   0  0  0  0  0  0
  -28.2391  -18.0434   20.6486 H   0  0  0  0  0  0
  -27.5817  -23.9496   21.0968 H   0  0  0  0  0  0
  -29.3581  -22.5013   19.0324 H   0  0  0  0  0  0
  -32.5760  -21.4946   21.0931 H   0  0  0  0  0  0
  -30.9711  -22.0535   21.5109 H   0  0  0  0  0  0
  -31.4607  -21.9225   19.8097 H   0  0  0  0  0  0
  -27.8806  -25.2101   18.5461 H   0  0  0  0  0  0
  -29.5017  -25.1651   19.0969 H   0  0  0  0  0  0
  -29.1024  -21.7837   22.6293 H   0  0  0  0  0  0
  -28.9262  -15.5914   20.9257 H   0  0  0  0  0  0
  1 25  1  0  0  0
  1 30  2  0  0  0
  1 82  1  0  0  0
  2  3  1  0  0  0
  2 25  1  0  0  0
  2 85  1  0  0  0
  2 86  1  0  0  0
  3  4  1  0  0  0
  3 87  1  0  0  0
  3 88  1  0  0  0
  4  5  1  0  0  0
  4 89  1  0  0  0
  4 90  1  0  0  0
  5  6  1  0  0  0
  5 26  1  0  0  0
  5 91  1  0  0  0
  6 25  1  0  0  0
  6 92  1  0  0  0
  6 93  1  0  0  0
  7  8  2  0  0  0
  7 26  1  0  0  0
  7 29  1  0  0  0
  8  9  1  0  0  0
  8 22  1  0  0  0
  9 10  1  0  0  0
  9 27  2  0  0  0
 10 11  2  0  0  0
 10 15  1  0  0  0
 11 12  1  0  0  0
 11 94  1  0  0  0
 12 13  2  0  0  0
 12 95  1  0  0  0
 13 14  1  0  0  0
 13 31  1  0  0  0
 14 15  2  0  0  0
 14 96  1  0  0  0
 15 97  1  0  0  0
 16 17  2  0  0  0
 16 21  1  0  0  0
 16 31  1  0  0  0
 17 18  1  0  0  0
 17 98  1  0  0  0
 18 19  2  0  0  0
 18 99  1  0  0  0
 19 20  1  0  0  0
 19 24  1  0  0  0
 20 21  2  0  0  0
 20100  1  0  0  0
 21 23  1  0  0  0
 22 28  1  0  0  0
 22 32  2  0  0  0
 26 27  1  0  0  0
 28101  1  0  0  0
 28102  1  0  0  0
 29103  1  0  0  0
 29104  1  0  0  0
 33 34  1  0  0  0
 33 66  1  0  0  0
 33 70  2  0  0  0
 34 36  1  0  0  0
 34 59  1  0  0  0
 34105  1  0  0  0
 35 44  2  0  0  0
 35 45  1  0  0  0
 35 68  1  0  0  0
 36 56  1  0  0  0
 36106  1  0  0  0
 37 39  1  0  0  0
 37 47  1  0  0  0
 37 66  1  0  0  0
 37107  1  0  0  0
 38 43  2  0  0  0
 38 46  1  0  0  0
 38 47  1  0  0  0
 39 64  1  0  0  0
 39 67  2  0  0  0
 40 52  1  0  0  0
 40 53  2  0  0  0
 40 58  1  0  0  0
 41108  1  0  0  0
 41109  1  0  0  0
 41110  1  0  0  0
 41 48  1  0  0  0
 42 43  1  0  0  0
 42 66  1  0  0  0
 42111  1  0  0  0
 42112  1  0  0  0
 43 44  1  0  0  0
 44113  1  0  0  0
 45 46  2  0  0  0
 45114  1  0  0  0
 46115  1  0  0  0
 47116  1  0  0  0
 47117  1  0  0  0
 48 56  1  0  0  0
 48 65  1  0  0  0
 48118  1  0  0  0
 49 50  1  0  0  0
 49 53  1  0  0  0
 49 64  1  0  0  0
 49119  1  0  0  0
 50 51  1  0  0  0
 50120  1  0  0  0
 50121  1  0  0  0
 51 52  1  0  0  0
 51122  1  0  0  0
 51123  1  0  0  0
 52124  1  0  0  0
 52125  1  0  0  0
 53 54  1  0  0  0
 54 55  2  0  0  0
 54126  1  0  0  0
 55 57  1  0  0  0
 55127  1  0  0  0
 56 69  2  0  0  0
 57 58  2  0  0  0
 57128  1  0  0  0
 58129  1  0  0  0
 59 60  1  0  0  0
 59 61  1  0  0  0
 59 62  1  0  0  0
 60130  1  0  0  0
 60131  1  0  0  0
 60132  1  0  0  0
 61133  1  0  0  0
 61134  1  0  0  0
 61135  1  0  0  0
 62136  1  0  0  0
 62137  1  0  0  0
 62138  1  0  0  0
 63 65  1  0  0  0
 63139  1  0  0  0
 63140  1  0  0  0
 63141  1  0  0  0
 64142  1  0  0  0
 65143  1  0  0  0
 68 80  1  0  0  0
 71 72  2  0  0  0
 71 74  1  0  0  0
 71144  1  0  0  0
 72 75  1  0  0  0
 72145  1  0  0  0
 73 75  2  0  0  0
 73 76  1  0  0  0
 73146  1  0  0  0
 74 76  2  0  0  0
 74 79  1  0  0  0
 75 82  1  0  0  0
 76 84  1  0  0  0
 77 78  2  0  0  0
 77 80  1  0  0  0
 77147  1  0  0  0
 78148  1  0  0  0
 78 84  1  0  0  0
 79149  1  0  0  0
 79150  1  0  0  0
 79151  1  0  0  0
 80152  1  0  0  0
 80153  1  0  0  0
 81 84  2  0  0  0
 81154  1  0  0  0
 82155  1  0  0  0
 83 84  2  0  0  0
M  ISO  4   1 100  68 101  80 101  82 100
M  END
> <chiral flag>
0

> <version>
0

> <s_m_source_file>
/data/baiqing/PycharmProjects/Reinvent-master-3.2/result/LINK_invent/BTK/process_docking_weight1_custom_product_contain_oxygen_bond_distance_aromatic_linkinvent_7_9_3/rearranged_h_0061.sdf

> <i_m_source_file_index>
61

> <r_mmod_Potential_Energy-OPLS-2005>
-19.1380481719971

> <r_mmod_Stretch_Energy-OPLS-2005>
89.2807769775391

> <r_mmod_Bend_Energy-OPLS-2005>
151.662979125977

> <r_mmod_Torsional_Energy-OPLS-2005>
201.841888427734

> <r_mmod_Improper_Torsional_Energy-OPLS-2005>
5.90282344818115

> <r_mmod_Van_der_Waal_Energy-OPLS-2005>
144.105529785156

> <r_mmod_Electrostatic_Energy-OPLS-2005>
-407.686248779297

> <r_mmod_Solvation_Energy-OPLS-2005>
-255.959106445312

> <b_mmod_Minimization_Converged-OPLS-2005>
0

> <r_mmod_RMS_Derivative-OPLS-2005>
0.6607825756073

$$$$
62
                    3D
 Structure written by MMmdl.
157165  0  0  1  0            999 V2000
  -30.6782  -14.5792   20.5322 C   0  0  0  0  0  0
  -30.4198  -12.3667   19.4407 C   0  0  0  0  0  0
  -29.4940  -12.4885   18.2123 C   0  0  0  0  0  0
  -28.0184  -12.3388   18.6307 C   0  0  0  0  0  0
  -27.6486  -13.2154   19.8562 C   0  0  2  0  0  0
  -28.6926  -13.0792   20.9865 C   0  0  0  0  0  0
  -25.2554  -13.8193   20.5690 C   0  0  0  0  0  0
  -24.1819  -13.0454   20.9204 C   0  0  0  0  0  0
  -24.6397  -11.6928   20.8763 C   0  0  0  0  0  0
  -23.9068  -10.4305   21.0423 C   0  0  0  0  0  0
  -24.3617   -9.4226   21.9203 C   0  0  0  0  0  0
  -23.6293   -8.2251   22.0762 C   0  0  0  0  0  0
  -22.4274   -8.0294   21.3556 C   0  0  0  0  0  0
  -21.9922   -9.0269   20.4645 C   0  0  0  0  0  0
  -22.7245  -10.2160   20.3071 C   0  0  0  0  0  0
  -21.6852   -6.0766   22.5281 C   0  0  0  0  0  0
  -21.4000   -6.5656   23.8215 C   0  0  0  0  0  0
  -21.3654   -5.6803   24.9175 C   0  0  0  0  0  0
  -21.6040   -4.3065   24.7217 C   0  0  0  0  0  0
  -21.8823   -3.8168   23.4333 C   0  0  0  0  0  0
  -21.9185   -4.6985   22.3395 C   0  0  0  0  0  0
  -22.7850  -13.5258   21.1859 C   0  0  0  0  0  0
  -22.1665   -4.2172   21.0972 F   0  0  0  0  0  0
  -21.5628   -3.4539   25.7733 F   0  0  0  0  0  0
  -30.0054  -13.3964   20.4131 N   0  0  0  0  0  0
  -26.2961  -12.9359   20.3291 N   0  0  0  0  0  0
  -25.9309  -11.6519   20.5753 N   0  0  0  0  0  0
  -22.0469  -12.8248   22.0399 N   0  0  0  0  0  0
  -25.4275  -15.1903   20.4076 N   0  0  0  0  0  0
  -31.8421  -14.6875   20.1352 O   0  0  0  0  0  0
  -21.6635   -6.8901   21.4245 O   0  0  0  0  0  0
  -22.3543  -14.5569   20.6707 O   0  0  0  0  0  0
  -24.6218  -31.8646   23.2081 C   0  0  0  0  0  0
  -25.9080  -32.4817   23.8395 C   0  0  1  0  0  0
  -27.2286  -27.3624   20.0932 C   0  0  0  0  0  0
  -25.5886  -33.8604   24.2329 N   0  0  0  0  0  0
  -23.4138  -30.4891   21.5452 C   0  0  2  0  0  0
  -24.8621  -28.9464   20.1124 C   0  0  0  0  0  0
  -22.7464  -29.4637   22.4922 C   0  0  0  0  0  0
  -18.0287  -28.1355   22.8454 C   0  0  0  0  0  0
  -24.1503  -36.7326   23.2633 C   0  0  0  0  0  0
  -25.9518  -30.8052   21.3751 C   0  0  0  0  0  0
  -26.0267  -29.4344   20.7168 C   0  0  0  0  0  0
  -27.2092  -28.6464   20.7089 C   0  0  0  0  0  0
  -26.0361  -26.9049   19.4883 C   0  0  0  0  0  0
  -24.8653  -27.6843   19.4960 C   0  0  0  0  0  0
  -23.6312  -29.8266   20.1586 C   0  0  0  0  0  0
  -25.4120  -36.3113   24.0332 C   0  0  1  0  0  0
  -20.5881  -28.3659   23.1288 C   0  0  2  0  0  0
  -20.6778  -26.9378   22.5395 C   0  0  0  0  0  0
  -19.5755  -26.6365   21.5173 C   0  0  0  0  0  0
  -18.1934  -26.7890   22.1593 C   0  0  0  0  0  0
  -19.1534  -28.8817   23.2877 C   0  0  0  0  0  0
  -18.9464  -30.1416   23.8905 C   0  0  0  0  0  0
  -17.6471  -30.6573   24.0530 C   0  0  0  0  0  0
  -25.9026  -34.9467   23.5141 C   0  0  0  0  0  0
  -16.5355  -29.9072   23.6294 C   0  0  0  0  0  0
  -16.7273  -28.6484   23.0319 C   0  0  0  0  0  0
  -26.4478  -31.6610   25.0752 C   0  0  0  0  0  0
  -25.3696  -31.3685   26.1469 C   0  0  0  0  0  0
  -27.0318  -30.3039   24.6171 C   0  0  0  0  0  0
  -27.6071  -32.4316   25.7512 C   0  0  0  0  0  0
  -27.5609  -37.1822   24.8459 C   0  0  0  0  0  0
  -21.4172  -29.3054   22.3708 N   0  0  0  0  0  0
  -26.4323  -37.3789   23.9398 N   0  0  0  0  0  0
  -24.6806  -31.0708   22.1000 N   0  0  0  0  0  0
  -23.4240  -28.8160   23.2947 O   0  0  0  0  0  0
  -28.3817  -26.5773   20.1342 O   0  0  0  0  0  0
  -26.5618  -34.8922   22.4724 O   0  0  0  0  0  0
  -23.5387  -32.1400   23.7435 O   0  0  0  0  0  0
  -32.2209  -18.3211   22.3502 C   0  0  0  0  0  0
  -31.7044  -17.0890   21.9255 C   0  0  0  0  0  0
  -29.7412  -18.2297   21.0233 C   0  0  0  0  0  0
  -31.5162  -19.5172   22.1234 C   0  0  0  0  0  0
  -30.4660  -17.0036   21.2504 C   0  0  0  0  0  0
  -30.2630  -19.5013   21.4528 C   0  0  0  0  0  0
  -29.1768  -21.5413   20.3495 C   0  0  0  0  0  0
  -32.1343  -20.8162   22.6279 C   0  0  0  0  0  0
  -29.0945  -23.0921   20.5994 C   0  0  0  0  0  0
  -28.0546  -23.9680   19.7997 C   0  0  0  0  0  0
  -28.5239  -25.3898   19.2944 C   0  0  0  0  0  0
  -29.5683  -20.7757   21.3990 N   0  0  0  0  0  0
  -29.9577  -15.6846   20.8982 N   0  0  0  0  0  0
  -28.8930  -21.0632   19.2483 O   0  0  0  0  0  0
  -31.4629  -12.4695   19.1354 H   0  0  0  0  0  0
  -30.3376  -11.3743   19.8862 H   0  0  0  0  0  0
  -29.7459  -11.7263   17.4745 H   0  0  0  0  0  0
  -29.6442  -13.4506   17.7227 H   0  0  0  0  0  0
  -27.8509  -11.2872   18.8667 H   0  0  0  0  0  0
  -27.3614  -12.5656   17.7905 H   0  0  0  0  0  0
  -27.6663  -14.2505   19.5100 H   0  0  0  0  0  0
  -28.6938  -12.0646   21.3852 H   0  0  0  0  0  0
  -28.4463  -13.7307   21.8264 H   0  0  0  0  0  0
  -25.2762   -9.5699   22.4790 H   0  0  0  0  0  0
  -23.9995   -7.4648   22.7494 H   0  0  0  0  0  0
  -21.0849   -8.8801   19.8941 H   0  0  0  0  0  0
  -22.3706  -10.9713   19.6187 H   0  0  0  0  0  0
  -21.1995   -7.6159   23.9726 H   0  0  0  0  0  0
  -21.1468   -6.0531   25.9083 H   0  0  0  0  0  0
  -22.0604   -2.7625   23.2824 H   0  0  0  0  0  0
  -22.4051  -11.9889   22.4771 H   0  0  0  0  0  0
  -21.1100  -13.1306   22.2604 H   0  0  0  0  0  0
  -24.6626  -15.8468   20.5210 H   0  0  0  0  0  0
  -26.2711  -15.6251   20.0575 H   0  0  0  0  0  0
  -26.7165  -32.5512   23.1161 H   0  0  0  0  0  0
  -24.9970  -33.9739   25.0434 H   0  0  0  0  0  0
  -22.7052  -31.3085   21.4055 H   0  0  0  0  0  0
  -23.3770  -35.9662   23.3281 H   0  0  0  0  0  0
  -24.3546  -36.8941   22.2043 H   0  0  0  0  0  0
  -23.7247  -37.6516   23.6666 H   0  0  0  0  0  0
  -26.0728  -31.5751   20.6125 H   0  0  0  0  0  0
  -26.8361  -30.8594   21.9982 H   0  0  0  0  0  0
  -28.1066  -29.0104   21.1900 H   0  0  0  0  0  0
  -25.9822  -25.9301   19.0269 H   0  0  0  0  0  0
  -23.9652  -27.3028   19.0336 H   0  0  0  0  0  0
  -23.7523  -30.6071   19.4050 H   0  0  0  0  0  0
  -22.7524  -29.2561   19.8524 H   0  0  0  0  0  0
  -25.1293  -36.1981   25.0820 H   0  0  0  0  0  0
  -20.9963  -28.3246   24.1406 H   0  0  0  0  0  0
  -20.5627  -26.2268   23.3595 H   0  0  0  0  0  0
  -21.6664  -26.7403   22.1207 H   0  0  0  0  0  0
  -19.6912  -25.6268   21.1211 H   0  0  0  0  0  0
  -19.6704  -27.3186   20.6708 H   0  0  0  0  0  0
  -17.4183  -26.6594   21.4019 H   0  0  0  0  0  0
  -18.0367  -26.0056   22.9023 H   0  0  0  0  0  0
  -19.7958  -30.7191   24.2336 H   0  0  0  0  0  0
  -17.5033  -31.6255   24.5141 H   0  0  0  0  0  0
  -15.5347  -30.2979   23.7623 H   0  0  0  0  0  0
  -15.8660  -28.0814   22.7021 H   0  0  0  0  0  0
  -24.5926  -30.6987   25.7762 H   0  0  0  0  0  0
  -24.8812  -32.2807   26.4916 H   0  0  0  0  0  0
  -25.8007  -30.8848   27.0247 H   0  0  0  0  0  0
  -26.2886  -29.6792   24.1207 H   0  0  0  0  0  0
  -27.4024  -29.7288   25.4675 H   0  0  0  0  0  0
  -27.8766  -30.4323   23.9390 H   0  0  0  0  0  0
  -27.2741  -33.3644   26.2090 H   0  0  0  0  0  0
  -28.3896  -32.6809   25.0323 H   0  0  0  0  0  0
  -28.0742  -31.8404   26.5399 H   0  0  0  0  0  0
  -28.2613  -38.0148   24.7527 H   0  0  0  0  0  0
  -28.1126  -36.2659   24.6288 H   0  0  0  0  0  0
  -27.2299  -37.1453   25.8856 H   0  0  0  0  0  0
  -20.9338  -29.8836   21.6975 H   0  0  0  0  0  0
  -26.0226  -38.2874   24.1380 H   0  0  0  0  0  0
  -33.1661  -18.3367   22.8743 H   0  0  0  0  0  0
  -32.2760  -16.2009   22.1502 H   0  0  0  0  0  0
  -28.7728  -18.1942   20.5440 H   0  0  0  0  0  0
  -33.1641  -20.6744   22.9607 H   0  0  0  0  0  0
  -31.5702  -21.2122   23.4727 H   0  0  0  0  0  0
  -32.1576  -21.5686   21.8389 H   0  0  0  0  0  0
  -30.0954  -23.4609   20.3745 H   0  0  0  0  0  0
  -28.9574  -23.2833   21.6632 H   0  0  0  0  0  0
  -27.1283  -24.0648   20.3642 H   0  0  0  0  0  0
  -27.7708  -23.4093   18.9070 H   0  0  0  0  0  0
  -28.0551  -25.5897   18.3301 H   0  0  0  0  0  0
  -29.5814  -25.3178   19.0420 H   0  0  0  0  0  0
  -29.7183  -21.3404   22.2232 H   0  0  0  0  0  0
  -28.9612  -15.5496   20.9751 H   0  0  0  0  0  0
  1 25  1  0  0  0
  1 30  2  0  0  0
  1 83  1  0  0  0
  2  3  1  0  0  0
  2 25  1  0  0  0
  2 85  1  0  0  0
  2 86  1  0  0  0
  3  4  1  0  0  0
  3 87  1  0  0  0
  3 88  1  0  0  0
  4  5  1  0  0  0
  4 89  1  0  0  0
  4 90  1  0  0  0
  5  6  1  0  0  0
  5 26  1  0  0  0
  5 91  1  0  0  0
  6 25  1  0  0  0
  6 92  1  0  0  0
  6 93  1  0  0  0
  7  8  2  0  0  0
  7 26  1  0  0  0
  7 29  1  0  0  0
  8  9  1  0  0  0
  8 22  1  0  0  0
  9 10  1  0  0  0
  9 27  2  0  0  0
 10 11  2  0  0  0
 10 15  1  0  0  0
 11 12  1  0  0  0
 11 94  1  0  0  0
 12 13  2  0  0  0
 12 95  1  0  0  0
 13 14  1  0  0  0
 13 31  1  0  0  0
 14 15  2  0  0  0
 14 96  1  0  0  0
 15 97  1  0  0  0
 16 17  2  0  0  0
 16 21  1  0  0  0
 16 31  1  0  0  0
 17 18  1  0  0  0
 17 98  1  0  0  0
 18 19  2  0  0  0
 18 99  1  0  0  0
 19 20  1  0  0  0
 19 24  1  0  0  0
 20 21  2  0  0  0
 20100  1  0  0  0
 21 23  1  0  0  0
 22 28  1  0  0  0
 22 32  2  0  0  0
 26 27  1  0  0  0
 28101  1  0  0  0
 28102  1  0  0  0
 29103  1  0  0  0
 29104  1  0  0  0
 33 34  1  0  0  0
 33 66  1  0  0  0
 33 70  2  0  0  0
 34 36  1  0  0  0
 34 59  1  0  0  0
 34105  1  0  0  0
 35 44  2  0  0  0
 35 45  1  0  0  0
 35 68  1  0  0  0
 36 56  1  0  0  0
 36106  1  0  0  0
 37 39  1  0  0  0
 37 47  1  0  0  0
 37 66  1  0  0  0
 37107  1  0  0  0
 38 43  2  0  0  0
 38 46  1  0  0  0
 38 47  1  0  0  0
 39 64  1  0  0  0
 39 67  2  0  0  0
 40 52  1  0  0  0
 40 53  2  0  0  0
 40 58  1  0  0  0
 41108  1  0  0  0
 41109  1  0  0  0
 41110  1  0  0  0
 41 48  1  0  0  0
 42 43  1  0  0  0
 42 66  1  0  0  0
 42111  1  0  0  0
 42112  1  0  0  0
 43 44  1  0  0  0
 44113  1  0  0  0
 45 46  2  0  0  0
 45114  1  0  0  0
 46115  1  0  0  0
 47116  1  0  0  0
 47117  1  0  0  0
 48 56  1  0  0  0
 48 65  1  0  0  0
 48118  1  0  0  0
 49 50  1  0  0  0
 49 53  1  0  0  0
 49 64  1  0  0  0
 49119  1  0  0  0
 50 51  1  0  0  0
 50120  1  0  0  0
 50121  1  0  0  0
 51 52  1  0  0  0
 51122  1  0  0  0
 51123  1  0  0  0
 52124  1  0  0  0
 52125  1  0  0  0
 53 54  1  0  0  0
 54 55  2  0  0  0
 54126  1  0  0  0
 55 57  1  0  0  0
 55127  1  0  0  0
 56 69  2  0  0  0
 57 58  2  0  0  0
 57128  1  0  0  0
 58129  1  0  0  0
 59 60  1  0  0  0
 59 61  1  0  0  0
 59 62  1  0  0  0
 60130  1  0  0  0
 60131  1  0  0  0
 60132  1  0  0  0
 61133  1  0  0  0
 61134  1  0  0  0
 61135  1  0  0  0
 62136  1  0  0  0
 62137  1  0  0  0
 62138  1  0  0  0
 63 65  1  0  0  0
 63139  1  0  0  0
 63140  1  0  0  0
 63141  1  0  0  0
 64142  1  0  0  0
 65143  1  0  0  0
 68 81  1  0  0  0
 71 72  2  0  0  0
 71 74  1  0  0  0
 71144  1  0  0  0
 72 75  1  0  0  0
 72145  1  0  0  0
 73 75  2  0  0  0
 73 76  1  0  0  0
 73146  1  0  0  0
 74 76  2  0  0  0
 74 78  1  0  0  0
 75 83  1  0  0  0
 76 82  1  0  0  0
 77 79  1  0  0  0
 77 82  1  0  0  0
 77 84  2  0  0  0
 78147  1  0  0  0
 78148  1  0  0  0
 78149  1  0  0  0
 79 80  1  0  0  0
 79150  1  0  0  0
 79151  1  0  0  0
 80 81  1  0  0  0
 80152  1  0  0  0
 80153  1  0  0  0
 81154  1  0  0  0
 81155  1  0  0  0
 82156  1  0  0  0
 83157  1  0  0  0
M  ISO  4   1 100  68 101  81 101  83 100
M  END
> <chiral flag>
0

> <version>
0

> <s_m_source_file>
/data/baiqing/PycharmProjects/Reinvent-master-3.2/result/LINK_invent/BTK/process_docking_weight1_custom_product_contain_oxygen_bond_distance_aromatic_linkinvent_7_9_3/rearranged_h_0061.sdf

> <i_m_source_file_index>
62

> <r_mmod_Potential_Energy-OPLS-2005>
-13.0477952957153

> <r_mmod_Stretch_Energy-OPLS-2005>
66.0539016723633

> <r_mmod_Bend_Energy-OPLS-2005>
141.347045898438

> <r_mmod_Torsional_Energy-OPLS-2005>
251.534240722656

> <r_mmod_Improper_Torsional_Energy-OPLS-2005>
6.97566699981689

> <r_mmod_Van_der_Waal_Energy-OPLS-2005>
149.191589355469

> <r_mmod_Electrostatic_Energy-OPLS-2005>
-428.111572265625

> <r_mmod_Solvation_Energy-OPLS-2005>
-232.091949462891

> <b_mmod_Minimization_Converged-OPLS-2005>
0

> <r_mmod_RMS_Derivative-OPLS-2005>
3.40348958969116

$$$$
63
                    3D
 Structure written by MMmdl.
158167  0  0  1  0            999 V2000
  -30.7047  -14.4974   20.5080 C   0  0  0  0  0  0
  -30.4071  -12.3034   19.4520 C   0  0  0  0  0  0
  -29.5010  -12.5043   18.2210 C   0  0  0  0  0  0
  -28.0175  -12.3723   18.6177 C   0  0  0  0  0  0
  -27.6526  -13.2238   19.8656 C   0  0  2  0  0  0
  -28.6900  -13.0559   21.0002 C   0  0  0  0  0  0
  -25.2534  -13.8204   20.5665 C   0  0  0  0  0  0
  -24.1794  -13.0447   20.9140 C   0  0  0  0  0  0
  -24.6383  -11.6934   20.8709 C   0  0  0  0  0  0
  -23.9081  -10.4302   21.0373 C   0  0  0  0  0  0
  -24.3639   -9.4222   21.9152 C   0  0  0  0  0  0
  -23.6307   -8.2263   22.0731 C   0  0  0  0  0  0
  -22.4289   -8.0279   21.3528 C   0  0  0  0  0  0
  -21.9933   -9.0250   20.4632 C   0  0  0  0  0  0
  -22.7259  -10.2131   20.3025 C   0  0  0  0  0  0
  -21.6875   -6.0720   22.5257 C   0  0  0  0  0  0
  -21.4031   -6.5617   23.8189 C   0  0  0  0  0  0
  -21.3681   -5.6774   24.9158 C   0  0  0  0  0  0
  -21.6057   -4.3032   24.7211 C   0  0  0  0  0  0
  -21.8829   -3.8120   23.4331 C   0  0  0  0  0  0
  -21.9200   -4.6942   22.3388 C   0  0  0  0  0  0
  -22.7813  -13.5221   21.1823 C   0  0  0  0  0  0
  -22.1650   -4.2117   21.0969 F   0  0  0  0  0  0
  -21.5655   -3.4524   25.7735 F   0  0  0  0  0  0
  -30.0235  -13.3205   20.4435 N   0  0  0  0  0  0
  -26.2972  -12.9409   20.3311 N   0  0  0  0  0  0
  -25.9315  -11.6547   20.5730 N   0  0  0  0  0  0
  -22.0492  -12.8202   22.0406 N   0  0  0  0  0  0
  -25.4262  -15.1932   20.4134 N   0  0  0  0  0  0
  -31.8828  -14.5864   20.1597 O   0  0  0  0  0  0
  -21.6663   -6.8866   21.4218 O   0  0  0  0  0  0
  -22.3465  -14.5502   20.6653 O   0  0  0  0  0  0
  -24.6090  -31.8683   23.2120 C   0  0  0  0  0  0
  -25.8976  -32.4834   23.8397 C   0  0  1  0  0  0
  -27.2209  -27.4124   20.1022 C   0  0  0  0  0  0
  -25.5813  -33.8636   24.2298 N   0  0  0  0  0  0
  -23.3985  -30.4868   21.5562 C   0  0  2  0  0  0
  -24.8479  -28.9639   20.1115 C   0  0  0  0  0  0
  -22.7384  -29.4613   22.5056 C   0  0  0  0  0  0
  -18.0216  -28.1332   22.8487 C   0  0  0  0  0  0
  -24.1475  -36.7308   23.2645 C   0  0  0  0  0  0
  -25.9316  -30.8255   21.3757 C   0  0  0  0  0  0
  -26.0096  -29.4630   20.7139 C   0  0  0  0  0  0
  -27.1993  -28.6927   20.7103 C   0  0  0  0  0  0
  -26.0463  -26.9647   19.4492 C   0  0  0  0  0  0
  -24.8624  -27.7159   19.4745 C   0  0  0  0  0  0
  -23.6061  -29.8192   20.1718 C   0  0  0  0  0  0
  -25.4106  -36.3128   24.0339 C   0  0  1  0  0  0
  -20.5806  -28.3580   23.1351 C   0  0  2  0  0  0
  -20.6687  -26.9320   22.5426 C   0  0  0  0  0  0
  -19.5680  -26.6336   21.5202 C   0  0  0  0  0  0
  -18.1865  -26.7869   22.1632 C   0  0  0  0  0  0
  -19.1473  -28.8780   23.2903 C   0  0  0  0  0  0
  -18.9424  -30.1395   23.8898 C   0  0  0  0  0  0
  -17.6438  -30.6567   24.0530 C   0  0  0  0  0  0
  -25.9023  -34.9487   23.5134 C   0  0  0  0  0  0
  -16.5316  -29.9067   23.6325 C   0  0  0  0  0  0
  -16.7217  -28.6469   23.0371 C   0  0  0  0  0  0
  -26.4380  -31.6647   25.0754 C   0  0  0  0  0  0
  -25.3633  -31.3772   26.1504 C   0  0  0  0  0  0
  -27.0191  -30.3069   24.6189 C   0  0  0  0  0  0
  -27.5953  -32.4385   25.7508 C   0  0  0  0  0  0
  -27.5580  -37.1811   24.8453 C   0  0  0  0  0  0
  -21.4114  -29.2974   22.3815 N   0  0  0  0  0  0
  -26.4295  -37.3811   23.9399 N   0  0  0  0  0  0
  -24.6638  -31.0729   22.1052 N   0  0  0  0  0  0
  -23.4171  -28.8153   23.3089 O   0  0  0  0  0  0
  -28.3602  -26.6241   20.1769 O   0  0  0  0  0  0
  -26.5606  -34.8933   22.4709 O   0  0  0  0  0  0
  -23.5295  -32.1452   23.7508 O   0  0  0  0  0  0
  -30.3398  -19.4780   19.0054 C   0  0  0  0  0  0
  -30.9118  -17.1189   19.0414 C   0  0  0  0  0  0
  -29.4857  -18.0424   20.7894 C   0  0  0  0  0  0
  -31.0205  -18.3862   18.4462 C   0  0  0  0  0  0
  -29.5659  -19.3315   20.1790 C   0  0  0  0  0  0
  -30.1469  -16.9173   20.2213 C   0  0  0  0  0  0
  -28.6803  -22.8255   20.9005 C   0  0  0  0  0  0
  -29.4861  -21.7659   20.7506 C   0  0  0  0  0  0
  -27.4974  -20.5833   20.7936 C   0  0  0  0  0  0
  -31.8565  -18.5734   17.1932 C   0  0  0  0  0  0
  -29.0369  -24.3179   20.9750 C   0  0  0  0  0  0
  -28.1833  -25.1953   20.0250 C   0  0  0  0  0  0
  -28.8608  -20.4964   20.6709 N   0  0  0  0  0  0
  -29.9732  -15.6027   20.7905 N   0  0  0  0  0  0
  -30.8289  -21.7860   20.7207 O   0  0  0  0  0  0
  -26.3389  -19.3740   20.7074 S   0  0  0  0  0  0
  -27.0252  -22.2639   21.0096 S   0  0  0  0  0  0
  -31.4578  -12.3709   19.1655 H   0  0  0  0  0  0
  -30.2700  -11.3039   19.8665 H   0  0  0  0  0  0
  -29.7478  -11.7788   17.4443 H   0  0  0  0  0  0
  -29.6793  -13.4905   17.7894 H   0  0  0  0  0  0
  -27.8211  -11.3182   18.8125 H   0  0  0  0  0  0
  -27.3801  -12.6481   17.7765 H   0  0  0  0  0  0
  -27.6803  -14.2671   19.5463 H   0  0  0  0  0  0
  -28.6550  -12.0469   21.4137 H   0  0  0  0  0  0
  -28.4620  -13.7320   21.8274 H   0  0  0  0  0  0
  -25.2776   -9.5688   22.4725 H   0  0  0  0  0  0
  -24.0005   -7.4664   22.7458 H   0  0  0  0  0  0
  -21.0856   -8.8767   19.8954 H   0  0  0  0  0  0
  -22.3695  -10.9661   19.6130 H   0  0  0  0  0  0
  -21.2012   -7.6121   23.9674 H   0  0  0  0  0  0
  -21.1505   -6.0508   25.9065 H   0  0  0  0  0  0
  -22.0591   -2.7580   23.2843 H   0  0  0  0  0  0
  -22.4150  -11.9899   22.4830 H   0  0  0  0  0  0
  -21.1098  -13.1170   22.2613 H   0  0  0  0  0  0
  -24.6729  -15.8591   20.5426 H   0  0  0  0  0  0
  -26.2936  -15.6401   20.1449 H   0  0  0  0  0  0
  -26.7037  -32.5528   23.1155 H   0  0  0  0  0  0
  -24.9832  -33.9779   25.0351 H   0  0  0  0  0  0
  -22.6857  -31.3024   21.4155 H   0  0  0  0  0  0
  -23.3770  -35.9609   23.3326 H   0  0  0  0  0  0
  -24.3563  -36.8911   22.2057 H   0  0  0  0  0  0
  -23.7211  -37.6511   23.6650 H   0  0  0  0  0  0
  -26.0561  -31.6048   20.6217 H   0  0  0  0  0  0
  -26.8137  -30.8670   22.0031 H   0  0  0  0  0  0
  -28.0903  -29.0639   21.1982 H   0  0  0  0  0  0
  -26.0138  -26.0278   18.9136 H   0  0  0  0  0  0
  -23.9715  -27.3364   18.9920 H   0  0  0  0  0  0
  -23.6960  -30.5884   19.4055 H   0  0  0  0  0  0
  -22.7362  -29.2214   19.8914 H   0  0  0  0  0  0
  -25.1315  -36.1990   25.0845 H   0  0  0  0  0  0
  -20.9837  -28.3075   24.1492 H   0  0  0  0  0  0
  -20.5500  -26.2175   23.3596 H   0  0  0  0  0  0
  -21.6567  -26.7313   22.1267 H   0  0  0  0  0  0
  -19.6827  -25.6248   21.1226 H   0  0  0  0  0  0
  -19.6630  -27.3147   20.6737 H   0  0  0  0  0  0
  -17.4117  -26.6572   21.4075 H   0  0  0  0  0  0
  -18.0298  -26.0017   22.9042 H   0  0  0  0  0  0
  -19.7920  -30.7174   24.2297 H   0  0  0  0  0  0
  -17.5022  -31.6275   24.5081 H   0  0  0  0  0  0
  -15.5327  -30.2987   23.7665 H   0  0  0  0  0  0
  -15.8599  -28.0796   22.7128 H   0  0  0  0  0  0
  -24.5768  -30.7158   25.7841 H   0  0  0  0  0  0
  -24.8848  -32.2934   26.4987 H   0  0  0  0  0  0
  -25.7963  -30.8906   27.0252 H   0  0  0  0  0  0
  -26.2753  -29.6915   24.1111 H   0  0  0  0  0  0
  -27.3751  -29.7250   25.4703 H   0  0  0  0  0  0
  -27.8691  -30.4362   23.9485 H   0  0  0  0  0  0
  -27.2542  -33.3667   26.2119 H   0  0  0  0  0  0
  -28.3727  -32.7004   25.0313 H   0  0  0  0  0  0
  -28.0653  -31.8501   26.5403 H   0  0  0  0  0  0
  -28.2617  -38.0096   24.7533 H   0  0  0  0  0  0
  -28.1066  -36.2638   24.6269 H   0  0  0  0  0  0
  -27.2268  -37.1441   25.8844 H   0  0  0  0  0  0
  -20.9255  -29.8761   21.7108 H   0  0  0  0  0  0
  -26.0196  -38.2882   24.1459 H   0  0  0  0  0  0
  -30.4027  -20.4450   18.5219 H   0  0  0  0  0  0
  -31.4226  -16.3019   18.5529 H   0  0  0  0  0  0
  -28.8881  -17.9136   21.6830 H   0  0  0  0  0  0
  -32.2123  -19.6006   17.1074 H   0  0  0  0  0  0
  -31.2671  -18.3452   16.3057 H   0  0  0  0  0  0
  -32.7302  -17.9199   17.2011 H   0  0  0  0  0  0
  -30.0968  -24.4592   20.7651 H   0  0  0  0  0  0
  -28.8766  -24.6319   22.0072 H   0  0  0  0  0  0
  -27.1571  -24.8961   20.2304 H   0  0  0  0  0  0
  -28.3829  -24.9348   18.9837 H   0  0  0  0  0  0
  -29.0959  -15.4388   21.2604 H   0  0  0  0  0  0
  -31.1085  -22.6856   20.8292 H   0  0  0  0  0  0
  1 25  1  0  0  0
  1 30  2  0  0  0
  1 84  1  0  0  0
  2  3  1  0  0  0
  2 25  1  0  0  0
  2 88  1  0  0  0
  2 89  1  0  0  0
  3  4  1  0  0  0
  3 90  1  0  0  0
  3 91  1  0  0  0
  4  5  1  0  0  0
  4 92  1  0  0  0
  4 93  1  0  0  0
  5  6  1  0  0  0
  5 26  1  0  0  0
  5 94  1  0  0  0
  6 25  1  0  0  0
  6 95  1  0  0  0
  6 96  1  0  0  0
  7  8  2  0  0  0
  7 26  1  0  0  0
  7 29  1  0  0  0
  8  9  1  0  0  0
  8 22  1  0  0  0
  9 10  1  0  0  0
  9 27  2  0  0  0
 10 11  2  0  0  0
 10 15  1  0  0  0
 11 12  1  0  0  0
 11 97  1  0  0  0
 12 13  2  0  0  0
 12 98  1  0  0  0
 13 14  1  0  0  0
 13 31  1  0  0  0
 14 15  2  0  0  0
 14 99  1  0  0  0
 15100  1  0  0  0
 16 17  2  0  0  0
 16 21  1  0  0  0
 16 31  1  0  0  0
 17 18  1  0  0  0
 17101  1  0  0  0
 18 19  2  0  0  0
 18102  1  0  0  0
 19 20  1  0  0  0
 19 24  1  0  0  0
 20 21  2  0  0  0
 20103  1  0  0  0
 21 23  1  0  0  0
 22 28  1  0  0  0
 22 32  2  0  0  0
 26 27  1  0  0  0
 28104  1  0  0  0
 28105  1  0  0  0
 29106  1  0  0  0
 29107  1  0  0  0
 33 34  1  0  0  0
 33 66  1  0  0  0
 33 70  2  0  0  0
 34 36  1  0  0  0
 34 59  1  0  0  0
 34108  1  0  0  0
 35 44  2  0  0  0
 35 45  1  0  0  0
 35 68  1  0  0  0
 36 56  1  0  0  0
 36109  1  0  0  0
 37 39  1  0  0  0
 37 47  1  0  0  0
 37 66  1  0  0  0
 37110  1  0  0  0
 38 43  2  0  0  0
 38 46  1  0  0  0
 38 47  1  0  0  0
 39 64  1  0  0  0
 39 67  2  0  0  0
 40 52  1  0  0  0
 40 53  2  0  0  0
 40 58  1  0  0  0
 41111  1  0  0  0
 41112  1  0  0  0
 41113  1  0  0  0
 41 48  1  0  0  0
 42 43  1  0  0  0
 42 66  1  0  0  0
 42114  1  0  0  0
 42115  1  0  0  0
 43 44  1  0  0  0
 44116  1  0  0  0
 45 46  2  0  0  0
 45117  1  0  0  0
 46118  1  0  0  0
 47119  1  0  0  0
 47120  1  0  0  0
 48 56  1  0  0  0
 48 65  1  0  0  0
 48121  1  0  0  0
 49 50  1  0  0  0
 49 53  1  0  0  0
 49 64  1  0  0  0
 49122  1  0  0  0
 50 51  1  0  0  0
 50123  1  0  0  0
 50124  1  0  0  0
 51 52  1  0  0  0
 51125  1  0  0  0
 51126  1  0  0  0
 52127  1  0  0  0
 52128  1  0  0  0
 53 54  1  0  0  0
 54 55  2  0  0  0
 54129  1  0  0  0
 55 57  1  0  0  0
 55130  1  0  0  0
 56 69  2  0  0  0
 57 58  2  0  0  0
 57131  1  0  0  0
 58132  1  0  0  0
 59 60  1  0  0  0
 59 61  1  0  0  0
 59 62  1  0  0  0
 60133  1  0  0  0
 60134  1  0  0  0
 60135  1  0  0  0
 61136  1  0  0  0
 61137  1  0  0  0
 61138  1  0  0  0
 62139  1  0  0  0
 62140  1  0  0  0
 62141  1  0  0  0
 63 65  1  0  0  0
 63142  1  0  0  0
 63143  1  0  0  0
 63144  1  0  0  0
 64145  1  0  0  0
 65146  1  0  0  0
 68 82  1  0  0  0
 71 74  2  0  0  0
 71 75  1  0  0  0
 71147  1  0  0  0
 72 74  1  0  0  0
 72 76  2  0  0  0
 72148  1  0  0  0
 73 75  2  0  0  0
 73 76  1  0  0  0
 73149  1  0  0  0
 74 80  1  0  0  0
 75 83  1  0  0  0
 76 84  1  0  0  0
 77 78  2  0  0  0
 77 81  1  0  0  0
 77 87  1  0  0  0
 78 83  1  0  0  0
 78 85  1  0  0  0
 79 83  1  0  0  0
 79 86  2  0  0  0
 79 87  1  0  0  0
 80150  1  0  0  0
 80151  1  0  0  0
 80152  1  0  0  0
 81 82  1  0  0  0
 81153  1  0  0  0
 81154  1  0  0  0
 82155  1  0  0  0
 82156  1  0  0  0
 84157  1  0  0  0
 85158  1  0  0  0
M  ISO  4   1 100  68 101  82 101  84 100
M  END
> <chiral flag>
0

> <version>
0

> <s_m_source_file>
/data/baiqing/PycharmProjects/Reinvent-master-3.2/result/LINK_invent/BTK/process_docking_weight1_custom_product_contain_oxygen_bond_distance_aromatic_linkinvent_7_9_3/rearranged_h_0061.sdf

> <i_m_source_file_index>
63

> <r_mmod_Potential_Energy-OPLS-2005>
136.917037963867

> <r_mmod_Stretch_Energy-OPLS-2005>
47.9269866943359

> <r_mmod_Bend_Energy-OPLS-2005>
146.151123046875

> <r_mmod_Torsional_Energy-OPLS-2005>
254.790390014648

> <r_mmod_Improper_Torsional_Energy-OPLS-2005>
5.6784782409668

> <r_mmod_Van_der_Waal_Energy-OPLS-2005>
171.990524291992

> <r_mmod_Electrostatic_Energy-OPLS-2005>
-294.083557128906

> <r_mmod_Solvation_Energy-OPLS-2005>
-219.273864746094

> <b_mmod_Minimization_Converged-OPLS-2005>
0

> <r_mmod_RMS_Derivative-OPLS-2005>
3.17711639404297

$$$$
64
                    3D
 Structure written by MMmdl.
167176  0  0  1  0            999 V2000
  -30.6628  -14.5288   20.5821 C   0  0  0  0  0  0
  -30.4382  -12.3441   19.4304 C   0  0  0  0  0  0
  -29.5038  -12.5177   18.2130 C   0  0  0  0  0  0
  -28.0251  -12.3650   18.6225 C   0  0  0  0  0  0
  -27.6635  -13.2048   19.8762 C   0  0  2  0  0  0
  -28.7043  -12.9852   20.9978 C   0  0  0  0  0  0
  -25.2590  -13.8129   20.5667 C   0  0  0  0  0  0
  -24.1841  -13.0421   20.9181 C   0  0  0  0  0  0
  -24.6388  -11.6887   20.8728 C   0  0  0  0  0  0
  -23.9047  -10.4285   21.0407 C   0  0  0  0  0  0
  -24.3605   -9.4203   21.9182 C   0  0  0  0  0  0
  -23.6288   -8.2232   22.0745 C   0  0  0  0  0  0
  -22.4270   -8.0273   21.3537 C   0  0  0  0  0  0
  -21.9898   -9.0248   20.4640 C   0  0  0  0  0  0
  -22.7217  -10.2130   20.3052 C   0  0  0  0  0  0
  -21.6850   -6.0728   22.5277 C   0  0  0  0  0  0
  -21.4006   -6.5628   23.8209 C   0  0  0  0  0  0
  -21.3657   -5.6784   24.9175 C   0  0  0  0  0  0
  -21.6047   -4.3048   24.7226 C   0  0  0  0  0  0
  -21.8823   -3.8138   23.4347 C   0  0  0  0  0  0
  -21.9194   -4.6956   22.3403 C   0  0  0  0  0  0
  -22.7867  -13.5231   21.1850 C   0  0  0  0  0  0
  -22.1666   -4.2140   21.0982 F   0  0  0  0  0  0
  -21.5632   -3.4531   25.7739 F   0  0  0  0  0  0
  -30.0339  -13.3225   20.4566 N   0  0  0  0  0  0
  -26.3029  -12.9298   20.3343 N   0  0  0  0  0  0
  -25.9317  -11.6462   20.5746 N   0  0  0  0  0  0
  -22.0499  -12.8237   22.0414 N   0  0  0  0  0  0
  -25.4327  -15.1826   20.4044 N   0  0  0  0  0  0
  -31.7682  -14.7457   20.0787 O   0  0  0  0  0  0
  -21.6630   -6.8871   21.4241 O   0  0  0  0  0  0
  -22.3547  -14.5531   20.6688 O   0  0  0  0  0  0
  -24.6167  -31.8654   23.2081 C   0  0  0  0  0  0
  -25.9044  -32.4816   23.8391 C   0  0  1  0  0  0
  -27.2372  -27.4111   20.1037 C   0  0  0  0  0  0
  -25.5893  -33.8616   24.2316 N   0  0  0  0  0  0
  -23.4083  -30.4870   21.5483 C   0  0  2  0  0  0
  -24.8597  -28.9522   20.1129 C   0  0  0  0  0  0
  -22.7432  -29.4632   22.4973 C   0  0  0  0  0  0
  -18.0268  -28.1386   22.8484 C   0  0  0  0  0  0
  -24.1482  -36.7300   23.2637 C   0  0  0  0  0  0
  -25.9405  -30.8251   21.3666 C   0  0  0  0  0  0
  -26.0214  -29.4582   20.7111 C   0  0  0  0  0  0
  -27.2166  -28.6960   20.7023 C   0  0  0  0  0  0
  -26.0614  -26.9285   19.4932 C   0  0  0  0  0  0
  -24.8757  -27.6876   19.4988 C   0  0  0  0  0  0
  -23.6201  -29.8185   20.1634 C   0  0  0  0  0  0
  -25.4104  -36.3103   24.0334 C   0  0  1  0  0  0
  -20.5862  -28.3662   23.1323 C   0  0  2  0  0  0
  -20.6755  -26.9396   22.5426 C   0  0  0  0  0  0
  -19.5746  -26.6386   21.5210 C   0  0  0  0  0  0
  -18.1917  -26.7931   22.1609 C   0  0  0  0  0  0
  -19.1517  -28.8838   23.2899 C   0  0  0  0  0  0
  -18.9445  -30.1442   23.8913 C   0  0  0  0  0  0
  -17.6450  -30.6590   24.0561 C   0  0  0  0  0  0
  -25.9036  -34.9471   23.5123 C   0  0  0  0  0  0
  -16.5340  -29.9094   23.6329 C   0  0  0  0  0  0
  -16.7254  -28.6511   23.0346 C   0  0  0  0  0  0
  -26.4457  -31.6608   25.0732 C   0  0  0  0  0  0
  -25.3708  -31.3745   26.1474 C   0  0  0  0  0  0
  -27.0275  -30.3038   24.6136 C   0  0  0  0  0  0
  -27.6040  -32.4325   25.7484 C   0  0  0  0  0  0
  -27.5584  -37.1791   24.8451 C   0  0  0  0  0  0
  -21.4151  -29.3023   22.3725 N   0  0  0  0  0  0
  -26.4282  -37.3797   23.9419 N   0  0  0  0  0  0
  -24.6732  -31.0739   22.0989 N   0  0  0  0  0  0
  -23.4196  -28.8173   23.3021 O   0  0  0  0  0  0
  -28.3593  -26.6030   20.1238 O   0  0  0  0  0  0
  -26.5606  -34.8925   22.4690 O   0  0  0  0  0  0
  -23.5349  -32.1402   23.7461 O   0  0  0  0  0  0
  -30.7970  -19.2081   21.0965 C   0  0  0  0  0  0
  -28.6346  -17.4817   20.7710 C   0  0  0  0  0  0
  -30.9861  -17.8055   21.2384 C   0  0  0  0  0  0
  -29.5351  -19.7821   20.7898 C   0  0  0  0  0  0
  -29.8979  -16.9099   21.0423 C   0  0  0  0  0  0
  -28.4351  -18.8810   20.6610 C   0  0  0  0  0  0
  -29.1156  -21.8792   19.5556 C   0  0  0  0  0  0
  -28.6718  -23.3707   19.5826 C   0  0  0  0  0  0
  -29.0832  -23.3326   22.0603 C   0  0  0  0  0  0
  -29.8588  -22.0130   21.8738 C   0  0  0  0  0  0
  -29.1149  -24.2229   20.8015 C   0  0  2  0  0  0
  -32.3601  -17.3113   21.6523 C   0  0  0  0  0  0
  -26.4599  -19.1534   18.5946 C   0  0  0  0  0  0
  -28.2328  -25.4944   21.0432 C   0  0  0  0  0  0
  -29.4121  -21.2260   20.7140 N   0  0  0  0  0  0
  -29.9455  -15.4788   21.2342 N   0  0  0  0  0  0
  -29.1295  -21.3037   18.4637 O   0  0  0  0  0  0
  -25.8384  -18.4199   21.0701 O   0  0  0  0  0  0
  -26.5318  -20.8114   20.6917 O   0  0  0  0  0  0
  -26.7157  -19.3835   20.3831 S   0  0  0  0  0  0
  -31.4792  -12.4681   19.1259 H   0  0  0  0  0  0
  -30.3652  -11.3310   19.8287 H   0  0  0  0  0  0
  -29.7539  -11.7899   17.4398 H   0  0  0  0  0  0
  -29.6615  -13.5011   17.7686 H   0  0  0  0  0  0
  -27.8432  -11.3082   18.8219 H   0  0  0  0  0  0
  -27.3741  -12.6325   17.7891 H   0  0  0  0  0  0
  -27.7070  -14.2526   19.5783 H   0  0  0  0  0  0
  -28.6958  -11.9419   21.3183 H   0  0  0  0  0  0
  -28.4479  -13.5597   21.8886 H   0  0  0  0  0  0
  -25.2757   -9.5681   22.4743 H   0  0  0  0  0  0
  -24.0000   -7.4622   22.7459 H   0  0  0  0  0  0
  -21.0824   -8.8768   19.8953 H   0  0  0  0  0  0
  -22.3679  -10.9668   19.6156 H   0  0  0  0  0  0
  -21.1987   -7.6135   23.9708 H   0  0  0  0  0  0
  -21.1477   -6.0513   25.9077 H   0  0  0  0  0  0
  -22.0604   -2.7600   23.2848 H   0  0  0  0  0  0
  -22.4098  -11.9906   22.4831 H   0  0  0  0  0  0
  -21.1118  -13.1275   22.2604 H   0  0  0  0  0  0
  -24.6867  -15.8541   20.5507 H   0  0  0  0  0  0
  -26.2810  -15.6098   20.0633 H   0  0  0  0  0  0
  -26.7122  -32.5527   23.1166 H   0  0  0  0  0  0
  -25.0031  -33.9784   25.0450 H   0  0  0  0  0  0
  -22.6972  -31.3036   21.4075 H   0  0  0  0  0  0
  -23.3758  -35.9619   23.3287 H   0  0  0  0  0  0
  -24.3579  -36.8930   22.2054 H   0  0  0  0  0  0
  -23.7217  -37.6492   23.6661 H   0  0  0  0  0  0
  -26.0588  -31.5936   20.6015 H   0  0  0  0  0  0
  -26.8258  -30.8767   21.9887 H   0  0  0  0  0  0
  -28.1121  -29.0758   21.1741 H   0  0  0  0  0  0
  -26.0600  -25.9529   19.0271 H   0  0  0  0  0  0
  -23.9829  -27.2930   19.0342 H   0  0  0  0  0  0
  -23.7268  -30.5920   19.4018 H   0  0  0  0  0  0
  -22.7456  -29.2356   19.8688 H   0  0  0  0  0  0
  -25.1279  -36.1958   25.0824 H   0  0  0  0  0  0
  -20.9948  -28.3222   24.1447 H   0  0  0  0  0  0
  -20.5649  -26.2262   23.3607 H   0  0  0  0  0  0
  -21.6630  -26.7434   22.1234 H   0  0  0  0  0  0
  -19.6909  -25.6297   21.1238 H   0  0  0  0  0  0
  -19.6709  -27.3195   20.6743 H   0  0  0  0  0  0
  -17.4195  -26.6682   21.4001 H   0  0  0  0  0  0
  -18.0309  -26.0075   22.9004 H   0  0  0  0  0  0
  -19.7922  -30.7242   24.2307 H   0  0  0  0  0  0
  -17.5009  -31.6276   24.5157 H   0  0  0  0  0  0
  -15.5340  -30.3002   23.7655 H   0  0  0  0  0  0
  -15.8649  -28.0842   22.7059 H   0  0  0  0  0  0
  -24.5882  -30.7091   25.7814 H   0  0  0  0  0  0
  -24.8895  -32.2915   26.4889 H   0  0  0  0  0  0
  -25.8043  -30.8938   27.0253 H   0  0  0  0  0  0
  -26.2828  -29.6830   24.1143 H   0  0  0  0  0  0
  -27.3965  -29.7257   25.4619 H   0  0  0  0  0  0
  -27.8703  -30.4337   23.9343 H   0  0  0  0  0  0
  -27.2663  -33.3610   26.2104 H   0  0  0  0  0  0
  -28.3818  -32.6914   25.0287 H   0  0  0  0  0  0
  -28.0744  -31.8425   26.5361 H   0  0  0  0  0  0
  -28.2580  -38.0111   24.7542 H   0  0  0  0  0  0
  -28.1099  -36.2647   24.6207 H   0  0  0  0  0  0
  -27.2317  -37.1363   25.8856 H   0  0  0  0  0  0
  -20.9313  -29.8738   21.6940 H   0  0  0  0  0  0
  -26.0165  -38.2864   24.1465 H   0  0  0  0  0  0
  -31.6423  -19.8654   21.2480 H   0  0  0  0  0  0
  -27.7738  -16.8386   20.6715 H   0  0  0  0  0  0
  -27.5824  -23.3577   19.5396 H   0  0  0  0  0  0
  -29.0011  -23.8567   18.6639 H   0  0  0  0  0  0
  -29.4959  -23.8764   22.9116 H   0  0  0  0  0  0
  -28.0489  -23.1015   22.3200 H   0  0  0  0  0  0
  -29.7667  -21.4128   22.7799 H   0  0  0  0  0  0
  -30.9221  -22.2280   21.7563 H   0  0  0  0  0  0
  -30.1450  -24.5456   20.6421 H   0  0  0  0  0  0
  -32.9059  -18.0831   22.1957 H   0  0  0  0  0  0
  -32.9456  -17.0427   20.7733 H   0  0  0  0  0  0
  -32.2913  -16.4422   22.3066 H   0  0  0  0  0  0
  -26.6892  -18.1234   18.3323 H   0  0  0  0  0  0
  -27.1190  -19.8170   18.0423 H   0  0  0  0  0  0
  -25.4255  -19.3746   18.3460 H   0  0  0  0  0  0
  -28.4837  -25.9034   22.0234 H   0  0  0  0  0  0
  -27.1945  -25.1698   21.1323 H   0  0  0  0  0  0
  -29.0966  -15.0870   21.6119 H   0  0  0  0  0  0
  1 25  1  0  0  0
  1 30  2  0  0  0
  1 86  1  0  0  0
  2  3  1  0  0  0
  2 25  1  0  0  0
  2 91  1  0  0  0
  2 92  1  0  0  0
  3  4  1  0  0  0
  3 93  1  0  0  0
  3 94  1  0  0  0
  4  5  1  0  0  0
  4 95  1  0  0  0
  4 96  1  0  0  0
  5  6  1  0  0  0
  5 26  1  0  0  0
  5 97  1  0  0  0
  6 25  1  0  0  0
  6 98  1  0  0  0
  6 99  1  0  0  0
  7  8  2  0  0  0
  7 26  1  0  0  0
  7 29  1  0  0  0
  8  9  1  0  0  0
  8 22  1  0  0  0
  9 10  1  0  0  0
  9 27  2  0  0  0
 10 11  2  0  0  0
 10 15  1  0  0  0
 11 12  1  0  0  0
 11100  1  0  0  0
 12 13  2  0  0  0
 12101  1  0  0  0
 13 14  1  0  0  0
 13 31  1  0  0  0
 14 15  2  0  0  0
 14102  1  0  0  0
 15103  1  0  0  0
 16 17  2  0  0  0
 16 21  1  0  0  0
 16 31  1  0  0  0
 17 18  1  0  0  0
 17104  1  0  0  0
 18 19  2  0  0  0
 18105  1  0  0  0
 19 20  1  0  0  0
 19 24  1  0  0  0
 20 21  2  0  0  0
 20106  1  0  0  0
 21 23  1  0  0  0
 22 28  1  0  0  0
 22 32  2  0  0  0
 26 27  1  0  0  0
 28107  1  0  0  0
 28108  1  0  0  0
 29109  1  0  0  0
 29110  1  0  0  0
 33 34  1  0  0  0
 33 66  1  0  0  0
 33 70  2  0  0  0
 34 36  1  0  0  0
 34 59  1  0  0  0
 34111  1  0  0  0
 35 44  2  0  0  0
 35 45  1  0  0  0
 35 68  1  0  0  0
 36 56  1  0  0  0
 36112  1  0  0  0
 37 39  1  0  0  0
 37 47  1  0  0  0
 37 66  1  0  0  0
 37113  1  0  0  0
 38 43  2  0  0  0
 38 46  1  0  0  0
 38 47  1  0  0  0
 39 64  1  0  0  0
 39 67  2  0  0  0
 40 52  1  0  0  0
 40 53  2  0  0  0
 40 58  1  0  0  0
 41114  1  0  0  0
 41115  1  0  0  0
 41116  1  0  0  0
 41 48  1  0  0  0
 42 43  1  0  0  0
 42 66  1  0  0  0
 42117  1  0  0  0
 42118  1  0  0  0
 43 44  1  0  0  0
 44119  1  0  0  0
 45 46  2  0  0  0
 45120  1  0  0  0
 46121  1  0  0  0
 47122  1  0  0  0
 47123  1  0  0  0
 48 56  1  0  0  0
 48 65  1  0  0  0
 48124  1  0  0  0
 49 50  1  0  0  0
 49 53  1  0  0  0
 49 64  1  0  0  0
 49125  1  0  0  0
 50 51  1  0  0  0
 50126  1  0  0  0
 50127  1  0  0  0
 51 52  1  0  0  0
 51128  1  0  0  0
 51129  1  0  0  0
 52130  1  0  0  0
 52131  1  0  0  0
 53 54  1  0  0  0
 54 55  2  0  0  0
 54132  1  0  0  0
 55 57  1  0  0  0
 55133  1  0  0  0
 56 69  2  0  0  0
 57 58  2  0  0  0
 57134  1  0  0  0
 58135  1  0  0  0
 59 60  1  0  0  0
 59 61  1  0  0  0
 59 62  1  0  0  0
 60136  1  0  0  0
 60137  1  0  0  0
 60138  1  0  0  0
 61139  1  0  0  0
 61140  1  0  0  0
 61141  1  0  0  0
 62142  1  0  0  0
 62143  1  0  0  0
 62144  1  0  0  0
 63 65  1  0  0  0
 63145  1  0  0  0
 63146  1  0  0  0
 63147  1  0  0  0
 64148  1  0  0  0
 65149  1  0  0  0
 68 84  1  0  0  0
 71 73  2  0  0  0
 71 74  1  0  0  0
 71150  1  0  0  0
 72 75  2  0  0  0
 72 76  1  0  0  0
 72151  1  0  0  0
 73 75  1  0  0  0
 73 82  1  0  0  0
 74 76  2  0  0  0
 74 85  1  0  0  0
 75 86  1  0  0  0
 76 90  1  0  0  0
 77 78  1  0  0  0
 77 85  1  0  0  0
 77 87  2  0  0  0
 78 81  1  0  0  0
 78152  1  0  0  0
 78153  1  0  0  0
 79 80  1  0  0  0
 79 81  1  0  0  0
 79154  1  0  0  0
 79155  1  0  0  0
 80 85  1  0  0  0
 80156  1  0  0  0
 80157  1  0  0  0
 81 84  1  0  0  0
 81158  1  0  0  0
 82159  1  0  0  0
 82160  1  0  0  0
 82161  1  0  0  0
 83162  1  0  0  0
 83163  1  0  0  0
 83164  1  0  0  0
 83 90  1  0  0  0
 84165  1  0  0  0
 84166  1  0  0  0
 86167  1  0  0  0
 88 90  2  0  0  0
 89 90  2  0  0  0
M  ISO  4   1 100  68 101  84 101  86 100
M  END
> <chiral flag>
0

> <version>
0

> <s_m_source_file>
/data/baiqing/PycharmProjects/Reinvent-master-3.2/result/LINK_invent/BTK/process_docking_weight1_custom_product_contain_oxygen_bond_distance_aromatic_linkinvent_7_9_3/rearranged_h_0061.sdf

> <i_m_source_file_index>
64

> <r_mmod_Potential_Energy-OPLS-2005>
-92.605339050293

> <r_mmod_Stretch_Energy-OPLS-2005>
53.3188934326172

> <r_mmod_Bend_Energy-OPLS-2005>
125.271781921387

> <r_mmod_Torsional_Energy-OPLS-2005>
324.960876464844

> <r_mmod_Improper_Torsional_Energy-OPLS-2005>
5.41526508331299

> <r_mmod_Van_der_Waal_Energy-OPLS-2005>
141.814086914062

> <r_mmod_Electrostatic_Energy-OPLS-2005>
-515.63134765625

> <r_mmod_Solvation_Energy-OPLS-2005>
-247.175933837891

> <b_mmod_Minimization_Converged-OPLS-2005>
0

> <r_mmod_RMS_Derivative-OPLS-2005>
1.15208554267883

$$$$
65
                    3D
 Structure written by MMmdl.
161170  0  0  1  0            999 V2000
  -30.6193  -14.7356   20.4739 C   0  0  0  0  0  0
  -30.4370  -12.4428   19.4997 C   0  0  0  0  0  0
  -29.5243  -12.4990   18.2533 C   0  0  0  0  0  0
  -28.0423  -12.3514   18.6494 C   0  0  0  0  0  0
  -27.6490  -13.2389   19.8606 C   0  0  2  0  0  0
  -28.6875  -13.1563   21.0026 C   0  0  0  0  0  0
  -25.2506  -13.8219   20.5676 C   0  0  0  0  0  0
  -24.1796  -13.0458   20.9182 C   0  0  0  0  0  0
  -24.6399  -11.6940   20.8705 C   0  0  0  0  0  0
  -23.9063  -10.4305   21.0382 C   0  0  0  0  0  0
  -24.3631   -9.4219   21.9158 C   0  0  0  0  0  0
  -23.6308   -8.2249   22.0745 C   0  0  0  0  0  0
  -22.4290   -8.0273   21.3541 C   0  0  0  0  0  0
  -21.9913   -9.0246   20.4652 C   0  0  0  0  0  0
  -22.7227  -10.2128   20.3034 C   0  0  0  0  0  0
  -21.6854   -6.0728   22.5272 C   0  0  0  0  0  0
  -21.4022   -6.5633   23.8204 C   0  0  0  0  0  0
  -21.3659   -5.6782   24.9161 C   0  0  0  0  0  0
  -21.6048   -4.3044   24.7215 C   0  0  0  0  0  0
  -21.8812   -3.8139   23.4325 C   0  0  0  0  0  0
  -21.9187   -4.6960   22.3390 C   0  0  0  0  0  0
  -22.7807  -13.5231   21.1847 C   0  0  0  0  0  0
  -22.1649   -4.2142   21.0967 F   0  0  0  0  0  0
  -21.5638   -3.4536   25.7731 F   0  0  0  0  0  0
  -29.9987  -13.5033   20.4412 N   0  0  0  0  0  0
  -26.2959  -12.9448   20.3281 N   0  0  0  0  0  0
  -25.9338  -11.6583   20.5736 N   0  0  0  0  0  0
  -22.0434  -12.8243   22.0413 N   0  0  0  0  0  0
  -25.4199  -15.1946   20.4126 N   0  0  0  0  0  0
  -31.7811  -14.8462   20.0725 O   0  0  0  0  0  0
  -21.6642   -6.8882   21.4240 O   0  0  0  0  0  0
  -22.3469  -14.5521   20.6683 O   0  0  0  0  0  0
  -24.6327  -31.8560   23.2004 C   0  0  0  0  0  0
  -25.9153  -32.4749   23.8360 C   0  0  1  0  0  0
  -27.2085  -27.2423   20.1317 C   0  0  0  0  0  0
  -25.5950  -33.8557   24.2267 N   0  0  0  0  0  0
  -23.4289  -30.4817   21.5432 C   0  0  2  0  0  0
  -24.8736  -28.9332   20.1046 C   0  0  0  0  0  0
  -22.7512  -29.4622   22.4907 C   0  0  0  0  0  0
  -18.0299  -28.1388   22.8465 C   0  0  0  0  0  0
  -24.1484  -36.7280   23.2643 C   0  0  0  0  0  0
  -25.9780  -30.7571   21.3916 C   0  0  0  0  0  0
  -26.0439  -29.3810   20.7291 C   0  0  0  0  0  0
  -27.2078  -28.5445   20.7416 C   0  0  0  0  0  0
  -26.0229  -26.8885   19.4413 C   0  0  0  0  0  0
  -24.8712  -27.6951   19.4481 C   0  0  0  0  0  0
  -23.6465  -29.8226   20.1563 C   0  0  0  0  0  0
  -25.4110  -36.3065   24.0331 C   0  0  1  0  0  0
  -20.5906  -28.3719   23.1247 C   0  0  2  0  0  0
  -20.6791  -26.9435   22.5408 C   0  0  0  0  0  0
  -19.5766  -26.6380   21.5212 C   0  0  0  0  0  0
  -18.1939  -26.7926   22.1608 C   0  0  0  0  0  0
  -19.1552  -28.8869   23.2844 C   0  0  0  0  0  0
  -18.9475  -30.1464   23.8870 C   0  0  0  0  0  0
  -17.6478  -30.6589   24.0559 C   0  0  0  0  0  0
  -25.9063  -34.9439   23.5097 C   0  0  0  0  0  0
  -16.5369  -29.9089   23.6328 C   0  0  0  0  0  0
  -16.7288  -28.6506   23.0345 C   0  0  0  0  0  0
  -26.4499  -31.6593   25.0772 C   0  0  0  0  0  0
  -25.3713  -31.3786   26.1494 C   0  0  0  0  0  0
  -27.0373  -30.2995   24.6333 C   0  0  0  0  0  0
  -27.6040  -32.4360   25.7538 C   0  0  0  0  0  0
  -27.5573  -37.1792   24.8453 C   0  0  0  0  0  0
  -21.4224  -29.3056   22.3632 N   0  0  0  0  0  0
  -26.4273  -37.3769   23.9410 N   0  0  0  0  0  0
  -24.6984  -31.0511   22.0996 N   0  0  0  0  0  0
  -23.4202  -28.8169   23.3022 O   0  0  0  0  0  0
  -28.2898  -26.3259   20.2361 O   0  0  0  0  0  0
  -26.5630  -34.8912   22.4662 O   0  0  0  0  0  0
  -23.5473  -32.1408   23.7267 O   0  0  0  0  0  0
  -29.2191  -19.5401   18.6179 C   0  0  0  0  0  0
  -29.7014  -18.4926   20.7651 C   0  0  0  0  0  0
  -29.2831  -18.2708   18.0069 C   0  0  0  0  0  0
  -29.4290  -19.7131   20.0042 C   0  0  0  0  0  0
  -29.7619  -17.1623   20.1575 C   0  0  0  0  0  0
  -29.5401  -17.1072   18.7601 C   0  0  0  0  0  0
  -30.4570  -21.8462   20.8512 C   0  0  0  0  0  0
  -28.3178  -22.1324   20.1352 C   0  0  0  0  0  0
  -30.2453  -23.3862   20.7500 C   0  0  1  0  0  0
  -28.7234  -23.5855   20.6526 C   0  0  1  0  0  0
  -29.0663  -18.1406   16.5114 C   0  0  0  0  0  0
  -30.8922  -24.1811   21.9012 C   0  0  0  0  0  0
  -28.1264  -24.8718   19.8549 C   0  0  0  0  0  0
  -29.3710  -21.1214   20.4982 N   0  0  0  0  0  0
  -29.8992  -15.8579   20.8635 N   0  0  0  0  0  0
  -31.5297  -21.3643   21.2328 O   0  0  0  0  0  0
  -29.5204  -15.9149   18.1183 F   0  0  0  0  0  0
  -31.4812  -12.5553   19.2050 H   0  0  0  0  0  0
  -30.3712  -11.4656   19.9809 H   0  0  0  0  0  0
  -29.8030  -11.7108   17.5526 H   0  0  0  0  0  0
  -29.6739  -13.4407   17.7236 H   0  0  0  0  0  0
  -27.8708  -11.3021   18.8914 H   0  0  0  0  0  0
  -27.3984  -12.5722   17.7964 H   0  0  0  0  0  0
  -27.6553  -14.2669   19.4961 H   0  0  0  0  0  0
  -28.7080  -12.1522   21.4322 H   0  0  0  0  0  0
  -28.4175  -13.8264   21.8201 H   0  0  0  0  0  0
  -25.2774   -9.5716   22.4719 H   0  0  0  0  0  0
  -24.0020   -7.4657   22.7476 H   0  0  0  0  0  0
  -21.0816   -8.8768   19.8977 H   0  0  0  0  0  0
  -22.3669  -10.9665   19.6148 H   0  0  0  0  0  0
  -21.2023   -7.6152   23.9713 H   0  0  0  0  0  0
  -21.1490   -6.0509   25.9068 H   0  0  0  0  0  0
  -22.0595   -2.7602   23.2819 H   0  0  0  0  0  0
  -22.4051  -11.9950   22.4906 H   0  0  0  0  0  0
  -21.1046  -13.1273   22.2588 H   0  0  0  0  0  0
  -24.6619  -15.8541   20.5497 H   0  0  0  0  0  0
  -26.2757  -15.6311   20.0935 H   0  0  0  0  0  0
  -26.7225  -32.5369   23.1106 H   0  0  0  0  0  0
  -25.0101  -33.9693   25.0417 H   0  0  0  0  0  0
  -22.7253  -31.3049   21.4016 H   0  0  0  0  0  0
  -23.3753  -35.9603   23.3282 H   0  0  0  0  0  0
  -24.3592  -36.8927   22.2065 H   0  0  0  0  0  0
  -23.7231  -37.6469   23.6688 H   0  0  0  0  0  0
  -26.1344  -31.5192   20.6259 H   0  0  0  0  0  0
  -26.8492  -30.7925   22.0356 H   0  0  0  0  0  0
  -28.0935  -28.8739   21.2663 H   0  0  0  0  0  0
  -25.9368  -25.9687   18.8847 H   0  0  0  0  0  0
  -23.9834  -27.3565   18.9309 H   0  0  0  0  0  0
  -23.7705  -30.6032   19.4048 H   0  0  0  0  0  0
  -22.7615  -29.2613   19.8496 H   0  0  0  0  0  0
  -25.1287  -36.1910   25.0823 H   0  0  0  0  0  0
  -20.9986  -28.3319   24.1370 H   0  0  0  0  0  0
  -20.5692  -26.2352   23.3629 H   0  0  0  0  0  0
  -21.6661  -26.7454   22.1212 H   0  0  0  0  0  0
  -19.6942  -25.6280   21.1258 H   0  0  0  0  0  0
  -19.6698  -27.3174   20.6725 H   0  0  0  0  0  0
  -17.4221  -26.6675   21.3996 H   0  0  0  0  0  0
  -18.0326  -26.0076   22.9005 H   0  0  0  0  0  0
  -19.7960  -30.7270   24.2229 H   0  0  0  0  0  0
  -17.5044  -31.6259   24.5178 H   0  0  0  0  0  0
  -15.5369  -30.2985   23.7666 H   0  0  0  0  0  0
  -15.8686  -28.0821   22.7065 H   0  0  0  0  0  0
  -24.5858  -30.7157   25.7843 H   0  0  0  0  0  0
  -24.8940  -32.2975   26.4904 H   0  0  0  0  0  0
  -25.8015  -30.8976   27.0286 H   0  0  0  0  0  0
  -26.3003  -29.6724   24.1298 H   0  0  0  0  0  0
  -27.3951  -29.7283   25.4910 H   0  0  0  0  0  0
  -27.8918  -30.4243   23.9682 H   0  0  0  0  0  0
  -27.2624  -33.3653   26.2105 H   0  0  0  0  0  0
  -28.3841  -32.6938   25.0367 H   0  0  0  0  0  0
  -28.0724  -31.8516   26.5463 H   0  0  0  0  0  0
  -28.2575  -38.0104   24.7511 H   0  0  0  0  0  0
  -28.1079  -36.2633   24.6243 H   0  0  0  0  0  0
  -27.2305  -37.1407   25.8861 H   0  0  0  0  0  0
  -20.9434  -29.8772   21.6814 H   0  0  0  0  0  0
  -26.0148  -38.2834   24.1419 H   0  0  0  0  0  0
  -29.0289  -20.4018   17.9934 H   0  0  0  0  0  0
  -29.8550  -18.5852   21.8326 H   0  0  0  0  0  0
  -28.1918  -22.1571   19.0527 H   0  0  0  0  0  0
  -27.3607  -21.8280   20.5628 H   0  0  0  0  0  0
  -30.7020  -23.6953   19.8093 H   0  0  0  0  0  0
  -28.3433  -23.6611   21.6732 H   0  0  0  0  0  0
  -28.9839  -19.1151   16.0302 H   0  0  0  0  0  0
  -28.1583  -17.5748   16.3023 H   0  0  0  0  0  0
  -29.9051  -17.6156   16.0522 H   0  0  0  0  0  0
  -30.4225  -23.9521   22.8585 H   0  0  0  0  0  0
  -30.7971  -25.2541   21.7309 H   0  0  0  0  0  0
  -31.9562  -23.9626   21.9957 H   0  0  0  0  0  0
  -27.0691  -24.6241   19.8713 H   0  0  0  0  0  0
  -28.4329  -24.7913   18.8120 H   0  0  0  0  0  0
  -29.1138  -15.6387   21.4553 H   0  0  0  0  0  0
  1 25  1  0  0  0
  1 30  2  0  0  0
  1 85  1  0  0  0
  2  3  1  0  0  0
  2 25  1  0  0  0
  2 88  1  0  0  0
  2 89  1  0  0  0
  3  4  1  0  0  0
  3 90  1  0  0  0
  3 91  1  0  0  0
  4  5  1  0  0  0
  4 92  1  0  0  0
  4 93  1  0  0  0
  5  6  1  0  0  0
  5 26  1  0  0  0
  5 94  1  0  0  0
  6 25  1  0  0  0
  6 95  1  0  0  0
  6 96  1  0  0  0
  7  8  2  0  0  0
  7 26  1  0  0  0
  7 29  1  0  0  0
  8  9  1  0  0  0
  8 22  1  0  0  0
  9 10  1  0  0  0
  9 27  2  0  0  0
 10 11  2  0  0  0
 10 15  1  0  0  0
 11 12  1  0  0  0
 11 97  1  0  0  0
 12 13  2  0  0  0
 12 98  1  0  0  0
 13 14  1  0  0  0
 13 31  1  0  0  0
 14 15  2  0  0  0
 14 99  1  0  0  0
 15100  1  0  0  0
 16 17  2  0  0  0
 16 21  1  0  0  0
 16 31  1  0  0  0
 17 18  1  0  0  0
 17101  1  0  0  0
 18 19  2  0  0  0
 18102  1  0  0  0
 19 20  1  0  0  0
 19 24  1  0  0  0
 20 21  2  0  0  0
 20103  1  0  0  0
 21 23  1  0  0  0
 22 28  1  0  0  0
 22 32  2  0  0  0
 26 27  1  0  0  0
 28104  1  0  0  0
 28105  1  0  0  0
 29106  1  0  0  0
 29107  1  0  0  0
 33 34  1  0  0  0
 33 66  1  0  0  0
 33 70  2  0  0  0
 34 36  1  0  0  0
 34 59  1  0  0  0
 34108  1  0  0  0
 35 44  2  0  0  0
 35 45  1  0  0  0
 35 68  1  0  0  0
 36 56  1  0  0  0
 36109  1  0  0  0
 37 39  1  0  0  0
 37 47  1  0  0  0
 37 66  1  0  0  0
 37110  1  0  0  0
 38 43  2  0  0  0
 38 46  1  0  0  0
 38 47  1  0  0  0
 39 64  1  0  0  0
 39 67  2  0  0  0
 40 52  1  0  0  0
 40 53  2  0  0  0
 40 58  1  0  0  0
 41111  1  0  0  0
 41112  1  0  0  0
 41113  1  0  0  0
 41 48  1  0  0  0
 42 43  1  0  0  0
 42 66  1  0  0  0
 42114  1  0  0  0
 42115  1  0  0  0
 43 44  1  0  0  0
 44116  1  0  0  0
 45 46  2  0  0  0
 45117  1  0  0  0
 46118  1  0  0  0
 47119  1  0  0  0
 47120  1  0  0  0
 48 56  1  0  0  0
 48 65  1  0  0  0
 48121  1  0  0  0
 49 50  1  0  0  0
 49 53  1  0  0  0
 49 64  1  0  0  0
 49122  1  0  0  0
 50 51  1  0  0  0
 50123  1  0  0  0
 50124  1  0  0  0
 51 52  1  0  0  0
 51125  1  0  0  0
 51126  1  0  0  0
 52127  1  0  0  0
 52128  1  0  0  0
 53 54  1  0  0  0
 54 55  2  0  0  0
 54129  1  0  0  0
 55 57  1  0  0  0
 55130  1  0  0  0
 56 69  2  0  0  0
 57 58  2  0  0  0
 57131  1  0  0  0
 58132  1  0  0  0
 59 60  1  0  0  0
 59 61  1  0  0  0
 59 62  1  0  0  0
 60133  1  0  0  0
 60134  1  0  0  0
 60135  1  0  0  0
 61136  1  0  0  0
 61137  1  0  0  0
 61138  1  0  0  0
 62139  1  0  0  0
 62140  1  0  0  0
 62141  1  0  0  0
 63 65  1  0  0  0
 63142  1  0  0  0
 63143  1  0  0  0
 63144  1  0  0  0
 64145  1  0  0  0
 65146  1  0  0  0
 68 83  1  0  0  0
 71 73  2  0  0  0
 71 74  1  0  0  0
 71147  1  0  0  0
 72 74  2  0  0  0
 72 75  1  0  0  0
 72148  1  0  0  0
 73 76  1  0  0  0
 73 81  1  0  0  0
 74 84  1  0  0  0
 75 76  2  0  0  0
 75 85  1  0  0  0
 76 87  1  0  0  0
 77 79  1  0  0  0
 77 84  1  0  0  0
 77 86  2  0  0  0
 78 80  1  0  0  0
 78 84  1  0  0  0
 78149  1  0  0  0
 78150  1  0  0  0
 79 80  1  0  0  0
 79 82  1  0  0  0
 79151  1  0  0  0
 80 83  1  0  0  0
 80152  1  0  0  0
 81153  1  0  0  0
 81154  1  0  0  0
 81155  1  0  0  0
 82156  1  0  0  0
 82157  1  0  0  0
 82158  1  0  0  0
 83159  1  0  0  0
 83160  1  0  0  0
 85161  1  0  0  0
M  ISO  4   1 100  68 101  83 101  85 100
M  END
> <chiral flag>
0

> <version>
0

> <s_m_source_file>
/data/baiqing/PycharmProjects/Reinvent-master-3.2/result/LINK_invent/BTK/process_docking_weight1_custom_product_contain_oxygen_bond_distance_aromatic_linkinvent_7_9_3/rearranged_h_0061.sdf

> <i_m_source_file_index>
65

> <r_mmod_Potential_Energy-OPLS-2005>
282.444946289062

> <r_mmod_Stretch_Energy-OPLS-2005>
128.4599609375

> <r_mmod_Bend_Energy-OPLS-2005>
200.845489501953

> <r_mmod_Torsional_Energy-OPLS-2005>
320.997039794922

> <r_mmod_Improper_Torsional_Energy-OPLS-2005>
6.13273572921753

> <r_mmod_Van_der_Waal_Energy-OPLS-2005>
137.618392944336

> <r_mmod_Electrostatic_Energy-OPLS-2005>
-375.503387451172

> <r_mmod_Solvation_Energy-OPLS-2005>
-227.080261230469

> <b_mmod_Minimization_Converged-OPLS-2005>
0

> <r_mmod_RMS_Derivative-OPLS-2005>
2.98463463783264

$$$$
66
                    3D
 Structure written by MMmdl.
165174  0  0  1  0            999 V2000
  -30.7357  -14.4340   20.6164 C   0  0  0  0  0  0
  -30.4140  -12.3002   19.4190 C   0  0  0  0  0  0
  -29.4880  -12.5113   18.2050 C   0  0  0  0  0  0
  -28.0110  -12.3715   18.6180 C   0  0  0  0  0  0
  -27.6605  -13.2081   19.8777 C   0  0  2  0  0  0
  -28.7006  -12.9846   20.9988 C   0  0  0  0  0  0
  -25.2550  -13.8134   20.5629 C   0  0  0  0  0  0
  -24.1818  -13.0416   20.9175 C   0  0  0  0  0  0
  -24.6384  -11.6891   20.8742 C   0  0  0  0  0  0
  -23.9049  -10.4281   21.0407 C   0  0  0  0  0  0
  -24.3606   -9.4201   21.9186 C   0  0  0  0  0  0
  -23.6284   -8.2236   22.0754 C   0  0  0  0  0  0
  -22.4268   -8.0273   21.3543 C   0  0  0  0  0  0
  -21.9900   -9.0245   20.4644 C   0  0  0  0  0  0
  -22.7223  -10.2126   20.3055 C   0  0  0  0  0  0
  -21.6848   -6.0732   22.5277 C   0  0  0  0  0  0
  -21.4010   -6.5636   23.8210 C   0  0  0  0  0  0
  -21.3661   -5.6789   24.9173 C   0  0  0  0  0  0
  -21.6045   -4.3052   24.7223 C   0  0  0  0  0  0
  -21.8821   -3.8143   23.4343 C   0  0  0  0  0  0
  -21.9190   -4.6959   22.3399 C   0  0  0  0  0  0
  -22.7843  -13.5225   21.1836 C   0  0  0  0  0  0
  -22.1659   -4.2146   21.0977 F   0  0  0  0  0  0
  -21.5631   -3.4537   25.7736 F   0  0  0  0  0  0
  -30.0352  -13.2797   20.4500 N   0  0  0  0  0  0
  -26.3011  -12.9325   20.3374 N   0  0  0  0  0  0
  -25.9316  -11.6484   20.5786 N   0  0  0  0  0  0
  -22.0491  -12.8220   22.0403 N   0  0  0  0  0  0
  -25.4212  -15.1824   20.3915 N   0  0  0  0  0  0
  -31.8345  -14.6204   20.0846 O   0  0  0  0  0  0
  -21.6632   -6.8871   21.4238 O   0  0  0  0  0  0
  -22.3526  -14.5532   20.6691 O   0  0  0  0  0  0
  -24.6135  -31.8702   23.2115 C   0  0  0  0  0  0
  -25.9034  -32.4833   23.8409 C   0  0  1  0  0  0
  -27.2307  -27.4408   20.0999 C   0  0  0  0  0  0
  -25.5893  -33.8631   24.2336 N   0  0  0  0  0  0
  -23.4003  -30.4923   21.5533 C   0  0  2  0  0  0
  -24.8455  -28.9555   20.1218 C   0  0  0  0  0  0
  -22.7410  -29.4663   22.5019 C   0  0  0  0  0  0
  -18.0272  -28.1360   22.8500 C   0  0  0  0  0  0
  -24.1485  -36.7324   23.2643 C   0  0  0  0  0  0
  -25.9280  -30.8359   21.3641 C   0  0  0  0  0  0
  -26.0047  -29.4683   20.7172 C   0  0  0  0  0  0
  -27.2021  -28.7179   20.7035 C   0  0  0  0  0  0
  -26.0581  -26.9424   19.4951 C   0  0  0  0  0  0
  -24.8653  -27.6900   19.5104 C   0  0  0  0  0  0
  -23.6085  -29.8235   20.1686 C   0  0  0  0  0  0
  -25.4103  -36.3117   24.0338 C   0  0  1  0  0  0
  -20.5862  -28.3653   23.1326 C   0  0  2  0  0  0
  -20.6760  -26.9396   22.5421 C   0  0  0  0  0  0
  -19.5742  -26.6380   21.5211 C   0  0  0  0  0  0
  -18.1919  -26.7908   22.1624 C   0  0  0  0  0  0
  -19.1522  -28.8822   23.2909 C   0  0  0  0  0  0
  -18.9452  -30.1424   23.8921 C   0  0  0  0  0  0
  -17.6459  -30.6577   24.0557 C   0  0  0  0  0  0
  -25.9032  -34.9483   23.5135 C   0  0  0  0  0  0
  -16.5349  -29.9079   23.6314 C   0  0  0  0  0  0
  -16.7263  -28.6486   23.0353 C   0  0  0  0  0  0
  -26.4461  -31.6607   25.0731 C   0  0  0  0  0  0
  -25.3739  -31.3690   26.1487 C   0  0  0  0  0  0
  -27.0286  -30.3059   24.6073 C   0  0  0  0  0  0
  -27.6045  -32.4324   25.7489 C   0  0  0  0  0  0
  -27.5576  -37.1816   24.8464 C   0  0  0  0  0  0
  -21.4142  -29.3027   22.3750 N   0  0  0  0  0  0
  -26.4293  -37.3798   23.9402 N   0  0  0  0  0  0
  -24.6654  -31.0805   22.1016 N   0  0  0  0  0  0
  -23.4190  -28.8212   23.3060 O   0  0  0  0  0  0
  -28.4077  -26.7315   20.0406 O   0  0  0  0  0  0
  -26.5604  -34.8934   22.4702 O   0  0  0  0  0  0
  -23.5332  -32.1453   23.7516 O   0  0  0  0  0  0
  -32.3925  -18.2745   22.1159 C   0  0  0  0  0  0
  -31.5801  -19.3752   21.8017 C   0  0  0  0  0  0
  -31.8997  -16.9696   21.9516 C   0  0  0  0  0  0
  -29.7370  -17.8615   21.2164 C   0  0  0  0  0  0
  -30.2603  -19.1846   21.3389 C   0  0  0  0  0  0
  -30.5838  -16.7457   21.4840 C   0  0  0  0  0  0
  -29.4730  -20.7790   19.7071 C   0  0  0  0  0  0
  -28.3941  -22.5439   21.7852 C   0  0  0  0  0  0
  -28.8561  -22.1493   19.3862 C   0  0  0  0  0  0
  -28.9889  -21.1618   22.1077 C   0  0  0  0  0  0
  -27.3718  -17.5206   22.0468 C   0  0  0  0  0  0
  -28.2805  -17.6377   20.8159 C   0  0  0  0  0  0
  -27.8210  -24.2902   20.1214 C   0  0  0  0  0  0
  -28.4799  -25.5185   20.8015 C   0  0  0  0  0  0
  -29.5161  -20.3580   20.9937 N   0  0  0  0  0  0
  -28.3962  -22.9830   20.5070 N   0  0  0  0  0  0
  -30.1166  -15.4052   21.3168 N   0  0  0  0  0  0
  -29.9012  -20.1051   18.7639 O   0  0  0  0  0  0
  -27.9273  -23.2081   22.7131 O   0  0  0  0  0  0
  -31.4592  -12.3863   19.1176 H   0  0  0  0  0  0
  -30.3044  -11.2877   19.8115 H   0  0  0  0  0  0
  -29.7253  -11.7924   17.4200 H   0  0  0  0  0  0
  -29.6581  -13.5008   17.7767 H   0  0  0  0  0  0
  -27.8199  -11.3149   18.8101 H   0  0  0  0  0  0
  -27.3600  -12.6505   17.7887 H   0  0  0  0  0  0
  -27.7067  -14.2572   19.5851 H   0  0  0  0  0  0
  -28.6712  -11.9482   21.3390 H   0  0  0  0  0  0
  -28.4586  -13.5828   21.8777 H   0  0  0  0  0  0
  -25.2751   -9.5680   22.4759 H   0  0  0  0  0  0
  -23.9992   -7.4629   22.7475 H   0  0  0  0  0  0
  -21.0832   -8.8761   19.8948 H   0  0  0  0  0  0
  -22.3681  -10.9665   19.6165 H   0  0  0  0  0  0
  -21.2002   -7.6144   23.9712 H   0  0  0  0  0  0
  -21.1483   -6.0520   25.9077 H   0  0  0  0  0  0
  -22.0600   -2.7605   23.2843 H   0  0  0  0  0  0
  -22.4108  -11.9879   22.4787 H   0  0  0  0  0  0
  -21.1111  -13.1244   22.2619 H   0  0  0  0  0  0
  -24.6500  -15.8331   20.4896 H   0  0  0  0  0  0
  -26.2689  -15.6184   20.0557 H   0  0  0  0  0  0
  -26.7115  -32.5545   23.1188 H   0  0  0  0  0  0
  -25.0013  -33.9790   25.0458 H   0  0  0  0  0  0
  -22.6879  -31.3082   21.4147 H   0  0  0  0  0  0
  -23.3737  -35.9671   23.3314 H   0  0  0  0  0  0
  -24.3583  -36.8930   22.2058 H   0  0  0  0  0  0
  -23.7247  -37.6534   23.6653 H   0  0  0  0  0  0
  -26.0369  -31.5993   20.5920 H   0  0  0  0  0  0
  -26.8176  -30.8928   21.9797 H   0  0  0  0  0  0
  -28.1017  -29.1136   21.1545 H   0  0  0  0  0  0
  -26.0629  -25.9896   18.9880 H   0  0  0  0  0  0
  -23.9760  -27.2927   19.0403 H   0  0  0  0  0  0
  -23.7183  -30.5978   19.4085 H   0  0  0  0  0  0
  -22.7313  -29.2438   19.8739 H   0  0  0  0  0  0
  -25.1276  -36.1987   25.0830 H   0  0  0  0  0  0
  -20.9938  -28.3211   24.1451 H   0  0  0  0  0  0
  -20.5654  -26.2266   23.3604 H   0  0  0  0  0  0
  -21.6632  -26.7434   22.1218 H   0  0  0  0  0  0
  -19.6910  -25.6298   21.1225 H   0  0  0  0  0  0
  -19.6674  -27.3199   20.6750 H   0  0  0  0  0  0
  -17.4190  -26.6658   21.4023 H   0  0  0  0  0  0
  -18.0317  -26.0035   22.9001 H   0  0  0  0  0  0
  -19.7933  -30.7218   24.2316 H   0  0  0  0  0  0
  -17.5021  -31.6262   24.5154 H   0  0  0  0  0  0
  -15.5351  -30.2994   23.7622 H   0  0  0  0  0  0
  -15.8659  -28.0810   22.7070 H   0  0  0  0  0  0
  -24.5915  -30.7028   25.7829 H   0  0  0  0  0  0
  -24.8923  -32.2831   26.4967 H   0  0  0  0  0  0
  -25.8109  -30.8849   27.0231 H   0  0  0  0  0  0
  -26.2817  -29.6827   24.1143 H   0  0  0  0  0  0
  -27.4092  -29.7278   25.4500 H   0  0  0  0  0  0
  -27.8632  -30.4390   23.9188 H   0  0  0  0  0  0
  -27.2664  -33.3619   26.2087 H   0  0  0  0  0  0
  -28.3837  -32.6894   25.0298 H   0  0  0  0  0  0
  -28.0725  -31.8432   26.5387 H   0  0  0  0  0  0
  -28.2604  -38.0106   24.7507 H   0  0  0  0  0  0
  -28.1063  -36.2636   24.6291 H   0  0  0  0  0  0
  -27.2302  -37.1469   25.8874 H   0  0  0  0  0  0
  -20.9311  -29.8765   21.6981 H   0  0  0  0  0  0
  -26.0183  -38.2880   24.1397 H   0  0  0  0  0  0
  -33.4025  -18.4318   22.4689 H   0  0  0  0  0  0
  -31.9823  -20.3740   21.9055 H   0  0  0  0  0  0
  -32.5478  -16.1366   22.1873 H   0  0  0  0  0  0
  -28.0143  -21.9785   18.7144 H   0  0  0  0  0  0
  -29.5974  -22.7135   18.8192 H   0  0  0  0  0  0
  -28.2164  -20.5822   22.6105 H   0  0  0  0  0  0
  -29.7817  -21.3133   22.8406 H   0  0  0  0  0  0
  -26.3286  -17.4032   21.7564 H   0  0  0  0  0  0
  -27.4337  -18.4084   22.6745 H   0  0  0  0  0  0
  -27.6446  -16.6626   22.6618 H   0  0  0  0  0  0
  -28.1945  -16.7422   20.2014 H   0  0  0  0  0  0
  -27.9230  -18.4428   20.1762 H   0  0  0  0  0  0
  -27.9072  -24.4109   19.0406 H   0  0  0  0  0  0
  -26.7521  -24.2746   20.3391 H   0  0  0  0  0  0
  -29.5430  -25.3167   20.9391 H   0  0  0  0  0  0
  -28.0707  -25.6791   21.8002 H   0  0  0  0  0  0
  -29.1709  -15.2056   21.6043 H   0  0  0  0  0  0
  1 25  1  0  0  0
  1 30  2  0  0  0
  1 87  1  0  0  0
  2  3  1  0  0  0
  2 25  1  0  0  0
  2 90  1  0  0  0
  2 91  1  0  0  0
  3  4  1  0  0  0
  3 92  1  0  0  0
  3 93  1  0  0  0
  4  5  1  0  0  0
  4 94  1  0  0  0
  4 95  1  0  0  0
  5  6  1  0  0  0
  5 26  1  0  0  0
  5 96  1  0  0  0
  6 25  1  0  0  0
  6 97  1  0  0  0
  6 98  1  0  0  0
  7  8  2  0  0  0
  7 26  1  0  0  0
  7 29  1  0  0  0
  8  9  1  0  0  0
  8 22  1  0  0  0
  9 10  1  0  0  0
  9 27  2  0  0  0
 10 11  2  0  0  0
 10 15  1  0  0  0
 11 12  1  0  0  0
 11 99  1  0  0  0
 12 13  2  0  0  0
 12100  1  0  0  0
 13 14  1  0  0  0
 13 31  1  0  0  0
 14 15  2  0  0  0
 14101  1  0  0  0
 15102  1  0  0  0
 16 17  2  0  0  0
 16 21  1  0  0  0
 16 31  1  0  0  0
 17 18  1  0  0  0
 17103  1  0  0  0
 18 19  2  0  0  0
 18104  1  0  0  0
 19 20  1  0  0  0
 19 24  1  0  0  0
 20 21  2  0  0  0
 20105  1  0  0  0
 21 23  1  0  0  0
 22 28  1  0  0  0
 22 32  2  0  0  0
 26 27  1  0  0  0
 28106  1  0  0  0
 28107  1  0  0  0
 29108  1  0  0  0
 29109  1  0  0  0
 33 34  1  0  0  0
 33 66  1  0  0  0
 33 70  2  0  0  0
 34 36  1  0  0  0
 34 59  1  0  0  0
 34110  1  0  0  0
 35 44  2  0  0  0
 35 45  1  0  0  0
 35 68  1  0  0  0
 36 56  1  0  0  0
 36111  1  0  0  0
 37 39  1  0  0  0
 37 47  1  0  0  0
 37 66  1  0  0  0
 37112  1  0  0  0
 38 43  2  0  0  0
 38 46  1  0  0  0
 38 47  1  0  0  0
 39 64  1  0  0  0
 39 67  2  0  0  0
 40 52  1  0  0  0
 40 53  2  0  0  0
 40 58  1  0  0  0
 41113  1  0  0  0
 41114  1  0  0  0
 41115  1  0  0  0
 41 48  1  0  0  0
 42 43  1  0  0  0
 42 66  1  0  0  0
 42116  1  0  0  0
 42117  1  0  0  0
 43 44  1  0  0  0
 44118  1  0  0  0
 45 46  2  0  0  0
 45119  1  0  0  0
 46120  1  0  0  0
 47121  1  0  0  0
 47122  1  0  0  0
 48 56  1  0  0  0
 48 65  1  0  0  0
 48123  1  0  0  0
 49 50  1  0  0  0
 49 53  1  0  0  0
 49 64  1  0  0  0
 49124  1  0  0  0
 50 51  1  0  0  0
 50125  1  0  0  0
 50126  1  0  0  0
 51 52  1  0  0  0
 51127  1  0  0  0
 51128  1  0  0  0
 52129  1  0  0  0
 52130  1  0  0  0
 53 54  1  0  0  0
 54 55  2  0  0  0
 54131  1  0  0  0
 55 57  1  0  0  0
 55132  1  0  0  0
 56 69  2  0  0  0
 57 58  2  0  0  0
 57133  1  0  0  0
 58134  1  0  0  0
 59 60  1  0  0  0
 59 61  1  0  0  0
 59 62  1  0  0  0
 60135  1  0  0  0
 60136  1  0  0  0
 60137  1  0  0  0
 61138  1  0  0  0
 61139  1  0  0  0
 61140  1  0  0  0
 62141  1  0  0  0
 62142  1  0  0  0
 62143  1  0  0  0
 63 65  1  0  0  0
 63144  1  0  0  0
 63145  1  0  0  0
 63146  1  0  0  0
 64147  1  0  0  0
 65148  1  0  0  0
 68 84  1  0  0  0
 71 72  2  0  0  0
 71 73  1  0  0  0
 71149  1  0  0  0
 72 75  1  0  0  0
 72150  1  0  0  0
 73 76  2  0  0  0
 73151  1  0  0  0
 74 75  2  0  0  0
 74 76  1  0  0  0
 74 82  1  0  0  0
 75 85  1  0  0  0
 76 87  1  0  0  0
 77 79  1  0  0  0
 77 85  1  0  0  0
 77 88  2  0  0  0
 78 80  1  0  0  0
 78 86  1  0  0  0
 78 89  2  0  0  0
 79 86  1  0  0  0
 79152  1  0  0  0
 79153  1  0  0  0
 80 85  1  0  0  0
 80154  1  0  0  0
 80155  1  0  0  0
 81 82  1  0  0  0
 81156  1  0  0  0
 81157  1  0  0  0
 81158  1  0  0  0
 82159  1  0  0  0
 82160  1  0  0  0
 83 84  1  0  0  0
 83 86  1  0  0  0
 83161  1  0  0  0
 83162  1  0  0  0
 84163  1  0  0  0
 84164  1  0  0  0
 87165  1  0  0  0
M  ISO  4   1 100  68 101  84 101  87 100
M  END
> <chiral flag>
0

> <version>
0

> <s_m_source_file>
/data/baiqing/PycharmProjects/Reinvent-master-3.2/result/LINK_invent/BTK/process_docking_weight1_custom_product_contain_oxygen_bond_distance_aromatic_linkinvent_7_9_3/rearranged_h_0061.sdf

> <i_m_source_file_index>
66

> <r_mmod_Potential_Energy-OPLS-2005>
-47.061164855957

> <r_mmod_Stretch_Energy-OPLS-2005>
41.4180145263672

> <r_mmod_Bend_Energy-OPLS-2005>
106.966430664062

> <r_mmod_Torsional_Energy-OPLS-2005>
288.213500976562

> <r_mmod_Improper_Torsional_Energy-OPLS-2005>
3.21662354469299

> <r_mmod_Van_der_Waal_Energy-OPLS-2005>
165.220764160156

> <r_mmod_Electrostatic_Energy-OPLS-2005>
-411.259887695312

> <r_mmod_Solvation_Energy-OPLS-2005>
-250.121917724609

> <b_mmod_Minimization_Converged-OPLS-2005>
0

> <r_mmod_RMS_Derivative-OPLS-2005>
0.902978956699371

$$$$
67
                    3D
 Structure written by MMmdl.
161170  0  0  1  0            999 V2000
  -30.6215  -14.7099   20.4480 C   0  0  0  0  0  0
  -30.4275  -12.4265   19.4780 C   0  0  0  0  0  0
  -29.5130  -12.5114   18.2349 C   0  0  0  0  0  0
  -28.0354  -12.3488   18.6415 C   0  0  0  0  0  0
  -27.6471  -13.2337   19.8565 C   0  0  2  0  0  0
  -28.6887  -13.1474   20.9947 C   0  0  0  0  0  0
  -25.2536  -13.8197   20.5694 C   0  0  0  0  0  0
  -24.1811  -13.0445   20.9186 C   0  0  0  0  0  0
  -24.6396  -11.6922   20.8728 C   0  0  0  0  0  0
  -23.9073  -10.4293   21.0399 C   0  0  0  0  0  0
  -24.3617   -9.4211   21.9183 C   0  0  0  0  0  0
  -23.6286   -8.2248   22.0767 C   0  0  0  0  0  0
  -22.4262   -8.0288   21.3562 C   0  0  0  0  0  0
  -21.9901   -9.0264   20.4667 C   0  0  0  0  0  0
  -22.7243  -10.2133   20.3065 C   0  0  0  0  0  0
  -21.6856   -6.0732   22.5276 C   0  0  0  0  0  0
  -21.4019   -6.5633   23.8207 C   0  0  0  0  0  0
  -21.3659   -5.6791   24.9171 C   0  0  0  0  0  0
  -21.6041   -4.3056   24.7222 C   0  0  0  0  0  0
  -21.8819   -3.8143   23.4343 C   0  0  0  0  0  0
  -21.9192   -4.6956   22.3402 C   0  0  0  0  0  0
  -22.7833  -13.5236   21.1832 C   0  0  0  0  0  0
  -22.1664   -4.2152   21.0980 F   0  0  0  0  0  0
  -21.5625   -3.4539   25.7730 F   0  0  0  0  0  0
  -29.9986  -13.4833   20.4242 N   0  0  0  0  0  0
  -26.2959  -12.9411   20.3280 N   0  0  0  0  0  0
  -25.9331  -11.6550   20.5724 N   0  0  0  0  0  0
  -22.0465  -12.8253   22.0388 N   0  0  0  0  0  0
  -25.4241  -15.1927   20.4148 N   0  0  0  0  0  0
  -31.7994  -14.8066   20.0922 O   0  0  0  0  0  0
  -21.6643   -6.8872   21.4241 O   0  0  0  0  0  0
  -22.3518  -14.5537   20.6677 O   0  0  0  0  0  0
  -24.6299  -31.8573   23.1996 C   0  0  0  0  0  0
  -25.9126  -32.4763   23.8333 C   0  0  1  0  0  0
  -27.2040  -27.2660   20.1222 C   0  0  0  0  0  0
  -25.5923  -33.8562   24.2256 N   0  0  0  0  0  0
  -23.4241  -30.4827   21.5449 C   0  0  2  0  0  0
  -24.8663  -28.9352   20.1077 C   0  0  0  0  0  0
  -22.7491  -29.4619   22.4927 C   0  0  0  0  0  0
  -18.0295  -28.1388   22.8492 C   0  0  0  0  0  0
  -24.1493  -36.7291   23.2634 C   0  0  0  0  0  0
  -25.9703  -30.7719   21.3773 C   0  0  0  0  0  0
  -26.0397  -29.3950   20.7202 C   0  0  0  0  0  0
  -27.2107  -28.5711   20.7207 C   0  0  0  0  0  0
  -26.0082  -26.8809   19.4730 C   0  0  0  0  0  0
  -24.8555  -27.6859   19.4743 C   0  0  0  0  0  0
  -23.6381  -29.8217   20.1591 C   0  0  0  0  0  0
  -25.4114  -36.3072   24.0324 C   0  0  1  0  0  0
  -20.5896  -28.3699   23.1285 C   0  0  2  0  0  0
  -20.6791  -26.9422   22.5415 C   0  0  0  0  0  0
  -19.5758  -26.6389   21.5225 C   0  0  0  0  0  0
  -18.1937  -26.7932   22.1634 C   0  0  0  0  0  0
  -19.1546  -28.8862   23.2886 C   0  0  0  0  0  0
  -18.9465  -30.1463   23.8906 C   0  0  0  0  0  0
  -17.6462  -30.6592   24.0562 C   0  0  0  0  0  0
  -25.9057  -34.9442   23.5098 C   0  0  0  0  0  0
  -16.5356  -29.9089   23.6326 C   0  0  0  0  0  0
  -16.7282  -28.6504   23.0356 C   0  0  0  0  0  0
  -26.4487  -31.6566   25.0708 C   0  0  0  0  0  0
  -25.3706  -31.3721   26.1423 C   0  0  0  0  0  0
  -27.0304  -30.2976   24.6166 C   0  0  0  0  0  0
  -27.6042  -32.4294   25.7490 C   0  0  0  0  0  0
  -27.5582  -37.1801   24.8459 C   0  0  0  0  0  0
  -21.4203  -29.3043   22.3670 N   0  0  0  0  0  0
  -26.4289  -37.3771   23.9411 N   0  0  0  0  0  0
  -24.6944  -31.0546   22.0972 N   0  0  0  0  0  0
  -23.4205  -28.8156   23.3014 O   0  0  0  0  0  0
  -28.2891  -26.3611   20.1899 O   0  0  0  0  0  0
  -26.5643  -34.8917   22.4677 O   0  0  0  0  0  0
  -23.5450  -32.1396   23.7295 O   0  0  0  0  0  0
  -29.6374  -18.4613   20.6887 C   0  0  0  0  0  0
  -30.3643  -17.2440   18.7203 C   0  0  0  0  0  0
  -30.2209  -19.7043   18.6639 C   0  0  0  0  0  0
  -29.7590  -19.7540   20.0138 C   0  0  0  0  0  0
  -29.9739  -17.1849   20.0743 C   0  0  0  0  0  0
  -30.4771  -18.4648   18.0343 C   0  0  0  0  0  0
  -30.2971  -21.3653   21.7868 C   0  0  0  0  0  0
  -30.4059  -22.8056   22.3281 C   0  0  0  0  0  0
  -29.2876  -23.7816   21.9309 C   0  0  0  0  0  0
  -28.6788  -22.2013   20.1019 C   0  0  0  0  0  0
  -29.0416  -23.7399   20.4264 C   0  0  1  0  0  0
  -30.5405  -20.9580   17.8586 C   0  0  0  0  0  0
  -28.0144  -24.8993   19.9780 C   0  0  0  0  0  0
  -29.5659  -21.0865   20.6698 N   0  0  0  0  0  0
  -29.8681  -15.8466   20.7075 N   0  0  0  0  0  0
  -30.9420  -20.5054   22.3964 O   0  0  0  0  0  0
  -30.8699  -18.4366   16.7374 F   0  0  0  0  0  0
  -31.4732  -12.5289   19.1822 H   0  0  0  0  0  0
  -30.3475  -11.4434   19.9455 H   0  0  0  0  0  0
  -29.7869  -11.7452   17.5086 H   0  0  0  0  0  0
  -29.6573  -13.4712   17.7339 H   0  0  0  0  0  0
  -27.8712  -11.2982   18.8821 H   0  0  0  0  0  0
  -27.3849  -12.5706   17.7948 H   0  0  0  0  0  0
  -27.6517  -14.2609   19.4917 H   0  0  0  0  0  0
  -28.7077  -12.1473   21.4302 H   0  0  0  0  0  0
  -28.4282  -13.8268   21.8073 H   0  0  0  0  0  0
  -25.2765   -9.5681   22.4754 H   0  0  0  0  0  0
  -24.0006   -7.4624   22.7476 H   0  0  0  0  0  0
  -21.0837   -8.8782   19.8958 H   0  0  0  0  0  0
  -22.3714  -10.9668   19.6167 H   0  0  0  0  0  0
  -21.2023   -7.6142   23.9712 H   0  0  0  0  0  0
  -21.1480   -6.0520   25.9073 H   0  0  0  0  0  0
  -22.0599   -2.7608   23.2844 H   0  0  0  0  0  0
  -22.4079  -11.9933   22.4816 H   0  0  0  0  0  0
  -21.1084  -13.1303   22.2554 H   0  0  0  0  0  0
  -24.6579  -15.8464   20.5274 H   0  0  0  0  0  0
  -26.2736  -15.6328   20.0848 H   0  0  0  0  0  0
  -26.7192  -32.5415   23.1074 H   0  0  0  0  0  0
  -25.0028  -33.9699   25.0374 H   0  0  0  0  0  0
  -22.7192  -31.3046   21.4035 H   0  0  0  0  0  0
  -23.3753  -35.9625   23.3278 H   0  0  0  0  0  0
  -24.3600  -36.8933   22.2055 H   0  0  0  0  0  0
  -23.7247  -37.6486   23.6674 H   0  0  0  0  0  0
  -26.1036  -31.5288   20.6027 H   0  0  0  0  0  0
  -26.8512  -30.8246   22.0060 H   0  0  0  0  0  0
  -28.1040  -28.9097   21.2261 H   0  0  0  0  0  0
  -25.9224  -25.9290   18.9710 H   0  0  0  0  0  0
  -23.9562  -27.3305   18.9888 H   0  0  0  0  0  0
  -23.7597  -30.5990   19.4036 H   0  0  0  0  0  0
  -22.7551  -29.2550   19.8573 H   0  0  0  0  0  0
  -25.1292  -36.1920   25.0814 H   0  0  0  0  0  0
  -20.9998  -28.3281   24.1402 H   0  0  0  0  0  0
  -20.5724  -26.2305   23.3616 H   0  0  0  0  0  0
  -21.6655  -26.7469   22.1187 H   0  0  0  0  0  0
  -19.6920  -25.6300   21.1253 H   0  0  0  0  0  0
  -19.6683  -27.3208   20.6760 H   0  0  0  0  0  0
  -17.4207  -26.6691   21.4032 H   0  0  0  0  0  0
  -18.0326  -26.0077   22.9033 H   0  0  0  0  0  0
  -19.7941  -30.7281   24.2277 H   0  0  0  0  0  0
  -17.5017  -31.6277   24.5155 H   0  0  0  0  0  0
  -15.5355  -30.2994   23.7640 H   0  0  0  0  0  0
  -15.8686  -28.0822   22.7068 H   0  0  0  0  0  0
  -24.5901  -30.7041   25.7764 H   0  0  0  0  0  0
  -24.8866  -32.2885   26.4805 H   0  0  0  0  0  0
  -25.8014  -30.8940   27.0227 H   0  0  0  0  0  0
  -26.2865  -29.6757   24.1169 H   0  0  0  0  0  0
  -27.3962  -29.7204   25.4667 H   0  0  0  0  0  0
  -27.8763  -30.4241   23.9406 H   0  0  0  0  0  0
  -27.2650  -33.3607   26.2039 H   0  0  0  0  0  0
  -28.3868  -32.6822   25.0325 H   0  0  0  0  0  0
  -28.0681  -31.8425   26.5429 H   0  0  0  0  0  0
  -28.2577  -38.0119   24.7519 H   0  0  0  0  0  0
  -28.1098  -36.2648   24.6256 H   0  0  0  0  0  0
  -27.2309  -37.1421   25.8865 H   0  0  0  0  0  0
  -20.9386  -29.8761   21.6873 H   0  0  0  0  0  0
  -26.0160  -38.2843   24.1414 H   0  0  0  0  0  0
  -29.3181  -18.4557   21.7220 H   0  0  0  0  0  0
  -30.5893  -16.3398   18.1736 H   0  0  0  0  0  0
  -31.3570  -23.2002   21.9690 H   0  0  0  0  0  0
  -30.4841  -22.7694   23.4152 H   0  0  0  0  0  0
  -29.5649  -24.7924   22.2334 H   0  0  0  0  0  0
  -28.3716  -23.5397   22.4724 H   0  0  0  0  0  0
  -28.5436  -22.0894   19.0309 H   0  0  0  0  0  0
  -27.6827  -22.0104   20.5041 H   0  0  0  0  0  0
  -29.9833  -23.9622   19.9227 H   0  0  0  0  0  0
  -29.6590  -21.3109   17.3251 H   0  0  0  0  0  0
  -31.3032  -20.7553   17.1067 H   0  0  0  0  0  0
  -30.9334  -21.7593   18.4848 H   0  0  0  0  0  0
  -27.0654  -24.6558   20.4585 H   0  0  0  0  0  0
  -27.8492  -24.7686   18.9080 H   0  0  0  0  0  0
  -29.0160  -15.6792   21.2218 H   0  0  0  0  0  0
  1 25  1  0  0  0
  1 30  2  0  0  0
  1 85  1  0  0  0
  2  3  1  0  0  0
  2 25  1  0  0  0
  2 88  1  0  0  0
  2 89  1  0  0  0
  3  4  1  0  0  0
  3 90  1  0  0  0
  3 91  1  0  0  0
  4  5  1  0  0  0
  4 92  1  0  0  0
  4 93  1  0  0  0
  5  6  1  0  0  0
  5 26  1  0  0  0
  5 94  1  0  0  0
  6 25  1  0  0  0
  6 95  1  0  0  0
  6 96  1  0  0  0
  7  8  2  0  0  0
  7 26  1  0  0  0
  7 29  1  0  0  0
  8  9  1  0  0  0
  8 22  1  0  0  0
  9 10  1  0  0  0
  9 27  2  0  0  0
 10 11  2  0  0  0
 10 15  1  0  0  0
 11 12  1  0  0  0
 11 97  1  0  0  0
 12 13  2  0  0  0
 12 98  1  0  0  0
 13 14  1  0  0  0
 13 31  1  0  0  0
 14 15  2  0  0  0
 14 99  1  0  0  0
 15100  1  0  0  0
 16 17  2  0  0  0
 16 21  1  0  0  0
 16 31  1  0  0  0
 17 18  1  0  0  0
 17101  1  0  0  0
 18 19  2  0  0  0
 18102  1  0  0  0
 19 20  1  0  0  0
 19 24  1  0  0  0
 20 21  2  0  0  0
 20103  1  0  0  0
 21 23  1  0  0  0
 22 28  1  0  0  0
 22 32  2  0  0  0
 26 27  1  0  0  0
 28104  1  0  0  0
 28105  1  0  0  0
 29106  1  0  0  0
 29107  1  0  0  0
 33 34  1  0  0  0
 33 66  1  0  0  0
 33 70  2  0  0  0
 34 36  1  0  0  0
 34 59  1  0  0  0
 34108  1  0  0  0
 35 44  2  0  0  0
 35 45  1  0  0  0
 35 68  1  0  0  0
 36 56  1  0  0  0
 36109  1  0  0  0
 37 39  1  0  0  0
 37 47  1  0  0  0
 37 66  1  0  0  0
 37110  1  0  0  0
 38 43  2  0  0  0
 38 46  1  0  0  0
 38 47  1  0  0  0
 39 64  1  0  0  0
 39 67  2  0  0  0
 40 52  1  0  0  0
 40 53  2  0  0  0
 40 58  1  0  0  0
 41111  1  0  0  0
 41112  1  0  0  0
 41113  1  0  0  0
 41 48  1  0  0  0
 42 43  1  0  0  0
 42 66  1  0  0  0
 42114  1  0  0  0
 42115  1  0  0  0
 43 44  1  0  0  0
 44116  1  0  0  0
 45 46  2  0  0  0
 45117  1  0  0  0
 46118  1  0  0  0
 47119  1  0  0  0
 47120  1  0  0  0
 48 56  1  0  0  0
 48 65  1  0  0  0
 48121  1  0  0  0
 49 50  1  0  0  0
 49 53  1  0  0  0
 49 64  1  0  0  0
 49122  1  0  0  0
 50 51  1  0  0  0
 50123  1  0  0  0
 50124  1  0  0  0
 51 52  1  0  0  0
 51125  1  0  0  0
 51126  1  0  0  0
 52127  1  0  0  0
 52128  1  0  0  0
 53 54  1  0  0  0
 54 55  2  0  0  0
 54129  1  0  0  0
 55 57  1  0  0  0
 55130  1  0  0  0
 56 69  2  0  0  0
 57 58  2  0  0  0
 57131  1  0  0  0
 58132  1  0  0  0
 59 60  1  0  0  0
 59 61  1  0  0  0
 59 62  1  0  0  0
 60133  1  0  0  0
 60134  1  0  0  0
 60135  1  0  0  0
 61136  1  0  0  0
 61137  1  0  0  0
 61138  1  0  0  0
 62139  1  0  0  0
 62140  1  0  0  0
 62141  1  0  0  0
 63 65  1  0  0  0
 63142  1  0  0  0
 63143  1  0  0  0
 63144  1  0  0  0
 64145  1  0  0  0
 65146  1  0  0  0
 68 83  1  0  0  0
 71 74  2  0  0  0
 71 75  1  0  0  0
 71147  1  0  0  0
 72 75  2  0  0  0
 72 76  1  0  0  0
 72148  1  0  0  0
 73 74  1  0  0  0
 73 76  2  0  0  0
 73 82  1  0  0  0
 74 84  1  0  0  0
 75 85  1  0  0  0
 76 87  1  0  0  0
 77 78  1  0  0  0
 77 84  1  0  0  0
 77 86  2  0  0  0
 78 79  1  0  0  0
 78149  1  0  0  0
 78150  1  0  0  0
 79 81  1  0  0  0
 79151  1  0  0  0
 79152  1  0  0  0
 80 81  1  0  0  0
 80 84  1  0  0  0
 80153  1  0  0  0
 80154  1  0  0  0
 81 83  1  0  0  0
 81155  1  0  0  0
 82156  1  0  0  0
 82157  1  0  0  0
 82158  1  0  0  0
 83159  1  0  0  0
 83160  1  0  0  0
 85161  1  0  0  0
M  ISO  4   1 100  68 101  83 101  85 100
M  END
> <chiral flag>
0

> <version>
0

> <s_m_source_file>
/data/baiqing/PycharmProjects/Reinvent-master-3.2/result/LINK_invent/BTK/process_docking_weight1_custom_product_contain_oxygen_bond_distance_aromatic_linkinvent_7_9_3/rearranged_h_0061.sdf

> <i_m_source_file_index>
67

> <r_mmod_Potential_Energy-OPLS-2005>
273.921752929688

> <r_mmod_Stretch_Energy-OPLS-2005>
127.068992614746

> <r_mmod_Bend_Energy-OPLS-2005>
157.981552124023

> <r_mmod_Torsional_Energy-OPLS-2005>
299.729461669922

> <r_mmod_Improper_Torsional_Energy-OPLS-2005>
5.44664430618286

> <r_mmod_Van_der_Waal_Energy-OPLS-2005>
159.294540405273

> <r_mmod_Electrostatic_Energy-OPLS-2005>
-329.938140869141

> <r_mmod_Solvation_Energy-OPLS-2005>
-223.06657409668

> <b_mmod_Minimization_Converged-OPLS-2005>
0

> <r_mmod_RMS_Derivative-OPLS-2005>
1.95203173160553

$$$$
68
                    3D
 Structure written by MMmdl.
157165  0  0  1  0            999 V2000
  -30.6384  -14.5940   20.4224 C   0  0  0  0  0  0
  -30.4444  -12.3422   19.4319 C   0  0  0  0  0  0
  -29.4974  -12.4079   18.2121 C   0  0  0  0  0  0
  -28.0090  -12.3533   18.6210 C   0  0  0  0  0  0
  -27.6586  -13.2135   19.8658 C   0  0  2  0  0  0
  -28.7181  -13.0482   20.9800 C   0  0  0  0  0  0
  -25.2597  -13.8150   20.5704 C   0  0  0  0  0  0
  -24.1833  -13.0391   20.9155 C   0  0  0  0  0  0
  -24.6419  -11.6888   20.8752 C   0  0  0  0  0  0
  -23.9067  -10.4270   21.0433 C   0  0  0  0  0  0
  -24.3606   -9.4192   21.9212 C   0  0  0  0  0  0
  -23.6284   -8.2230   22.0780 C   0  0  0  0  0  0
  -22.4286   -8.0266   21.3555 C   0  0  0  0  0  0
  -21.9917   -9.0230   20.4651 C   0  0  0  0  0  0
  -22.7247  -10.2112   20.3082 C   0  0  0  0  0  0
  -21.6869   -6.0704   22.5265 C   0  0  0  0  0  0
  -21.4031   -6.5634   23.8175 C   0  0  0  0  0  0
  -21.3653   -5.6804   24.9147 C   0  0  0  0  0  0
  -21.6035   -4.3057   24.7229 C   0  0  0  0  0  0
  -21.8828   -3.8128   23.4357 C   0  0  0  0  0  0
  -21.9206   -4.6929   22.3397 C   0  0  0  0  0  0
  -22.7876  -13.5204   21.1775 C   0  0  0  0  0  0
  -22.1676   -4.2108   21.0984 F   0  0  0  0  0  0
  -21.5614   -3.4557   25.7749 F   0  0  0  0  0  0
  -30.0249  -13.3755   20.3936 N   0  0  0  0  0  0
  -26.3063  -12.9342   20.3430 N   0  0  0  0  0  0
  -25.9372  -11.6496   20.5872 N   0  0  0  0  0  0
  -22.0511  -12.8167   22.0315 N   0  0  0  0  0  0
  -25.4200  -15.1860   20.4137 N   0  0  0  0  0  0
  -31.8271  -14.7286   20.1259 O   0  0  0  0  0  0
  -21.6651   -6.8872   21.4248 O   0  0  0  0  0  0
  -22.3581  -14.5512   20.6635 O   0  0  0  0  0  0
  -24.6203  -31.8658   23.2061 C   0  0  0  0  0  0
  -25.9057  -32.4840   23.8414 C   0  0  1  0  0  0
  -27.2726  -27.4139   20.1020 C   0  0  0  0  0  0
  -25.5889  -33.8633   24.2369 N   0  0  0  0  0  0
  -23.4162  -30.4834   21.5425 C   0  0  2  0  0  0
  -24.8740  -28.9388   20.1229 C   0  0  0  0  0  0
  -22.7436  -29.4664   22.4931 C   0  0  0  0  0  0
  -18.0269  -28.1379   22.8513 C   0  0  0  0  0  0
  -24.1462  -36.7277   23.2650 C   0  0  0  0  0  0
  -25.9480  -30.8231   21.3649 C   0  0  0  0  0  0
  -26.0324  -29.4539   20.7173 C   0  0  0  0  0  0
  -27.2323  -28.7017   20.6959 C   0  0  0  0  0  0
  -26.0889  -26.9152   19.5149 C   0  0  0  0  0  0
  -24.8988  -27.6686   19.5194 C   0  0  0  0  0  0
  -23.6364  -29.8053   20.1626 C   0  0  0  0  0  0
  -25.4095  -36.3122   24.0350 C   0  0  1  0  0  0
  -20.5871  -28.3692   23.1293 C   0  0  2  0  0  0
  -20.6733  -26.9411   22.5422 C   0  0  0  0  0  0
  -19.5727  -26.6392   21.5211 C   0  0  0  0  0  0
  -18.1905  -26.7933   22.1623 C   0  0  0  0  0  0
  -19.1517  -28.8843   23.2918 C   0  0  0  0  0  0
  -18.9458  -30.1429   23.8958 C   0  0  0  0  0  0
  -17.6469  -30.6600   24.0573 C   0  0  0  0  0  0
  -25.9034  -34.9484   23.5164 C   0  0  0  0  0  0
  -16.5354  -29.9110   23.6322 C   0  0  0  0  0  0
  -16.7268  -28.6508   23.0381 C   0  0  0  0  0  0
  -26.4468  -31.6615   25.0751 C   0  0  0  0  0  0
  -25.3728  -31.3619   26.1480 C   0  0  0  0  0  0
  -27.0349  -30.3092   24.6123 C   0  0  0  0  0  0
  -27.6109  -32.4271   25.7492 C   0  0  0  0  0  0
  -27.5569  -37.1810   24.8481 C   0  0  0  0  0  0
  -21.4150  -29.3064   22.3677 N   0  0  0  0  0  0
  -26.4281  -37.3826   23.9421 N   0  0  0  0  0  0
  -24.6801  -31.0719   22.0971 N   0  0  0  0  0  0
  -23.4179  -28.8199   23.3002 O   0  0  0  0  0  0
  -28.4636  -26.7020   20.1098 O   0  0  0  0  0  0
  -26.5612  -34.8953   22.4733 O   0  0  0  0  0  0
  -23.5376  -32.1413   23.7410 O   0  0  0  0  0  0
  -30.0414  -18.4135   17.9510 C   0  0  0  0  0  0
  -29.8763  -19.5710   18.7166 C   0  0  0  0  0  0
  -29.7073  -18.1984   20.7173 C   0  0  0  0  0  0
  -30.0438  -17.1357   18.5379 C   0  0  0  0  0  0
  -29.6663  -19.5069   20.1103 C   0  0  0  0  0  0
  -29.9069  -16.9928   19.9505 C   0  0  0  0  0  0
  -28.9902  -21.9550   20.4097 C   0  0  0  0  0  0
  -30.1384  -15.9743   17.5603 C   0  0  0  0  0  0
  -28.8627  -23.1445   21.4007 C   0  0  0  0  0  0
  -27.9912  -24.3683   20.9269 C   0  0  0  0  0  0
  -28.5107  -25.2911   19.7796 C   0  0  0  0  0  0
  -29.4435  -20.7402   20.8582 N   0  0  0  0  0  0
  -29.8181  -15.6752   20.5740 N   0  0  0  0  0  0
  -28.6380  -22.1597   19.2448 O   0  0  0  0  0  0
  -31.4744  -12.4823   19.0939 H   0  0  0  0  0  0
  -30.4072  -11.3555   19.8961 H   0  0  0  0  0  0
  -29.7152  -11.5739   17.5393 H   0  0  0  0  0  0
  -29.6922  -13.3014   17.6263 H   0  0  0  0  0  0
  -27.7629  -11.3079   18.8048 H   0  0  0  0  0  0
  -27.3876  -12.6608   17.7801 H   0  0  0  0  0  0
  -27.6765  -14.2529   19.5403 H   0  0  0  0  0  0
  -28.7271  -12.0219   21.3518 H   0  0  0  0  0  0
  -28.5068  -13.6809   21.8437 H   0  0  0  0  0  0
  -25.2749   -9.5659   22.4762 H   0  0  0  0  0  0
  -23.9968   -7.4648   22.7532 H   0  0  0  0  0  0
  -21.0837   -8.8753   19.8968 H   0  0  0  0  0  0
  -22.3704  -10.9640   19.6181 H   0  0  0  0  0  0
  -21.2044   -7.6152   23.9654 H   0  0  0  0  0  0
  -21.1475   -6.0554   25.9038 H   0  0  0  0  0  0
  -22.0613   -2.7591   23.2882 H   0  0  0  0  0  0
  -22.4183  -11.9838   22.4656 H   0  0  0  0  0  0
  -21.1105  -13.1140   22.2454 H   0  0  0  0  0  0
  -24.6325  -15.8206   20.5012 H   0  0  0  0  0  0
  -26.2696  -15.6509   20.1144 H   0  0  0  0  0  0
  -26.7149  -32.5570   23.1217 H   0  0  0  0  0  0
  -25.0002  -33.9805   25.0476 H   0  0  0  0  0  0
  -22.7089  -31.2983   21.3862 H   0  0  0  0  0  0
  -23.3789  -35.9550   23.3297 H   0  0  0  0  0  0
  -24.3529  -36.8927   22.2071 H   0  0  0  0  0  0
  -23.7154  -37.6439   23.6676 H   0  0  0  0  0  0
  -26.0588  -31.5840   20.5904 H   0  0  0  0  0  0
  -26.8358  -30.8887   21.9820 H   0  0  0  0  0  0
  -28.1298  -29.1057   21.1440 H   0  0  0  0  0  0
  -26.0662  -25.9415   19.0467 H   0  0  0  0  0  0
  -24.0116  -27.2524   19.0614 H   0  0  0  0  0  0
  -23.7588  -30.5753   19.4010 H   0  0  0  0  0  0
  -22.7658  -29.2221   19.8603 H   0  0  0  0  0  0
  -25.1275  -36.2006   25.0850 H   0  0  0  0  0  0
  -20.9987  -28.3277   24.1408 H   0  0  0  0  0  0
  -20.5583  -26.2316   23.3629 H   0  0  0  0  0  0
  -21.6612  -26.7376   22.1278 H   0  0  0  0  0  0
  -19.6880  -25.6306   21.1238 H   0  0  0  0  0  0
  -19.6682  -27.3194   20.6739 H   0  0  0  0  0  0
  -17.4177  -26.6734   21.4018 H   0  0  0  0  0  0
  -18.0274  -26.0046   22.8989 H   0  0  0  0  0  0
  -19.7928  -30.7202   24.2411 H   0  0  0  0  0  0
  -17.5026  -31.6285   24.5153 H   0  0  0  0  0  0
  -15.5358  -30.3049   23.7578 H   0  0  0  0  0  0
  -15.8661  -28.0820   22.7114 H   0  0  0  0  0  0
  -24.5876  -30.7061   25.7692 H   0  0  0  0  0  0
  -24.8940  -32.2727   26.5094 H   0  0  0  0  0  0
  -25.8064  -30.8595   27.0146 H   0  0  0  0  0  0
  -26.2927  -29.6799   24.1222 H   0  0  0  0  0  0
  -27.4211  -29.7380   25.4575 H   0  0  0  0  0  0
  -27.8698  -30.4463   23.9250 H   0  0  0  0  0  0
  -27.2880  -33.3637   26.2050 H   0  0  0  0  0  0
  -28.3940  -32.6704   25.0291 H   0  0  0  0  0  0
  -28.0755  -31.8364   26.5412 H   0  0  0  0  0  0
  -28.2606  -38.0080   24.7524 H   0  0  0  0  0  0
  -28.1049  -36.2624   24.6337 H   0  0  0  0  0  0
  -27.2271  -37.1514   25.8876 H   0  0  0  0  0  0
  -20.9289  -29.8843   21.6958 H   0  0  0  0  0  0
  -26.0177  -38.2909   24.1427 H   0  0  0  0  0  0
  -30.1470  -18.5291   16.8823 H   0  0  0  0  0  0
  -29.9109  -20.5048   18.1774 H   0  0  0  0  0  0
  -29.5663  -18.1109   21.7851 H   0  0  0  0  0  0
  -30.3234  -16.3289   16.5444 H   0  0  0  0  0  0
  -29.1976  -15.4247   17.5355 H   0  0  0  0  0  0
  -30.9623  -15.3015   17.7847 H   0  0  0  0  0  0
  -29.8509  -23.4848   21.7173 H   0  0  0  0  0  0
  -28.3868  -22.7542   22.3012 H   0  0  0  0  0  0
  -27.8080  -25.0018   21.7944 H   0  0  0  0  0  0
  -27.0094  -23.9935   20.6401 H   0  0  0  0  0  0
  -27.9883  -25.0897   18.8423 H   0  0  0  0  0  0
  -29.5516  -25.0477   19.5584 H   0  0  0  0  0  0
  -29.6437  -20.6955   21.8488 H   0  0  0  0  0  0
  -28.9144  -15.4451   20.9596 H   0  0  0  0  0  0
  1 25  1  0  0  0
  1 30  2  0  0  0
  1 83  1  0  0  0
  2  3  1  0  0  0
  2 25  1  0  0  0
  2 85  1  0  0  0
  2 86  1  0  0  0
  3  4  1  0  0  0
  3 87  1  0  0  0
  3 88  1  0  0  0
  4  5  1  0  0  0
  4 89  1  0  0  0
  4 90  1  0  0  0
  5  6  1  0  0  0
  5 26  1  0  0  0
  5 91  1  0  0  0
  6 25  1  0  0  0
  6 92  1  0  0  0
  6 93  1  0  0  0
  7  8  2  0  0  0
  7 26  1  0  0  0
  7 29  1  0  0  0
  8  9  1  0  0  0
  8 22  1  0  0  0
  9 10  1  0  0  0
  9 27  2  0  0  0
 10 11  2  0  0  0
 10 15  1  0  0  0
 11 12  1  0  0  0
 11 94  1  0  0  0
 12 13  2  0  0  0
 12 95  1  0  0  0
 13 14  1  0  0  0
 13 31  1  0  0  0
 14 15  2  0  0  0
 14 96  1  0  0  0
 15 97  1  0  0  0
 16 17  2  0  0  0
 16 21  1  0  0  0
 16 31  1  0  0  0
 17 18  1  0  0  0
 17 98  1  0  0  0
 18 19  2  0  0  0
 18 99  1  0  0  0
 19 20  1  0  0  0
 19 24  1  0  0  0
 20 21  2  0  0  0
 20100  1  0  0  0
 21 23  1  0  0  0
 22 28  1  0  0  0
 22 32  2  0  0  0
 26 27  1  0  0  0
 28101  1  0  0  0
 28102  1  0  0  0
 29103  1  0  0  0
 29104  1  0  0  0
 33 34  1  0  0  0
 33 66  1  0  0  0
 33 70  2  0  0  0
 34 36  1  0  0  0
 34 59  1  0  0  0
 34105  1  0  0  0
 35 44  2  0  0  0
 35 45  1  0  0  0
 35 68  1  0  0  0
 36 56  1  0  0  0
 36106  1  0  0  0
 37 39  1  0  0  0
 37 47  1  0  0  0
 37 66  1  0  0  0
 37107  1  0  0  0
 38 43  2  0  0  0
 38 46  1  0  0  0
 38 47  1  0  0  0
 39 64  1  0  0  0
 39 67  2  0  0  0
 40 52  1  0  0  0
 40 53  2  0  0  0
 40 58  1  0  0  0
 41108  1  0  0  0
 41109  1  0  0  0
 41110  1  0  0  0
 41 48  1  0  0  0
 42 43  1  0  0  0
 42 66  1  0  0  0
 42111  1  0  0  0
 42112  1  0  0  0
 43 44  1  0  0  0
 44113  1  0  0  0
 45 46  2  0  0  0
 45114  1  0  0  0
 46115  1  0  0  0
 47116  1  0  0  0
 47117  1  0  0  0
 48 56  1  0  0  0
 48 65  1  0  0  0
 48118  1  0  0  0
 49 50  1  0  0  0
 49 53  1  0  0  0
 49 64  1  0  0  0
 49119  1  0  0  0
 50 51  1  0  0  0
 50120  1  0  0  0
 50121  1  0  0  0
 51 52  1  0  0  0
 51122  1  0  0  0
 51123  1  0  0  0
 52124  1  0  0  0
 52125  1  0  0  0
 53 54  1  0  0  0
 54 55  2  0  0  0
 54126  1  0  0  0
 55 57  1  0  0  0
 55127  1  0  0  0
 56 69  2  0  0  0
 57 58  2  0  0  0
 57128  1  0  0  0
 58129  1  0  0  0
 59 60  1  0  0  0
 59 61  1  0  0  0
 59 62  1  0  0  0
 60130  1  0  0  0
 60131  1  0  0  0
 60132  1  0  0  0
 61133  1  0  0  0
 61134  1  0  0  0
 61135  1  0  0  0
 62136  1  0  0  0
 62137  1  0  0  0
 62138  1  0  0  0
 63 65  1  0  0  0
 63139  1  0  0  0
 63140  1  0  0  0
 63141  1  0  0  0
 64142  1  0  0  0
 65143  1  0  0  0
 68 81  1  0  0  0
 71 72  2  0  0  0
 71 74  1  0  0  0
 71144  1  0  0  0
 72 75  1  0  0  0
 72145  1  0  0  0
 73 75  2  0  0  0
 73 76  1  0  0  0
 73146  1  0  0  0
 74 76  2  0  0  0
 74 78  1  0  0  0
 75 82  1  0  0  0
 76 83  1  0  0  0
 77 79  1  0  0  0
 77 82  1  0  0  0
 77 84  2  0  0  0
 78147  1  0  0  0
 78148  1  0  0  0
 78149  1  0  0  0
 79 80  1  0  0  0
 79150  1  0  0  0
 79151  1  0  0  0
 80 81  1  0  0  0
 80152  1  0  0  0
 80153  1  0  0  0
 81154  1  0  0  0
 81155  1  0  0  0
 82156  1  0  0  0
 83157  1  0  0  0
M  ISO  4   1 100  68 101  81 101  83 100
M  END
> <chiral flag>
0

> <version>
0

> <s_m_source_file>
/data/baiqing/PycharmProjects/Reinvent-master-3.2/result/LINK_invent/BTK/process_docking_weight1_custom_product_contain_oxygen_bond_distance_aromatic_linkinvent_7_9_3/rearranged_h_0061.sdf

> <i_m_source_file_index>
68

> <r_mmod_Potential_Energy-OPLS-2005>
-27.8805656433105

> <r_mmod_Stretch_Energy-OPLS-2005>
62.493408203125

> <r_mmod_Bend_Energy-OPLS-2005>
127.650680541992

> <r_mmod_Torsional_Energy-OPLS-2005>
252.161666870117

> <r_mmod_Improper_Torsional_Energy-OPLS-2005>
6.49857711791992

> <r_mmod_Van_der_Waal_Energy-OPLS-2005>
155.605575561523

> <r_mmod_Electrostatic_Energy-OPLS-2005>
-434.337646484375

> <r_mmod_Solvation_Energy-OPLS-2005>
-228.908065795898

> <b_mmod_Minimization_Converged-OPLS-2005>
0

> <r_mmod_RMS_Derivative-OPLS-2005>
5.97178840637207

$$$$
69
                    3D
 Structure written by MMmdl.
167176  0  0  1  0            999 V2000
  -30.6270  -14.6329   20.5022 C   0  0  0  0  0  0
  -30.4387  -12.3870   19.4567 C   0  0  0  0  0  0
  -29.5112  -12.5080   18.2265 C   0  0  0  0  0  0
  -28.0333  -12.3460   18.6352 C   0  0  0  0  0  0
  -27.6540  -13.2166   19.8626 C   0  0  2  0  0  0
  -28.6965  -13.0697   20.9945 C   0  0  0  0  0  0
  -25.2557  -13.8156   20.5647 C   0  0  0  0  0  0
  -24.1829  -13.0432   20.9181 C   0  0  0  0  0  0
  -24.6398  -11.6901   20.8732 C   0  0  0  0  0  0
  -23.9064  -10.4289   21.0404 C   0  0  0  0  0  0
  -24.3618   -9.4208   21.9184 C   0  0  0  0  0  0
  -23.6291   -8.2241   22.0754 C   0  0  0  0  0  0
  -22.4274   -8.0276   21.3544 C   0  0  0  0  0  0
  -21.9909   -9.0248   20.4645 C   0  0  0  0  0  0
  -22.7237  -10.2127   20.3052 C   0  0  0  0  0  0
  -21.6850   -6.0735   22.5280 C   0  0  0  0  0  0
  -21.4010   -6.5640   23.8213 C   0  0  0  0  0  0
  -21.3655   -5.6790   24.9173 C   0  0  0  0  0  0
  -21.6040   -4.3053   24.7223 C   0  0  0  0  0  0
  -21.8819   -3.8145   23.4345 C   0  0  0  0  0  0
  -21.9195   -4.6964   22.3403 C   0  0  0  0  0  0
  -22.7854  -13.5229   21.1839 C   0  0  0  0  0  0
  -22.1662   -4.2153   21.0980 F   0  0  0  0  0  0
  -21.5630   -3.4534   25.7733 F   0  0  0  0  0  0
  -30.0157  -13.4076   20.4362 N   0  0  0  0  0  0
  -26.2990  -12.9345   20.3293 N   0  0  0  0  0  0
  -25.9329  -11.6501   20.5748 N   0  0  0  0  0  0
  -22.0487  -12.8226   22.0393 N   0  0  0  0  0  0
  -25.4241  -15.1871   20.4003 N   0  0  0  0  0  0
  -31.7872  -14.7858   20.1080 O   0  0  0  0  0  0
  -21.6638   -6.8875   21.4241 O   0  0  0  0  0  0
  -22.3548  -14.5539   20.6694 O   0  0  0  0  0  0
  -24.6239  -31.8610   23.2034 C   0  0  0  0  0  0
  -25.9096  -32.4792   23.8351 C   0  0  1  0  0  0
  -27.2259  -27.3356   20.1237 C   0  0  0  0  0  0
  -25.5926  -33.8592   24.2282 N   0  0  0  0  0  0
  -23.4164  -30.4846   21.5454 C   0  0  2  0  0  0
  -24.8625  -28.9362   20.1152 C   0  0  0  0  0  0
  -22.7457  -29.4641   22.4950 C   0  0  0  0  0  0
  -18.0279  -28.1397   22.8496 C   0  0  0  0  0  0
  -24.1476  -36.7275   23.2647 C   0  0  0  0  0  0
  -25.9541  -30.7984   21.3684 C   0  0  0  0  0  0
  -26.0297  -29.4246   20.7163 C   0  0  0  0  0  0
  -27.2163  -28.6369   20.7084 C   0  0  0  0  0  0
  -26.0397  -26.8937   19.4982 C   0  0  0  0  0  0
  -24.8682  -27.6751   19.4973 C   0  0  0  0  0  0
  -23.6292  -29.8151   20.1617 C   0  0  0  0  0  0
  -25.4108  -36.3090   24.0342 C   0  0  1  0  0  0
  -20.5879  -28.3693   23.1299 C   0  0  2  0  0  0
  -20.6765  -26.9417   22.5431 C   0  0  0  0  0  0
  -19.5752  -26.6395   21.5223 C   0  0  0  0  0  0
  -18.1922  -26.7950   22.1608 C   0  0  0  0  0  0
  -19.1535  -28.8857   23.2895 C   0  0  0  0  0  0
  -18.9465  -30.1457   23.8915 C   0  0  0  0  0  0
  -17.6469  -30.6599   24.0580 C   0  0  0  0  0  0
  -25.9051  -34.9466   23.5109 C   0  0  0  0  0  0
  -16.5357  -29.9105   23.6338 C   0  0  0  0  0  0
  -16.7270  -28.6523   23.0360 C   0  0  0  0  0  0
  -26.4487  -31.6604   25.0714 C   0  0  0  0  0  0
  -25.3730  -31.3727   26.1447 C   0  0  0  0  0  0
  -27.0338  -30.3043   24.6136 C   0  0  0  0  0  0
  -27.6046  -32.4339   25.7481 C   0  0  0  0  0  0
  -27.5575  -37.1796   24.8469 C   0  0  0  0  0  0
  -21.4176  -29.3046   22.3690 N   0  0  0  0  0  0
  -26.4278  -37.3793   23.9428 N   0  0  0  0  0  0
  -24.6839  -31.0640   22.0968 N   0  0  0  0  0  0
  -23.4190  -28.8185   23.3027 O   0  0  0  0  0  0
  -28.3605  -26.5189   20.1262 O   0  0  0  0  0  0
  -26.5617  -34.8938   22.4671 O   0  0  0  0  0  0
  -23.5409  -32.1393   23.7382 O   0  0  0  0  0  0
  -30.9359  -19.1737   19.7243 C   0  0  0  0  0  0
  -30.9352  -17.7716   19.9567 C   0  0  0  0  0  0
  -28.8746  -19.4075   20.9071 C   0  0  0  0  0  0
  -28.8647  -17.9944   21.1502 C   0  0  0  0  0  0
  -29.9057  -20.0647   20.1754 C   0  0  0  0  0  0
  -29.8980  -17.1288   20.6715 C   0  0  0  0  0  0
  -29.2628  -22.5674   20.4956 C   0  0  0  0  0  0
  -30.7155  -21.8743   18.7982 C   0  0  0  0  0  0
  -30.7266  -24.6796   20.3393 C   0  0  0  0  0  0
  -29.3397  -24.0919   19.9999 C   0  0  2  0  0  0
  -32.0924  -22.5609   19.0498 C   0  0  0  0  0  0
  -27.6984  -17.4381   21.9515 C   0  0  0  0  0  0
  -32.7453  -22.1200   20.3838 C   0  0  0  0  0  0
  -33.0682  -22.1731   17.9157 C   0  0  0  0  0  0
  -28.2210  -25.0977   20.5230 C   0  0  0  0  0  0
  -29.9378  -21.5293   19.8514 N   0  0  0  0  0  0
  -29.8314  -15.6793   20.8923 N   0  0  0  0  0  0
  -28.5862  -22.3550   21.5076 O   0  0  0  0  0  0
  -30.3512  -21.6467   17.6385 O   0  0  0  0  0  0
  -31.9431  -24.3734   19.0264 S   0  0  0  0  0  0
  -31.4814  -12.5076   19.1574 H   0  0  0  0  0  0
  -30.3690  -11.3905   19.8956 H   0  0  0  0  0  0
  -29.7767  -11.7588   17.4796 H   0  0  0  0  0  0
  -29.6556  -13.4792   17.7496 H   0  0  0  0  0  0
  -27.8694  -11.2928   18.8656 H   0  0  0  0  0  0
  -27.3801  -12.5758   17.7925 H   0  0  0  0  0  0
  -27.6731  -14.2521   19.5221 H   0  0  0  0  0  0
  -28.7044  -12.0488   21.3782 H   0  0  0  0  0  0
  -28.4398  -13.7025   21.8452 H   0  0  0  0  0  0
  -25.2768   -9.5680   22.4758 H   0  0  0  0  0  0
  -23.9996   -7.4635   22.7476 H   0  0  0  0  0  0
  -21.0840   -8.8761   19.8955 H   0  0  0  0  0  0
  -22.3697  -10.9659   19.6154 H   0  0  0  0  0  0
  -21.1997   -7.6148   23.9715 H   0  0  0  0  0  0
  -21.1474   -6.0520   25.9074 H   0  0  0  0  0  0
  -22.0601   -2.7608   23.2838 H   0  0  0  0  0  0
  -22.4089  -11.9888   22.4786 H   0  0  0  0  0  0
  -21.1103  -13.1261   22.2580 H   0  0  0  0  0  0
  -24.6506  -15.8350   20.4998 H   0  0  0  0  0  0
  -26.2590  -15.6204   20.0283 H   0  0  0  0  0  0
  -26.7164  -32.5462   23.1100 H   0  0  0  0  0  0
  -25.0102  -33.9737   25.0447 H   0  0  0  0  0  0
  -22.7104  -31.3049   21.4018 H   0  0  0  0  0  0
  -23.3763  -35.9582   23.3310 H   0  0  0  0  0  0
  -24.3563  -36.8883   22.2060 H   0  0  0  0  0  0
  -23.7192  -37.6466   23.6657 H   0  0  0  0  0  0
  -26.0778  -31.5583   20.5961 H   0  0  0  0  0  0
  -26.8378  -30.8518   21.9926 H   0  0  0  0  0  0
  -28.1156  -29.0119   21.1770 H   0  0  0  0  0  0
  -26.0061  -25.9374   18.9972 H   0  0  0  0  0  0
  -23.9759  -27.2972   19.0172 H   0  0  0  0  0  0
  -23.7464  -30.5896   19.4029 H   0  0  0  0  0  0
  -22.7491  -29.2426   19.8633 H   0  0  0  0  0  0
  -25.1288  -36.1939   25.0835 H   0  0  0  0  0  0
  -20.9976  -28.3265   24.1417 H   0  0  0  0  0  0
  -20.5646  -26.2312   23.3632 H   0  0  0  0  0  0
  -21.6637  -26.7441   22.1231 H   0  0  0  0  0  0
  -19.6917  -25.6308   21.1245 H   0  0  0  0  0  0
  -19.6706  -27.3212   20.6762 H   0  0  0  0  0  0
  -17.4213  -26.6742   21.3983 H   0  0  0  0  0  0
  -18.0281  -26.0070   22.8970 H   0  0  0  0  0  0
  -19.7944  -30.7264   24.2288 H   0  0  0  0  0  0
  -17.5035  -31.6280   24.5178 H   0  0  0  0  0  0
  -15.5364  -30.3023   23.7666 H   0  0  0  0  0  0
  -15.8661  -28.0856   22.7071 H   0  0  0  0  0  0
  -24.5961  -30.6997   25.7799 H   0  0  0  0  0  0
  -24.8850  -32.2880   26.4813 H   0  0  0  0  0  0
  -25.8080  -30.8990   27.0256 H   0  0  0  0  0  0
  -26.2907  -29.6788   24.1180 H   0  0  0  0  0  0
  -27.4092  -29.7300   25.4612 H   0  0  0  0  0  0
  -27.8741  -30.4363   23.9316 H   0  0  0  0  0  0
  -27.2666  -33.3650   26.2043 H   0  0  0  0  0  0
  -28.3869  -32.6881   25.0317 H   0  0  0  0  0  0
  -28.0704  -31.8475   26.5411 H   0  0  0  0  0  0
  -28.2607  -38.0083   24.7524 H   0  0  0  0  0  0
  -28.1052  -36.2619   24.6271 H   0  0  0  0  0  0
  -27.2303  -37.1415   25.8874 H   0  0  0  0  0  0
  -20.9352  -29.8769   21.6903 H   0  0  0  0  0  0
  -26.0158  -38.2863   24.1456 H   0  0  0  0  0  0
  -31.7788  -19.5360   19.1550 H   0  0  0  0  0  0
  -31.7561  -17.1990   19.5516 H   0  0  0  0  0  0
  -28.0435  -19.9827   21.2898 H   0  0  0  0  0  0
  -31.0938  -24.3209   21.3004 H   0  0  0  0  0  0
  -30.6729  -25.7625   20.4440 H   0  0  0  0  0  0
  -29.2095  -24.0992   18.9177 H   0  0  0  0  0  0
  -27.8452  -17.6432   23.0119 H   0  0  0  0  0  0
  -27.5667  -16.3643   21.8333 H   0  0  0  0  0  0
  -26.7663  -17.9106   21.6411 H   0  0  0  0  0  0
  -32.9857  -21.0573   20.3852 H   0  0  0  0  0  0
  -32.1186  -22.3024   21.2552 H   0  0  0  0  0  0
  -33.6823  -22.6518   20.5521 H   0  0  0  0  0  0
  -33.1760  -21.0912   17.8266 H   0  0  0  0  0  0
  -34.0631  -22.5833   18.0900 H   0  0  0  0  0  0
  -32.7334  -22.5472   16.9467 H   0  0  0  0  0  0
  -28.2190  -25.0812   21.6136 H   0  0  0  0  0  0
  -27.2534  -24.6922   20.2326 H   0  0  0  0  0  0
  -28.9574  -15.3634   21.2819 H   0  0  0  0  0  0
  1 25  1  0  0  0
  1 30  2  0  0  0
  1 87  1  0  0  0
  2  3  1  0  0  0
  2 25  1  0  0  0
  2 91  1  0  0  0
  2 92  1  0  0  0
  3  4  1  0  0  0
  3 93  1  0  0  0
  3 94  1  0  0  0
  4  5  1  0  0  0
  4 95  1  0  0  0
  4 96  1  0  0  0
  5  6  1  0  0  0
  5 26  1  0  0  0
  5 97  1  0  0  0
  6 25  1  0  0  0
  6 98  1  0  0  0
  6 99  1  0  0  0
  7  8  2  0  0  0
  7 26  1  0  0  0
  7 29  1  0  0  0
  8  9  1  0  0  0
  8 22  1  0  0  0
  9 10  1  0  0  0
  9 27  2  0  0  0
 10 11  2  0  0  0
 10 15  1  0  0  0
 11 12  1  0  0  0
 11100  1  0  0  0
 12 13  2  0  0  0
 12101  1  0  0  0
 13 14  1  0  0  0
 13 31  1  0  0  0
 14 15  2  0  0  0
 14102  1  0  0  0
 15103  1  0  0  0
 16 17  2  0  0  0
 16 21  1  0  0  0
 16 31  1  0  0  0
 17 18  1  0  0  0
 17104  1  0  0  0
 18 19  2  0  0  0
 18105  1  0  0  0
 19 20  1  0  0  0
 19 24  1  0  0  0
 20 21  2  0  0  0
 20106  1  0  0  0
 21 23  1  0  0  0
 22 28  1  0  0  0
 22 32  2  0  0  0
 26 27  1  0  0  0
 28107  1  0  0  0
 28108  1  0  0  0
 29109  1  0  0  0
 29110  1  0  0  0
 33 34  1  0  0  0
 33 66  1  0  0  0
 33 70  2  0  0  0
 34 36  1  0  0  0
 34 59  1  0  0  0
 34111  1  0  0  0
 35 44  2  0  0  0
 35 45  1  0  0  0
 35 68  1  0  0  0
 36 56  1  0  0  0
 36112  1  0  0  0
 37 39  1  0  0  0
 37 47  1  0  0  0
 37 66  1  0  0  0
 37113  1  0  0  0
 38 43  2  0  0  0
 38 46  1  0  0  0
 38 47  1  0  0  0
 39 64  1  0  0  0
 39 67  2  0  0  0
 40 52  1  0  0  0
 40 53  2  0  0  0
 40 58  1  0  0  0
 41114  1  0  0  0
 41115  1  0  0  0
 41116  1  0  0  0
 41 48  1  0  0  0
 42 43  1  0  0  0
 42 66  1  0  0  0
 42117  1  0  0  0
 42118  1  0  0  0
 43 44  1  0  0  0
 44119  1  0  0  0
 45 46  2  0  0  0
 45120  1  0  0  0
 46121  1  0  0  0
 47122  1  0  0  0
 47123  1  0  0  0
 48 56  1  0  0  0
 48 65  1  0  0  0
 48124  1  0  0  0
 49 50  1  0  0  0
 49 53  1  0  0  0
 49 64  1  0  0  0
 49125  1  0  0  0
 50 51  1  0  0  0
 50126  1  0  0  0
 50127  1  0  0  0
 51 52  1  0  0  0
 51128  1  0  0  0
 51129  1  0  0  0
 52130  1  0  0  0
 52131  1  0  0  0
 53 54  1  0  0  0
 54 55  2  0  0  0
 54132  1  0  0  0
 55 57  1  0  0  0
 55133  1  0  0  0
 56 69  2  0  0  0
 57 58  2  0  0  0
 57134  1  0  0  0
 58135  1  0  0  0
 59 60  1  0  0  0
 59 61  1  0  0  0
 59 62  1  0  0  0
 60136  1  0  0  0
 60137  1  0  0  0
 60138  1  0  0  0
 61139  1  0  0  0
 61140  1  0  0  0
 61141  1  0  0  0
 62142  1  0  0  0
 62143  1  0  0  0
 62144  1  0  0  0
 63 65  1  0  0  0
 63145  1  0  0  0
 63146  1  0  0  0
 63147  1  0  0  0
 64148  1  0  0  0
 65149  1  0  0  0
 68 85  1  0  0  0
 71 72  2  0  0  0
 71 75  1  0  0  0
 71150  1  0  0  0
 72 76  1  0  0  0
 72151  1  0  0  0
 73 74  1  0  0  0
 73 75  2  0  0  0
 73152  1  0  0  0
 74 76  2  0  0  0
 74 82  1  0  0  0
 75 86  1  0  0  0
 76 87  1  0  0  0
 77 80  1  0  0  0
 77 86  1  0  0  0
 77 88  2  0  0  0
 78 81  1  0  0  0
 78 86  1  0  0  0
 78 89  2  0  0  0
 79 80  1  0  0  0
 79 90  1  0  0  0
 79153  1  0  0  0
 79154  1  0  0  0
 80 85  1  0  0  0
 80155  1  0  0  0
 81 83  1  0  0  0
 81 84  1  0  0  0
 81 90  1  0  0  0
 82156  1  0  0  0
 82157  1  0  0  0
 82158  1  0  0  0
 83159  1  0  0  0
 83160  1  0  0  0
 83161  1  0  0  0
 84162  1  0  0  0
 84163  1  0  0  0
 84164  1  0  0  0
 85165  1  0  0  0
 85166  1  0  0  0
 87167  1  0  0  0
M  ISO  4   1 100  68 101  85 101  87 100
M  END
> <chiral flag>
0

> <version>
0

> <s_m_source_file>
/data/baiqing/PycharmProjects/Reinvent-master-3.2/result/LINK_invent/BTK/process_docking_weight1_custom_product_contain_oxygen_bond_distance_aromatic_linkinvent_7_9_3/rearranged_h_0061.sdf

> <i_m_source_file_index>
69

> <r_mmod_Potential_Energy-OPLS-2005>
199.547668457031

> <r_mmod_Stretch_Energy-OPLS-2005>
99.7744445800781

> <r_mmod_Bend_Energy-OPLS-2005>
153.378021240234

> <r_mmod_Torsional_Energy-OPLS-2005>
340.011993408203

> <r_mmod_Improper_Torsional_Energy-OPLS-2005>
3.89486789703369

> <r_mmod_Van_der_Waal_Energy-OPLS-2005>
172.517837524414

> <r_mmod_Electrostatic_Energy-OPLS-2005>
-392.728790283203

> <r_mmod_Solvation_Energy-OPLS-2005>
-219.032852172852

> <b_mmod_Minimization_Converged-OPLS-2005>
0

> <r_mmod_RMS_Derivative-OPLS-2005>
1.14582788944244

$$$$
70
                    3D
 Structure written by MMmdl.
156165  0  0  1  0            999 V2000
  -30.4840  -14.9559   20.4251 C   0  0  0  0  0  0
  -30.4539  -12.5960   19.4911 C   0  0  0  0  0  0
  -29.5245  -12.5220   18.2536 C   0  0  0  0  0  0
  -28.0578  -12.3046   18.6737 C   0  0  0  0  0  0
  -27.6276  -13.2340   19.8370 C   0  0  2  0  0  0
  -28.6702  -13.2423   20.9731 C   0  0  0  0  0  0
  -25.2469  -13.8140   20.5722 C   0  0  0  0  0  0
  -24.1755  -13.0403   20.9244 C   0  0  0  0  0  0
  -24.6334  -11.6882   20.8733 C   0  0  0  0  0  0
  -23.9001  -10.4266   21.0387 C   0  0  0  0  0  0
  -24.3563   -9.4192   21.9177 C   0  0  0  0  0  0
  -23.6252   -8.2229   22.0739 C   0  0  0  0  0  0
  -22.4237   -8.0253   21.3540 C   0  0  0  0  0  0
  -21.9849   -9.0216   20.4656 C   0  0  0  0  0  0
  -22.7166  -10.2101   20.3061 C   0  0  0  0  0  0
  -21.6857   -6.0698   22.5283 C   0  0  0  0  0  0
  -21.4020   -6.5623   23.8209 C   0  0  0  0  0  0
  -21.3661   -5.6785   24.9181 C   0  0  0  0  0  0
  -21.6054   -4.3045   24.7238 C   0  0  0  0  0  0
  -21.8819   -3.8124   23.4370 C   0  0  0  0  0  0
  -21.9190   -4.6930   22.3416 C   0  0  0  0  0  0
  -22.7784  -13.5219   21.1893 C   0  0  0  0  0  0
  -22.1669   -4.2108   21.0985 F   0  0  0  0  0  0
  -21.5600   -3.4539   25.7762 F   0  0  0  0  0  0
  -29.9425  -13.6734   20.3814 N   0  0  0  0  0  0
  -26.2850  -12.9357   20.3195 N   0  0  0  0  0  0
  -25.9259  -11.6510   20.5682 N   0  0  0  0  0  0
  -22.0430  -12.8237   22.0476 N   0  0  0  0  0  0
  -25.4157  -15.1868   20.4137 N   0  0  0  0  0  0
  -31.6893  -15.0831   20.1868 O   0  0  0  0  0  0
  -21.6633   -6.8838   21.4238 O   0  0  0  0  0  0
  -22.3488  -14.5514   20.6698 O   0  0  0  0  0  0
  -24.6420  -31.8431   23.1864 C   0  0  0  0  0  0
  -25.9182  -32.4694   23.8269 C   0  0  1  0  0  0
  -27.2329  -27.1369   20.1729 C   0  0  0  0  0  0
  -25.5930  -33.8495   24.2183 N   0  0  0  0  0  0
  -23.4478  -30.4577   21.5307 C   0  0  2  0  0  0
  -24.9021  -28.8726   20.1241 C   0  0  0  0  0  0
  -22.7576  -29.4523   22.4865 C   0  0  0  0  0  0
  -18.0310  -28.1378   22.8491 C   0  0  0  0  0  0
  -24.1488  -36.7264   23.2635 C   0  0  0  0  0  0
  -26.0019  -30.7184   21.3841 C   0  0  0  0  0  0
  -26.0774  -29.3242   20.7393 C   0  0  0  0  0  0
  -27.2464  -28.4743   20.7397 C   0  0  0  0  0  0
  -26.0269  -26.7710   19.5415 C   0  0  0  0  0  0
  -24.8880  -27.6084   19.5125 C   0  0  0  0  0  0
  -23.6798  -29.7775   20.1534 C   0  0  0  0  0  0
  -25.4106  -36.3031   24.0320 C   0  0  1  0  0  0
  -20.5919  -28.3696   23.1245 C   0  0  2  0  0  0
  -20.6792  -26.9392   22.5418 C   0  0  0  0  0  0
  -19.5762  -26.6368   21.5217 C   0  0  0  0  0  0
  -18.1951  -26.7919   22.1628 C   0  0  0  0  0  0
  -19.1560  -28.8853   23.2868 C   0  0  0  0  0  0
  -18.9486  -30.1452   23.8895 C   0  0  0  0  0  0
  -17.6477  -30.6582   24.0548 C   0  0  0  0  0  0
  -25.9063  -34.9403   23.5070 C   0  0  0  0  0  0
  -16.5370  -29.9080   23.6310 C   0  0  0  0  0  0
  -16.7288  -28.6487   23.0353 C   0  0  0  0  0  0
  -26.4482  -31.6565   25.0718 C   0  0  0  0  0  0
  -25.3665  -31.3832   26.1431 C   0  0  0  0  0  0
  -27.0283  -30.2945   24.6300 C   0  0  0  0  0  0
  -27.6043  -32.4285   25.7478 C   0  0  0  0  0  0
  -27.5572  -37.1766   24.8432 C   0  0  0  0  0  0
  -21.4258  -29.3022   22.3614 N   0  0  0  0  0  0
  -26.4261  -37.3753   23.9423 N   0  0  0  0  0  0
  -24.7163  -31.0284   22.0894 N   0  0  0  0  0  0
  -23.4209  -28.8077   23.3028 O   0  0  0  0  0  0
  -28.3239  -26.2034   20.1020 O   0  0  0  0  0  0
  -26.5679  -34.8894   22.4664 O   0  0  0  0  0  0
  -23.5536  -32.1293   23.7069 O   0  0  0  0  0  0
  -30.7421  -18.3994   20.9389 C   0  0  0  0  0  0
  -28.5850  -18.4801   20.0649 C   0  0  0  0  0  0
  -29.6672  -17.6035   20.4673 C   0  0  0  0  0  0
  -30.6938  -19.8406   21.0331 C   0  0  0  0  0  0
  -29.5719  -20.6540   20.5817 C   0  0  0  0  0  0
  -30.4841  -22.8604   21.4089 C   0  0  0  0  0  0
  -31.7696  -22.9519   21.0146 C   0  0  0  0  0  0
  -29.9300  -23.7496   22.5008 C   0  0  0  0  0  0
  -29.3981  -25.0300   21.8500 C   0  0  0  0  0  0
  -28.6309  -23.2577   20.0158 C   0  0  0  0  0  0
  -28.3498  -24.7833   20.7417 C   0  0  2  0  0  0
  -28.5394  -19.8840   20.0901 N   0  0  0  0  0  0
  -29.5043  -22.1603   20.7156 N   0  0  0  0  0  0
  -29.5955  -16.0650   20.4944 N   0  0  0  0  0  0
  -31.7828  -20.3916   21.6147 F   0  0  0  0  0  0
  -31.4804  -12.7920   19.1775 H   0  0  0  0  0  0
  -30.4759  -11.6417   20.0180 H   0  0  0  0  0  0
  -29.8369  -11.7199   17.5857 H   0  0  0  0  0  0
  -29.6096  -13.4463   17.6786 H   0  0  0  0  0  0
  -27.9561  -11.2607   18.9808 H   0  0  0  0  0  0
  -27.3943  -12.4348   17.8184 H   0  0  0  0  0  0
  -27.5938  -14.2342   19.4068 H   0  0  0  0  0  0
  -28.7639  -12.2503   21.4177 H   0  0  0  0  0  0
  -28.3663  -13.9142   21.7763 H   0  0  0  0  0  0
  -25.2706   -9.5665   22.4751 H   0  0  0  0  0  0
  -23.9973   -7.4610   22.7425 H   0  0  0  0  0  0
  -21.0792   -8.8708   19.8965 H   0  0  0  0  0  0
  -22.3586  -10.9632   19.6169 H   0  0  0  0  0  0
  -21.2031   -7.6132   23.9689 H   0  0  0  0  0  0
  -21.1481   -6.0530   25.9077 H   0  0  0  0  0  0
  -22.0590   -2.7574   23.2893 H   0  0  0  0  0  0
  -22.4068  -11.9954   22.4958 H   0  0  0  0  0  0
  -21.1015  -13.1224   22.2623 H   0  0  0  0  0  0
  -24.6271  -15.8190   20.4956 H   0  0  0  0  0  0
  -26.2178  -15.6164   19.9757 H   0  0  0  0  0  0
  -26.7264  -32.5321   23.1010 H   0  0  0  0  0  0
  -24.9958  -33.9610   25.0252 H   0  0  0  0  0  0
  -22.7496  -31.2814   21.3677 H   0  0  0  0  0  0
  -23.3757  -35.9590   23.3223 H   0  0  0  0  0  0
  -24.3598  -36.8976   22.2078 H   0  0  0  0  0  0
  -23.7212  -37.6423   23.6725 H   0  0  0  0  0  0
  -26.1499  -31.4662   20.6048 H   0  0  0  0  0  0
  -26.8757  -30.7828   22.0206 H   0  0  0  0  0  0
  -28.1519  -28.8255   21.2131 H   0  0  0  0  0  0
  -25.9633  -25.8027   19.0676 H   0  0  0  0  0  0
  -23.9896  -27.2536   19.0266 H   0  0  0  0  0  0
  -23.8244  -30.5461   19.3927 H   0  0  0  0  0  0
  -22.7962  -29.2198   19.8402 H   0  0  0  0  0  0
  -25.1275  -36.1855   25.0803 H   0  0  0  0  0  0
  -21.0001  -28.3293   24.1363 H   0  0  0  0  0  0
  -20.5640  -26.2319   23.3643 H   0  0  0  0  0  0
  -21.6669  -26.7380   22.1234 H   0  0  0  0  0  0
  -19.6917  -25.6273   21.1260 H   0  0  0  0  0  0
  -19.6682  -27.3161   20.6740 H   0  0  0  0  0  0
  -17.4197  -26.6640   21.4051 H   0  0  0  0  0  0
  -18.0346  -26.0068   22.9029 H   0  0  0  0  0  0
  -19.7961  -30.7274   24.2261 H   0  0  0  0  0  0
  -17.5027  -31.6255   24.5158 H   0  0  0  0  0  0
  -15.5370  -30.2972   23.7640 H   0  0  0  0  0  0
  -15.8692  -28.0790   22.7087 H   0  0  0  0  0  0
  -24.5790  -30.7232   25.7782 H   0  0  0  0  0  0
  -24.8932  -32.3066   26.4797 H   0  0  0  0  0  0
  -25.7940  -30.9031   27.0247 H   0  0  0  0  0  0
  -26.2893  -29.6717   24.1267 H   0  0  0  0  0  0
  -27.3810  -29.7206   25.4876 H   0  0  0  0  0  0
  -27.8844  -30.4124   23.9658 H   0  0  0  0  0  0
  -27.2676  -33.3581   26.2071 H   0  0  0  0  0  0
  -28.3867  -32.6837   25.0320 H   0  0  0  0  0  0
  -28.0698  -31.8392   26.5389 H   0  0  0  0  0  0
  -28.2540  -38.0116   24.7550 H   0  0  0  0  0  0
  -28.1128  -36.2655   24.6136 H   0  0  0  0  0  0
  -27.2337  -37.1268   25.8846 H   0  0  0  0  0  0
  -20.9475  -29.8743   21.6798 H   0  0  0  0  0  0
  -26.0116  -38.2815   24.1480 H   0  0  0  0  0  0
  -31.6281  -17.8997   21.2970 H   0  0  0  0  0  0
  -27.6751  -18.0229   19.7012 H   0  0  0  0  0  0
  -32.4757  -23.5836   21.5345 H   0  0  0  0  0  0
  -32.1416  -22.3950   20.1666 H   0  0  0  0  0  0
  -30.6953  -23.9737   23.2449 H   0  0  0  0  0  0
  -29.1236  -23.2333   23.0254 H   0  0  0  0  0  0
  -30.2542  -25.5482   21.4132 H   0  0  0  0  0  0
  -28.9964  -25.7022   22.6084 H   0  0  0  0  0  0
  -29.1250  -23.4573   19.0641 H   0  0  0  0  0  0
  -27.6710  -22.8169   19.7397 H   0  0  0  0  0  0
  -27.3923  -24.6719   21.2479 H   0  0  0  0  0  0
  -28.6472  -15.7283   20.5496 H   0  0  0  0  0  0
  1 25  1  0  0  0
  1 30  2  0  0  0
  1 84  1  0  0  0
  2  3  1  0  0  0
  2 25  1  0  0  0
  2 86  1  0  0  0
  2 87  1  0  0  0
  3  4  1  0  0  0
  3 88  1  0  0  0
  3 89  1  0  0  0
  4  5  1  0  0  0
  4 90  1  0  0  0
  4 91  1  0  0  0
  5  6  1  0  0  0
  5 26  1  0  0  0
  5 92  1  0  0  0
  6 25  1  0  0  0
  6 93  1  0  0  0
  6 94  1  0  0  0
  7  8  2  0  0  0
  7 26  1  0  0  0
  7 29  1  0  0  0
  8  9  1  0  0  0
  8 22  1  0  0  0
  9 10  1  0  0  0
  9 27  2  0  0  0
 10 11  2  0  0  0
 10 15  1  0  0  0
 11 12  1  0  0  0
 11 95  1  0  0  0
 12 13  2  0  0  0
 12 96  1  0  0  0
 13 14  1  0  0  0
 13 31  1  0  0  0
 14 15  2  0  0  0
 14 97  1  0  0  0
 15 98  1  0  0  0
 16 17  2  0  0  0
 16 21  1  0  0  0
 16 31  1  0  0  0
 17 18  1  0  0  0
 17 99  1  0  0  0
 18 19  2  0  0  0
 18100  1  0  0  0
 19 20  1  0  0  0
 19 24  1  0  0  0
 20 21  2  0  0  0
 20101  1  0  0  0
 21 23  1  0  0  0
 22 28  1  0  0  0
 22 32  2  0  0  0
 26 27  1  0  0  0
 28102  1  0  0  0
 28103  1  0  0  0
 29104  1  0  0  0
 29105  1  0  0  0
 33 34  1  0  0  0
 33 66  1  0  0  0
 33 70  2  0  0  0
 34 36  1  0  0  0
 34 59  1  0  0  0
 34106  1  0  0  0
 35 44  2  0  0  0
 35 45  1  0  0  0
 35 68  1  0  0  0
 36 56  1  0  0  0
 36107  1  0  0  0
 37 39  1  0  0  0
 37 47  1  0  0  0
 37 66  1  0  0  0
 37108  1  0  0  0
 38 43  2  0  0  0
 38 46  1  0  0  0
 38 47  1  0  0  0
 39 64  1  0  0  0
 39 67  2  0  0  0
 40 52  1  0  0  0
 40 53  2  0  0  0
 40 58  1  0  0  0
 41109  1  0  0  0
 41110  1  0  0  0
 41111  1  0  0  0
 41 48  1  0  0  0
 42 43  1  0  0  0
 42 66  1  0  0  0
 42112  1  0  0  0
 42113  1  0  0  0
 43 44  1  0  0  0
 44114  1  0  0  0
 45 46  2  0  0  0
 45115  1  0  0  0
 46116  1  0  0  0
 47117  1  0  0  0
 47118  1  0  0  0
 48 56  1  0  0  0
 48 65  1  0  0  0
 48119  1  0  0  0
 49 50  1  0  0  0
 49 53  1  0  0  0
 49 64  1  0  0  0
 49120  1  0  0  0
 50 51  1  0  0  0
 50121  1  0  0  0
 50122  1  0  0  0
 51 52  1  0  0  0
 51123  1  0  0  0
 51124  1  0  0  0
 52125  1  0  0  0
 52126  1  0  0  0
 53 54  1  0  0  0
 54 55  2  0  0  0
 54127  1  0  0  0
 55 57  1  0  0  0
 55128  1  0  0  0
 56 69  2  0  0  0
 57 58  2  0  0  0
 57129  1  0  0  0
 58130  1  0  0  0
 59 60  1  0  0  0
 59 61  1  0  0  0
 59 62  1  0  0  0
 60131  1  0  0  0
 60132  1  0  0  0
 60133  1  0  0  0
 61134  1  0  0  0
 61135  1  0  0  0
 61136  1  0  0  0
 62137  1  0  0  0
 62138  1  0  0  0
 62139  1  0  0  0
 63 65  1  0  0  0
 63140  1  0  0  0
 63141  1  0  0  0
 63142  1  0  0  0
 64143  1  0  0  0
 65144  1  0  0  0
 68 81  1  0  0  0
 71 73  2  0  0  0
 71 74  1  0  0  0
 71145  1  0  0  0
 72 73  1  0  0  0
 72 82  2  0  0  0
 72146  1  0  0  0
 73 84  1  0  0  0
 74 75  2  0  0  0
 74 85  1  0  0  0
 75 82  1  0  0  0
 75 83  1  0  0  0
 76 77  2  0  0  0
 76 78  1  0  0  0
 76 83  1  0  0  0
 77147  1  0  0  0
 77148  1  0  0  0
 78 79  1  0  0  0
 78149  1  0  0  0
 78150  1  0  0  0
 79 81  1  0  0  0
 79151  1  0  0  0
 79152  1  0  0  0
 80 81  1  0  0  0
 80 83  1  0  0  0
 80153  1  0  0  0
 80154  1  0  0  0
 81155  1  0  0  0
 84156  1  0  0  0
M  ISO  4   1 100  68 101  81 101  84 100
M  END
> <chiral flag>
0

> <version>
0

> <s_m_source_file>
/data/baiqing/PycharmProjects/Reinvent-master-3.2/result/LINK_invent/BTK/process_docking_weight1_custom_product_contain_oxygen_bond_distance_aromatic_linkinvent_7_9_3/rearranged_h_0061.sdf

> <i_m_source_file_index>
70

> <r_mmod_Potential_Energy-OPLS-2005>
471.464416503906

> <r_mmod_Stretch_Energy-OPLS-2005>
250.605194091797

> <r_mmod_Bend_Energy-OPLS-2005>
298.46875

> <r_mmod_Torsional_Energy-OPLS-2005>
293.256927490234

> <r_mmod_Improper_Torsional_Energy-OPLS-2005>
7.52506494522095

> <r_mmod_Van_der_Waal_Energy-OPLS-2005>
145.045516967773

> <r_mmod_Electrostatic_Energy-OPLS-2005>
-499.703460693359

> <r_mmod_Solvation_Energy-OPLS-2005>
-215.535919189453

> <b_mmod_Minimization_Converged-OPLS-2005>
0

> <r_mmod_RMS_Derivative-OPLS-2005>
4.55082607269287

$$$$
71
                    3D
 Structure written by MMmdl.
155164  0  0  1  0            999 V2000
  -30.6174  -14.6341   20.4988 C   0  0  0  0  0  0
  -30.4400  -12.3904   19.4447 C   0  0  0  0  0  0
  -29.5051  -12.5079   18.2191 C   0  0  0  0  0  0
  -28.0291  -12.3406   18.6332 C   0  0  0  0  0  0
  -27.6533  -13.2113   19.8615 C   0  0  2  0  0  0
  -28.6990  -13.0591   20.9894 C   0  0  0  0  0  0
  -25.2567  -13.8156   20.5670 C   0  0  0  0  0  0
  -24.1832  -13.0433   20.9200 C   0  0  0  0  0  0
  -24.6395  -11.6902   20.8750 C   0  0  0  0  0  0
  -23.9063  -10.4287   21.0414 C   0  0  0  0  0  0
  -24.3616   -9.4203   21.9189 C   0  0  0  0  0  0
  -23.6293   -8.2239   22.0753 C   0  0  0  0  0  0
  -22.4273   -8.0281   21.3547 C   0  0  0  0  0  0
  -21.9911   -9.0254   20.4648 C   0  0  0  0  0  0
  -22.7238  -10.2134   20.3061 C   0  0  0  0  0  0
  -21.6850   -6.0742   22.5284 C   0  0  0  0  0  0
  -21.4006   -6.5640   23.8218 C   0  0  0  0  0  0
  -21.3658   -5.6792   24.9180 C   0  0  0  0  0  0
  -21.6044   -4.3058   24.7225 C   0  0  0  0  0  0
  -21.8820   -3.8151   23.4346 C   0  0  0  0  0  0
  -21.9189   -4.6969   22.3406 C   0  0  0  0  0  0
  -22.7856  -13.5237   21.1860 C   0  0  0  0  0  0
  -22.1660   -4.2157   21.0985 F   0  0  0  0  0  0
  -21.5632   -3.4541   25.7738 F   0  0  0  0  0  0
  -30.0147  -13.4053   20.4279 N   0  0  0  0  0  0
  -26.2987  -12.9326   20.3306 N   0  0  0  0  0  0
  -25.9317  -11.6487   20.5753 N   0  0  0  0  0  0
  -22.0488  -12.8232   22.0411 N   0  0  0  0  0  0
  -25.4279  -15.1874   20.4039 N   0  0  0  0  0  0
  -31.7814  -14.7988   20.1219 O   0  0  0  0  0  0
  -21.6637   -6.8881   21.4245 O   0  0  0  0  0  0
  -22.3550  -14.5550   20.6713 O   0  0  0  0  0  0
  -24.6254  -31.8613   23.2037 C   0  0  0  0  0  0
  -25.9108  -32.4788   23.8351 C   0  0  1  0  0  0
  -27.2204  -27.3264   20.1096 C   0  0  0  0  0  0
  -25.5922  -33.8584   24.2281 N   0  0  0  0  0  0
  -23.4176  -30.4876   21.5468 C   0  0  2  0  0  0
  -24.8633  -28.9482   20.1095 C   0  0  0  0  0  0
  -22.7468  -29.4637   22.4935 C   0  0  0  0  0  0
  -18.0287  -28.1383   22.8494 C   0  0  0  0  0  0
  -24.1487  -36.7292   23.2638 C   0  0  0  0  0  0
  -25.9586  -30.7956   21.3726 C   0  0  0  0  0  0
  -26.0330  -29.4234   20.7156 C   0  0  0  0  0  0
  -27.2147  -28.6237   20.7081 C   0  0  0  0  0  0
  -26.0269  -26.9107   19.4711 C   0  0  0  0  0  0
  -24.8624  -27.6975   19.4778 C   0  0  0  0  0  0
  -23.6308  -29.8259   20.1608 C   0  0  0  0  0  0
  -25.4110  -36.3083   24.0331 C   0  0  1  0  0  0
  -20.5890  -28.3684   23.1290 C   0  0  2  0  0  0
  -20.6782  -26.9409   22.5411 C   0  0  0  0  0  0
  -19.5752  -26.6382   21.5219 C   0  0  0  0  0  0
  -18.1933  -26.7926   22.1631 C   0  0  0  0  0  0
  -19.1543  -28.8847   23.2893 C   0  0  0  0  0  0
  -18.9469  -30.1448   23.8911 C   0  0  0  0  0  0
  -17.6472  -30.6590   24.0563 C   0  0  0  0  0  0
  -25.9048  -34.9456   23.5105 C   0  0  0  0  0  0
  -16.5360  -29.9091   23.6328 C   0  0  0  0  0  0
  -16.7277  -28.6506   23.0355 C   0  0  0  0  0  0
  -26.4497  -31.6582   25.0705 C   0  0  0  0  0  0
  -25.3729  -31.3721   26.1428 C   0  0  0  0  0  0
  -27.0332  -30.3014   24.6121 C   0  0  0  0  0  0
  -27.6056  -32.4303   25.7484 C   0  0  0  0  0  0
  -27.5575  -37.1793   24.8466 C   0  0  0  0  0  0
  -21.4182  -29.3044   22.3683 N   0  0  0  0  0  0
  -26.4284  -37.3780   23.9416 N   0  0  0  0  0  0
  -24.6864  -31.0636   22.0983 N   0  0  0  0  0  0
  -23.4201  -28.8169   23.3002 O   0  0  0  0  0  0
  -28.3315  -26.4664   20.1682 O   0  0  0  0  0  0
  -26.5620  -34.8926   22.4673 O   0  0  0  0  0  0
  -23.5422  -32.1393   23.7380 O   0  0  0  0  0  0
  -31.0380  -19.2721   20.2186 C   0  0  0  0  0  0
  -28.7002  -19.3314   20.7451 C   0  0  0  0  0  0
  -31.0489  -17.8512   20.3518 C   0  0  0  0  0  0
  -28.7111  -17.9114   20.8880 C   0  0  0  0  0  0
  -29.8625  -20.0692   20.3919 C   0  0  0  0  0  0
  -29.8785  -17.1247   20.6858 C   0  0  0  0  0  0
  -30.7744  -22.3279   19.6535 C   0  0  0  0  0  0
  -30.3833  -23.8104   19.6021 C   0  0  0  0  0  0
  -28.6670  -22.4211   20.5340 C   0  0  0  0  0  0
  -29.1362  -23.9286   20.4785 C   0  0  2  0  0  0
  -28.0707  -25.0159   20.0229 C   0  0  0  0  0  0
  -29.8284  -21.5420   20.2245 N   0  0  0  0  0  0
  -29.7923  -15.6721   20.8448 N   0  0  0  0  0  0
  -31.8553  -21.9611   19.1842 O   0  0  0  0  0  0
  -31.4796  -12.5223   19.1396 H   0  0  0  0  0  0
  -30.3814  -11.3923   19.8816 H   0  0  0  0  0  0
  -29.7695  -11.7609   17.4698 H   0  0  0  0  0  0
  -29.6422  -13.4798   17.7420 H   0  0  0  0  0  0
  -27.8700  -11.2867   18.8655 H   0  0  0  0  0  0
  -27.3719  -12.5668   17.7925 H   0  0  0  0  0  0
  -27.6726  -14.2465   19.5206 H   0  0  0  0  0  0
  -28.7114  -12.0335   21.3619 H   0  0  0  0  0  0
  -28.4449  -13.6819   21.8484 H   0  0  0  0  0  0
  -25.2760   -9.5683   22.4762 H   0  0  0  0  0  0
  -24.0007   -7.4628   22.7465 H   0  0  0  0  0  0
  -21.0846   -8.8771   19.8948 H   0  0  0  0  0  0
  -22.3698  -10.9676   19.6171 H   0  0  0  0  0  0
  -21.1989   -7.6144   23.9727 H   0  0  0  0  0  0
  -21.1480   -6.0519   25.9085 H   0  0  0  0  0  0
  -22.0597   -2.7612   23.2846 H   0  0  0  0  0  0
  -22.4092  -11.9892   22.4803 H   0  0  0  0  0  0
  -21.1106  -13.1266   22.2605 H   0  0  0  0  0  0
  -24.6538  -15.8363   20.4973 H   0  0  0  0  0  0
  -26.2583  -15.6173   20.0172 H   0  0  0  0  0  0
  -26.7172  -32.5472   23.1096 H   0  0  0  0  0  0
  -25.0065  -33.9731   25.0422 H   0  0  0  0  0  0
  -22.7102  -31.3079   21.4060 H   0  0  0  0  0  0
  -23.3755  -35.9618   23.3296 H   0  0  0  0  0  0
  -24.3579  -36.8912   22.2053 H   0  0  0  0  0  0
  -23.7233  -37.6489   23.6662 H   0  0  0  0  0  0
  -26.0827  -31.5578   20.6019 H   0  0  0  0  0  0
  -26.8427  -30.8487   21.9964 H   0  0  0  0  0  0
  -28.1101  -28.9814   21.1972 H   0  0  0  0  0  0
  -25.9570  -25.9603   18.9647 H   0  0  0  0  0  0
  -23.9677  -27.3315   18.9933 H   0  0  0  0  0  0
  -23.7468  -30.6028   19.4042 H   0  0  0  0  0  0
  -22.7515  -29.2536   19.8600 H   0  0  0  0  0  0
  -25.1291  -36.1928   25.0822 H   0  0  0  0  0  0
  -20.9989  -28.3260   24.1409 H   0  0  0  0  0  0
  -20.5697  -26.2292   23.3608 H   0  0  0  0  0  0
  -21.6649  -26.7448   22.1194 H   0  0  0  0  0  0
  -19.6919  -25.6295   21.1243 H   0  0  0  0  0  0
  -19.6694  -27.3199   20.6756 H   0  0  0  0  0  0
  -17.4202  -26.6680   21.4032 H   0  0  0  0  0  0
  -18.0332  -26.0060   22.9022 H   0  0  0  0  0  0
  -19.7949  -30.7258   24.2288 H   0  0  0  0  0  0
  -17.5032  -31.6276   24.5154 H   0  0  0  0  0  0
  -15.5365  -30.3005   23.7642 H   0  0  0  0  0  0
  -15.8673  -28.0829   22.7071 H   0  0  0  0  0  0
  -24.5913  -30.7061   25.7755 H   0  0  0  0  0  0
  -24.8913  -32.2896   26.4825 H   0  0  0  0  0  0
  -25.8047  -30.8916   27.0216 H   0  0  0  0  0  0
  -26.2891  -29.6767   24.1164 H   0  0  0  0  0  0
  -27.4083  -29.7254   25.4589 H   0  0  0  0  0  0
  -27.8737  -30.4321   23.9299 H   0  0  0  0  0  0
  -27.2671  -33.3610   26.2051 H   0  0  0  0  0  0
  -28.3884  -32.6840   25.0323 H   0  0  0  0  0  0
  -28.0700  -31.8423   26.5411 H   0  0  0  0  0  0
  -28.2583  -38.0099   24.7523 H   0  0  0  0  0  0
  -28.1077  -36.2627   24.6277 H   0  0  0  0  0  0
  -27.2294  -37.1424   25.8870 H   0  0  0  0  0  0
  -20.9346  -29.8763   21.6897 H   0  0  0  0  0  0
  -26.0165  -38.2851   24.1430 H   0  0  0  0  0  0
  -31.9834  -19.7313   19.9769 H   0  0  0  0  0  0
  -27.7659  -19.8509   20.9054 H   0  0  0  0  0  0
  -31.9826  -17.3303   20.1958 H   0  0  0  0  0  0
  -27.7835  -17.4237   21.1532 H   0  0  0  0  0  0
  -30.1733  -24.0783   18.5666 H   0  0  0  0  0  0
  -31.1930  -24.4456   19.9618 H   0  0  0  0  0  0
  -27.8926  -22.2369   19.7872 H   0  0  0  0  0  0
  -28.2429  -22.1805   21.5093 H   0  0  0  0  0  0
  -29.4611  -24.1965   21.4849 H   0  0  0  0  0  0
  -27.1686  -24.7909   20.5952 H   0  0  0  0  0  0
  -27.8266  -24.8175   18.9786 H   0  0  0  0  0  0
  -28.8858  -15.3437   21.1388 H   0  0  0  0  0  0
  1 25  1  0  0  0
  1 30  2  0  0  0
  1 83  1  0  0  0
  2  3  1  0  0  0
  2 25  1  0  0  0
  2 85  1  0  0  0
  2 86  1  0  0  0
  3  4  1  0  0  0
  3 87  1  0  0  0
  3 88  1  0  0  0
  4  5  1  0  0  0
  4 89  1  0  0  0
  4 90  1  0  0  0
  5  6  1  0  0  0
  5 26  1  0  0  0
  5 91  1  0  0  0
  6 25  1  0  0  0
  6 92  1  0  0  0
  6 93  1  0  0  0
  7  8  2  0  0  0
  7 26  1  0  0  0
  7 29  1  0  0  0
  8  9  1  0  0  0
  8 22  1  0  0  0
  9 10  1  0  0  0
  9 27  2  0  0  0
 10 11  2  0  0  0
 10 15  1  0  0  0
 11 12  1  0  0  0
 11 94  1  0  0  0
 12 13  2  0  0  0
 12 95  1  0  0  0
 13 14  1  0  0  0
 13 31  1  0  0  0
 14 15  2  0  0  0
 14 96  1  0  0  0
 15 97  1  0  0  0
 16 17  2  0  0  0
 16 21  1  0  0  0
 16 31  1  0  0  0
 17 18  1  0  0  0
 17 98  1  0  0  0
 18 19  2  0  0  0
 18 99  1  0  0  0
 19 20  1  0  0  0
 19 24  1  0  0  0
 20 21  2  0  0  0
 20100  1  0  0  0
 21 23  1  0  0  0
 22 28  1  0  0  0
 22 32  2  0  0  0
 26 27  1  0  0  0
 28101  1  0  0  0
 28102  1  0  0  0
 29103  1  0  0  0
 29104  1  0  0  0
 33 34  1  0  0  0
 33 66  1  0  0  0
 33 70  2  0  0  0
 34 36  1  0  0  0
 34 59  1  0  0  0
 34105  1  0  0  0
 35 44  2  0  0  0
 35 45  1  0  0  0
 35 68  1  0  0  0
 36 56  1  0  0  0
 36106  1  0  0  0
 37 39  1  0  0  0
 37 47  1  0  0  0
 37 66  1  0  0  0
 37107  1  0  0  0
 38 43  2  0  0  0
 38 46  1  0  0  0
 38 47  1  0  0  0
 39 64  1  0  0  0
 39 67  2  0  0  0
 40 52  1  0  0  0
 40 53  2  0  0  0
 40 58  1  0  0  0
 41108  1  0  0  0
 41109  1  0  0  0
 41110  1  0  0  0
 41 48  1  0  0  0
 42 43  1  0  0  0
 42 66  1  0  0  0
 42111  1  0  0  0
 42112  1  0  0  0
 43 44  1  0  0  0
 44113  1  0  0  0
 45 46  2  0  0  0
 45114  1  0  0  0
 46115  1  0  0  0
 47116  1  0  0  0
 47117  1  0  0  0
 48 56  1  0  0  0
 48 65  1  0  0  0
 48118  1  0  0  0
 49 50  1  0  0  0
 49 53  1  0  0  0
 49 64  1  0  0  0
 49119  1  0  0  0
 50 51  1  0  0  0
 50120  1  0  0  0
 50121  1  0  0  0
 51 52  1  0  0  0
 51122  1  0  0  0
 51123  1  0  0  0
 52124  1  0  0  0
 52125  1  0  0  0
 53 54  1  0  0  0
 54 55  2  0  0  0
 54126  1  0  0  0
 55 57  1  0  0  0
 55127  1  0  0  0
 56 69  2  0  0  0
 57 58  2  0  0  0
 57128  1  0  0  0
 58129  1  0  0  0
 59 60  1  0  0  0
 59 61  1  0  0  0
 59 62  1  0  0  0
 60130  1  0  0  0
 60131  1  0  0  0
 60132  1  0  0  0
 61133  1  0  0  0
 61134  1  0  0  0
 61135  1  0  0  0
 62136  1  0  0  0
 62137  1  0  0  0
 62138  1  0  0  0
 63 65  1  0  0  0
 63139  1  0  0  0
 63140  1  0  0  0
 63141  1  0  0  0
 64142  1  0  0  0
 65143  1  0  0  0
 68 81  1  0  0  0
 71 73  2  0  0  0
 71 75  1  0  0  0
 71144  1  0  0  0
 72 74  1  0  0  0
 72 75  2  0  0  0
 72145  1  0  0  0
 73 76  1  0  0  0
 73146  1  0  0  0
 74 76  2  0  0  0
 74147  1  0  0  0
 75 82  1  0  0  0
 76 83  1  0  0  0
 77 78  1  0  0  0
 77 82  1  0  0  0
 77 84  2  0  0  0
 78 80  1  0  0  0
 78148  1  0  0  0
 78149  1  0  0  0
 79 80  1  0  0  0
 79 82  1  0  0  0
 79150  1  0  0  0
 79151  1  0  0  0
 80 81  1  0  0  0
 80152  1  0  0  0
 81153  1  0  0  0
 81154  1  0  0  0
 83155  1  0  0  0
M  ISO  4   1 100  68 101  81 101  83 100
M  END
> <chiral flag>
0

> <version>
0

> <s_m_source_file>
/data/baiqing/PycharmProjects/Reinvent-master-3.2/result/LINK_invent/BTK/process_docking_weight1_custom_product_contain_oxygen_bond_distance_aromatic_linkinvent_7_9_3/rearranged_h_0061.sdf

> <i_m_source_file_index>
71

> <r_mmod_Potential_Energy-OPLS-2005>
105.170799255371

> <r_mmod_Stretch_Energy-OPLS-2005>
78.9228973388672

> <r_mmod_Bend_Energy-OPLS-2005>
162.687774658203

> <r_mmod_Torsional_Energy-OPLS-2005>
256.512542724609

> <r_mmod_Improper_Torsional_Energy-OPLS-2005>
4.5587272644043

> <r_mmod_Van_der_Waal_Energy-OPLS-2005>
150.857559204102

> <r_mmod_Electrostatic_Energy-OPLS-2005>
-370.408203125

> <r_mmod_Solvation_Energy-OPLS-2005>
-225.369674682617

> <b_mmod_Minimization_Converged-OPLS-2005>
0

> <r_mmod_RMS_Derivative-OPLS-2005>
0.923688650131226

$$$$
72
                    3D
 Structure written by MMmdl.
153161  0  0  1  0            999 V2000
  -30.6151  -14.7786   20.4462 C   0  0  0  0  0  0
  -30.4281  -12.4779   19.4704 C   0  0  0  0  0  0
  -29.5070  -12.5042   18.2320 C   0  0  0  0  0  0
  -28.0346  -12.3237   18.6497 C   0  0  0  0  0  0
  -27.6344  -13.2359   19.8405 C   0  0  2  0  0  0
  -28.6816  -13.2018   20.9737 C   0  0  0  0  0  0
  -25.2482  -13.8204   20.5700 C   0  0  0  0  0  0
  -24.1788  -13.0438   20.9225 C   0  0  0  0  0  0
  -24.6390  -11.6920   20.8757 C   0  0  0  0  0  0
  -23.9072  -10.4293   21.0409 C   0  0  0  0  0  0
  -24.3624   -9.4207   21.9185 C   0  0  0  0  0  0
  -23.6298   -8.2241   22.0754 C   0  0  0  0  0  0
  -22.4278   -8.0281   21.3545 C   0  0  0  0  0  0
  -21.9915   -9.0255   20.4648 C   0  0  0  0  0  0
  -22.7245  -10.2133   20.3057 C   0  0  0  0  0  0
  -21.6854   -6.0735   22.5280 C   0  0  0  0  0  0
  -21.4013   -6.5639   23.8214 C   0  0  0  0  0  0
  -21.3661   -5.6792   24.9177 C   0  0  0  0  0  0
  -21.6045   -4.3055   24.7226 C   0  0  0  0  0  0
  -21.8819   -3.8146   23.4348 C   0  0  0  0  0  0
  -21.9194   -4.6963   22.3403 C   0  0  0  0  0  0
  -22.7808  -13.5216   21.1880 C   0  0  0  0  0  0
  -22.1662   -4.2148   21.0981 F   0  0  0  0  0  0
  -21.5632   -3.4540   25.7741 F   0  0  0  0  0  0
  -29.9725  -13.5588   20.3765 N   0  0  0  0  0  0
  -26.2902  -12.9416   20.3251 N   0  0  0  0  0  0
  -25.9318  -11.6556   20.5751 N   0  0  0  0  0  0
  -22.0454  -12.8204   22.0433 N   0  0  0  0  0  0
  -25.4142  -15.1932   20.4110 N   0  0  0  0  0  0
  -31.8258  -14.8074   20.2062 O   0  0  0  0  0  0
  -21.6642   -6.8877   21.4240 O   0  0  0  0  0  0
  -22.3489  -14.5519   20.6725 O   0  0  0  0  0  0
  -24.6328  -31.8529   23.1954 C   0  0  0  0  0  0
  -25.9145  -32.4741   23.8310 C   0  0  1  0  0  0
  -27.2188  -27.2472   20.1422 C   0  0  0  0  0  0
  -25.5934  -33.8543   24.2240 N   0  0  0  0  0  0
  -23.4304  -30.4733   21.5390 C   0  0  2  0  0  0
  -24.8782  -28.9105   20.1158 C   0  0  0  0  0  0
  -22.7509  -29.4591   22.4905 C   0  0  0  0  0  0
  -18.0293  -28.1389   22.8481 C   0  0  0  0  0  0
  -24.1488  -36.7276   23.2640 C   0  0  0  0  0  0
  -25.9760  -30.7631   21.3745 C   0  0  0  0  0  0
  -26.0507  -29.3815   20.7218 C   0  0  0  0  0  0
  -27.2284  -28.5645   20.7167 C   0  0  0  0  0  0
  -26.0253  -26.8379   19.5163 C   0  0  0  0  0  0
  -24.8705  -27.6474   19.5011 C   0  0  0  0  0  0
  -23.6503  -29.8013   20.1577 C   0  0  0  0  0  0
  -25.4117  -36.3062   24.0325 C   0  0  1  0  0  0
  -20.5897  -28.3699   23.1264 C   0  0  2  0  0  0
  -20.6779  -26.9415   22.5406 C   0  0  0  0  0  0
  -19.5757  -26.6385   21.5207 C   0  0  0  0  0  0
  -18.1938  -26.7932   22.1621 C   0  0  0  0  0  0
  -19.1548  -28.8863   23.2868 C   0  0  0  0  0  0
  -18.9467  -30.1461   23.8891 C   0  0  0  0  0  0
  -17.6465  -30.6589   24.0560 C   0  0  0  0  0  0
  -25.9057  -34.9431   23.5089 C   0  0  0  0  0  0
  -16.5357  -29.9083   23.6330 C   0  0  0  0  0  0
  -16.7279  -28.6501   23.0353 C   0  0  0  0  0  0
  -26.4510  -31.6574   25.0707 C   0  0  0  0  0  0
  -25.3728  -31.3727   26.1425 C   0  0  0  0  0  0
  -27.0356  -30.2988   24.6201 C   0  0  0  0  0  0
  -27.6060  -32.4315   25.7487 C   0  0  0  0  0  0
  -27.5579  -37.1794   24.8466 C   0  0  0  0  0  0
  -21.4214  -29.3043   22.3651 N   0  0  0  0  0  0
  -26.4290  -37.3763   23.9410 N   0  0  0  0  0  0
  -24.6991  -31.0483   22.0931 N   0  0  0  0  0  0
  -23.4203  -28.8137   23.3015 O   0  0  0  0  0  0
  -28.3103  -26.3506   20.1331 O   0  0  0  0  0  0
  -26.5630  -34.8913   22.4659 O   0  0  0  0  0  0
  -23.5474  -32.1353   23.7244 O   0  0  0  0  0  0
  -27.5373  -19.3206   18.7481 C   0  0  0  0  0  0
  -28.3285  -18.2702   19.2544 C   0  0  0  0  0  0
  -27.7170  -20.6541   19.1660 C   0  0  0  0  0  0
  -29.3364  -18.4955   20.2172 C   0  0  0  0  0  0
  -29.4875  -19.8976   20.6621 C   0  0  0  0  0  0
  -28.6876  -21.0094   20.1289 C   0  0  0  0  0  0
  -30.2750  -17.2796   20.5759 C   0  0  0  0  0  0
  -28.3831  -23.6413   19.9602 C   0  0  0  0  0  0
  -30.5313  -20.2343   21.7195 C   0  0  0  0  0  0
  -28.1703  -25.0021   20.8000 C   0  0  0  0  0  0
  -28.7461  -22.4390   20.5794 N   0  0  0  0  0  0
  -29.8512  -15.9484   20.5249 N   0  0  0  0  0  0
  -31.4361  -17.5557   20.8935 O   0  0  0  0  0  0
  -28.2174  -23.6954   18.7383 O   0  0  0  0  0  0
  -31.4681  -12.6005   19.1634 H   0  0  0  0  0  0
  -30.3769  -11.5106   19.9727 H   0  0  0  0  0  0
  -29.7953  -11.7222   17.5281 H   0  0  0  0  0  0
  -29.6270  -13.4509   17.7034 H   0  0  0  0  0  0
  -27.8995  -11.2770   18.9254 H   0  0  0  0  0  0
  -27.3750  -12.5003   17.7992 H   0  0  0  0  0  0
  -27.6167  -14.2502   19.4417 H   0  0  0  0  0  0
  -28.7291  -12.2134   21.4331 H   0  0  0  0  0  0
  -28.4150  -13.9001   21.7686 H   0  0  0  0  0  0
  -25.2769   -9.5686   22.4760 H   0  0  0  0  0  0
  -24.0010   -7.4632   22.7472 H   0  0  0  0  0  0
  -21.0848   -8.8775   19.8952 H   0  0  0  0  0  0
  -22.3704  -10.9672   19.6167 H   0  0  0  0  0  0
  -21.1999   -7.6145   23.9716 H   0  0  0  0  0  0
  -21.1485   -6.0522   25.9079 H   0  0  0  0  0  0
  -22.0595   -2.7608   23.2850 H   0  0  0  0  0  0
  -22.4075  -11.9871   22.4826 H   0  0  0  0  0  0
  -21.1069  -13.1221   22.2636 H   0  0  0  0  0  0
  -24.6409  -15.8400   20.5214 H   0  0  0  0  0  0
  -26.2498  -15.6381   20.0574 H   0  0  0  0  0  0
  -26.7209  -32.5393   23.1046 H   0  0  0  0  0  0
  -25.0080  -33.9670   25.0387 H   0  0  0  0  0  0
  -22.7279  -31.2957   21.3893 H   0  0  0  0  0  0
  -23.3751  -35.9606   23.3298 H   0  0  0  0  0  0
  -24.3577  -36.8906   22.2055 H   0  0  0  0  0  0
  -23.7238  -37.6474   23.6668 H   0  0  0  0  0  0
  -26.1127  -31.5207   20.6015 H   0  0  0  0  0  0
  -26.8538  -30.8169   22.0069 H   0  0  0  0  0  0
  -28.1320  -28.9241   21.1886 H   0  0  0  0  0  0
  -25.9823  -25.8665   19.0435 H   0  0  0  0  0  0
  -23.9727  -27.2818   19.0219 H   0  0  0  0  0  0
  -23.7783  -30.5739   19.3986 H   0  0  0  0  0  0
  -22.7680  -29.2357   19.8531 H   0  0  0  0  0  0
  -25.1298  -36.1905   25.0816 H   0  0  0  0  0  0
  -20.9992  -28.3280   24.1384 H   0  0  0  0  0  0
  -20.5670  -26.2309   23.3611 H   0  0  0  0  0  0
  -21.6648  -26.7432   22.1207 H   0  0  0  0  0  0
  -19.6915  -25.6292   21.1246 H   0  0  0  0  0  0
  -19.6695  -27.3186   20.6730 H   0  0  0  0  0  0
  -17.4205  -26.6672   21.4028 H   0  0  0  0  0  0
  -18.0342  -26.0078   22.9022 H   0  0  0  0  0  0
  -19.7942  -30.7279   24.2260 H   0  0  0  0  0  0
  -17.5018  -31.6270   24.5159 H   0  0  0  0  0  0
  -15.5356  -30.2981   23.7657 H   0  0  0  0  0  0
  -15.8681  -28.0814   22.7074 H   0  0  0  0  0  0
  -24.5911  -30.7067   25.7754 H   0  0  0  0  0  0
  -24.8909  -32.2895   26.4829 H   0  0  0  0  0  0
  -25.8042  -30.8922   27.0217 H   0  0  0  0  0  0
  -26.2939  -29.6732   24.1220 H   0  0  0  0  0  0
  -27.4028  -29.7256   25.4725 H   0  0  0  0  0  0
  -27.8821  -30.4257   23.9449 H   0  0  0  0  0  0
  -27.2670  -33.3624   26.2045 H   0  0  0  0  0  0
  -28.3886  -32.6861   25.0326 H   0  0  0  0  0  0
  -28.0712  -31.8451   26.5422 H   0  0  0  0  0  0
  -28.2593  -38.0094   24.7512 H   0  0  0  0  0  0
  -28.1080  -36.2625   24.6295 H   0  0  0  0  0  0
  -27.2298  -37.1448   25.8869 H   0  0  0  0  0  0
  -20.9403  -29.8761   21.6849 H   0  0  0  0  0  0
  -26.0168  -38.2838   24.1409 H   0  0  0  0  0  0
  -26.7796  -19.0999   18.0090 H   0  0  0  0  0  0
  -28.1717  -17.2768   18.8573 H   0  0  0  0  0  0
  -27.0668  -21.4060   18.7425 H   0  0  0  0  0  0
  -30.5147  -19.5031   22.5281 H   0  0  0  0  0  0
  -30.3682  -21.2089   22.1765 H   0  0  0  0  0  0
  -31.5280  -20.2395   21.2778 H   0  0  0  0  0  0
  -28.8865  -24.9871   21.6217 H   0  0  0  0  0  0
  -27.1902  -24.9355   21.2742 H   0  0  0  0  0  0
  -29.0327  -22.5606   21.5409 H   0  0  0  0  0  0
  -28.8566  -15.8199   20.4712 H   0  0  0  0  0  0
  1 25  1  0  0  0
  1 30  2  0  0  0
  1 82  1  0  0  0
  2  3  1  0  0  0
  2 25  1  0  0  0
  2 85  1  0  0  0
  2 86  1  0  0  0
  3  4  1  0  0  0
  3 87  1  0  0  0
  3 88  1  0  0  0
  4  5  1  0  0  0
  4 89  1  0  0  0
  4 90  1  0  0  0
  5  6  1  0  0  0
  5 26  1  0  0  0
  5 91  1  0  0  0
  6 25  1  0  0  0
  6 92  1  0  0  0
  6 93  1  0  0  0
  7  8  2  0  0  0
  7 26  1  0  0  0
  7 29  1  0  0  0
  8  9  1  0  0  0
  8 22  1  0  0  0
  9 10  1  0  0  0
  9 27  2  0  0  0
 10 11  2  0  0  0
 10 15  1  0  0  0
 11 12  1  0  0  0
 11 94  1  0  0  0
 12 13  2  0  0  0
 12 95  1  0  0  0
 13 14  1  0  0  0
 13 31  1  0  0  0
 14 15  2  0  0  0
 14 96  1  0  0  0
 15 97  1  0  0  0
 16 17  2  0  0  0
 16 21  1  0  0  0
 16 31  1  0  0  0
 17 18  1  0  0  0
 17 98  1  0  0  0
 18 19  2  0  0  0
 18 99  1  0  0  0
 19 20  1  0  0  0
 19 24  1  0  0  0
 20 21  2  0  0  0
 20100  1  0  0  0
 21 23  1  0  0  0
 22 28  1  0  0  0
 22 32  2  0  0  0
 26 27  1  0  0  0
 28101  1  0  0  0
 28102  1  0  0  0
 29103  1  0  0  0
 29104  1  0  0  0
 33 34  1  0  0  0
 33 66  1  0  0  0
 33 70  2  0  0  0
 34 36  1  0  0  0
 34 59  1  0  0  0
 34105  1  0  0  0
 35 44  2  0  0  0
 35 45  1  0  0  0
 35 68  1  0  0  0
 36 56  1  0  0  0
 36106  1  0  0  0
 37 39  1  0  0  0
 37 47  1  0  0  0
 37 66  1  0  0  0
 37107  1  0  0  0
 38 43  2  0  0  0
 38 46  1  0  0  0
 38 47  1  0  0  0
 39 64  1  0  0  0
 39 67  2  0  0  0
 40 52  1  0  0  0
 40 53  2  0  0  0
 40 58  1  0  0  0
 41108  1  0  0  0
 41109  1  0  0  0
 41110  1  0  0  0
 41 48  1  0  0  0
 42 43  1  0  0  0
 42 66  1  0  0  0
 42111  1  0  0  0
 42112  1  0  0  0
 43 44  1  0  0  0
 44113  1  0  0  0
 45 46  2  0  0  0
 45114  1  0  0  0
 46115  1  0  0  0
 47116  1  0  0  0
 47117  1  0  0  0
 48 56  1  0  0  0
 48 65  1  0  0  0
 48118  1  0  0  0
 49 50  1  0  0  0
 49 53  1  0  0  0
 49 64  1  0  0  0
 49119  1  0  0  0
 50 51  1  0  0  0
 50120  1  0  0  0
 50121  1  0  0  0
 51 52  1  0  0  0
 51122  1  0  0  0
 51123  1  0  0  0
 52124  1  0  0  0
 52125  1  0  0  0
 53 54  1  0  0  0
 54 55  2  0  0  0
 54126  1  0  0  0
 55 57  1  0  0  0
 55127  1  0  0  0
 56 69  2  0  0  0
 57 58  2  0  0  0
 57128  1  0  0  0
 58129  1  0  0  0
 59 60  1  0  0  0
 59 61  1  0  0  0
 59 62  1  0  0  0
 60130  1  0  0  0
 60131  1  0  0  0
 60132  1  0  0  0
 61133  1  0  0  0
 61134  1  0  0  0
 61135  1  0  0  0
 62136  1  0  0  0
 62137  1  0  0  0
 62138  1  0  0  0
 63 65  1  0  0  0
 63139  1  0  0  0
 63140  1  0  0  0
 63141  1  0  0  0
 64142  1  0  0  0
 65143  1  0  0  0
 68 80  1  0  0  0
 71 72  2  0  0  0
 71 73  1  0  0  0
 71144  1  0  0  0
 72 74  1  0  0  0
 72145  1  0  0  0
 73 76  2  0  0  0
 73146  1  0  0  0
 74 75  2  0  0  0
 74 77  1  0  0  0
 75 76  1  0  0  0
 75 79  1  0  0  0
 76 81  1  0  0  0
 77 82  1  0  0  0
 77 83  2  0  0  0
 78 80  1  0  0  0
 78 81  1  0  0  0
 78 84  2  0  0  0
 79147  1  0  0  0
 79148  1  0  0  0
 79149  1  0  0  0
 80150  1  0  0  0
 80151  1  0  0  0
 81152  1  0  0  0
 82153  1  0  0  0
M  ISO  4   1 100  68 101  80 101  82 100
M  END
> <chiral flag>
0

> <version>
0

> <s_m_source_file>
/data/baiqing/PycharmProjects/Reinvent-master-3.2/result/LINK_invent/BTK/process_docking_weight1_custom_product_contain_oxygen_bond_distance_aromatic_linkinvent_7_9_3/rearranged_h_0061.sdf

> <i_m_source_file_index>
72

> <r_mmod_Potential_Energy-OPLS-2005>
124.304100036621

> <r_mmod_Stretch_Energy-OPLS-2005>
143.041809082031

> <r_mmod_Bend_Energy-OPLS-2005>
167.110656738281

> <r_mmod_Torsional_Energy-OPLS-2005>
261.510070800781

> <r_mmod_Improper_Torsional_Energy-OPLS-2005>
6.87458801269531

> <r_mmod_Van_der_Waal_Energy-OPLS-2005>
140.302169799805

> <r_mmod_Electrostatic_Energy-OPLS-2005>
-439.330810546875

> <r_mmod_Solvation_Energy-OPLS-2005>
-252.802154541016

> <b_mmod_Minimization_Converged-OPLS-2005>
0

> <r_mmod_RMS_Derivative-OPLS-2005>
0.559409856796265

$$$$
73
                    3D
 Structure written by MMmdl.
162171  0  0  1  0            999 V2000
  -30.6051  -14.6731   20.5139 C   0  0  0  0  0  0
  -30.4442  -12.4161   19.4577 C   0  0  0  0  0  0
  -29.5108  -12.5203   18.2289 C   0  0  0  0  0  0
  -28.0333  -12.3513   18.6400 C   0  0  0  0  0  0
  -27.6537  -13.2196   19.8689 C   0  0  2  0  0  0
  -28.7002  -13.0701   20.9970 C   0  0  0  0  0  0
  -25.2495  -13.8119   20.5563 C   0  0  0  0  0  0
  -24.1806  -13.0404   20.9191 C   0  0  0  0  0  0
  -24.6400  -11.6889   20.8768 C   0  0  0  0  0  0
  -23.9068  -10.4278   21.0418 C   0  0  0  0  0  0
  -24.3615   -9.4194   21.9197 C   0  0  0  0  0  0
  -23.6280   -8.2235   22.0761 C   0  0  0  0  0  0
  -22.4266   -8.0283   21.3548 C   0  0  0  0  0  0
  -21.9903   -9.0255   20.4652 C   0  0  0  0  0  0
  -22.7242  -10.2125   20.3063 C   0  0  0  0  0  0
  -21.6838   -6.0743   22.5285 C   0  0  0  0  0  0
  -21.4010   -6.5646   23.8220 C   0  0  0  0  0  0
  -21.3656   -5.6796   24.9176 C   0  0  0  0  0  0
  -21.6039   -4.3057   24.7230 C   0  0  0  0  0  0
  -21.8817   -3.8156   23.4348 C   0  0  0  0  0  0
  -21.9183   -4.6972   22.3409 C   0  0  0  0  0  0
  -22.7833  -13.5196   21.1844 C   0  0  0  0  0  0
  -22.1648   -4.2161   21.0982 F   0  0  0  0  0  0
  -21.5627   -3.4540   25.7737 F   0  0  0  0  0  0
  -30.0137  -13.4339   20.4381 N   0  0  0  0  0  0
  -26.2985  -12.9341   20.3338 N   0  0  0  0  0  0
  -25.9340  -11.6499   20.5813 N   0  0  0  0  0  0
  -22.0475  -12.8209   22.0416 N   0  0  0  0  0  0
  -25.4036  -15.1798   20.3679 N   0  0  0  0  0  0
  -31.7549  -14.8550   20.1007 O   0  0  0  0  0  0
  -21.6625   -6.8883   21.4249 O   0  0  0  0  0  0
  -22.3523  -14.5508   20.6688 O   0  0  0  0  0  0
  -24.6276  -31.8576   23.2015 C   0  0  0  0  0  0
  -25.9119  -32.4768   23.8351 C   0  0  1  0  0  0
  -27.2330  -27.3073   20.1113 C   0  0  0  0  0  0
  -25.5929  -33.8574   24.2272 N   0  0  0  0  0  0
  -23.4214  -30.4805   21.5454 C   0  0  2  0  0  0
  -24.8678  -28.9310   20.1142 C   0  0  0  0  0  0
  -22.7482  -29.4610   22.4948 C   0  0  0  0  0  0
  -18.0287  -28.1380   22.8491 C   0  0  0  0  0  0
  -24.1486  -36.7281   23.2643 C   0  0  0  0  0  0
  -25.9643  -30.7844   21.3745 C   0  0  0  0  0  0
  -26.0381  -29.4119   20.7131 C   0  0  0  0  0  0
  -27.2207  -28.6129   20.6983 C   0  0  0  0  0  0
  -26.0252  -26.8690   19.5202 C   0  0  0  0  0  0
  -24.8631  -27.6639   19.5116 C   0  0  0  0  0  0
  -23.6367  -29.8131   20.1620 C   0  0  0  0  0  0
  -25.4114  -36.3078   24.0332 C   0  0  1  0  0  0
  -20.5890  -28.3688   23.1285 C   0  0  2  0  0  0
  -20.6777  -26.9412   22.5414 C   0  0  0  0  0  0
  -19.5749  -26.6379   21.5219 C   0  0  0  0  0  0
  -18.1930  -26.7924   22.1630 C   0  0  0  0  0  0
  -19.1540  -28.8852   23.2879 C   0  0  0  0  0  0
  -18.9463  -30.1456   23.8893 C   0  0  0  0  0  0
  -17.6459  -30.6586   24.0563 C   0  0  0  0  0  0
  -25.9054  -34.9447   23.5102 C   0  0  0  0  0  0
  -16.5350  -29.9079   23.6337 C   0  0  0  0  0  0
  -16.7270  -28.6495   23.0360 C   0  0  0  0  0  0
  -26.4501  -31.6594   25.0737 C   0  0  0  0  0  0
  -25.3727  -31.3738   26.1460 C   0  0  0  0  0  0
  -27.0361  -30.3017   24.6217 C   0  0  0  0  0  0
  -27.6048  -32.4351   25.7503 C   0  0  0  0  0  0
  -27.5577  -37.1798   24.8464 C   0  0  0  0  0  0
  -21.4195  -29.3038   22.3683 N   0  0  0  0  0  0
  -26.4287  -37.3777   23.9411 N   0  0  0  0  0  0
  -24.6900  -31.0577   22.0971 N   0  0  0  0  0  0
  -23.4201  -28.8158   23.3041 O   0  0  0  0  0  0
  -28.3766  -26.4837   20.1603 O   0  0  0  0  0  0
  -26.5629  -34.8914   22.4673 O   0  0  0  0  0  0
  -23.5442  -32.1389   23.7337 O   0  0  0  0  0  0
  -30.6721  -19.3983   20.1439 C   0  0  0  0  0  0
  -30.7480  -17.9650   20.1621 C   0  0  0  0  0  0
  -28.7127  -19.3230   21.5254 C   0  0  0  0  0  0
  -28.7900  -17.8961   21.5607 C   0  0  0  0  0  0
  -29.6565  -20.1229   20.8344 C   0  0  0  0  0  0
  -29.8118  -17.1657   20.8799 C   0  0  0  0  0  0
  -28.7432  -24.0657   20.5758 C   0  0  0  0  0  0
  -30.4240  -22.0806   22.0371 C   0  0  0  0  0  0
  -28.3960  -25.1228   19.7583 C   0  0  0  0  0  0
  -29.1040  -24.2796   22.0245 C   0  0  0  0  0  0
  -28.8459  -22.5399   20.1624 C   0  0  0  0  0  0
  -30.4390  -23.5900   22.3251 C   0  0  0  0  0  0
  -27.7554  -17.1550   22.3885 C   0  0  0  0  0  0
  -28.1767  -24.9358   18.2665 C   0  0  0  0  0  0
  -29.6785  -21.5913   21.0073 N   0  0  0  0  0  0
  -29.7921  -15.6925   20.9497 N   0  0  0  0  0  0
  -31.1176  -21.3626   22.7666 O   0  0  0  0  0  0
  -31.4837  -12.5517   19.1557 H   0  0  0  0  0  0
  -30.3892  -11.4209   19.9014 H   0  0  0  0  0  0
  -29.7808  -11.7700   17.4844 H   0  0  0  0  0  0
  -29.6467  -13.4905   17.7480 H   0  0  0  0  0  0
  -27.8727  -11.2973   18.8703 H   0  0  0  0  0  0
  -27.3759  -12.5796   17.8006 H   0  0  0  0  0  0
  -27.6701  -14.2570   19.5348 H   0  0  0  0  0  0
  -28.7222  -12.0419   21.3609 H   0  0  0  0  0  0
  -28.4384  -13.6819   21.8622 H   0  0  0  0  0  0
  -25.2761   -9.5655   22.4773 H   0  0  0  0  0  0
  -23.9985   -7.4618   22.7469 H   0  0  0  0  0  0
  -21.0840   -8.8775   19.8951 H   0  0  0  0  0  0
  -22.3716  -10.9661   19.6163 H   0  0  0  0  0  0
  -21.2014   -7.6155   23.9726 H   0  0  0  0  0  0
  -21.1469   -6.0524   25.9073 H   0  0  0  0  0  0
  -22.0597   -2.7623   23.2838 H   0  0  0  0  0  0
  -22.4076  -11.9866   22.4812 H   0  0  0  0  0  0
  -21.1103  -13.1240   22.2632 H   0  0  0  0  0  0
  -24.6117  -15.8104   20.4300 H   0  0  0  0  0  0
  -26.2197  -15.6069   19.9478 H   0  0  0  0  0  0
  -26.7186  -32.5417   23.1094 H   0  0  0  0  0  0
  -25.0085  -33.9714   25.0423 H   0  0  0  0  0  0
  -22.7162  -31.3020   21.4019 H   0  0  0  0  0  0
  -23.3755  -35.9604   23.3306 H   0  0  0  0  0  0
  -24.3573  -36.8904   22.2057 H   0  0  0  0  0  0
  -23.7225  -37.6477   23.6666 H   0  0  0  0  0  0
  -26.1035  -31.5510   20.6108 H   0  0  0  0  0  0
  -26.8413  -30.8259   22.0093 H   0  0  0  0  0  0
  -28.1217  -28.9843   21.1662 H   0  0  0  0  0  0
  -25.9461  -25.8889   19.0782 H   0  0  0  0  0  0
  -23.9601  -27.2802   19.0566 H   0  0  0  0  0  0
  -23.7586  -30.5888   19.4056 H   0  0  0  0  0  0
  -22.7557  -29.2444   19.8584 H   0  0  0  0  0  0
  -25.1297  -36.1929   25.0825 H   0  0  0  0  0  0
  -20.9979  -28.3260   24.1406 H   0  0  0  0  0  0
  -20.5691  -26.2297   23.3617 H   0  0  0  0  0  0
  -21.6639  -26.7447   22.1195 H   0  0  0  0  0  0
  -19.6908  -25.6291   21.1249 H   0  0  0  0  0  0
  -19.6679  -27.3192   20.6752 H   0  0  0  0  0  0
  -17.4206  -26.6689   21.4026 H   0  0  0  0  0  0
  -18.0314  -26.0058   22.9014 H   0  0  0  0  0  0
  -19.7935  -30.7277   24.2255 H   0  0  0  0  0  0
  -17.5011  -31.6265   24.5167 H   0  0  0  0  0  0
  -15.5352  -30.2979   23.7656 H   0  0  0  0  0  0
  -15.8673  -28.0805   22.7087 H   0  0  0  0  0  0
  -24.5877  -30.7124   25.7777 H   0  0  0  0  0  0
  -24.8951  -32.2911   26.4913 H   0  0  0  0  0  0
  -25.8039  -30.8880   27.0220 H   0  0  0  0  0  0
  -26.2951  -29.6753   24.1237 H   0  0  0  0  0  0
  -27.4049  -29.7295   25.4740 H   0  0  0  0  0  0
  -27.8822  -30.4309   23.9462 H   0  0  0  0  0  0
  -27.2639  -33.3643   26.2082 H   0  0  0  0  0  0
  -28.3845  -32.6936   25.0324 H   0  0  0  0  0  0
  -28.0734  -31.8489   26.5417 H   0  0  0  0  0  0
  -28.2599  -38.0095   24.7523 H   0  0  0  0  0  0
  -28.1074  -36.2629   24.6277 H   0  0  0  0  0  0
  -27.2300  -37.1430   25.8869 H   0  0  0  0  0  0
  -20.9387  -29.8744   21.6867 H   0  0  0  0  0  0
  -26.0170  -38.2850   24.1416 H   0  0  0  0  0  0
  -31.4401  -19.9496   19.6194 H   0  0  0  0  0  0
  -31.5542  -17.4867   19.6228 H   0  0  0  0  0  0
  -27.9382  -19.8219   22.0915 H   0  0  0  0  0  0
  -28.3141  -23.8634   22.6513 H   0  0  0  0  0  0
  -29.1675  -25.3425   22.2591 H   0  0  0  0  0  0
  -29.1971  -22.4702   19.1340 H   0  0  0  0  0  0
  -27.8290  -22.1460   20.1609 H   0  0  0  0  0  0
  -31.2357  -24.0401   21.7313 H   0  0  0  0  0  0
  -30.7026  -23.7521   23.3711 H   0  0  0  0  0  0
  -27.1597  -17.8390   22.9938 H   0  0  0  0  0  0
  -28.2280  -16.4449   23.0672 H   0  0  0  0  0  0
  -27.0748  -16.6118   21.7386 H   0  0  0  0  0  0
  -29.0607  -24.4921   17.8094 H   0  0  0  0  0  0
  -27.9916  -25.8844   17.7627 H   0  0  0  0  0  0
  -27.3306  -24.2731   18.0844 H   0  0  0  0  0  0
  -28.9349  -15.3265   21.3322 H   0  0  0  0  0  0
  1 25  1  0  0  0
  1 30  2  0  0  0
  1 86  1  0  0  0
  2  3  1  0  0  0
  2 25  1  0  0  0
  2 88  1  0  0  0
  2 89  1  0  0  0
  3  4  1  0  0  0
  3 90  1  0  0  0
  3 91  1  0  0  0
  4  5  1  0  0  0
  4 92  1  0  0  0
  4 93  1  0  0  0
  5  6  1  0  0  0
  5 26  1  0  0  0
  5 94  1  0  0  0
  6 25  1  0  0  0
  6 95  1  0  0  0
  6 96  1  0  0  0
  7  8  2  0  0  0
  7 26  1  0  0  0
  7 29  1  0  0  0
  8  9  1  0  0  0
  8 22  1  0  0  0
  9 10  1  0  0  0
  9 27  2  0  0  0
 10 11  2  0  0  0
 10 15  1  0  0  0
 11 12  1  0  0  0
 11 97  1  0  0  0
 12 13  2  0  0  0
 12 98  1  0  0  0
 13 14  1  0  0  0
 13 31  1  0  0  0
 14 15  2  0  0  0
 14 99  1  0  0  0
 15100  1  0  0  0
 16 17  2  0  0  0
 16 21  1  0  0  0
 16 31  1  0  0  0
 17 18  1  0  0  0
 17101  1  0  0  0
 18 19  2  0  0  0
 18102  1  0  0  0
 19 20  1  0  0  0
 19 24  1  0  0  0
 20 21  2  0  0  0
 20103  1  0  0  0
 21 23  1  0  0  0
 22 28  1  0  0  0
 22 32  2  0  0  0
 26 27  1  0  0  0
 28104  1  0  0  0
 28105  1  0  0  0
 29106  1  0  0  0
 29107  1  0  0  0
 33 34  1  0  0  0
 33 66  1  0  0  0
 33 70  2  0  0  0
 34 36  1  0  0  0
 34 59  1  0  0  0
 34108  1  0  0  0
 35 44  2  0  0  0
 35 45  1  0  0  0
 35 68  1  0  0  0
 36 56  1  0  0  0
 36109  1  0  0  0
 37 39  1  0  0  0
 37 47  1  0  0  0
 37 66  1  0  0  0
 37110  1  0  0  0
 38 43  2  0  0  0
 38 46  1  0  0  0
 38 47  1  0  0  0
 39 64  1  0  0  0
 39 67  2  0  0  0
 40 52  1  0  0  0
 40 53  2  0  0  0
 40 58  1  0  0  0
 41111  1  0  0  0
 41112  1  0  0  0
 41113  1  0  0  0
 41 48  1  0  0  0
 42 43  1  0  0  0
 42 66  1  0  0  0
 42114  1  0  0  0
 42115  1  0  0  0
 43 44  1  0  0  0
 44116  1  0  0  0
 45 46  2  0  0  0
 45117  1  0  0  0
 46118  1  0  0  0
 47119  1  0  0  0
 47120  1  0  0  0
 48 56  1  0  0  0
 48 65  1  0  0  0
 48121  1  0  0  0
 49 50  1  0  0  0
 49 53  1  0  0  0
 49 64  1  0  0  0
 49122  1  0  0  0
 50 51  1  0  0  0
 50123  1  0  0  0
 50124  1  0  0  0
 51 52  1  0  0  0
 51125  1  0  0  0
 51126  1  0  0  0
 52127  1  0  0  0
 52128  1  0  0  0
 53 54  1  0  0  0
 54 55  2  0  0  0
 54129  1  0  0  0
 55 57  1  0  0  0
 55130  1  0  0  0
 56 69  2  0  0  0
 57 58  2  0  0  0
 57131  1  0  0  0
 58132  1  0  0  0
 59 60  1  0  0  0
 59 61  1  0  0  0
 59 62  1  0  0  0
 60133  1  0  0  0
 60134  1  0  0  0
 60135  1  0  0  0
 61136  1  0  0  0
 61137  1  0  0  0
 61138  1  0  0  0
 62139  1  0  0  0
 62140  1  0  0  0
 62141  1  0  0  0
 63 65  1  0  0  0
 63142  1  0  0  0
 63143  1  0  0  0
 63144  1  0  0  0
 64145  1  0  0  0
 65146  1  0  0  0
 68 79  1  0  0  0
 71 72  2  0  0  0
 71 75  1  0  0  0
 71147  1  0  0  0
 72 76  1  0  0  0
 72148  1  0  0  0
 73 74  1  0  0  0
 73 75  2  0  0  0
 73149  1  0  0  0
 74 76  2  0  0  0
 74 83  1  0  0  0
 75 85  1  0  0  0
 76 86  1  0  0  0
 77 79  2  0  0  0
 77 80  1  0  0  0
 77 81  1  0  0  0
 78 82  1  0  0  0
 78 85  1  0  0  0
 78 87  2  0  0  0
 79 84  1  0  0  0
 80 82  1  0  0  0
 80150  1  0  0  0
 80151  1  0  0  0
 81 85  1  0  0  0
 81152  1  0  0  0
 81153  1  0  0  0
 82154  1  0  0  0
 82155  1  0  0  0
 83156  1  0  0  0
 83157  1  0  0  0
 83158  1  0  0  0
 84159  1  0  0  0
 84160  1  0  0  0
 84161  1  0  0  0
 86162  1  0  0  0
M  ISO  4   1 100  68 101  79 101  86 100
M  END
> <chiral flag>
0

> <version>
0

> <s_m_source_file>
/data/baiqing/PycharmProjects/Reinvent-master-3.2/result/LINK_invent/BTK/process_docking_weight1_custom_product_contain_oxygen_bond_distance_aromatic_linkinvent_7_9_3/rearranged_h_0061.sdf

> <i_m_source_file_index>
73

> <r_mmod_Potential_Energy-OPLS-2005>
158.800918579102

> <r_mmod_Stretch_Energy-OPLS-2005>
94.63525390625

> <r_mmod_Bend_Energy-OPLS-2005>
147.530090332031

> <r_mmod_Torsional_Energy-OPLS-2005>
293.613861083984

> <r_mmod_Improper_Torsional_Energy-OPLS-2005>
5.05567073822021

> <r_mmod_Van_der_Waal_Energy-OPLS-2005>
152.75114440918

> <r_mmod_Electrostatic_Energy-OPLS-2005>
-377.239105224609

> <r_mmod_Solvation_Energy-OPLS-2005>
-212.126556396484

> <b_mmod_Minimization_Converged-OPLS-2005>
0

> <r_mmod_RMS_Derivative-OPLS-2005>
1.42278659343719

$$$$
74
                    3D
 Structure written by MMmdl.
157165  0  0  1  0            999 V2000
  -30.7515  -14.3465   20.6835 C   0  0  0  0  0  0
  -30.4143  -12.2763   19.3945 C   0  0  0  0  0  0
  -29.4812  -12.5491   18.1994 C   0  0  0  0  0  0
  -28.0040  -12.4042   18.6104 C   0  0  0  0  0  0
  -27.6667  -13.2036   19.8952 C   0  0  2  0  0  0
  -28.7029  -12.9092   21.0041 C   0  0  0  0  0  0
  -25.2561  -13.8149   20.5688 C   0  0  0  0  0  0
  -24.1805  -13.0420   20.9173 C   0  0  0  0  0  0
  -24.6357  -11.6884   20.8728 C   0  0  0  0  0  0
  -23.9017  -10.4277   21.0409 C   0  0  0  0  0  0
  -24.3573   -9.4189   21.9183 C   0  0  0  0  0  0
  -23.6262   -8.2209   22.0740 C   0  0  0  0  0  0
  -22.4251   -8.0240   21.3515 C   0  0  0  0  0  0
  -21.9870   -9.0223   20.4633 C   0  0  0  0  0  0
  -22.7186  -10.2114   20.3060 C   0  0  0  0  0  0
  -21.6841   -6.0711   22.5273 C   0  0  0  0  0  0
  -21.4006   -6.5633   23.8202 C   0  0  0  0  0  0
  -21.3667   -5.6795   24.9174 C   0  0  0  0  0  0
  -21.6049   -4.3058   24.7235 C   0  0  0  0  0  0
  -21.8812   -3.8133   23.4363 C   0  0  0  0  0  0
  -21.9183   -4.6938   22.3410 C   0  0  0  0  0  0
  -22.7831  -13.5210   21.1863 C   0  0  0  0  0  0
  -22.1651   -4.2125   21.0986 F   0  0  0  0  0  0
  -21.5634   -3.4541   25.7753 F   0  0  0  0  0  0
  -30.0537  -13.2003   20.4805 N   0  0  0  0  0  0
  -26.3024  -12.9313   20.3456 N   0  0  0  0  0  0
  -25.9289  -11.6464   20.5771 N   0  0  0  0  0  0
  -22.0484  -12.8220   22.0447 N   0  0  0  0  0  0
  -25.4304  -15.1863   20.4088 N   0  0  0  0  0  0
  -31.7936  -14.6136   20.0735 O   0  0  0  0  0  0
  -21.6606   -6.8843   21.4229 O   0  0  0  0  0  0
  -22.3508  -14.5510   20.6712 O   0  0  0  0  0  0
  -24.6094  -31.8699   23.2128 C   0  0  0  0  0  0
  -25.9000  -32.4824   23.8409 C   0  0  1  0  0  0
  -27.2388  -27.4749   20.0843 C   0  0  0  0  0  0
  -25.5867  -33.8621   24.2325 N   0  0  0  0  0  0
  -23.3939  -30.4940   21.5524 C   0  0  2  0  0  0
  -24.8390  -28.9641   20.1177 C   0  0  0  0  0  0
  -22.7379  -29.4653   22.5009 C   0  0  0  0  0  0
  -18.0253  -28.1355   22.8490 C   0  0  0  0  0  0
  -24.1484  -36.7359   23.2628 C   0  0  0  0  0  0
  -25.9172  -30.8517   21.3531 C   0  0  0  0  0  0
  -25.9965  -29.4856   20.7075 C   0  0  0  0  0  0
  -27.1968  -28.7488   20.6874 C   0  0  0  0  0  0
  -26.0627  -26.9569   19.4924 C   0  0  0  0  0  0
  -24.8658  -27.6972   19.5100 C   0  0  0  0  0  0
  -23.5979  -29.8241   20.1668 C   0  0  0  0  0  0
  -25.4083  -36.3115   24.0336 C   0  0  1  0  0  0
  -20.5838  -28.3643   23.1353 C   0  0  2  0  0  0
  -20.6731  -26.9394   22.5433 C   0  0  0  0  0  0
  -19.5716  -26.6383   21.5213 C   0  0  0  0  0  0
  -18.1891  -26.7907   22.1623 C   0  0  0  0  0  0
  -19.1498  -28.8814   23.2927 C   0  0  0  0  0  0
  -18.9408  -30.1424   23.8932 C   0  0  0  0  0  0
  -17.6409  -30.6560   24.0564 C   0  0  0  0  0  0
  -25.9005  -34.9476   23.5120 C   0  0  0  0  0  0
  -16.5310  -29.9060   23.6302 C   0  0  0  0  0  0
  -16.7245  -28.6488   23.0321 C   0  0  0  0  0  0
  -26.4482  -31.6603   25.0711 C   0  0  0  0  0  0
  -25.3811  -31.3639   26.1490 C   0  0  0  0  0  0
  -27.0332  -30.3080   24.6003 C   0  0  0  0  0  0
  -27.6056  -32.4330   25.7450 C   0  0  0  0  0  0
  -27.5557  -37.1823   24.8462 C   0  0  0  0  0  0
  -21.4110  -29.3027   22.3761 N   0  0  0  0  0  0
  -26.4272  -37.3792   23.9408 N   0  0  0  0  0  0
  -24.6592  -31.0846   22.1003 N   0  0  0  0  0  0
  -23.4176  -28.8186   23.3024 O   0  0  0  0  0  0
  -28.4438  -26.8086   20.0912 O   0  0  0  0  0  0
  -26.5581  -34.8922   22.4693 O   0  0  0  0  0  0
  -23.5303  -32.1420   23.7570 O   0  0  0  0  0  0
  -30.7013  -17.3509   20.5534 C   0  0  0  0  0  0
  -30.4163  -18.7212   20.4689 C   0  0  0  0  0  0
  -29.3181  -17.1891   22.5587 C   0  0  0  0  0  0
  -29.0317  -18.5692   22.4812 C   0  0  0  0  0  0
  -30.1253  -16.5626   21.5807 C   0  0  0  0  0  0
  -29.5689  -19.3211   21.4127 C   0  0  0  0  0  0
  -28.0932  -24.8137   21.4787 C   0  0  0  0  0  0
  -30.0723  -23.4496   21.8200 C   0  0  0  0  0  0
  -28.1289  -19.2198   23.5187 C   0  0  0  0  0  0
  -28.4643  -25.3794   20.0833 C   0  0  0  0  0  0
  -30.3006  -21.9801   22.1361 C   0  0  0  0  0  0
  -30.2527  -15.1484   21.6358 N   0  0  0  0  0  0
  -28.8428  -23.8987   22.1081 N   0  0  0  0  0  0
  -27.0239  -25.1475   21.9953 O   0  0  0  0  0  0
  -30.9745  -24.1148   21.3027 O   0  0  0  0  0  0
  -29.1222  -20.9969   21.1734 S   0  0  0  0  0  0
  -31.4570  -12.3761   19.0864 H   0  0  0  0  0  0
  -30.3042  -11.2440   19.7302 H   0  0  0  0  0  0
  -29.7082  -11.8693   17.3785 H   0  0  0  0  0  0
  -29.6584  -13.5569   17.8186 H   0  0  0  0  0  0
  -27.7972  -11.3447   18.7657 H   0  0  0  0  0  0
  -27.3549  -12.7230   17.7952 H   0  0  0  0  0  0
  -27.7355  -14.2650   19.6515 H   0  0  0  0  0  0
  -28.6538  -11.8546   21.2824 H   0  0  0  0  0  0
  -28.4530  -13.4499   21.9184 H   0  0  0  0  0  0
  -25.2713   -9.5671   22.4757 H   0  0  0  0  0  0
  -23.9983   -7.4597   22.7457 H   0  0  0  0  0  0
  -21.0789   -8.8734   19.8942 H   0  0  0  0  0  0
  -22.3627  -10.9653   19.6181 H   0  0  0  0  0  0
  -21.1990   -7.6138   23.9703 H   0  0  0  0  0  0
  -21.1506   -6.0523   25.9078 H   0  0  0  0  0  0
  -22.0587   -2.7588   23.2867 H   0  0  0  0  0  0
  -22.4097  -11.9908   22.4870 H   0  0  0  0  0  0
  -21.1104  -13.1259   22.2648 H   0  0  0  0  0  0
  -24.6655  -15.8457   20.4994 H   0  0  0  0  0  0
  -26.2943  -15.6221   20.1107 H   0  0  0  0  0  0
  -26.7059  -32.5557   23.1172 H   0  0  0  0  0  0
  -24.9997  -33.9783   25.0466 H   0  0  0  0  0  0
  -22.6798  -31.3083   21.4151 H   0  0  0  0  0  0
  -23.3706  -35.9726   23.3299 H   0  0  0  0  0  0
  -24.3595  -36.8977   22.2047 H   0  0  0  0  0  0
  -23.7283  -37.6589   23.6635 H   0  0  0  0  0  0
  -26.0082  -31.6148   20.5792 H   0  0  0  0  0  0
  -26.8145  -30.9206   21.9562 H   0  0  0  0  0  0
  -28.0926  -29.1500   21.1405 H   0  0  0  0  0  0
  -26.0413  -25.9969   19.0017 H   0  0  0  0  0  0
  -23.9753  -27.2891   19.0526 H   0  0  0  0  0  0
  -23.6995  -30.5961   19.4035 H   0  0  0  0  0  0
  -22.7228  -29.2380   19.8752 H   0  0  0  0  0  0
  -25.1250  -36.1975   25.0820 H   0  0  0  0  0  0
  -20.9927  -28.3189   24.1479 H   0  0  0  0  0  0
  -20.5634  -26.2250   23.3608 H   0  0  0  0  0  0
  -21.6607  -26.7462   22.1209 H   0  0  0  0  0  0
  -19.6896  -25.6300   21.1238 H   0  0  0  0  0  0
  -19.6636  -27.3207   20.6752 H   0  0  0  0  0  0
  -17.4164  -26.6670   21.4016 H   0  0  0  0  0  0
  -18.0256  -26.0063   22.9017 H   0  0  0  0  0  0
  -19.7871  -30.7246   24.2304 H   0  0  0  0  0  0
  -17.4943  -31.6234   24.5179 H   0  0  0  0  0  0
  -15.5294  -30.2938   23.7615 H   0  0  0  0  0  0
  -15.8658  -28.0804   22.6995 H   0  0  0  0  0  0
  -24.6027  -30.6914   25.7872 H   0  0  0  0  0  0
  -24.8922  -32.2764   26.4911 H   0  0  0  0  0  0
  -25.8247  -30.8864   27.0236 H   0  0  0  0  0  0
  -26.2833  -29.6849   24.1111 H   0  0  0  0  0  0
  -27.4238  -29.7291   25.4385 H   0  0  0  0  0  0
  -27.8585  -30.4485   23.9023 H   0  0  0  0  0  0
  -27.2651  -33.3643   26.1983 H   0  0  0  0  0  0
  -28.3878  -32.6845   25.0284 H   0  0  0  0  0  0
  -28.0698  -31.8487   26.5394 H   0  0  0  0  0  0
  -28.2577  -38.0113   24.7481 H   0  0  0  0  0  0
  -28.1055  -36.2651   24.6305 H   0  0  0  0  0  0
  -27.2279  -37.1500   25.8867 H   0  0  0  0  0  0
  -20.9258  -29.8806   21.7049 H   0  0  0  0  0  0
  -26.0182  -38.2876   24.1401 H   0  0  0  0  0  0
  -31.3298  -16.9335   19.7824 H   0  0  0  0  0  0
  -30.8192  -19.3041   19.6528 H   0  0  0  0  0  0
  -28.8799  -16.6042   23.3557 H   0  0  0  0  0  0
  -27.6540  -18.4793   24.1633 H   0  0  0  0  0  0
  -27.3340  -19.7943   23.0405 H   0  0  0  0  0  0
  -28.7055  -19.8981   24.1495 H   0  0  0  0  0  0
  -27.8095  -24.9417   19.3326 H   0  0  0  0  0  0
  -29.4561  -25.0908   19.7509 H   0  0  0  0  0  0
  -31.3192  -21.6936   21.8740 H   0  0  0  0  0  0
  -30.1706  -21.7916   23.2012 H   0  0  0  0  0  0
  -29.6042  -14.6891   22.2583 H   0  0  0  0  0  0
  -28.3410  -23.3717   22.8050 H   0  0  0  0  0  0
  1 25  1  0  0  0
  1 30  2  0  0  0
  1 82  1  0  0  0
  2  3  1  0  0  0
  2 25  1  0  0  0
  2 87  1  0  0  0
  2 88  1  0  0  0
  3  4  1  0  0  0
  3 89  1  0  0  0
  3 90  1  0  0  0
  4  5  1  0  0  0
  4 91  1  0  0  0
  4 92  1  0  0  0
  5  6  1  0  0  0
  5 26  1  0  0  0
  5 93  1  0  0  0
  6 25  1  0  0  0
  6 94  1  0  0  0
  6 95  1  0  0  0
  7  8  2  0  0  0
  7 26  1  0  0  0
  7 29  1  0  0  0
  8  9  1  0  0  0
  8 22  1  0  0  0
  9 10  1  0  0  0
  9 27  2  0  0  0
 10 11  2  0  0  0
 10 15  1  0  0  0
 11 12  1  0  0  0
 11 96  1  0  0  0
 12 13  2  0  0  0
 12 97  1  0  0  0
 13 14  1  0  0  0
 13 31  1  0  0  0
 14 15  2  0  0  0
 14 98  1  0  0  0
 15 99  1  0  0  0
 16 17  2  0  0  0
 16 21  1  0  0  0
 16 31  1  0  0  0
 17 18  1  0  0  0
 17100  1  0  0  0
 18 19  2  0  0  0
 18101  1  0  0  0
 19 20  1  0  0  0
 19 24  1  0  0  0
 20 21  2  0  0  0
 20102  1  0  0  0
 21 23  1  0  0  0
 22 28  1  0  0  0
 22 32  2  0  0  0
 26 27  1  0  0  0
 28103  1  0  0  0
 28104  1  0  0  0
 29105  1  0  0  0
 29106  1  0  0  0
 33 34  1  0  0  0
 33 66  1  0  0  0
 33 70  2  0  0  0
 34 36  1  0  0  0
 34 59  1  0  0  0
 34107  1  0  0  0
 35 44  2  0  0  0
 35 45  1  0  0  0
 35 68  1  0  0  0
 36 56  1  0  0  0
 36108  1  0  0  0
 37 39  1  0  0  0
 37 47  1  0  0  0
 37 66  1  0  0  0
 37109  1  0  0  0
 38 43  2  0  0  0
 38 46  1  0  0  0
 38 47  1  0  0  0
 39 64  1  0  0  0
 39 67  2  0  0  0
 40 52  1  0  0  0
 40 53  2  0  0  0
 40 58  1  0  0  0
 41110  1  0  0  0
 41111  1  0  0  0
 41112  1  0  0  0
 41 48  1  0  0  0
 42 43  1  0  0  0
 42 66  1  0  0  0
 42113  1  0  0  0
 42114  1  0  0  0
 43 44  1  0  0  0
 44115  1  0  0  0
 45 46  2  0  0  0
 45116  1  0  0  0
 46117  1  0  0  0
 47118  1  0  0  0
 47119  1  0  0  0
 48 56  1  0  0  0
 48 65  1  0  0  0
 48120  1  0  0  0
 49 50  1  0  0  0
 49 53  1  0  0  0
 49 64  1  0  0  0
 49121  1  0  0  0
 50 51  1  0  0  0
 50122  1  0  0  0
 50123  1  0  0  0
 51 52  1  0  0  0
 51124  1  0  0  0
 51125  1  0  0  0
 52126  1  0  0  0
 52127  1  0  0  0
 53 54  1  0  0  0
 54 55  2  0  0  0
 54128  1  0  0  0
 55 57  1  0  0  0
 55129  1  0  0  0
 56 69  2  0  0  0
 57 58  2  0  0  0
 57130  1  0  0  0
 58131  1  0  0  0
 59 60  1  0  0  0
 59 61  1  0  0  0
 59 62  1  0  0  0
 60132  1  0  0  0
 60133  1  0  0  0
 60134  1  0  0  0
 61135  1  0  0  0
 61136  1  0  0  0
 61137  1  0  0  0
 62138  1  0  0  0
 62139  1  0  0  0
 62140  1  0  0  0
 63 65  1  0  0  0
 63141  1  0  0  0
 63142  1  0  0  0
 63143  1  0  0  0
 64144  1  0  0  0
 65145  1  0  0  0
 68 80  1  0  0  0
 71 72  2  0  0  0
 71 75  1  0  0  0
 71146  1  0  0  0
 72 76  1  0  0  0
 72147  1  0  0  0
 73 74  1  0  0  0
 73 75  2  0  0  0
 73148  1  0  0  0
 74 76  2  0  0  0
 74 79  1  0  0  0
 75 82  1  0  0  0
 76 86  1  0  0  0
 77 80  1  0  0  0
 77 83  1  0  0  0
 77 84  2  0  0  0
 78 81  1  0  0  0
 78 83  1  0  0  0
 78 85  2  0  0  0
 79149  1  0  0  0
 79150  1  0  0  0
 79151  1  0  0  0
 80152  1  0  0  0
 80153  1  0  0  0
 81 86  1  0  0  0
 81154  1  0  0  0
 81155  1  0  0  0
 82156  1  0  0  0
 83157  1  0  0  0
M  ISO  4   1 100  68 101  80 101  82 100
M  END
> <chiral flag>
0

> <version>
0

> <s_m_source_file>
/data/baiqing/PycharmProjects/Reinvent-master-3.2/result/LINK_invent/BTK/process_docking_weight1_custom_product_contain_oxygen_bond_distance_aromatic_linkinvent_7_9_3/rearranged_h_0061.sdf

> <i_m_source_file_index>
74

> <r_mmod_Potential_Energy-OPLS-2005>
-193.151184082031

> <r_mmod_Stretch_Energy-OPLS-2005>
33.1613960266113

> <r_mmod_Bend_Energy-OPLS-2005>
113.065643310547

> <r_mmod_Torsional_Energy-OPLS-2005>
247.472946166992

> <r_mmod_Improper_Torsional_Energy-OPLS-2005>
5.0368185043335

> <r_mmod_Van_der_Waal_Energy-OPLS-2005>
168.030471801758

> <r_mmod_Electrostatic_Energy-OPLS-2005>
-517.685119628906

> <r_mmod_Solvation_Energy-OPLS-2005>
-250.186141967773

> <b_mmod_Minimization_Converged-OPLS-2005>
0

> <r_mmod_RMS_Derivative-OPLS-2005>
2.83665299415588

$$$$
75
                    3D
 Structure written by MMmdl.
157166  0  0  1  0            999 V2000
  -30.5114  -15.0214   20.4047 C   0  0  0  0  0  0
  -30.4326  -12.6360   19.5075 C   0  0  0  0  0  0
  -29.5201  -12.5375   18.2618 C   0  0  0  0  0  0
  -28.0582  -12.3026   18.6859 C   0  0  0  0  0  0
  -27.6199  -13.2529   19.8316 C   0  0  2  0  0  0
  -28.6574  -13.3246   20.9707 C   0  0  0  0  0  0
  -25.2426  -13.8209   20.5704 C   0  0  0  0  0  0
  -24.1752  -13.0419   20.9208 C   0  0  0  0  0  0
  -24.6378  -11.6910   20.8750 C   0  0  0  0  0  0
  -23.9072  -10.4281   21.0418 C   0  0  0  0  0  0
  -24.3627   -9.4197   21.9188 C   0  0  0  0  0  0
  -23.6291   -8.2235   22.0756 C   0  0  0  0  0  0
  -22.4268   -8.0283   21.3558 C   0  0  0  0  0  0
  -21.9918   -9.0245   20.4647 C   0  0  0  0  0  0
  -22.7255  -10.2121   20.3059 C   0  0  0  0  0  0
  -21.6850   -6.0734   22.5264 C   0  0  0  0  0  0
  -21.4016   -6.5643   23.8199 C   0  0  0  0  0  0
  -21.3649   -5.6792   24.9165 C   0  0  0  0  0  0
  -21.6045   -4.3052   24.7211 C   0  0  0  0  0  0
  -21.8820   -3.8144   23.4334 C   0  0  0  0  0  0
  -21.9198   -4.6960   22.3395 C   0  0  0  0  0  0
  -22.7785  -13.5190   21.1862 C   0  0  0  0  0  0
  -22.1666   -4.2154   21.0975 F   0  0  0  0  0  0
  -21.5623   -3.4540   25.7723 F   0  0  0  0  0  0
  -29.9229  -13.7521   20.3613 N   0  0  0  0  0  0
  -26.2837  -12.9442   20.3216 N   0  0  0  0  0  0
  -25.9313  -11.6567   20.5733 N   0  0  0  0  0  0
  -22.0455  -12.8180   22.0428 N   0  0  0  0  0  0
  -25.4080  -15.1947   20.4135 N   0  0  0  0  0  0
  -31.7254  -15.0503   20.1733 O   0  0  0  0  0  0
  -21.6638   -6.8879   21.4229 O   0  0  0  0  0  0
  -22.3475  -14.5503   20.6706 O   0  0  0  0  0  0
  -24.6482  -31.8384   23.1830 C   0  0  0  0  0  0
  -25.9226  -32.4671   23.8235 C   0  0  1  0  0  0
  -27.2110  -27.1010   20.1645 C   0  0  0  0  0  0
  -25.5966  -33.8484   24.2139 N   0  0  0  0  0  0
  -23.4515  -30.4576   21.5315 C   0  0  2  0  0  0
  -24.8984  -28.8726   20.1174 C   0  0  0  0  0  0
  -22.7576  -29.4537   22.4872 C   0  0  0  0  0  0
  -18.0295  -28.1401   22.8471 C   0  0  0  0  0  0
  -24.1491  -36.7221   23.2658 C   0  0  0  0  0  0
  -26.0108  -30.7048   21.3847 C   0  0  0  0  0  0
  -26.0787  -29.3108   20.7292 C   0  0  0  0  0  0
  -27.2389  -28.4448   20.7265 C   0  0  0  0  0  0
  -26.0011  -26.7606   19.5284 C   0  0  0  0  0  0
  -24.8734  -27.6114   19.5022 C   0  0  0  0  0  0
  -23.6776  -29.7807   20.1531 C   0  0  0  0  0  0
  -25.4125  -36.2997   24.0317 C   0  0  1  0  0  0
  -20.5914  -28.3713   23.1236 C   0  0  2  0  0  0
  -20.6793  -26.9418   22.5414 C   0  0  0  0  0  0
  -19.5771  -26.6366   21.5229 C   0  0  0  0  0  0
  -18.1936  -26.7946   22.1610 C   0  0  0  0  0  0
  -19.1553  -28.8872   23.2848 C   0  0  0  0  0  0
  -18.9487  -30.1478   23.8859 C   0  0  0  0  0  0
  -17.6474  -30.6599   24.0561 C   0  0  0  0  0  0
  -25.9071  -34.9391   23.5029 C   0  0  0  0  0  0
  -16.5361  -29.9092   23.6346 C   0  0  0  0  0  0
  -16.7278  -28.6512   23.0357 C   0  0  0  0  0  0
  -26.4527  -31.6580   25.0700 C   0  0  0  0  0  0
  -25.3696  -31.3777   26.1373 C   0  0  0  0  0  0
  -27.0407  -30.2977   24.6304 C   0  0  0  0  0  0
  -27.6040  -32.4364   25.7487 C   0  0  0  0  0  0
  -27.5567  -37.1749   24.8468 C   0  0  0  0  0  0
  -21.4260  -29.3049   22.3617 N   0  0  0  0  0  0
  -26.4254  -37.3739   23.9437 N   0  0  0  0  0  0
  -24.7242  -31.0216   22.0890 N   0  0  0  0  0  0
  -23.4204  -28.8107   23.3056 O   0  0  0  0  0  0
  -28.2740  -26.1189   20.1594 O   0  0  0  0  0  0
  -26.5675  -34.8922   22.4604 O   0  0  0  0  0  0
  -23.5580  -32.1274   23.7033 O   0  0  0  0  0  0
  -29.0931  -18.9421   20.3768 C   0  0  0  0  0  0
  -31.3725  -18.1732   20.4396 C   0  0  0  0  0  0
  -30.8519  -20.6214   20.3737 C   0  0  0  0  0  0
  -29.4388  -20.4188   20.3311 C   0  0  0  0  0  0
  -30.0252  -17.7622   20.4300 C   0  0  0  0  0  0
  -31.7648  -19.5293   20.4097 C   0  0  0  0  0  0
  -26.5553  -22.3071   19.0727 C   0  0  0  0  0  0
  -27.1431  -21.3786   20.1373 C   0  0  0  0  0  0
  -27.6665  -23.1647   18.5216 C   0  0  0  0  0  0
  -28.6107  -23.1908   19.7244 C   0  0  1  0  0  0
  -31.4728  -22.0105   20.3818 C   0  0  0  0  0  0
  -28.1006  -24.6037   20.5547 C   0  0  0  0  0  0
  -28.4619  -21.6565   20.2421 N   0  0  0  0  0  0
  -29.7239  -16.2298   20.4874 N   0  0  0  0  0  0
  -25.3730  -22.3686   18.7114 O   0  0  0  0  0  0
  -26.4919  -20.5350   20.7687 O   0  0  0  0  0  0
  -33.0953  -19.7845   20.4135 F   0  0  0  0  0  0
  -31.4679  -12.7905   19.2008 H   0  0  0  0  0  0
  -30.4261  -11.6968   20.0614 H   0  0  0  0  0  0
  -29.8543  -11.7303   17.6099 H   0  0  0  0  0  0
  -29.5901  -13.4559   17.6766 H   0  0  0  0  0  0
  -27.9772  -11.2673   19.0185 H   0  0  0  0  0  0
  -27.3888  -12.3984   17.8303 H   0  0  0  0  0  0
  -27.5687  -14.2445   19.3798 H   0  0  0  0  0  0
  -28.7620  -12.3625   21.4734 H   0  0  0  0  0  0
  -28.3421  -14.0411   21.7317 H   0  0  0  0  0  0
  -25.2779   -9.5665   22.4759 H   0  0  0  0  0  0
  -23.9989   -7.4637   22.7501 H   0  0  0  0  0  0
  -21.0837   -8.8767   19.8964 H   0  0  0  0  0  0
  -22.3717  -10.9653   19.6161 H   0  0  0  0  0  0
  -21.2009   -7.6155   23.9699 H   0  0  0  0  0  0
  -21.1467   -6.0532   25.9071 H   0  0  0  0  0  0
  -22.0613   -2.7604   23.2830 H   0  0  0  0  0  0
  -22.4078  -11.9835   22.4798 H   0  0  0  0  0  0
  -21.1092  -13.1208   22.2679 H   0  0  0  0  0  0
  -24.6316  -15.8396   20.5178 H   0  0  0  0  0  0
  -26.2455  -15.6366   20.0570 H   0  0  0  0  0  0
  -26.7300  -32.5232   23.0966 H   0  0  0  0  0  0
  -25.0129  -33.9593   25.0307 H   0  0  0  0  0  0
  -22.7590  -31.2868   21.3723 H   0  0  0  0  0  0
  -23.3790  -35.9516   23.3266 H   0  0  0  0  0  0
  -24.3587  -36.8879   22.2081 H   0  0  0  0  0  0
  -23.7208  -37.6388   23.6718 H   0  0  0  0  0  0
  -26.1689  -31.4562   20.6096 H   0  0  0  0  0  0
  -26.8828  -30.7512   22.0266 H   0  0  0  0  0  0
  -28.1460  -28.7808   21.2077 H   0  0  0  0  0  0
  -25.9108  -25.7930   19.0590 H   0  0  0  0  0  0
  -23.9690  -27.2659   19.0208 H   0  0  0  0  0  0
  -23.8213  -30.5520   19.3957 H   0  0  0  0  0  0
  -22.7911  -29.2267   19.8394 H   0  0  0  0  0  0
  -25.1317  -36.1799   25.0809 H   0  0  0  0  0  0
  -20.9979  -28.3287   24.1364 H   0  0  0  0  0  0
  -20.5710  -26.2314   23.3623 H   0  0  0  0  0  0
  -21.6652  -26.7446   22.1188 H   0  0  0  0  0  0
  -19.6948  -25.6271   21.1257 H   0  0  0  0  0  0
  -19.6721  -27.3181   20.6766 H   0  0  0  0  0  0
  -17.4218  -26.6693   21.3997 H   0  0  0  0  0  0
  -18.0311  -26.0091   22.9000 H   0  0  0  0  0  0
  -19.7976  -30.7299   24.2198 H   0  0  0  0  0  0
  -17.5048  -31.6282   24.5174 H   0  0  0  0  0  0
  -15.5368  -30.2993   23.7729 H   0  0  0  0  0  0
  -15.8665  -28.0844   22.7097 H   0  0  0  0  0  0
  -24.5930  -30.7057   25.7710 H   0  0  0  0  0  0
  -24.8842  -32.2964   26.4676 H   0  0  0  0  0  0
  -25.7970  -30.9058   27.0232 H   0  0  0  0  0  0
  -26.3033  -29.6684   24.1299 H   0  0  0  0  0  0
  -27.4034  -29.7276   25.4877 H   0  0  0  0  0  0
  -27.8921  -30.4245   23.9609 H   0  0  0  0  0  0
  -27.2632  -33.3731   26.1921 H   0  0  0  0  0  0
  -28.3921  -32.6803   25.0349 H   0  0  0  0  0  0
  -28.0626  -31.8579   26.5517 H   0  0  0  0  0  0
  -28.2537  -38.0091   24.7550 H   0  0  0  0  0  0
  -28.1081  -36.2606   24.6220 H   0  0  0  0  0  0
  -27.2267  -37.1298   25.8862 H   0  0  0  0  0  0
  -20.9487  -29.8730   21.6761 H   0  0  0  0  0  0
  -26.0093  -38.2780   24.1511 H   0  0  0  0  0  0
  -28.0469  -18.6800   20.3568 H   0  0  0  0  0  0
  -32.1650  -17.4434   20.4755 H   0  0  0  0  0  0
  -27.3163  -24.1501   18.2181 H   0  0  0  0  0  0
  -28.1189  -22.6675   17.6631 H   0  0  0  0  0  0
  -29.6038  -23.3763   19.3339 H   0  0  0  0  0  0
  -31.5407  -22.3838   19.3597 H   0  0  0  0  0  0
  -32.4865  -22.0098   20.7826 H   0  0  0  0  0  0
  -30.9116  -22.7053   21.0049 H   0  0  0  0  0  0
  -28.5889  -24.5472   21.5301 H   0  0  0  0  0  0
  -27.0462  -24.4796   20.8046 H   0  0  0  0  0  0
  -28.7427  -16.0161   20.5870 H   0  0  0  0  0  0
  1 25  1  0  0  0
  1 30  2  0  0  0
  1 84  1  0  0  0
  2  3  1  0  0  0
  2 25  1  0  0  0
  2 88  1  0  0  0
  2 89  1  0  0  0
  3  4  1  0  0  0
  3 90  1  0  0  0
  3 91  1  0  0  0
  4  5  1  0  0  0
  4 92  1  0  0  0
  4 93  1  0  0  0
  5  6  1  0  0  0
  5 26  1  0  0  0
  5 94  1  0  0  0
  6 25  1  0  0  0
  6 95  1  0  0  0
  6 96  1  0  0  0
  7  8  2  0  0  0
  7 26  1  0  0  0
  7 29  1  0  0  0
  8  9  1  0  0  0
  8 22  1  0  0  0
  9 10  1  0  0  0
  9 27  2  0  0  0
 10 11  2  0  0  0
 10 15  1  0  0  0
 11 12  1  0  0  0
 11 97  1  0  0  0
 12 13  2  0  0  0
 12 98  1  0  0  0
 13 14  1  0  0  0
 13 31  1  0  0  0
 14 15  2  0  0  0
 14 99  1  0  0  0
 15100  1  0  0  0
 16 17  2  0  0  0
 16 21  1  0  0  0
 16 31  1  0  0  0
 17 18  1  0  0  0
 17101  1  0  0  0
 18 19  2  0  0  0
 18102  1  0  0  0
 19 20  1  0  0  0
 19 24  1  0  0  0
 20 21  2  0  0  0
 20103  1  0  0  0
 21 23  1  0  0  0
 22 28  1  0  0  0
 22 32  2  0  0  0
 26 27  1  0  0  0
 28104  1  0  0  0
 28105  1  0  0  0
 29106  1  0  0  0
 29107  1  0  0  0
 33 34  1  0  0  0
 33 66  1  0  0  0
 33 70  2  0  0  0
 34 36  1  0  0  0
 34 59  1  0  0  0
 34108  1  0  0  0
 35 44  2  0  0  0
 35 45  1  0  0  0
 35 68  1  0  0  0
 36 56  1  0  0  0
 36109  1  0  0  0
 37 39  1  0  0  0
 37 47  1  0  0  0
 37 66  1  0  0  0
 37110  1  0  0  0
 38 43  2  0  0  0
 38 46  1  0  0  0
 38 47  1  0  0  0
 39 64  1  0  0  0
 39 67  2  0  0  0
 40 52  1  0  0  0
 40 53  2  0  0  0
 40 58  1  0  0  0
 41111  1  0  0  0
 41112  1  0  0  0
 41113  1  0  0  0
 41 48  1  0  0  0
 42 43  1  0  0  0
 42 66  1  0  0  0
 42114  1  0  0  0
 42115  1  0  0  0
 43 44  1  0  0  0
 44116  1  0  0  0
 45 46  2  0  0  0
 45117  1  0  0  0
 46118  1  0  0  0
 47119  1  0  0  0
 47120  1  0  0  0
 48 56  1  0  0  0
 48 65  1  0  0  0
 48121  1  0  0  0
 49 50  1  0  0  0
 49 53  1  0  0  0
 49 64  1  0  0  0
 49122  1  0  0  0
 50 51  1  0  0  0
 50123  1  0  0  0
 50124  1  0  0  0
 51 52  1  0  0  0
 51125  1  0  0  0
 51126  1  0  0  0
 52127  1  0  0  0
 52128  1  0  0  0
 53 54  1  0  0  0
 54 55  2  0  0  0
 54129  1  0  0  0
 55 57  1  0  0  0
 55130  1  0  0  0
 56 69  2  0  0  0
 57 58  2  0  0  0
 57131  1  0  0  0
 58132  1  0  0  0
 59 60  1  0  0  0
 59 61  1  0  0  0
 59 62  1  0  0  0
 60133  1  0  0  0
 60134  1  0  0  0
 60135  1  0  0  0
 61136  1  0  0  0
 61137  1  0  0  0
 61138  1  0  0  0
 62139  1  0  0  0
 62140  1  0  0  0
 62141  1  0  0  0
 63 65  1  0  0  0
 63142  1  0  0  0
 63143  1  0  0  0
 63144  1  0  0  0
 64145  1  0  0  0
 65146  1  0  0  0
 68 82  1  0  0  0
 71 74  2  0  0  0
 71 75  1  0  0  0
 71147  1  0  0  0
 72 75  2  0  0  0
 72 76  1  0  0  0
 72148  1  0  0  0
 73 74  1  0  0  0
 73 76  2  0  0  0
 73 81  1  0  0  0
 74 83  1  0  0  0
 75 84  1  0  0  0
 76 87  1  0  0  0
 77 78  1  0  0  0
 77 79  1  0  0  0
 77 85  2  0  0  0
 78 83  1  0  0  0
 78 86  2  0  0  0
 79 80  1  0  0  0
 79149  1  0  0  0
 79150  1  0  0  0
 80 82  1  0  0  0
 80 83  1  0  0  0
 80151  1  0  0  0
 81152  1  0  0  0
 81153  1  0  0  0
 81154  1  0  0  0
 82155  1  0  0  0
 82156  1  0  0  0
 84157  1  0  0  0
M  ISO  4   1 100  68 101  82 101  84 100
M  END
> <chiral flag>
0

> <version>
0

> <s_m_source_file>
/data/baiqing/PycharmProjects/Reinvent-master-3.2/result/LINK_invent/BTK/process_docking_weight1_custom_product_contain_oxygen_bond_distance_aromatic_linkinvent_7_9_3/rearranged_h_0061.sdf

> <i_m_source_file_index>
75

> <r_mmod_Potential_Energy-OPLS-2005>
772.005920410156

> <r_mmod_Stretch_Energy-OPLS-2005>
348.701538085938

> <r_mmod_Bend_Energy-OPLS-2005>
328.968383789062

> <r_mmod_Torsional_Energy-OPLS-2005>
270.417236328125

> <r_mmod_Improper_Torsional_Energy-OPLS-2005>
5.53291368484497

> <r_mmod_Van_der_Waal_Energy-OPLS-2005>
137.751495361328

> <r_mmod_Electrostatic_Energy-OPLS-2005>
-313.645263671875

> <r_mmod_Solvation_Energy-OPLS-2005>
-238.637329101562

> <b_mmod_Minimization_Converged-OPLS-2005>
0

> <r_mmod_RMS_Derivative-OPLS-2005>
3.04941201210022

$$$$
76
                    3D
 Structure written by MMmdl.
158166  0  0  1  0            999 V2000
  -30.7074  -14.4211   20.6447 C   0  0  0  0  0  0
  -30.4282  -12.3007   19.4085 C   0  0  0  0  0  0
  -29.4985  -12.5397   18.2020 C   0  0  0  0  0  0
  -28.0172  -12.3982   18.6082 C   0  0  0  0  0  0
  -27.6699  -13.2058   19.8869 C   0  0  2  0  0  0
  -28.7047  -12.9265   20.9999 C   0  0  0  0  0  0
  -25.2629  -13.8177   20.5681 C   0  0  0  0  0  0
  -24.1861  -13.0466   20.9164 C   0  0  0  0  0  0
  -24.6395  -11.6923   20.8699 C   0  0  0  0  0  0
  -23.9056  -10.4312   21.0370 C   0  0  0  0  0  0
  -24.3613   -9.4236   21.9155 C   0  0  0  0  0  0
  -23.6302   -8.2265   22.0735 C   0  0  0  0  0  0
  -22.4279   -8.0288   21.3543 C   0  0  0  0  0  0
  -21.9905   -9.0248   20.4637 C   0  0  0  0  0  0
  -22.7222  -10.2135   20.3038 C   0  0  0  0  0  0
  -21.6858   -6.0743   22.5284 C   0  0  0  0  0  0
  -21.4006   -6.5647   23.8215 C   0  0  0  0  0  0
  -21.3659   -5.6795   24.9177 C   0  0  0  0  0  0
  -21.6043   -4.3056   24.7219 C   0  0  0  0  0  0
  -21.8828   -3.8158   23.4338 C   0  0  0  0  0  0
  -21.9189   -4.6974   22.3398 C   0  0  0  0  0  0
  -22.7880  -13.5250   21.1834 C   0  0  0  0  0  0
  -22.1672   -4.2163   21.0974 F   0  0  0  0  0  0
  -21.5617   -3.4537   25.7730 F   0  0  0  0  0  0
  -30.0475  -13.2425   20.4728 N   0  0  0  0  0  0
  -26.3059  -12.9332   20.3375 N   0  0  0  0  0  0
  -25.9323  -11.6494   20.5734 N   0  0  0  0  0  0
  -22.0508  -12.8232   22.0384 N   0  0  0  0  0  0
  -25.4375  -15.1891   20.4104 N   0  0  0  0  0  0
  -31.7726  -14.6768   20.0730 O   0  0  0  0  0  0
  -21.6651   -6.8879   21.4246 O   0  0  0  0  0  0
  -22.3562  -14.5558   20.6688 O   0  0  0  0  0  0
  -24.6127  -31.8692   23.2095 C   0  0  0  0  0  0
  -25.9027  -32.4836   23.8395 C   0  0  1  0  0  0
  -27.2462  -27.4491   20.0825 C   0  0  0  0  0  0
  -25.5893  -33.8629   24.2327 N   0  0  0  0  0  0
  -23.3993  -30.4931   21.5510 C   0  0  2  0  0  0
  -24.8440  -28.9543   20.1193 C   0  0  0  0  0  0
  -22.7387  -29.4681   22.5013 C   0  0  0  0  0  0
  -18.0273  -28.1360   22.8511 C   0  0  0  0  0  0
  -24.1489  -36.7309   23.2648 C   0  0  0  0  0  0
  -25.9266  -30.8388   21.3568 C   0  0  0  0  0  0
  -26.0026  -29.4711   20.7099 C   0  0  0  0  0  0
  -27.2014  -28.7251   20.6886 C   0  0  0  0  0  0
  -26.0572  -26.9308   19.5151 C   0  0  0  0  0  0
  -24.8647  -27.6799   19.5261 C   0  0  0  0  0  0
  -23.6060  -29.8214   20.1663 C   0  0  0  0  0  0
  -25.4115  -36.3129   24.0353 C   0  0  1  0  0  0
  -20.5861  -28.3646   23.1326 C   0  0  2  0  0  0
  -20.6764  -26.9386   22.5423 C   0  0  0  0  0  0
  -19.5742  -26.6377   21.5218 C   0  0  0  0  0  0
  -18.1916  -26.7919   22.1621 C   0  0  0  0  0  0
  -19.1522  -28.8819   23.2912 C   0  0  0  0  0  0
  -18.9459  -30.1429   23.8919 C   0  0  0  0  0  0
  -17.6465  -30.6575   24.0582 C   0  0  0  0  0  0
  -25.9036  -34.9492   23.5135 C   0  0  0  0  0  0
  -16.5352  -29.9090   23.6329 C   0  0  0  0  0  0
  -16.7264  -28.6498   23.0360 C   0  0  0  0  0  0
  -26.4473  -31.6601   25.0706 C   0  0  0  0  0  0
  -25.3755  -31.3684   26.1464 C   0  0  0  0  0  0
  -27.0307  -30.3071   24.6028 C   0  0  0  0  0  0
  -27.6058  -32.4316   25.7458 C   0  0  0  0  0  0
  -27.5579  -37.1816   24.8479 C   0  0  0  0  0  0
  -21.4120  -29.3027   22.3739 N   0  0  0  0  0  0
  -26.4297  -37.3811   23.9420 N   0  0  0  0  0  0
  -24.6655  -31.0822   22.0979 N   0  0  0  0  0  0
  -23.4167  -28.8229   23.3050 O   0  0  0  0  0  0
  -28.4605  -26.7882   20.0772 O   0  0  0  0  0  0
  -26.5595  -34.8945   22.4695 O   0  0  0  0  0  0
  -23.5321  -32.1416   23.7515 O   0  0  0  0  0  0
  -31.1690  -17.4931   20.9898 C   0  0  0  0  0  0
  -31.0950  -18.9002   21.0318 C   0  0  0  0  0  0
  -28.9752  -17.3645   22.0268 C   0  0  0  0  0  0
  -28.8847  -18.7771   22.0614 C   0  0  0  0  0  0
  -30.1020  -16.7077   21.4828 C   0  0  0  0  0  0
  -29.9598  -19.5561   21.5547 C   0  0  0  0  0  0
  -27.6360  -19.4032   22.6631 C   0  0  0  0  0  0
  -28.5208  -24.3404   20.3582 C   0  0  0  0  0  0
  -28.7267  -22.9880   19.6395 C   0  0  0  0  0  0
  -28.6290  -25.5415   19.3949 C   0  0  0  0  0  0
  -30.0908  -15.2819   21.4778 N   0  0  0  0  0  0
  -28.6440  -21.8313   20.5531 N   0  0  0  0  0  0
  -29.6504  -21.8639   22.9165 O   0  0  0  0  0  0
  -31.1887  -21.8552   20.8942 O   0  0  0  0  0  0
  -29.9669  -21.3777   21.5655 S   0  0  0  0  0  0
  -31.4718  -12.4129   19.1101 H   0  0  0  0  0  0
  -30.3349  -11.2745   19.7654 H   0  0  0  0  0  0
  -29.7367  -11.8440   17.3977 H   0  0  0  0  0  0
  -29.6738  -13.5392   17.8006 H   0  0  0  0  0  0
  -27.8152  -11.3384   18.7689 H   0  0  0  0  0  0
  -27.3715  -12.7074   17.7848 H   0  0  0  0  0  0
  -27.7312  -14.2643   19.6314 H   0  0  0  0  0  0
  -28.6700  -11.8741   21.2863 H   0  0  0  0  0  0
  -28.4486  -13.4713   21.9084 H   0  0  0  0  0  0
  -25.2751   -9.5718   22.4732 H   0  0  0  0  0  0
  -24.0013   -7.4657   22.7455 H   0  0  0  0  0  0
  -21.0833   -8.8760   19.8941 H   0  0  0  0  0  0
  -22.3666  -10.9668   19.6150 H   0  0  0  0  0  0
  -21.2006   -7.6151   23.9724 H   0  0  0  0  0  0
  -21.1472   -6.0518   25.9077 H   0  0  0  0  0  0
  -22.0604   -2.7619   23.2830 H   0  0  0  0  0  0
  -22.4112  -11.9900   22.4787 H   0  0  0  0  0  0
  -21.1125  -13.1254   22.2582 H   0  0  0  0  0  0
  -24.6695  -15.8458   20.5042 H   0  0  0  0  0  0
  -26.2958  -15.6227   20.0938 H   0  0  0  0  0  0
  -26.7101  -32.5557   23.1161 H   0  0  0  0  0  0
  -25.0124  -33.9802   25.0534 H   0  0  0  0  0  0
  -22.6885  -31.3103   21.4100 H   0  0  0  0  0  0
  -23.3760  -35.9626   23.3330 H   0  0  0  0  0  0
  -24.3592  -36.8885   22.2055 H   0  0  0  0  0  0
  -23.7221  -37.6521   23.6634 H   0  0  0  0  0  0
  -26.0321  -31.5975   20.5803 H   0  0  0  0  0  0
  -26.8199  -30.8981   21.9668 H   0  0  0  0  0  0
  -28.1006  -29.1327   21.1293 H   0  0  0  0  0  0
  -26.0201  -25.9503   19.0686 H   0  0  0  0  0  0
  -23.9686  -27.2663   19.0825 H   0  0  0  0  0  0
  -23.7190  -30.5949   19.4052 H   0  0  0  0  0  0
  -22.7291  -29.2425   19.8719 H   0  0  0  0  0  0
  -25.1281  -36.2002   25.0845 H   0  0  0  0  0  0
  -20.9969  -28.3207   24.1440 H   0  0  0  0  0  0
  -20.5664  -26.2250   23.3602 H   0  0  0  0  0  0
  -21.6632  -26.7430   22.1215 H   0  0  0  0  0  0
  -19.6900  -25.6293   21.1223 H   0  0  0  0  0  0
  -19.6691  -27.3216   20.6771 H   0  0  0  0  0  0
  -17.4203  -26.6705   21.4007 H   0  0  0  0  0  0
  -18.0292  -26.0046   22.8993 H   0  0  0  0  0  0
  -19.7931  -30.7244   24.2296 H   0  0  0  0  0  0
  -17.5023  -31.6265   24.5157 H   0  0  0  0  0  0
  -15.5355  -30.3004   23.7626 H   0  0  0  0  0  0
  -15.8660  -28.0821   22.7063 H   0  0  0  0  0  0
  -24.5937  -30.7011   25.7817 H   0  0  0  0  0  0
  -24.8948  -32.2834   26.4941 H   0  0  0  0  0  0
  -25.8140  -30.8855   27.0204 H   0  0  0  0  0  0
  -26.2817  -29.6828   24.1150 H   0  0  0  0  0  0
  -27.4204  -29.7294   25.4418 H   0  0  0  0  0  0
  -27.8583  -30.4441   23.9060 H   0  0  0  0  0  0
  -27.2684  -33.3607   26.2058 H   0  0  0  0  0  0
  -28.3855  -32.6888   25.0274 H   0  0  0  0  0  0
  -28.0743  -31.8434   26.5359 H   0  0  0  0  0  0
  -28.2633  -38.0082   24.7521 H   0  0  0  0  0  0
  -28.1034  -36.2621   24.6310 H   0  0  0  0  0  0
  -27.2297  -37.1467   25.8883 H   0  0  0  0  0  0
  -20.9259  -29.8752   21.6985 H   0  0  0  0  0  0
  -26.0188  -38.2891   24.1422 H   0  0  0  0  0  0
  -32.0583  -17.0399   20.5784 H   0  0  0  0  0  0
  -31.9208  -19.4834   20.6536 H   0  0  0  0  0  0
  -28.1567  -16.7772   22.4185 H   0  0  0  0  0  0
  -26.8614  -18.6528   22.8271 H   0  0  0  0  0  0
  -27.2094  -20.1569   22.0054 H   0  0  0  0  0  0
  -27.8604  -19.8674   23.6233 H   0  0  0  0  0  0
  -29.2676  -24.4528   21.1453 H   0  0  0  0  0  0
  -27.5479  -24.3613   20.8498 H   0  0  0  0  0  0
  -29.6871  -22.9729   19.1218 H   0  0  0  0  0  0
  -27.9659  -22.8729   18.8671 H   0  0  0  0  0  0
  -27.9772  -25.4314   18.5298 H   0  0  0  0  0  0
  -29.6359  -25.5545   18.9761 H   0  0  0  0  0  0
  -29.3102  -14.8621   21.9576 H   0  0  0  0  0  0
  -27.7499  -21.7354   21.0377 H   0  0  0  0  0  0
  1 25  1  0  0  0
  1 30  2  0  0  0
  1 81  1  0  0  0
  2  3  1  0  0  0
  2 25  1  0  0  0
  2 86  1  0  0  0
  2 87  1  0  0  0
  3  4  1  0  0  0
  3 88  1  0  0  0
  3 89  1  0  0  0
  4  5  1  0  0  0
  4 90  1  0  0  0
  4 91  1  0  0  0
  5  6  1  0  0  0
  5 26  1  0  0  0
  5 92  1  0  0  0
  6 25  1  0  0  0
  6 93  1  0  0  0
  6 94  1  0  0  0
  7  8  2  0  0  0
  7 26  1  0  0  0
  7 29  1  0  0  0
  8  9  1  0  0  0
  8 22  1  0  0  0
  9 10  1  0  0  0
  9 27  2  0  0  0
 10 11  2  0  0  0
 10 15  1  0  0  0
 11 12  1  0  0  0
 11 95  1  0  0  0
 12 13  2  0  0  0
 12 96  1  0  0  0
 13 14  1  0  0  0
 13 31  1  0  0  0
 14 15  2  0  0  0
 14 97  1  0  0  0
 15 98  1  0  0  0
 16 17  2  0  0  0
 16 21  1  0  0  0
 16 31  1  0  0  0
 17 18  1  0  0  0
 17 99  1  0  0  0
 18 19  2  0  0  0
 18100  1  0  0  0
 19 20  1  0  0  0
 19 24  1  0  0  0
 20 21  2  0  0  0
 20101  1  0  0  0
 21 23  1  0  0  0
 22 28  1  0  0  0
 22 32  2  0  0  0
 26 27  1  0  0  0
 28102  1  0  0  0
 28103  1  0  0  0
 29104  1  0  0  0
 29105  1  0  0  0
 33 34  1  0  0  0
 33 66  1  0  0  0
 33 70  2  0  0  0
 34 36  1  0  0  0
 34 59  1  0  0  0
 34106  1  0  0  0
 35 44  2  0  0  0
 35 45  1  0  0  0
 35 68  1  0  0  0
 36 56  1  0  0  0
 36107  1  0  0  0
 37 39  1  0  0  0
 37 47  1  0  0  0
 37 66  1  0  0  0
 37108  1  0  0  0
 38 43  2  0  0  0
 38 46  1  0  0  0
 38 47  1  0  0  0
 39 64  1  0  0  0
 39 67  2  0  0  0
 40 52  1  0  0  0
 40 53  2  0  0  0
 40 58  1  0  0  0
 41109  1  0  0  0
 41110  1  0  0  0
 41111  1  0  0  0
 41 48  1  0  0  0
 42 43  1  0  0  0
 42 66  1  0  0  0
 42112  1  0  0  0
 42113  1  0  0  0
 43 44  1  0  0  0
 44114  1  0  0  0
 45 46  2  0  0  0
 45115  1  0  0  0
 46116  1  0  0  0
 47117  1  0  0  0
 47118  1  0  0  0
 48 56  1  0  0  0
 48 65  1  0  0  0
 48119  1  0  0  0
 49 50  1  0  0  0
 49 53  1  0  0  0
 49 64  1  0  0  0
 49120  1  0  0  0
 50 51  1  0  0  0
 50121  1  0  0  0
 50122  1  0  0  0
 51 52  1  0  0  0
 51123  1  0  0  0
 51124  1  0  0  0
 52125  1  0  0  0
 52126  1  0  0  0
 53 54  1  0  0  0
 54 55  2  0  0  0
 54127  1  0  0  0
 55 57  1  0  0  0
 55128  1  0  0  0
 56 69  2  0  0  0
 57 58  2  0  0  0
 57129  1  0  0  0
 58130  1  0  0  0
 59 60  1  0  0  0
 59 61  1  0  0  0
 59 62  1  0  0  0
 60131  1  0  0  0
 60132  1  0  0  0
 60133  1  0  0  0
 61134  1  0  0  0
 61135  1  0  0  0
 61136  1  0  0  0
 62137  1  0  0  0
 62138  1  0  0  0
 62139  1  0  0  0
 63 65  1  0  0  0
 63140  1  0  0  0
 63141  1  0  0  0
 63142  1  0  0  0
 64143  1  0  0  0
 65144  1  0  0  0
 68 80  1  0  0  0
 71 72  2  0  0  0
 71 75  1  0  0  0
 71145  1  0  0  0
 72 76  1  0  0  0
 72146  1  0  0  0
 73 74  1  0  0  0
 73 75  2  0  0  0
 73147  1  0  0  0
 74 76  2  0  0  0
 74 77  1  0  0  0
 75 81  1  0  0  0
 76 85  1  0  0  0
 77148  1  0  0  0
 77149  1  0  0  0
 77150  1  0  0  0
 78 79  1  0  0  0
 78 80  1  0  0  0
 78151  1  0  0  0
 78152  1  0  0  0
 79 82  1  0  0  0
 79153  1  0  0  0
 79154  1  0  0  0
 80155  1  0  0  0
 80156  1  0  0  0
 81157  1  0  0  0
 82158  1  0  0  0
 82 85  1  0  0  0
 83 85  2  0  0  0
 84 85  2  0  0  0
M  ISO  4   1 100  68 101  80 101  81 100
M  END
> <chiral flag>
0

> <version>
0

> <s_m_source_file>
/data/baiqing/PycharmProjects/Reinvent-master-3.2/result/LINK_invent/BTK/process_docking_weight1_custom_product_contain_oxygen_bond_distance_aromatic_linkinvent_7_9_3/rearranged_h_0061.sdf

> <i_m_source_file_index>
76

> <r_mmod_Potential_Energy-OPLS-2005>
-95.8893051147461

> <r_mmod_Stretch_Energy-OPLS-2005>
37.4233818054199

> <r_mmod_Bend_Energy-OPLS-2005>
112.999938964844

> <r_mmod_Torsional_Energy-OPLS-2005>
208.680084228516

> <r_mmod_Improper_Torsional_Energy-OPLS-2005>
6.54799652099609

> <r_mmod_Van_der_Waal_Energy-OPLS-2005>
149.315658569336

> <r_mmod_Electrostatic_Energy-OPLS-2005>
-377.407836914062

> <r_mmod_Solvation_Energy-OPLS-2005>
-242.497116088867

> <b_mmod_Minimization_Converged-OPLS-2005>
0

> <r_mmod_RMS_Derivative-OPLS-2005>
2.85404896736145

$$$$
77
                    3D
 Structure written by MMmdl.
161169  0  0  1  0            999 V2000
  -29.8608  -15.9140   20.8303 C   0  0  0  0  0  0
  -30.3346  -13.3725   19.7304 C   0  0  0  0  0  0
  -29.5696  -12.8254   18.4638 C   0  0  0  0  0  0
  -28.1571  -12.3519   18.8117 C   0  0  0  0  0  0
  -27.5538  -13.3215   19.8502 C   0  0  2  0  0  0
  -28.4510  -13.6432   21.0629 C   0  0  0  0  0  0
  -25.1988  -13.8256   20.5663 C   0  0  0  0  0  0
  -24.1478  -13.0373   20.9249 C   0  0  0  0  0  0
  -24.6224  -11.6888   20.8749 C   0  0  0  0  0  0
  -23.8986  -10.4229   21.0360 C   0  0  0  0  0  0
  -24.3585   -9.4188   21.9152 C   0  0  0  0  0  0
  -23.6279   -8.2217   22.0739 C   0  0  0  0  0  0
  -22.4264   -8.0229   21.3534 C   0  0  0  0  0  0
  -21.9859   -9.0179   20.4642 C   0  0  0  0  0  0
  -22.7157  -10.2059   20.3023 C   0  0  0  0  0  0
  -21.6843   -6.0715   22.5284 C   0  0  0  0  0  0
  -21.4006   -6.5623   23.8213 C   0  0  0  0  0  0
  -21.3659   -5.6785   24.9180 C   0  0  0  0  0  0
  -21.6045   -4.3047   24.7239 C   0  0  0  0  0  0
  -21.8819   -3.8128   23.4362 C   0  0  0  0  0  0
  -21.9187   -4.6942   22.3411 C   0  0  0  0  0  0
  -22.7541  -13.5124   21.1971 C   0  0  0  0  0  0
  -22.1663   -4.2121   21.0985 F   0  0  0  0  0  0
  -21.5632   -3.4527   25.7751 F   0  0  0  0  0  0
  -29.5508  -14.4645   20.5601 N   0  0  0  0  0  0
  -26.2332  -12.9569   20.2980 N   0  0  0  0  0  0
  -25.9110  -11.6641   20.5502 N   0  0  0  0  0  0
  -22.0239  -12.8084   22.0542 N   0  0  0  0  0  0
  -25.3638  -15.1998   20.4262 N   0  0  0  0  0  0
  -31.0815  -15.9579   20.5156 O   0  0  0  0  0  0
  -21.6625   -6.8843   21.4246 O   0  0  0  0  0  0
  -22.3221  -14.5436   20.6830 O   0  0  0  0  0  0
  -24.9505  -31.6406   23.1948 C   0  0  0  0  0  0
  -26.0501  -32.4763   23.8811 C   0  0  1  0  0  0
  -25.5396  -27.5366   20.2191 C   0  0  0  0  0  0
  -25.5995  -33.8433   24.2031 N   0  0  0  0  0  0
  -24.9708  -29.1521   21.9961 C   0  0  2  0  0  0
  -25.8374  -29.8115   19.4158 C   0  0  0  0  0  0
  -23.1991  -27.5038   22.1977 C   0  0  0  0  0  0
  -18.0562  -28.0931   22.7623 C   0  0  0  0  0  0
  -24.1442  -36.7306   23.2544 C   0  0  0  0  0  0
  -26.7790  -30.6070   21.6898 C   0  0  0  0  0  0
  -26.7861  -29.5955   20.4203 C   0  0  0  0  0  0
  -26.8496  -28.1740   20.5819 C   0  0  0  0  0  0
  -25.7391  -27.3631   18.9098 C   0  0  0  0  0  0
  -25.5174  -28.7011   18.5017 C   0  0  0  0  0  0
  -24.8421  -30.3222   20.3717 C   0  0  0  0  0  0
  -25.4050  -36.3062   24.0221 C   0  0  1  0  0  0
  -20.6185  -27.7170   23.2314 C   0  0  2  0  0  0
  -20.2542  -26.3268   22.7797 C   0  0  0  0  0  0
  -19.4021  -26.3773   21.5249 C   0  0  0  0  0  0
  -18.0237  -26.7925   21.9869 C   0  0  0  0  0  0
  -19.2922  -28.6430   23.2349 C   0  0  0  0  0  0
  -19.1772  -29.9204   23.8662 C   0  0  0  0  0  0
  -17.9227  -30.5708   24.0450 C   0  0  0  0  0  0
  -25.9027  -34.9414   23.4925 C   0  0  0  0  0  0
  -16.7270  -29.9606   23.6227 C   0  0  0  0  0  0
  -16.8043  -28.7167   22.9787 C   0  0  0  0  0  0
  -26.5372  -31.7228   25.1795 C   0  0  0  0  0  0
  -25.4284  -31.5409   26.2493 C   0  0  0  0  0  0
  -27.2075  -30.3527   24.9040 C   0  0  0  0  0  0
  -27.6569  -32.5477   25.8425 C   0  0  0  0  0  0
  -27.5543  -37.1794   24.8454 C   0  0  0  0  0  0
  -21.7605  -27.8457   22.3096 N   0  0  0  0  0  0
  -26.4248  -37.3787   23.9398 N   0  0  0  0  0  0
  -25.4395  -30.5498   22.4611 N   0  0  0  0  0  0
  -23.2716  -26.4665   22.6609 O   0  0  0  0  0  0
  -24.0552  -28.2553   20.2490 O   0  0  0  0  0  0
  -26.5687  -34.8956   22.4544 O   0  0  0  0  0  0
  -23.7695  -31.9124   23.4968 O   0  0  0  0  0  0
  -26.5025  -21.2958   22.8832 C   0  0  0  0  0  0
  -25.8947  -22.7146   23.2848 C   0  0  0  0  0  0
  -28.2193  -22.2787   22.1417 C   0  0  0  0  0  0
  -27.7987  -20.7933   22.2212 C   0  0  0  0  0  0
  -26.3417  -24.1985   23.2400 C   0  0  0  0  0  0
  -27.6414  -23.7018   22.5600 C   0  0  0  0  0  0
  -25.0665  -27.3103   24.2499 C   0  0  0  0  0  0
  -30.4862  -24.4325   22.2359 C   0  0  0  0  0  0
  -28.7530  -19.1083   21.5903 C   0  0  0  0  0  0
  -23.7167  -28.9853   23.9307 C   0  0  0  0  0  0
  -22.9097  -29.7690   21.6739 C   0  0  0  0  0  0
  -28.7000  -26.2084   23.0633 N   0  0  0  0  0  0
  -25.4919  -25.8511   23.5160 N   0  0  0  0  0  0
  -28.9390  -17.2170   21.2962 N   0  0  0  0  0  0
  -25.6581  -27.4374   25.3167 O   0  0  0  0  0  0
  -28.5594  -25.2962   20.6109 O   0  0  0  0  0  0
  -28.7588  -25.0288   22.0441 S   0  0  2  0  0  0
  -31.2880  -13.7809   19.3916 H   0  0  0  0  0  0
  -30.6205  -12.5444   20.3813 H   0  0  0  0  0  0
  -30.1372  -12.0231   17.9967 H   0  0  0  0  0  0
  -29.5087  -13.6298   17.7311 H   0  0  0  0  0  0
  -28.2177  -11.3477   19.2325 H   0  0  0  0  0  0
  -27.5356  -12.2880   17.9175 H   0  0  0  0  0  0
  -27.4257  -14.2511   19.2895 H   0  0  0  0  0  0
  -28.7636  -12.7404   21.5874 H   0  0  0  0  0  0
  -27.8902  -14.2377   21.7885 H   0  0  0  0  0  0
  -25.2733   -9.5671   22.4743 H   0  0  0  0  0  0
  -23.9987   -7.4596   22.7448 H   0  0  0  0  0  0
  -21.0799   -8.8688   19.8954 H   0  0  0  0  0  0
  -22.3604  -10.9604   19.6145 H   0  0  0  0  0  0
  -21.1999   -7.6123   23.9710 H   0  0  0  0  0  0
  -21.1487   -6.0510   25.9079 H   0  0  0  0  0  0
  -22.0603   -2.7584   23.2864 H   0  0  0  0  0  0
  -22.3895  -11.9733   22.4915 H   0  0  0  0  0  0
  -21.0840  -13.1075   22.2801 H   0  0  0  0  0  0
  -24.5880  -15.8390   20.5307 H   0  0  0  0  0  0
  -26.1718  -15.6277   20.0010 H   0  0  0  0  0  0
  -26.9115  -32.5723   23.2278 H   0  0  0  0  0  0
  -25.0415  -33.9478   25.0378 H   0  0  0  0  0  0
  -25.8169  -28.7037   22.4654 H   0  0  0  0  0  0
  -23.3735  -35.9631   23.3153 H   0  0  0  0  0  0
  -24.3554  -36.9004   22.2000 H   0  0  0  0  0  0
  -23.7187  -37.6456   23.6613 H   0  0  0  0  0  0
  -27.0026  -31.6094   21.2969 H   0  0  0  0  0  0
  -27.6184  -30.3256   22.3049 H   0  0  0  0  0  0
  -27.3321  -27.7985   21.4757 H   0  0  0  0  0  0
  -25.2424  -26.5965   18.3411 H   0  0  0  0  0  0
  -24.9905  -28.8805   17.5820 H   0  0  0  0  0  0
  -24.9117  -31.4186   20.4430 H   0  0  0  0  0  0
  -23.9556  -30.3587   19.7186 H   0  0  0  0  0  0
  -25.1202  -36.1822   25.0712 H   0  0  0  0  0  0
  -20.9851  -27.6449   24.2572 H   0  0  0  0  0  0
  -19.6811  -25.8480   23.5771 H   0  0  0  0  0  0
  -21.0712  -25.6202   22.6414 H   0  0  0  0  0  0
  -19.3451  -25.4011   21.0500 H   0  0  0  0  0  0
  -19.7904  -27.0669   20.7768 H   0  0  0  0  0  0
  -17.3659  -26.9085   21.1225 H   0  0  0  0  0  0
  -17.5690  -26.0224   22.6120 H   0  0  0  0  0  0
  -20.0670  -30.3796   24.2690 H   0  0  0  0  0  0
  -17.8832  -31.5274   24.5421 H   0  0  0  0  0  0
  -15.7686  -30.4446   23.7711 H   0  0  0  0  0  0
  -15.8946  -28.2448   22.6236 H   0  0  0  0  0  0
  -24.5160  -31.0764   25.9221 H   0  0  0  0  0  0
  -25.1021  -32.5072   26.6362 H   0  0  0  0  0  0
  -25.7861  -30.9608   27.0991 H   0  0  0  0  0  0
  -27.5683  -29.9312   25.8450 H   0  0  0  0  0  0
  -28.1046  -30.4549   24.2952 H   0  0  0  0  0  0
  -26.5404  -29.6005   24.4995 H   0  0  0  0  0  0
  -27.3042  -33.5091   26.2237 H   0  0  0  0  0  0
  -28.4784  -32.7505   25.1537 H   0  0  0  0  0  0
  -28.0809  -32.0181   26.6978 H   0  0  0  0  0  0
  -28.2494  -38.0153   24.7580 H   0  0  0  0  0  0
  -28.1085  -36.2687   24.6159 H   0  0  0  0  0  0
  -27.2254  -37.1319   25.8847 H   0  0  0  0  0  0
  -21.5709  -28.6365   21.7091 H   0  0  0  0  0  0
  -26.0100  -38.2839   24.1441 H   0  0  0  0  0  0
  -25.8181  -20.4903   23.1161 H   0  0  0  0  0  0
  -24.8991  -22.6293   23.6934 H   0  0  0  0  0  0
  -29.1646  -22.3349   21.6267 H   0  0  0  0  0  0
  -30.5880  -23.8691   23.1625 H   0  0  0  0  0  0
  -31.1653  -25.2817   22.2480 H   0  0  0  0  0  0
  -30.7522  -23.7951   21.3910 H   0  0  0  0  0  0
  -29.7374  -19.3028   22.0125 H   0  0  0  0  0  0
  -28.8641  -19.4172   20.5538 H   0  0  0  0  0  0
  -24.0520  -29.7676   24.5687 H   0  0  0  0  0  0
  -22.8285  -28.7232   24.5184 H   0  0  0  0  0  0
  -22.9656  -30.8425   21.5523 H   0  0  0  0  0  0
  -21.8462  -29.8603   21.4417 H   0  0  0  0  0  0
  -28.5827  -25.8659   24.0232 H   0  0  0  0  0  0
  -24.7355  -25.8432   22.8290 H   0  0  0  0  0  0
  -28.0023  -16.8448   21.3660 H   0  0  0  0  0  0
  1 25  1  0  0  0
  1 30  2  0  0  0
  1 84  1  0  0  0
  2  3  1  0  0  0
  2 25  1  0  0  0
  2 88  1  0  0  0
  2 89  1  0  0  0
  3  4  1  0  0  0
  3 90  1  0  0  0
  3 91  1  0  0  0
  4  5  1  0  0  0
  4 92  1  0  0  0
  4 93  1  0  0  0
  5  6  1  0  0  0
  5 26  1  0  0  0
  5 94  1  0  0  0
  6 25  1  0  0  0
  6 95  1  0  0  0
  6 96  1  0  0  0
  7  8  2  0  0  0
  7 26  1  0  0  0
  7 29  1  0  0  0
  8  9  1  0  0  0
  8 22  1  0  0  0
  9 10  1  0  0  0
  9 27  2  0  0  0
 10 11  2  0  0  0
 10 15  1  0  0  0
 11 12  1  0  0  0
 11 97  1  0  0  0
 12 13  2  0  0  0
 12 98  1  0  0  0
 13 14  1  0  0  0
 13 31  1  0  0  0
 14 15  2  0  0  0
 14 99  1  0  0  0
 15100  1  0  0  0
 16 17  2  0  0  0
 16 21  1  0  0  0
 16 31  1  0  0  0
 17 18  1  0  0  0
 17101  1  0  0  0
 18 19  2  0  0  0
 18102  1  0  0  0
 19 20  1  0  0  0
 19 24  1  0  0  0
 20 21  2  0  0  0
 20103  1  0  0  0
 21 23  1  0  0  0
 22 28  1  0  0  0
 22 32  2  0  0  0
 26 27  1  0  0  0
 28104  1  0  0  0
 28105  1  0  0  0
 29106  1  0  0  0
 29107  1  0  0  0
 33 34  1  0  0  0
 33 66  1  0  0  0
 33 70  2  0  0  0
 34 36  1  0  0  0
 34 59  1  0  0  0
 34108  1  0  0  0
 35 44  2  0  0  0
 35 45  1  0  0  0
 35 68  1  0  0  0
 36 56  1  0  0  0
 36109  1  0  0  0
 37 39  1  0  0  0
 37 47  1  0  0  0
 37 66  1  0  0  0
 37110  1  0  0  0
 38 43  2  0  0  0
 38 46  1  0  0  0
 38 47  1  0  0  0
 39 64  1  0  0  0
 39 67  2  0  0  0
 40 52  1  0  0  0
 40 53  2  0  0  0
 40 58  1  0  0  0
 41111  1  0  0  0
 41112  1  0  0  0
 41113  1  0  0  0
 41 48  1  0  0  0
 42 43  1  0  0  0
 42 66  1  0  0  0
 42114  1  0  0  0
 42115  1  0  0  0
 43 44  1  0  0  0
 44116  1  0  0  0
 45 46  2  0  0  0
 45117  1  0  0  0
 46118  1  0  0  0
 47119  1  0  0  0
 47120  1  0  0  0
 48 56  1  0  0  0
 48 65  1  0  0  0
 48121  1  0  0  0
 49 50  1  0  0  0
 49 53  1  0  0  0
 49 64  1  0  0  0
 49122  1  0  0  0
 50 51  1  0  0  0
 50123  1  0  0  0
 50124  1  0  0  0
 51 52  1  0  0  0
 51125  1  0  0  0
 51126  1  0  0  0
 52127  1  0  0  0
 52128  1  0  0  0
 53 54  1  0  0  0
 54 55  2  0  0  0
 54129  1  0  0  0
 55 57  1  0  0  0
 55130  1  0  0  0
 56 69  2  0  0  0
 57 58  2  0  0  0
 57131  1  0  0  0
 58132  1  0  0  0
 59 60  1  0  0  0
 59 61  1  0  0  0
 59 62  1  0  0  0
 60133  1  0  0  0
 60134  1  0  0  0
 60135  1  0  0  0
 61136  1  0  0  0
 61137  1  0  0  0
 61138  1  0  0  0
 62139  1  0  0  0
 62140  1  0  0  0
 62141  1  0  0  0
 63 65  1  0  0  0
 63142  1  0  0  0
 63143  1  0  0  0
 63144  1  0  0  0
 64145  1  0  0  0
 65146  1  0  0  0
 68 81  1  0  0  0
 71 72  2  0  0  0
 71 74  1  0  0  0
 71147  1  0  0  0
 72 75  1  0  0  0
 72148  1  0  0  0
 73 74  2  0  0  0
 73 76  1  0  0  0
 73149  1  0  0  0
 74 79  1  0  0  0
 75 76  2  0  0  0
 75 83  1  0  0  0
 76 87  1  0  0  0
 77 80  1  0  0  0
 77 83  1  0  0  0
 77 85  2  0  0  0
 78150  1  0  0  0
 78151  1  0  0  0
 78152  1  0  0  0
 78 87  1  0  0  0
 79 84  1  0  0  0
 79153  1  0  0  0
 79154  1  0  0  0
 80 81  1  0  0  0
 80155  1  0  0  0
 80156  1  0  0  0
 81157  1  0  0  0
 81158  1  0  0  0
 82 87  2  0  0  0
 82159  1  0  0  0
 83160  1  0  0  0
 84161  1  0  0  0
 86 87  2  0  0  0
M  ISO  4   1 100  68 101  81 101  84 100
M  END
> <chiral flag>
0

> <version>
0

> <s_m_source_file>
/data/baiqing/PycharmProjects/Reinvent-master-3.2/result/LINK_invent/BTK/process_docking_weight1_custom_product_contain_oxygen_bond_distance_aromatic_linkinvent_7_9_3/rearranged_h_0061.sdf

> <i_m_source_file_index>
77

> <r_mmod_Potential_Energy-OPLS-2005>
17240.537109375

> <r_mmod_Stretch_Energy-OPLS-2005>
6515.6162109375

> <r_mmod_Bend_Energy-OPLS-2005>
1922.43640136719

> <r_mmod_Torsional_Energy-OPLS-2005>
681.191772460938

> <r_mmod_Improper_Torsional_Energy-OPLS-2005>
103.963706970215

> <r_mmod_Van_der_Waal_Energy-OPLS-2005>
2473.49682617188

> <r_mmod_Electrostatic_Energy-OPLS-2005>
-515.514892578125

> <r_mmod_Solvation_Energy-OPLS-2005>
-266.431884765625

> <b_mmod_Minimization_Converged-OPLS-2005>
0

> <r_mmod_RMS_Derivative-OPLS-2005>
21.8185424804688

$$$$
78
                    3D
 Structure written by MMmdl.
167176  0  0  1  0            999 V2000
  -30.6172  -14.7220   20.4403 C   0  0  0  0  0  0
  -30.4337  -12.4287   19.4960 C   0  0  0  0  0  0
  -29.5227  -12.4928   18.2496 C   0  0  0  0  0  0
  -28.0444  -12.3304   18.6529 C   0  0  0  0  0  0
  -27.6471  -13.2313   19.8521 C   0  0  2  0  0  0
  -28.6846  -13.1634   20.9954 C   0  0  0  0  0  0
  -25.2530  -13.8208   20.5683 C   0  0  0  0  0  0
  -24.1804  -13.0463   20.9191 C   0  0  0  0  0  0
  -24.6386  -11.6939   20.8728 C   0  0  0  0  0  0
  -23.9066  -10.4308   21.0395 C   0  0  0  0  0  0
  -24.3610   -9.4220   21.9175 C   0  0  0  0  0  0
  -23.6286   -8.2255   22.0753 C   0  0  0  0  0  0
  -22.4261   -8.0285   21.3553 C   0  0  0  0  0  0
  -21.9890   -9.0262   20.4656 C   0  0  0  0  0  0
  -22.7231  -10.2138   20.3054 C   0  0  0  0  0  0
  -21.6852   -6.0727   22.5277 C   0  0  0  0  0  0
  -21.4025   -6.5635   23.8216 C   0  0  0  0  0  0
  -21.3660   -5.6783   24.9172 C   0  0  0  0  0  0
  -21.6035   -4.3043   24.7223 C   0  0  0  0  0  0
  -21.8821   -3.8141   23.4350 C   0  0  0  0  0  0
  -21.9197   -4.6961   22.3403 C   0  0  0  0  0  0
  -22.7825  -13.5251   21.1859 C   0  0  0  0  0  0
  -22.1661   -4.2147   21.0986 F   0  0  0  0  0  0
  -21.5629   -3.4535   25.7737 F   0  0  0  0  0  0
  -29.9963  -13.4939   20.4261 N   0  0  0  0  0  0
  -26.2953  -12.9407   20.3241 N   0  0  0  0  0  0
  -25.9307  -11.6557   20.5695 N   0  0  0  0  0  0
  -22.0459  -12.8238   22.0405 N   0  0  0  0  0  0
  -25.4265  -15.1932   20.4168 N   0  0  0  0  0  0
  -31.7941  -14.8179   20.0789 O   0  0  0  0  0  0
  -21.6636   -6.8872   21.4241 O   0  0  0  0  0  0
  -22.3498  -14.5552   20.6703 O   0  0  0  0  0  0
  -24.6289  -31.8565   23.2005 C   0  0  0  0  0  0
  -25.9115  -32.4771   23.8342 C   0  0  1  0  0  0
  -27.2214  -27.2747   20.1211 C   0  0  0  0  0  0
  -25.5907  -33.8572   24.2266 N   0  0  0  0  0  0
  -23.4251  -30.4811   21.5433 C   0  0  2  0  0  0
  -24.8739  -28.9338   20.1097 C   0  0  0  0  0  0
  -22.7483  -29.4615   22.4916 C   0  0  0  0  0  0
  -18.0289  -28.1377   22.8497 C   0  0  0  0  0  0
  -24.1493  -36.7297   23.2632 C   0  0  0  0  0  0
  -25.9710  -30.7761   21.3770 C   0  0  0  0  0  0
  -26.0458  -29.3984   20.7205 C   0  0  0  0  0  0
  -27.2216  -28.5816   20.7174 C   0  0  0  0  0  0
  -26.0269  -26.8851   19.4721 C   0  0  0  0  0  0
  -24.8693  -27.6840   19.4763 C   0  0  0  0  0  0
  -23.6422  -29.8165   20.1587 C   0  0  0  0  0  0
  -25.4111  -36.3084   24.0332 C   0  0  1  0  0  0
  -20.5889  -28.3685   23.1279 C   0  0  2  0  0  0
  -20.6777  -26.9409   22.5402 C   0  0  0  0  0  0
  -19.5748  -26.6383   21.5209 C   0  0  0  0  0  0
  -18.1932  -26.7921   22.1635 C   0  0  0  0  0  0
  -19.1540  -28.8846   23.2890 C   0  0  0  0  0  0
  -18.9462  -30.1445   23.8919 C   0  0  0  0  0  0
  -17.6461  -30.6588   24.0555 C   0  0  0  0  0  0
  -25.9048  -34.9452   23.5107 C   0  0  0  0  0  0
  -16.5354  -29.9085   23.6316 C   0  0  0  0  0  0
  -16.7276  -28.6487   23.0371 C   0  0  0  0  0  0
  -26.4478  -31.6581   25.0719 C   0  0  0  0  0  0
  -25.3700  -31.3761   26.1445 C   0  0  0  0  0  0
  -27.0267  -30.2981   24.6181 C   0  0  0  0  0  0
  -27.6060  -32.4289   25.7469 C   0  0  0  0  0  0
  -27.5589  -37.1794   24.8459 C   0  0  0  0  0  0
  -21.4190  -29.3040   22.3662 N   0  0  0  0  0  0
  -26.4294  -37.3775   23.9417 N   0  0  0  0  0  0
  -24.6943  -31.0547   22.0969 N   0  0  0  0  0  0
  -23.4190  -28.8138   23.3000 O   0  0  0  0  0  0
  -28.3120  -26.3764   20.1906 O   0  0  0  0  0  0
  -26.5628  -34.8921   22.4682 O   0  0  0  0  0  0
  -23.5439  -32.1372   23.7305 O   0  0  0  0  0  0
  -29.6621  -18.4714   20.6410 C   0  0  0  0  0  0
  -30.2715  -17.2206   18.6682 C   0  0  0  0  0  0
  -30.1913  -19.6954   18.5773 C   0  0  0  0  0  0
  -29.7761  -19.7564   19.9511 C   0  0  0  0  0  0
  -29.9519  -17.1865   20.0361 C   0  0  0  0  0  0
  -30.3965  -18.4251   17.9468 C   0  0  0  0  0  0
  -30.2580  -21.3362   21.7970 C   0  0  0  0  0  0
  -30.3419  -22.7652   22.3802 C   0  0  0  0  0  0
  -29.2424  -23.7515   21.9553 C   0  0  0  0  0  0
  -28.7076  -22.2124   20.0802 C   0  0  0  0  0  0
  -29.0669  -23.7456   20.4396 C   0  0  1  0  0  0
  -30.4745  -20.9768   17.7923 C   0  0  0  0  0  0
  -29.5372  -18.9298   15.1927 C   0  0  0  0  0  0
  -28.0565  -24.9129   19.9638 C   0  0  0  0  0  0
  -29.5921  -21.0865   20.6289 N   0  0  0  0  0  0
  -29.8654  -15.8586   20.6941 N   0  0  0  0  0  0
  -30.8595  -20.4592   22.4251 O   0  0  0  0  0  0
  -32.1159  -18.9551   15.9292 O   0  0  0  0  0  0
  -30.8758  -16.7686   15.8886 O   0  0  0  0  0  0
  -30.8747  -18.2088   16.2004 S   0  0  0  0  0  0
  -31.4810  -12.5338   19.2063 H   0  0  0  0  0  0
  -30.3610  -11.4544   19.9807 H   0  0  0  0  0  0
  -29.8017  -11.7104   17.5419 H   0  0  0  0  0  0
  -29.6646  -13.4424   17.7320 H   0  0  0  0  0  0
  -27.8817  -11.2830   18.9087 H   0  0  0  0  0  0
  -27.3977  -12.5366   17.7999 H   0  0  0  0  0  0
  -27.6460  -14.2517   19.4689 H   0  0  0  0  0  0
  -28.7041  -12.1697   21.4431 H   0  0  0  0  0  0
  -28.4188  -13.8528   21.7971 H   0  0  0  0  0  0
  -25.2757   -9.5699   22.4751 H   0  0  0  0  0  0
  -24.0006   -7.4627   22.7448 H   0  0  0  0  0  0
  -21.0836   -8.8778   19.8943 H   0  0  0  0  0  0
  -22.3694  -10.9669   19.6161 H   0  0  0  0  0  0
  -21.2024   -7.6138   23.9716 H   0  0  0  0  0  0
  -21.1473   -6.0512   25.9072 H   0  0  0  0  0  0
  -22.0600   -2.7605   23.2850 H   0  0  0  0  0  0
  -22.4070  -11.9919   22.4839 H   0  0  0  0  0  0
  -21.1078  -13.1265   22.2597 H   0  0  0  0  0  0
  -24.6707  -15.8549   20.5539 H   0  0  0  0  0  0
  -26.2791  -15.6296   20.0908 H   0  0  0  0  0  0
  -26.7176  -32.5430   23.1081 H   0  0  0  0  0  0
  -25.0019  -33.9704   25.0388 H   0  0  0  0  0  0
  -22.7213  -31.3034   21.3992 H   0  0  0  0  0  0
  -23.3757  -35.9625   23.3273 H   0  0  0  0  0  0
  -24.3594  -36.8935   22.2053 H   0  0  0  0  0  0
  -23.7242  -37.6494   23.6659 H   0  0  0  0  0  0
  -26.1010  -31.5359   20.6039 H   0  0  0  0  0  0
  -26.8513  -30.8304   22.0062 H   0  0  0  0  0  0
  -28.1163  -28.9309   21.2139 H   0  0  0  0  0  0
  -25.9502  -25.9359   18.9645 H   0  0  0  0  0  0
  -23.9742  -27.3226   18.9897 H   0  0  0  0  0  0
  -23.7621  -30.5924   19.4018 H   0  0  0  0  0  0
  -22.7614  -29.2464   19.8573 H   0  0  0  0  0  0
  -25.1287  -36.1935   25.0822 H   0  0  0  0  0  0
  -21.0000  -28.3261   24.1393 H   0  0  0  0  0  0
  -20.5684  -26.2290   23.3595 H   0  0  0  0  0  0
  -21.6649  -26.7440   22.1193 H   0  0  0  0  0  0
  -19.6910  -25.6291   21.1243 H   0  0  0  0  0  0
  -19.6686  -27.3189   20.6735 H   0  0  0  0  0  0
  -17.4194  -26.6663   21.4046 H   0  0  0  0  0  0
  -18.0354  -26.0062   22.9034 H   0  0  0  0  0  0
  -19.7934  -30.7253   24.2317 H   0  0  0  0  0  0
  -17.5015  -31.6281   24.5137 H   0  0  0  0  0  0
  -15.5356  -30.3004   23.7621 H   0  0  0  0  0  0
  -15.8671  -28.0801   22.7115 H   0  0  0  0  0  0
  -24.5871  -30.7104   25.7790 H   0  0  0  0  0  0
  -24.8887  -32.2943   26.4822 H   0  0  0  0  0  0
  -25.8009  -30.8975   27.0249 H   0  0  0  0  0  0
  -26.2816  -29.6775   24.1187 H   0  0  0  0  0  0
  -27.3907  -29.7205   25.4687 H   0  0  0  0  0  0
  -27.8728  -30.4221   23.9420 H   0  0  0  0  0  0
  -27.2700  -33.3601   26.2038 H   0  0  0  0  0  0
  -28.3864  -32.6819   25.0283 H   0  0  0  0  0  0
  -28.0721  -31.8405   26.5381 H   0  0  0  0  0  0
  -28.2596  -38.0101   24.7516 H   0  0  0  0  0  0
  -28.1095  -36.2633   24.6262 H   0  0  0  0  0  0
  -27.2312  -37.1423   25.8863 H   0  0  0  0  0  0
  -20.9356  -29.8771   21.6883 H   0  0  0  0  0  0
  -26.0179  -38.2849   24.1423 H   0  0  0  0  0  0
  -29.3806  -18.4742   21.6851 H   0  0  0  0  0  0
  -30.4421  -16.2897   18.1518 H   0  0  0  0  0  0
  -31.3109  -23.1715   22.0879 H   0  0  0  0  0  0
  -30.3641  -22.7050   23.4684 H   0  0  0  0  0  0
  -29.4897  -24.7566   22.3005 H   0  0  0  0  0  0
  -28.3026  -23.4856   22.4430 H   0  0  0  0  0  0
  -28.5583  -22.1181   19.0095 H   0  0  0  0  0  0
  -27.7189  -22.0106   20.4952 H   0  0  0  0  0  0
  -30.0326  -23.9702   19.9827 H   0  0  0  0  0  0
  -29.6005  -21.2822   17.2174 H   0  0  0  0  0  0
  -31.3023  -20.8681   17.0997 H   0  0  0  0  0  0
  -30.7731  -21.8064   18.4309 H   0  0  0  0  0  0
  -29.5634  -20.0136   15.2523 H   0  0  0  0  0  0
  -28.5787  -18.5599   15.5496 H   0  0  0  0  0  0
  -29.6784  -18.6218   14.1587 H   0  0  0  0  0  0
  -27.0945  -24.6660   20.4133 H   0  0  0  0  0  0
  -27.9275  -24.7903   18.8879 H   0  0  0  0  0  0
  -29.0323  -15.7007   21.2422 H   0  0  0  0  0  0
  1 25  1  0  0  0
  1 30  2  0  0  0
  1 86  1  0  0  0
  2  3  1  0  0  0
  2 25  1  0  0  0
  2 91  1  0  0  0
  2 92  1  0  0  0
  3  4  1  0  0  0
  3 93  1  0  0  0
  3 94  1  0  0  0
  4  5  1  0  0  0
  4 95  1  0  0  0
  4 96  1  0  0  0
  5  6  1  0  0  0
  5 26  1  0  0  0
  5 97  1  0  0  0
  6 25  1  0  0  0
  6 98  1  0  0  0
  6 99  1  0  0  0
  7  8  2  0  0  0
  7 26  1  0  0  0
  7 29  1  0  0  0
  8  9  1  0  0  0
  8 22  1  0  0  0
  9 10  1  0  0  0
  9 27  2  0  0  0
 10 11  2  0  0  0
 10 15  1  0  0  0
 11 12  1  0  0  0
 11100  1  0  0  0
 12 13  2  0  0  0
 12101  1  0  0  0
 13 14  1  0  0  0
 13 31  1  0  0  0
 14 15  2  0  0  0
 14102  1  0  0  0
 15103  1  0  0  0
 16 17  2  0  0  0
 16 21  1  0  0  0
 16 31  1  0  0  0
 17 18  1  0  0  0
 17104  1  0  0  0
 18 19  2  0  0  0
 18105  1  0  0  0
 19 20  1  0  0  0
 19 24  1  0  0  0
 20 21  2  0  0  0
 20106  1  0  0  0
 21 23  1  0  0  0
 22 28  1  0  0  0
 22 32  2  0  0  0
 26 27  1  0  0  0
 28107  1  0  0  0
 28108  1  0  0  0
 29109  1  0  0  0
 29110  1  0  0  0
 33 34  1  0  0  0
 33 66  1  0  0  0
 33 70  2  0  0  0
 34 36  1  0  0  0
 34 59  1  0  0  0
 34111  1  0  0  0
 35 44  2  0  0  0
 35 45  1  0  0  0
 35 68  1  0  0  0
 36 56  1  0  0  0
 36112  1  0  0  0
 37 39  1  0  0  0
 37 47  1  0  0  0
 37 66  1  0  0  0
 37113  1  0  0  0
 38 43  2  0  0  0
 38 46  1  0  0  0
 38 47  1  0  0  0
 39 64  1  0  0  0
 39 67  2  0  0  0
 40 52  1  0  0  0
 40 53  2  0  0  0
 40 58  1  0  0  0
 41114  1  0  0  0
 41115  1  0  0  0
 41116  1  0  0  0
 41 48  1  0  0  0
 42 43  1  0  0  0
 42 66  1  0  0  0
 42117  1  0  0  0
 42118  1  0  0  0
 43 44  1  0  0  0
 44119  1  0  0  0
 45 46  2  0  0  0
 45120  1  0  0  0
 46121  1  0  0  0
 47122  1  0  0  0
 47123  1  0  0  0
 48 56  1  0  0  0
 48 65  1  0  0  0
 48124  1  0  0  0
 49 50  1  0  0  0
 49 53  1  0  0  0
 49 64  1  0  0  0
 49125  1  0  0  0
 50 51  1  0  0  0
 50126  1  0  0  0
 50127  1  0  0  0
 51 52  1  0  0  0
 51128  1  0  0  0
 51129  1  0  0  0
 52130  1  0  0  0
 52131  1  0  0  0
 53 54  1  0  0  0
 54 55  2  0  0  0
 54132  1  0  0  0
 55 57  1  0  0  0
 55133  1  0  0  0
 56 69  2  0  0  0
 57 58  2  0  0  0
 57134  1  0  0  0
 58135  1  0  0  0
 59 60  1  0  0  0
 59 61  1  0  0  0
 59 62  1  0  0  0
 60136  1  0  0  0
 60137  1  0  0  0
 60138  1  0  0  0
 61139  1  0  0  0
 61140  1  0  0  0
 61141  1  0  0  0
 62142  1  0  0  0
 62143  1  0  0  0
 62144  1  0  0  0
 63 65  1  0  0  0
 63145  1  0  0  0
 63146  1  0  0  0
 63147  1  0  0  0
 64148  1  0  0  0
 65149  1  0  0  0
 68 84  1  0  0  0
 71 74  2  0  0  0
 71 75  1  0  0  0
 71150  1  0  0  0
 72 75  2  0  0  0
 72 76  1  0  0  0
 72151  1  0  0  0
 73 74  1  0  0  0
 73 76  2  0  0  0
 73 82  1  0  0  0
 74 85  1  0  0  0
 75 86  1  0  0  0
 76 90  1  0  0  0
 77 78  1  0  0  0
 77 85  1  0  0  0
 77 87  2  0  0  0
 78 79  1  0  0  0
 78152  1  0  0  0
 78153  1  0  0  0
 79 81  1  0  0  0
 79154  1  0  0  0
 79155  1  0  0  0
 80 81  1  0  0  0
 80 85  1  0  0  0
 80156  1  0  0  0
 80157  1  0  0  0
 81 84  1  0  0  0
 81158  1  0  0  0
 82159  1  0  0  0
 82160  1  0  0  0
 82161  1  0  0  0
 83162  1  0  0  0
 83163  1  0  0  0
 83164  1  0  0  0
 83 90  1  0  0  0
 84165  1  0  0  0
 84166  1  0  0  0
 86167  1  0  0  0
 88 90  2  0  0  0
 89 90  2  0  0  0
M  ISO  4   1 100  68 101  84 101  86 100
M  END
> <chiral flag>
0

> <version>
0

> <s_m_source_file>
/data/baiqing/PycharmProjects/Reinvent-master-3.2/result/LINK_invent/BTK/process_docking_weight1_custom_product_contain_oxygen_bond_distance_aromatic_linkinvent_7_9_3/rearranged_h_0061.sdf

> <i_m_source_file_index>
78

> <r_mmod_Potential_Energy-OPLS-2005>
129.385711669922

> <r_mmod_Stretch_Energy-OPLS-2005>
134.229827880859

> <r_mmod_Bend_Energy-OPLS-2005>
168.252151489258

> <r_mmod_Torsional_Energy-OPLS-2005>
302.482696533203

> <r_mmod_Improper_Torsional_Energy-OPLS-2005>
5.01625728607178

> <r_mmod_Van_der_Waal_Energy-OPLS-2005>
160.166595458984

> <r_mmod_Electrostatic_Energy-OPLS-2005>
-432.628234863281

> <r_mmod_Solvation_Energy-OPLS-2005>
-286.666564941406

> <b_mmod_Minimization_Converged-OPLS-2005>
0

> <r_mmod_RMS_Derivative-OPLS-2005>
2.70476603507996

$$$$
79
                    3D
 Structure written by MMmdl.
159168  0  0  1  0            999 V2000
  -30.5928  -14.7336   20.4852 C   0  0  0  0  0  0
  -30.4347  -12.4513   19.4648 C   0  0  0  0  0  0
  -29.5182  -12.5299   18.2231 C   0  0  0  0  0  0
  -28.0441  -12.3309   18.6312 C   0  0  0  0  0  0
  -27.6375  -13.2259   19.8357 C   0  0  2  0  0  0
  -28.6798  -13.1481   20.9736 C   0  0  0  0  0  0
  -25.2505  -13.8180   20.5624 C   0  0  0  0  0  0
  -24.1798  -13.0437   20.9169 C   0  0  0  0  0  0
  -24.6374  -11.6910   20.8679 C   0  0  0  0  0  0
  -23.9061  -10.4291   21.0346 C   0  0  0  0  0  0
  -24.3612   -9.4222   21.9140 C   0  0  0  0  0  0
  -23.6282   -8.2251   22.0724 C   0  0  0  0  0  0
  -22.4276   -8.0260   21.3523 C   0  0  0  0  0  0
  -21.9914   -9.0225   20.4636 C   0  0  0  0  0  0
  -22.7228  -10.2111   20.3017 C   0  0  0  0  0  0
  -21.6866   -6.0715   22.5270 C   0  0  0  0  0  0
  -21.4053   -6.5626   23.8211 C   0  0  0  0  0  0
  -21.3679   -5.6770   24.9176 C   0  0  0  0  0  0
  -21.6048   -4.3031   24.7209 C   0  0  0  0  0  0
  -21.8820   -3.8121   23.4335 C   0  0  0  0  0  0
  -21.9204   -4.6943   22.3395 C   0  0  0  0  0  0
  -22.7819  -13.5218   21.1820 C   0  0  0  0  0  0
  -22.1650   -4.2142   21.0958 F   0  0  0  0  0  0
  -21.5630   -3.4506   25.7711 F   0  0  0  0  0  0
  -29.9802  -13.5050   20.3965 N   0  0  0  0  0  0
  -26.2905  -12.9365   20.3137 N   0  0  0  0  0  0
  -25.9307  -11.6516   20.5631 N   0  0  0  0  0  0
  -22.0451  -12.8250   22.0396 N   0  0  0  0  0  0
  -25.4119  -15.1912   20.4104 N   0  0  0  0  0  0
  -31.7915  -14.8463   20.2062 O   0  0  0  0  0  0
  -21.6650   -6.8853   21.4230 O   0  0  0  0  0  0
  -22.3493  -14.5491   20.6639 O   0  0  0  0  0  0
  -24.6321  -31.8579   23.1995 C   0  0  0  0  0  0
  -25.9159  -32.4768   23.8342 C   0  0  1  0  0  0
  -27.2152  -27.2832   20.1608 C   0  0  0  0  0  0
  -25.5966  -33.8568   24.2278 N   0  0  0  0  0  0
  -23.4271  -30.4852   21.5364 C   0  0  2  0  0  0
  -24.8731  -28.9255   20.1127 C   0  0  0  0  0  0
  -22.7480  -29.4669   22.4837 C   0  0  0  0  0  0
  -18.0306  -28.1354   22.8470 C   0  0  0  0  0  0
  -24.1490  -36.7295   23.2637 C   0  0  0  0  0  0
  -25.9722  -30.7793   21.3767 C   0  0  0  0  0  0
  -26.0413  -29.4035   20.7217 C   0  0  0  0  0  0
  -27.2215  -28.5979   20.7259 C   0  0  0  0  0  0
  -26.0352  -26.8619   19.5201 C   0  0  0  0  0  0
  -24.8722  -27.6608   19.4991 C   0  0  0  0  0  0
  -23.6469  -29.8195   20.1517 C   0  0  0  0  0  0
  -25.4101  -36.3080   24.0343 C   0  0  1  0  0  0
  -20.5916  -28.3715   23.1190 C   0  0  2  0  0  0
  -20.6785  -26.9419   22.5362 C   0  0  0  0  0  0
  -19.5770  -26.6348   21.5165 C   0  0  0  0  0  0
  -18.1942  -26.7905   22.1584 C   0  0  0  0  0  0
  -19.1566  -28.8840   23.2845 C   0  0  0  0  0  0
  -18.9479  -30.1409   23.8901 C   0  0  0  0  0  0
  -17.6487  -30.6562   24.0544 C   0  0  0  0  0  0
  -25.9049  -34.9454   23.5103 C   0  0  0  0  0  0
  -16.5377  -29.9050   23.6331 C   0  0  0  0  0  0
  -16.7289  -28.6459   23.0377 C   0  0  0  0  0  0
  -26.4509  -31.6624   25.0764 C   0  0  0  0  0  0
  -25.3747  -31.3807   26.1508 C   0  0  0  0  0  0
  -27.0401  -30.3040   24.6323 C   0  0  0  0  0  0
  -27.6001  -32.4419   25.7574 C   0  0  0  0  0  0
  -27.5597  -37.1782   24.8430 C   0  0  0  0  0  0
  -21.4197  -29.3123   22.3602 N   0  0  0  0  0  0
  -26.4271  -37.3782   23.9444 N   0  0  0  0  0  0
  -24.6946  -31.0605   22.0923 N   0  0  0  0  0  0
  -23.4184  -28.8165   23.2922 O   0  0  0  0  0  0
  -28.3088  -26.4014   20.1930 O   0  0  0  0  0  0
  -26.5581  -34.8925   22.4645 O   0  0  0  0  0  0
  -23.5478  -32.1362   23.7335 O   0  0  0  0  0  0
  -31.1477  -18.7299   22.6166 C   0  0  0  0  0  0
  -30.8685  -17.4402   22.1331 C   0  0  0  0  0  0
  -29.5254  -18.4580   20.3845 C   0  0  0  0  0  0
  -30.6609  -19.8974   21.9862 C   0  0  0  0  0  0
  -29.7959  -19.8197   20.8498 C   0  0  0  0  0  0
  -30.0726  -17.2494   20.9940 C   0  0  0  0  0  0
  -29.8306  -21.1824   18.8180 C   0  0  0  0  0  0
  -28.7181  -22.3092   20.7858 C   0  0  0  0  0  0
  -30.1239  -23.9669   19.5405 C   0  0  0  0  0  0
  -28.6947  -23.7222   20.0042 C   0  0  2  0  0  0
  -31.1870  -21.2115   22.5369 C   0  0  0  0  0  0
  -28.1073  -25.0252   20.7512 C   0  0  0  0  0  0
  -29.3619  -21.0744   20.1365 N   0  0  0  0  0  0
  -29.7729  -15.8531   20.5997 N   0  0  0  0  0  0
  -29.8038  -20.2761   17.9810 O   0  0  0  0  0  0
  -30.6197  -22.7512   18.2856 S   0  0  0  0  0  0
  -31.4827  -12.5713   19.1872 H   0  0  0  0  0  0
  -30.3571  -11.4677   19.9323 H   0  0  0  0  0  0
  -29.8141  -11.7879   17.4823 H   0  0  0  0  0  0
  -29.6347  -13.5059   17.7465 H   0  0  0  0  0  0
  -27.9170  -11.2804   18.8885 H   0  0  0  0  0  0
  -27.3900  -12.5116   17.7770 H   0  0  0  0  0  0
  -27.6332  -14.2489   19.4567 H   0  0  0  0  0  0
  -28.7118  -12.1489   21.4052 H   0  0  0  0  0  0
  -28.4170  -13.8271   21.7859 H   0  0  0  0  0  0
  -25.2771   -9.5721   22.4695 H   0  0  0  0  0  0
  -24.0019   -7.4668   22.7464 H   0  0  0  0  0  0
  -21.0831   -8.8728   19.8949 H   0  0  0  0  0  0
  -22.3665  -10.9623   19.6092 H   0  0  0  0  0  0
  -21.2060   -7.6134   23.9724 H   0  0  0  0  0  0
  -21.1502   -6.0489   25.9087 H   0  0  0  0  0  0
  -22.0586   -2.7581   23.2819 H   0  0  0  0  0  0
  -22.4082  -12.0012   22.4939 H   0  0  0  0  0  0
  -21.1032  -13.1233   22.2490 H   0  0  0  0  0  0
  -24.6299  -15.8278   20.5186 H   0  0  0  0  0  0
  -26.2559  -15.6509   20.0996 H   0  0  0  0  0  0
  -26.7255  -32.5400   23.1106 H   0  0  0  0  0  0
  -25.0265  -33.9708   25.0534 H   0  0  0  0  0  0
  -22.7281  -31.3113   21.3940 H   0  0  0  0  0  0
  -23.3786  -35.9587   23.3179 H   0  0  0  0  0  0
  -24.3629  -36.9027   22.2082 H   0  0  0  0  0  0
  -23.7195  -37.6440   23.6730 H   0  0  0  0  0  0
  -26.1366  -31.5387   20.6095 H   0  0  0  0  0  0
  -26.8408  -30.8091   22.0223 H   0  0  0  0  0  0
  -28.1240  -28.9639   21.1972 H   0  0  0  0  0  0
  -26.0118  -25.8919   19.0437 H   0  0  0  0  0  0
  -23.9778  -27.2929   19.0156 H   0  0  0  0  0  0
  -23.7902  -30.6023   19.4051 H   0  0  0  0  0  0
  -22.7622  -29.2664   19.8296 H   0  0  0  0  0  0
  -25.1289  -36.1900   25.0836 H   0  0  0  0  0  0
  -21.0063  -28.3316   24.1287 H   0  0  0  0  0  0
  -20.5625  -26.2358   23.3599 H   0  0  0  0  0  0
  -21.6660  -26.7394   22.1195 H   0  0  0  0  0  0
  -19.6918  -25.6241   21.1233 H   0  0  0  0  0  0
  -19.6683  -27.3119   20.6663 H   0  0  0  0  0  0
  -17.4222  -26.6661   21.3974 H   0  0  0  0  0  0
  -18.0336  -26.0018   22.8948 H   0  0  0  0  0  0
  -19.7963  -30.7182   24.2303 H   0  0  0  0  0  0
  -17.5060  -31.6244   24.5125 H   0  0  0  0  0  0
  -15.5377  -30.2946   23.7657 H   0  0  0  0  0  0
  -15.8687  -28.0731   22.7150 H   0  0  0  0  0  0
  -24.5749  -30.7384   25.7815 H   0  0  0  0  0  0
  -24.9177  -32.3031   26.5108 H   0  0  0  0  0  0
  -25.8022  -30.8779   27.0196 H   0  0  0  0  0  0
  -26.2996  -29.6709   24.1423 H   0  0  0  0  0  0
  -27.4143  -29.7398   25.4882 H   0  0  0  0  0  0
  -27.8850  -30.4302   23.9546 H   0  0  0  0  0  0
  -27.2483  -33.3618   26.2257 H   0  0  0  0  0  0
  -28.3753  -32.7174   25.0418 H   0  0  0  0  0  0
  -28.0769  -31.8555   26.5442 H   0  0  0  0  0  0
  -28.2504  -38.0183   24.7636 H   0  0  0  0  0  0
  -28.1196  -36.2734   24.6030 H   0  0  0  0  0  0
  -27.2365  -37.1160   25.8832 H   0  0  0  0  0  0
  -20.9320  -29.8948   21.6919 H   0  0  0  0  0  0
  -26.0134  -38.2836   24.1491 H   0  0  0  0  0  0
  -31.7812  -18.8070   23.4901 H   0  0  0  0  0  0
  -31.2735  -16.5911   22.6641 H   0  0  0  0  0  0
  -28.9038  -18.3370   19.5087 H   0  0  0  0  0  0
  -27.6874  -22.0361   21.0254 H   0  0  0  0  0  0
  -29.1736  -22.5087   21.7461 H   0  0  0  0  0  0
  -30.8116  -23.9621   20.3877 H   0  0  0  0  0  0
  -30.2183  -24.9526   19.0796 H   0  0  0  0  0  0
  -28.0737  -23.6014   19.1157 H   0  0  0  0  0  0
  -32.0927  -21.0537   23.1218 H   0  0  0  0  0  0
  -30.4661  -21.6626   23.2156 H   0  0  0  0  0  0
  -31.4507  -21.9079   21.7400 H   0  0  0  0  0  0
  -28.5443  -25.0521   21.7507 H   0  0  0  0  0  0
  -27.0471  -24.8454   20.9465 H   0  0  0  0  0  0
  -28.7900  -15.6475   20.5259 H   0  0  0  0  0  0
  1 25  1  0  0  0
  1 30  2  0  0  0
  1 84  1  0  0  0
  2  3  1  0  0  0
  2 25  1  0  0  0
  2 87  1  0  0  0
  2 88  1  0  0  0
  3  4  1  0  0  0
  3 89  1  0  0  0
  3 90  1  0  0  0
  4  5  1  0  0  0
  4 91  1  0  0  0
  4 92  1  0  0  0
  5  6  1  0  0  0
  5 26  1  0  0  0
  5 93  1  0  0  0
  6 25  1  0  0  0
  6 94  1  0  0  0
  6 95  1  0  0  0
  7  8  2  0  0  0
  7 26  1  0  0  0
  7 29  1  0  0  0
  8  9  1  0  0  0
  8 22  1  0  0  0
  9 10  1  0  0  0
  9 27  2  0  0  0
 10 11  2  0  0  0
 10 15  1  0  0  0
 11 12  1  0  0  0
 11 96  1  0  0  0
 12 13  2  0  0  0
 12 97  1  0  0  0
 13 14  1  0  0  0
 13 31  1  0  0  0
 14 15  2  0  0  0
 14 98  1  0  0  0
 15 99  1  0  0  0
 16 17  2  0  0  0
 16 21  1  0  0  0
 16 31  1  0  0  0
 17 18  1  0  0  0
 17100  1  0  0  0
 18 19  2  0  0  0
 18101  1  0  0  0
 19 20  1  0  0  0
 19 24  1  0  0  0
 20 21  2  0  0  0
 20102  1  0  0  0
 21 23  1  0  0  0
 22 28  1  0  0  0
 22 32  2  0  0  0
 26 27  1  0  0  0
 28103  1  0  0  0
 28104  1  0  0  0
 29105  1  0  0  0
 29106  1  0  0  0
 33 34  1  0  0  0
 33 66  1  0  0  0
 33 70  2  0  0  0
 34 36  1  0  0  0
 34 59  1  0  0  0
 34107  1  0  0  0
 35 44  2  0  0  0
 35 45  1  0  0  0
 35 68  1  0  0  0
 36 56  1  0  0  0
 36108  1  0  0  0
 37 39  1  0  0  0
 37 47  1  0  0  0
 37 66  1  0  0  0
 37109  1  0  0  0
 38 43  2  0  0  0
 38 46  1  0  0  0
 38 47  1  0  0  0
 39 64  1  0  0  0
 39 67  2  0  0  0
 40 52  1  0  0  0
 40 53  2  0  0  0
 40 58  1  0  0  0
 41110  1  0  0  0
 41111  1  0  0  0
 41112  1  0  0  0
 41 48  1  0  0  0
 42 43  1  0  0  0
 42 66  1  0  0  0
 42113  1  0  0  0
 42114  1  0  0  0
 43 44  1  0  0  0
 44115  1  0  0  0
 45 46  2  0  0  0
 45116  1  0  0  0
 46117  1  0  0  0
 47118  1  0  0  0
 47119  1  0  0  0
 48 56  1  0  0  0
 48 65  1  0  0  0
 48120  1  0  0  0
 49 50  1  0  0  0
 49 53  1  0  0  0
 49 64  1  0  0  0
 49121  1  0  0  0
 50 51  1  0  0  0
 50122  1  0  0  0
 50123  1  0  0  0
 51 52  1  0  0  0
 51124  1  0  0  0
 51125  1  0  0  0
 52126  1  0  0  0
 52127  1  0  0  0
 53 54  1  0  0  0
 54 55  2  0  0  0
 54128  1  0  0  0
 55 57  1  0  0  0
 55129  1  0  0  0
 56 69  2  0  0  0
 57 58  2  0  0  0
 57130  1  0  0  0
 58131  1  0  0  0
 59 60  1  0  0  0
 59 61  1  0  0  0
 59 62  1  0  0  0
 60132  1  0  0  0
 60133  1  0  0  0
 60134  1  0  0  0
 61135  1  0  0  0
 61136  1  0  0  0
 61137  1  0  0  0
 62138  1  0  0  0
 62139  1  0  0  0
 62140  1  0  0  0
 63 65  1  0  0  0
 63141  1  0  0  0
 63142  1  0  0  0
 63143  1  0  0  0
 64144  1  0  0  0
 65145  1  0  0  0
 68 82  1  0  0  0
 71 72  2  0  0  0
 71 74  1  0  0  0
 71146  1  0  0  0
 72 76  1  0  0  0
 72147  1  0  0  0
 73 75  1  0  0  0
 73 76  2  0  0  0
 73148  1  0  0  0
 74 75  2  0  0  0
 74 81  1  0  0  0
 75 83  1  0  0  0
 76 84  1  0  0  0
 77 83  1  0  0  0
 77 85  2  0  0  0
 77 86  1  0  0  0
 78 80  1  0  0  0
 78 83  1  0  0  0
 78149  1  0  0  0
 78150  1  0  0  0
 79 80  1  0  0  0
 79 86  1  0  0  0
 79151  1  0  0  0
 79152  1  0  0  0
 80 82  1  0  0  0
 80153  1  0  0  0
 81154  1  0  0  0
 81155  1  0  0  0
 81156  1  0  0  0
 82157  1  0  0  0
 82158  1  0  0  0
 84159  1  0  0  0
M  ISO  4   1 100  68 101  82 101  84 100
M  END
> <chiral flag>
0

> <version>
0

> <s_m_source_file>
/data/baiqing/PycharmProjects/Reinvent-master-3.2/result/LINK_invent/BTK/process_docking_weight1_custom_product_contain_oxygen_bond_distance_aromatic_linkinvent_7_9_3/rearranged_h_0061.sdf

> <i_m_source_file_index>
79

> <r_mmod_Potential_Energy-OPLS-2005>
277.356018066406

> <r_mmod_Stretch_Energy-OPLS-2005>
128.54052734375

> <r_mmod_Bend_Energy-OPLS-2005>
171.600891113281

> <r_mmod_Torsional_Energy-OPLS-2005>
326.916137695312

> <r_mmod_Improper_Torsional_Energy-OPLS-2005>
8.6923885345459

> <r_mmod_Van_der_Waal_Energy-OPLS-2005>
142.672592163086

> <r_mmod_Electrostatic_Energy-OPLS-2005>
-341.019195556641

> <r_mmod_Solvation_Energy-OPLS-2005>
-240.096923828125

> <b_mmod_Minimization_Converged-OPLS-2005>
0

> <r_mmod_RMS_Derivative-OPLS-2005>
5.65910625457764

$$$$
80
                    3D
 Structure written by MMmdl.
168177  0  0  1  0            999 V2000
  -30.6936  -14.4192   20.5523 C   0  0  0  0  0  0
  -30.4257  -12.2600   19.4261 C   0  0  0  0  0  0
  -29.5006  -12.4961   18.2124 C   0  0  0  0  0  0
  -28.0186  -12.3704   18.6174 C   0  0  0  0  0  0
  -27.6706  -13.1923   19.8879 C   0  0  2  0  0  0
  -28.7101  -12.9393   21.0089 C   0  0  0  0  0  0
  -25.2630  -13.8131   20.5688 C   0  0  0  0  0  0
  -24.1858  -13.0428   20.9169 C   0  0  0  0  0  0
  -24.6397  -11.6893   20.8742 C   0  0  0  0  0  0
  -23.9062  -10.4288   21.0424 C   0  0  0  0  0  0
  -24.3618   -9.4203   21.9202 C   0  0  0  0  0  0
  -23.6291   -8.2242   22.0771 C   0  0  0  0  0  0
  -22.4277   -8.0280   21.3552 C   0  0  0  0  0  0
  -21.9914   -9.0254   20.4651 C   0  0  0  0  0  0
  -22.7243  -10.2136   20.3065 C   0  0  0  0  0  0
  -21.6849   -6.0735   22.5282 C   0  0  0  0  0  0
  -21.4012   -6.5642   23.8215 C   0  0  0  0  0  0
  -21.3659   -5.6799   24.9180 C   0  0  0  0  0  0
  -21.6044   -4.3060   24.7232 C   0  0  0  0  0  0
  -21.8821   -3.8146   23.4355 C   0  0  0  0  0  0
  -21.9197   -4.6963   22.3410 C   0  0  0  0  0  0
  -22.7883  -13.5240   21.1831 C   0  0  0  0  0  0
  -22.1670   -4.2146   21.0988 F   0  0  0  0  0  0
  -21.5621   -3.4545   25.7744 F   0  0  0  0  0  0
  -30.0513  -13.2272   20.4670 N   0  0  0  0  0  0
  -26.3066  -12.9278   20.3419 N   0  0  0  0  0  0
  -25.9324  -11.6451   20.5800 N   0  0  0  0  0  0
  -22.0525  -12.8223   22.0379 N   0  0  0  0  0  0
  -25.4357  -15.1846   20.4101 N   0  0  0  0  0  0
  -31.8147  -14.6324   20.0812 O   0  0  0  0  0  0
  -21.6636   -6.8881   21.4243 O   0  0  0  0  0  0
  -22.3587  -14.5564   20.6707 O   0  0  0  0  0  0
  -24.6075  -31.8712   23.2130 C   0  0  0  0  0  0
  -25.8998  -32.4827   23.8403 C   0  0  1  0  0  0
  -27.2448  -27.4855   20.1084 C   0  0  0  0  0  0
  -25.5896  -33.8628   24.2358 N   0  0  0  0  0  0
  -23.3920  -30.4928   21.5520 C   0  0  2  0  0  0
  -24.8408  -28.9639   20.1115 C   0  0  0  0  0  0
  -22.7371  -29.4668   22.5028 C   0  0  0  0  0  0
  -18.0253  -28.1372   22.8481 C   0  0  0  0  0  0
  -24.1492  -36.7315   23.2640 C   0  0  0  0  0  0
  -25.9111  -30.8597   21.3509 C   0  0  0  0  0  0
  -25.9920  -29.4965   20.7030 C   0  0  0  0  0  0
  -27.1948  -28.7703   20.6949 C   0  0  0  0  0  0
  -26.0876  -26.9631   19.4979 C   0  0  0  0  0  0
  -24.8816  -27.6945   19.5036 C   0  0  0  0  0  0
  -23.5956  -29.8197   20.1660 C   0  0  0  0  0  0
  -25.4104  -36.3114   24.0354 C   0  0  1  0  0  0
  -20.5838  -28.3635   23.1342 C   0  0  2  0  0  0
  -20.6752  -26.9377   22.5423 C   0  0  0  0  0  0
  -19.5749  -26.6378   21.5203 C   0  0  0  0  0  0
  -18.1919  -26.7913   22.1604 C   0  0  0  0  0  0
  -19.1503  -28.8823   23.2901 C   0  0  0  0  0  0
  -18.9438  -30.1439   23.8899 C   0  0  0  0  0  0
  -17.6443  -30.6578   24.0566 C   0  0  0  0  0  0
  -25.9035  -34.9479   23.5152 C   0  0  0  0  0  0
  -16.5333  -29.9087   23.6328 C   0  0  0  0  0  0
  -16.7243  -28.6506   23.0340 C   0  0  0  0  0  0
  -26.4454  -31.6575   25.0701 C   0  0  0  0  0  0
  -25.3756  -31.3650   26.1473 C   0  0  0  0  0  0
  -27.0276  -30.3035   24.6002 C   0  0  0  0  0  0
  -27.6039  -32.4257   25.7482 C   0  0  0  0  0  0
  -27.5588  -37.1810   24.8463 C   0  0  0  0  0  0
  -21.4109  -29.3012   22.3772 N   0  0  0  0  0  0
  -26.4293  -37.3794   23.9421 N   0  0  0  0  0  0
  -24.6553  -31.0868   22.0987 N   0  0  0  0  0  0
  -23.4170  -28.8238   23.3063 O   0  0  0  0  0  0
  -28.3879  -26.7238   20.1246 O   0  0  0  0  0  0
  -26.5587  -34.8922   22.4704 O   0  0  0  0  0  0
  -23.5293  -32.1437   23.7576 O   0  0  0  0  0  0
  -29.7492  -21.4225   19.8295 C   0  0  0  0  0  0
  -29.7648  -22.7701   20.2258 C   0  0  0  0  0  0
  -30.9545  -22.1415   22.2528 C   0  0  0  0  0  0
  -30.3283  -20.4180   20.6327 C   0  0  0  0  0  0
  -30.9406  -20.7841   21.8632 C   0  0  0  0  0  0
  -30.3731  -23.1416   21.4413 C   0  0  0  0  0  0
  -31.5001  -25.1882   22.1452 C   0  0  0  0  0  0
  -30.2040  -19.0490   20.1134 C   0  0  0  0  0  0
  -29.8755  -17.9330   20.7862 C   0  0  0  0  0  0
  -31.3747  -26.6987   22.3642 C   0  0  0  0  0  0
  -30.4508  -27.2840   21.2879 C   0  0  0  0  0  0
  -29.0572  -25.1910   21.8951 C   0  0  0  0  0  0
  -29.0535  -26.6536   21.3916 C   0  0  2  0  0  0
  -30.8590  -19.5262   24.0692 C   0  0  0  0  0  0
  -31.6411  -19.7866   22.7755 C   0  0  0  0  0  0
  -29.7387  -16.6056   20.0761 C   0  0  0  0  0  0
  -30.3633  -24.5105   21.8367 N   0  0  0  0  0  0
  -29.9003  -15.4298   20.9271 N   0  0  0  0  0  0
  -32.6187  -24.6700   22.2319 O   0  0  0  0  0  0
  -31.4720  -12.3507   19.1285 H   0  0  0  0  0  0
  -30.3126  -11.2420   19.8035 H   0  0  0  0  0  0
  -29.7301  -11.7829   17.4203 H   0  0  0  0  0  0
  -29.6834  -13.4871   17.7936 H   0  0  0  0  0  0
  -27.8098  -11.3138   18.7906 H   0  0  0  0  0  0
  -27.3771  -12.6741   17.7888 H   0  0  0  0  0  0
  -27.7249  -14.2436   19.6081 H   0  0  0  0  0  0
  -28.6668  -11.8992   21.3364 H   0  0  0  0  0  0
  -28.4843  -13.5297   21.8986 H   0  0  0  0  0  0
  -25.2780   -9.5656   22.4758 H   0  0  0  0  0  0
  -23.9987   -7.4631   22.7494 H   0  0  0  0  0  0
  -21.0847   -8.8788   19.8946 H   0  0  0  0  0  0
  -22.3731  -10.9677   19.6158 H   0  0  0  0  0  0
  -21.2008   -7.6152   23.9714 H   0  0  0  0  0  0
  -21.1475   -6.0535   25.9083 H   0  0  0  0  0  0
  -22.0599   -2.7603   23.2865 H   0  0  0  0  0  0
  -22.4157  -11.9864   22.4717 H   0  0  0  0  0  0
  -21.1146  -13.1237   22.2610 H   0  0  0  0  0  0
  -24.6680  -15.8379   20.5218 H   0  0  0  0  0  0
  -26.2884  -15.6269   20.0925 H   0  0  0  0  0  0
  -26.7086  -32.5570   23.1197 H   0  0  0  0  0  0
  -25.0078  -33.9775   25.0524 H   0  0  0  0  0  0
  -22.6774  -31.3076   21.4155 H   0  0  0  0  0  0
  -23.3751  -35.9646   23.3286 H   0  0  0  0  0  0
  -24.3616  -36.8933   22.2059 H   0  0  0  0  0  0
  -23.7232  -37.6519   23.6650 H   0  0  0  0  0  0
  -26.0084  -31.6244   20.5787 H   0  0  0  0  0  0
  -26.8050  -30.9203   21.9605 H   0  0  0  0  0  0
  -28.0781  -29.1993   21.1456 H   0  0  0  0  0  0
  -26.1161  -25.9836   19.0407 H   0  0  0  0  0  0
  -23.9964  -27.2770   19.0433 H   0  0  0  0  0  0
  -23.6930  -30.5947   19.4047 H   0  0  0  0  0  0
  -22.7212  -29.2333   19.8770 H   0  0  0  0  0  0
  -25.1267  -36.1993   25.0847 H   0  0  0  0  0  0
  -20.9902  -28.3188   24.1474 H   0  0  0  0  0  0
  -20.5661  -26.2230   23.3591 H   0  0  0  0  0  0
  -21.6629  -26.7448   22.1225 H   0  0  0  0  0  0
  -19.6929  -25.6304   21.1218 H   0  0  0  0  0  0
  -19.6706  -27.3200   20.6748 H   0  0  0  0  0  0
  -17.4191  -26.6648   21.4006 H   0  0  0  0  0  0
  -18.0329  -26.0051   22.8999 H   0  0  0  0  0  0
  -19.7921  -30.7254   24.2257 H   0  0  0  0  0  0
  -17.5009  -31.6258   24.5171 H   0  0  0  0  0  0
  -15.5346  -30.3000   23.7653 H   0  0  0  0  0  0
  -15.8638  -28.0849   22.7036 H   0  0  0  0  0  0
  -24.5906  -30.7011   25.7838 H   0  0  0  0  0  0
  -24.8961  -32.2785   26.4991 H   0  0  0  0  0  0
  -25.8140  -30.8786   27.0189 H   0  0  0  0  0  0
  -26.2803  -29.6820   24.1046 H   0  0  0  0  0  0
  -27.4085  -29.7233   25.4415 H   0  0  0  0  0  0
  -27.8615  -30.4400   23.9111 H   0  0  0  0  0  0
  -27.2661  -33.3513   26.2150 H   0  0  0  0  0  0
  -28.3819  -32.6865   25.0298 H   0  0  0  0  0  0
  -28.0727  -31.8303   26.5327 H   0  0  0  0  0  0
  -28.2582  -38.0135   24.7539 H   0  0  0  0  0  0
  -28.1112  -36.2664   24.6239 H   0  0  0  0  0  0
  -27.2322  -37.1401   25.8872 H   0  0  0  0  0  0
  -20.9273  -29.8719   21.6988 H   0  0  0  0  0  0
  -26.0185  -38.2873   24.1430 H   0  0  0  0  0  0
  -29.2736  -21.1604   18.8936 H   0  0  0  0  0  0
  -29.3124  -23.5162   19.5869 H   0  0  0  0  0  0
  -31.4230  -22.4175   23.1875 H   0  0  0  0  0  0
  -30.3980  -18.9514   19.0542 H   0  0  0  0  0  0
  -29.6591  -17.9640   21.8439 H   0  0  0  0  0  0
  -32.3598  -27.1629   22.3174 H   0  0  0  0  0  0
  -30.9745  -26.8909   23.3612 H   0  0  0  0  0  0
  -30.8746  -27.0785   20.3036 H   0  0  0  0  0  0
  -30.3926  -28.3691   21.3740 H   0  0  0  0  0  0
  -28.2664  -24.6214   21.4066 H   0  0  0  0  0  0
  -28.7780  -25.1952   22.9505 H   0  0  0  0  0  0
  -28.5096  -27.1997   22.1642 H   0  0  0  0  0  0
  -31.3754  -18.7965   24.6921 H   0  0  0  0  0  0
  -29.8598  -19.1428   23.8633 H   0  0  0  0  0  0
  -30.7527  -20.4409   24.6541 H   0  0  0  0  0  0
  -32.6225  -20.1898   23.0295 H   0  0  0  0  0  0
  -31.8524  -18.8519   22.2601 H   0  0  0  0  0  0
  -30.4010  -16.5848   19.2075 H   0  0  0  0  0  0
  -28.7264  -16.5630   19.6716 H   0  0  0  0  0  0
  -29.0622  -15.1333   21.4060 H   0  0  0  0  0  0
  1 25  1  0  0  0
  1 30  2  0  0  0
  1 88  1  0  0  0
  2  3  1  0  0  0
  2 25  1  0  0  0
  2 90  1  0  0  0
  2 91  1  0  0  0
  3  4  1  0  0  0
  3 92  1  0  0  0
  3 93  1  0  0  0
  4  5  1  0  0  0
  4 94  1  0  0  0
  4 95  1  0  0  0
  5  6  1  0  0  0
  5 26  1  0  0  0
  5 96  1  0  0  0
  6 25  1  0  0  0
  6 97  1  0  0  0
  6 98  1  0  0  0
  7  8  2  0  0  0
  7 26  1  0  0  0
  7 29  1  0  0  0
  8  9  1  0  0  0
  8 22  1  0  0  0
  9 10  1  0  0  0
  9 27  2  0  0  0
 10 11  2  0  0  0
 10 15  1  0  0  0
 11 12  1  0  0  0
 11 99  1  0  0  0
 12 13  2  0  0  0
 12100  1  0  0  0
 13 14  1  0  0  0
 13 31  1  0  0  0
 14 15  2  0  0  0
 14101  1  0  0  0
 15102  1  0  0  0
 16 17  2  0  0  0
 16 21  1  0  0  0
 16 31  1  0  0  0
 17 18  1  0  0  0
 17103  1  0  0  0
 18 19  2  0  0  0
 18104  1  0  0  0
 19 20  1  0  0  0
 19 24  1  0  0  0
 20 21  2  0  0  0
 20105  1  0  0  0
 21 23  1  0  0  0
 22 28  1  0  0  0
 22 32  2  0  0  0
 26 27  1  0  0  0
 28106  1  0  0  0
 28107  1  0  0  0
 29108  1  0  0  0
 29109  1  0  0  0
 33 34  1  0  0  0
 33 66  1  0  0  0
 33 70  2  0  0  0
 34 36  1  0  0  0
 34 59  1  0  0  0
 34110  1  0  0  0
 35 44  2  0  0  0
 35 45  1  0  0  0
 35 68  1  0  0  0
 36 56  1  0  0  0
 36111  1  0  0  0
 37 39  1  0  0  0
 37 47  1  0  0  0
 37 66  1  0  0  0
 37112  1  0  0  0
 38 43  2  0  0  0
 38 46  1  0  0  0
 38 47  1  0  0  0
 39 64  1  0  0  0
 39 67  2  0  0  0
 40 52  1  0  0  0
 40 53  2  0  0  0
 40 58  1  0  0  0
 41113  1  0  0  0
 41114  1  0  0  0
 41115  1  0  0  0
 41 48  1  0  0  0
 42 43  1  0  0  0
 42 66  1  0  0  0
 42116  1  0  0  0
 42117  1  0  0  0
 43 44  1  0  0  0
 44118  1  0  0  0
 45 46  2  0  0  0
 45119  1  0  0  0
 46120  1  0  0  0
 47121  1  0  0  0
 47122  1  0  0  0
 48 56  1  0  0  0
 48 65  1  0  0  0
 48123  1  0  0  0
 49 50  1  0  0  0
 49 53  1  0  0  0
 49 64  1  0  0  0
 49124  1  0  0  0
 50 51  1  0  0  0
 50125  1  0  0  0
 50126  1  0  0  0
 51 52  1  0  0  0
 51127  1  0  0  0
 51128  1  0  0  0
 52129  1  0  0  0
 52130  1  0  0  0
 53 54  1  0  0  0
 54 55  2  0  0  0
 54131  1  0  0  0
 55 57  1  0  0  0
 55132  1  0  0  0
 56 69  2  0  0  0
 57 58  2  0  0  0
 57133  1  0  0  0
 58134  1  0  0  0
 59 60  1  0  0  0
 59 61  1  0  0  0
 59 62  1  0  0  0
 60135  1  0  0  0
 60136  1  0  0  0
 60137  1  0  0  0
 61138  1  0  0  0
 61139  1  0  0  0
 61140  1  0  0  0
 62141  1  0  0  0
 62142  1  0  0  0
 62143  1  0  0  0
 63 65  1  0  0  0
 63144  1  0  0  0
 63145  1  0  0  0
 63146  1  0  0  0
 64147  1  0  0  0
 65148  1  0  0  0
 68 83  1  0  0  0
 71 72  2  0  0  0
 71 74  1  0  0  0
 71149  1  0  0  0
 72 76  1  0  0  0
 72150  1  0  0  0
 73 75  1  0  0  0
 73 76  2  0  0  0
 73151  1  0  0  0
 74 75  2  0  0  0
 74 78  1  0  0  0
 75 85  1  0  0  0
 76 87  1  0  0  0
 77 80  1  0  0  0
 77 87  1  0  0  0
 77 89  2  0  0  0
 78 79  2  0  0  0
 78152  1  0  0  0
 79 86  1  0  0  0
 79153  1  0  0  0
 80 81  1  0  0  0
 80154  1  0  0  0
 80155  1  0  0  0
 81 83  1  0  0  0
 81156  1  0  0  0
 81157  1  0  0  0
 82 83  1  0  0  0
 82 87  1  0  0  0
 82158  1  0  0  0
 82159  1  0  0  0
 83160  1  0  0  0
 84 85  1  0  0  0
 84161  1  0  0  0
 84162  1  0  0  0
 84163  1  0  0  0
 85164  1  0  0  0
 85165  1  0  0  0
 86 88  1  0  0  0
 86166  1  0  0  0
 86167  1  0  0  0
 88168  1  0  0  0
M  ISO  4   1 100  68 101  83 101  88 100
M  END
> <chiral flag>
0

> <version>
0

> <s_m_source_file>
/data/baiqing/PycharmProjects/Reinvent-master-3.2/result/LINK_invent/BTK/process_docking_weight1_custom_product_contain_oxygen_bond_distance_aromatic_linkinvent_7_9_3/rearranged_h_0061.sdf

> <i_m_source_file_index>
80

> <r_mmod_Potential_Energy-OPLS-2005>
44.5188102722168

> <r_mmod_Stretch_Energy-OPLS-2005>
35.3131828308105

> <r_mmod_Bend_Energy-OPLS-2005>
103.319969177246

> <r_mmod_Torsional_Energy-OPLS-2005>
333.927612304688

> <r_mmod_Improper_Torsional_Energy-OPLS-2005>
10.6572198867798

> <r_mmod_Van_der_Waal_Energy-OPLS-2005>
173.706436157227

> <r_mmod_Electrostatic_Energy-OPLS-2005>
-395.831024169922

> <r_mmod_Solvation_Energy-OPLS-2005>
-226.021942138672

> <b_mmod_Minimization_Converged-OPLS-2005>
0

> <r_mmod_RMS_Derivative-OPLS-2005>
1.79804420471191

$$$$
81
                    3D
 Structure written by MMmdl.
161170  0  0  1  0            999 V2000
  -30.6077  -14.7302   20.4443 C   0  0  0  0  0  0
  -30.4303  -12.4394   19.4799 C   0  0  0  0  0  0
  -29.5111  -12.5071   18.2398 C   0  0  0  0  0  0
  -28.0357  -12.3372   18.6494 C   0  0  0  0  0  0
  -27.6438  -13.2326   19.8554 C   0  0  2  0  0  0
  -28.6861  -13.1560   20.9933 C   0  0  0  0  0  0
  -25.2514  -13.8205   20.5704 C   0  0  0  0  0  0
  -24.1804  -13.0446   20.9207 C   0  0  0  0  0  0
  -24.6393  -11.6923   20.8743 C   0  0  0  0  0  0
  -23.9073  -10.4296   21.0404 C   0  0  0  0  0  0
  -24.3622   -9.4212   21.9184 C   0  0  0  0  0  0
  -23.6296   -8.2248   22.0755 C   0  0  0  0  0  0
  -22.4278   -8.0284   21.3544 C   0  0  0  0  0  0
  -21.9914   -9.0259   20.4647 C   0  0  0  0  0  0
  -22.7244  -10.2138   20.3056 C   0  0  0  0  0  0
  -21.6855   -6.0737   22.5277 C   0  0  0  0  0  0
  -21.4017   -6.5640   23.8211 C   0  0  0  0  0  0
  -21.3660   -5.6793   24.9174 C   0  0  0  0  0  0
  -21.6045   -4.3055   24.7225 C   0  0  0  0  0  0
  -21.8820   -3.8147   23.4345 C   0  0  0  0  0  0
  -21.9194   -4.6964   22.3402 C   0  0  0  0  0  0
  -22.7825  -13.5226   21.1866 C   0  0  0  0  0  0
  -22.1662   -4.2148   21.0980 F   0  0  0  0  0  0
  -21.5628   -3.4541   25.7738 F   0  0  0  0  0  0
  -29.9928  -13.4988   20.4189 N   0  0  0  0  0  0
  -26.2943  -12.9414   20.3298 N   0  0  0  0  0  0
  -25.9324  -11.6553   20.5756 N   0  0  0  0  0  0
  -22.0474  -12.8213   22.0422 N   0  0  0  0  0  0
  -25.4208  -15.1932   20.4132 N   0  0  0  0  0  0
  -31.7914  -14.8249   20.1052 O   0  0  0  0  0  0
  -21.6641   -6.8881   21.4240 O   0  0  0  0  0  0
  -22.3506  -14.5530   20.6712 O   0  0  0  0  0  0
  -24.6300  -31.8539   23.1970 C   0  0  0  0  0  0
  -25.9125  -32.4745   23.8315 C   0  0  1  0  0  0
  -27.2242  -27.2687   20.1251 C   0  0  0  0  0  0
  -25.5915  -33.8548   24.2238 N   0  0  0  0  0  0
  -23.4264  -30.4753   21.5401 C   0  0  2  0  0  0
  -24.8736  -28.9204   20.1072 C   0  0  0  0  0  0
  -22.7498  -29.4591   22.4912 C   0  0  0  0  0  0
  -18.0281  -28.1391   22.8485 C   0  0  0  0  0  0
  -24.1488  -36.7293   23.2643 C   0  0  0  0  0  0
  -25.9699  -30.7682   21.3756 C   0  0  0  0  0  0
  -26.0413  -29.3907   20.7192 C   0  0  0  0  0  0
  -27.2147  -28.5749   20.7198 C   0  0  0  0  0  0
  -26.0354  -26.8637   19.4793 C   0  0  0  0  0  0
  -24.8752  -27.6651   19.4780 C   0  0  0  0  0  0
  -23.6439  -29.8064   20.1563 C   0  0  0  0  0  0
  -25.4113  -36.3069   24.0325 C   0  0  1  0  0  0
  -20.5884  -28.3703   23.1270 C   0  0  2  0  0  0
  -20.6772  -26.9421   22.5415 C   0  0  0  0  0  0
  -19.5749  -26.6388   21.5217 C   0  0  0  0  0  0
  -18.1926  -26.7931   22.1625 C   0  0  0  0  0  0
  -19.1535  -28.8865   23.2871 C   0  0  0  0  0  0
  -18.9459  -30.1459   23.8902 C   0  0  0  0  0  0
  -17.6460  -30.6595   24.0565 C   0  0  0  0  0  0
  -25.9055  -34.9435   23.5092 C   0  0  0  0  0  0
  -16.5349  -29.9098   23.6329 C   0  0  0  0  0  0
  -16.7268  -28.6511   23.0358 C   0  0  0  0  0  0
  -26.4497  -31.6571   25.0707 C   0  0  0  0  0  0
  -25.3716  -31.3714   26.1423 C   0  0  0  0  0  0
  -27.0354  -30.2987   24.6202 C   0  0  0  0  0  0
  -27.6047  -32.4320   25.7478 C   0  0  0  0  0  0
  -27.5577  -37.1795   24.8464 C   0  0  0  0  0  0
  -21.4204  -29.3043   22.3658 N   0  0  0  0  0  0
  -26.4290  -37.3767   23.9406 N   0  0  0  0  0  0
  -24.6944  -31.0507   22.0941 N   0  0  0  0  0  0
  -23.4204  -28.8140   23.3013 O   0  0  0  0  0  0
  -28.3483  -26.4191   20.2144 O   0  0  0  0  0  0
  -26.5645  -34.8917   22.4673 O   0  0  0  0  0  0
  -23.5453  -32.1361   23.7273 O   0  0  0  0  0  0
  -30.7588  -18.7530   18.4028 C   0  0  0  0  0  0
  -30.1872  -19.8852   19.0138 C   0  0  0  0  0  0
  -30.6572  -17.4721   18.9810 C   0  0  0  0  0  0
  -29.4864  -19.7832   20.2309 C   0  0  0  0  0  0
  -29.3778  -18.4431   20.8127 C   0  0  0  0  0  0
  -29.9703  -17.2551   20.1985 C   0  0  0  0  0  0
  -27.2106  -21.9730   19.4425 C   0  0  0  0  0  0
  -26.0627  -22.9074   19.7933 C   0  0  0  0  0  0
  -26.6317  -23.6912   20.9773 C   0  0  0  0  0  0
  -28.1330  -23.7119   20.6776 C   0  0  2  0  0  0
  -28.6208  -18.2890   22.1216 C   0  0  0  0  0  0
  -28.9816  -21.1507   20.8935 C   0  0  0  0  0  0
  -28.4117  -24.9994   19.7244 C   0  0  0  0  0  0
  -28.3351  -22.2984   20.1084 N   0  0  0  0  0  0
  -29.8371  -15.8580   20.7000 N   0  0  0  0  0  0
  -27.0365  -20.9705   18.7462 O   0  0  0  0  0  0
  -31.4730  -12.5557   19.1792 H   0  0  0  0  0  0
  -30.3665  -11.4602   19.9568 H   0  0  0  0  0  0
  -29.7897  -11.7368   17.5195 H   0  0  0  0  0  0
  -29.6443  -13.4640   17.7325 H   0  0  0  0  0  0
  -27.8853  -11.2877   18.9051 H   0  0  0  0  0  0
  -27.3819  -12.5394   17.8004 H   0  0  0  0  0  0
  -27.6421  -14.2568   19.4814 H   0  0  0  0  0  0
  -28.7124  -12.1570   21.4305 H   0  0  0  0  0  0
  -28.4239  -13.8365   21.8048 H   0  0  0  0  0  0
  -25.2766   -9.5687   22.4759 H   0  0  0  0  0  0
  -24.0005   -7.4640   22.7473 H   0  0  0  0  0  0
  -21.0847   -8.8781   19.8953 H   0  0  0  0  0  0
  -22.3703  -10.9678   19.6167 H   0  0  0  0  0  0
  -21.2009   -7.6148   23.9713 H   0  0  0  0  0  0
  -21.1482   -6.0524   25.9077 H   0  0  0  0  0  0
  -22.0598   -2.7608   23.2847 H   0  0  0  0  0  0
  -22.4097  -11.9878   22.4809 H   0  0  0  0  0  0
  -21.1090  -13.1230   22.2629 H   0  0  0  0  0  0
  -24.6515  -15.8454   20.5195 H   0  0  0  0  0  0
  -26.2673  -15.6333   20.0755 H   0  0  0  0  0  0
  -26.7187  -32.5396   23.1050 H   0  0  0  0  0  0
  -25.0006  -33.9669   25.0345 H   0  0  0  0  0  0
  -22.7225  -31.2971   21.3932 H   0  0  0  0  0  0
  -23.3747  -35.9627   23.3301 H   0  0  0  0  0  0
  -24.3577  -36.8935   22.2060 H   0  0  0  0  0  0
  -23.7247  -37.6494   23.6677 H   0  0  0  0  0  0
  -26.1073  -31.5282   20.6051 H   0  0  0  0  0  0
  -26.8479  -30.8174   22.0083 H   0  0  0  0  0  0
  -28.1084  -28.9292   21.2143 H   0  0  0  0  0  0
  -25.9678  -25.9046   18.9920 H   0  0  0  0  0  0
  -23.9801  -27.3008   18.9925 H   0  0  0  0  0  0
  -23.7686  -30.5825   19.4005 H   0  0  0  0  0  0
  -22.7626  -29.2390   19.8518 H   0  0  0  0  0  0
  -25.1293  -36.1918   25.0818 H   0  0  0  0  0  0
  -20.9964  -28.3289   24.1395 H   0  0  0  0  0  0
  -20.5679  -26.2314   23.3623 H   0  0  0  0  0  0
  -21.6637  -26.7449   22.1200 H   0  0  0  0  0  0
  -19.6920  -25.6300   21.1247 H   0  0  0  0  0  0
  -19.6687  -27.3199   20.6748 H   0  0  0  0  0  0
  -17.4194  -26.6673   21.4031 H   0  0  0  0  0  0
  -18.0328  -26.0073   22.9024 H   0  0  0  0  0  0
  -19.7936  -30.7264   24.2287 H   0  0  0  0  0  0
  -17.5019  -31.6276   24.5167 H   0  0  0  0  0  0
  -15.5352  -30.3011   23.7650 H   0  0  0  0  0  0
  -15.8660  -28.0835   22.7083 H   0  0  0  0  0  0
  -24.5895  -30.7063   25.7740 H   0  0  0  0  0  0
  -24.8898  -32.2878   26.4838 H   0  0  0  0  0  0
  -25.8023  -30.8891   27.0207 H   0  0  0  0  0  0
  -26.2941  -29.6711   24.1238 H   0  0  0  0  0  0
  -27.4052  -29.7268   25.4724 H   0  0  0  0  0  0
  -27.8809  -30.4261   23.9436 H   0  0  0  0  0  0
  -27.2651  -33.3628   26.2033 H   0  0  0  0  0  0
  -28.3857  -32.6869   25.0302 H   0  0  0  0  0  0
  -28.0711  -31.8462   26.5410 H   0  0  0  0  0  0
  -28.2584  -38.0101   24.7514 H   0  0  0  0  0  0
  -28.1082  -36.2629   24.6282 H   0  0  0  0  0  0
  -27.2295  -37.1442   25.8868 H   0  0  0  0  0  0
  -20.9404  -29.8761   21.6847 H   0  0  0  0  0  0
  -26.0173  -38.2844   24.1406 H   0  0  0  0  0  0
  -31.2910  -18.8690   17.4690 H   0  0  0  0  0  0
  -30.3067  -20.8523   18.5438 H   0  0  0  0  0  0
  -31.1071  -16.6470   18.4478 H   0  0  0  0  0  0
  -25.1603  -22.3574   20.0600 H   0  0  0  0  0  0
  -25.8429  -23.5468   18.9385 H   0  0  0  0  0  0
  -26.4421  -23.1501   21.9063 H   0  0  0  0  0  0
  -26.1934  -24.6812   21.0918 H   0  0  0  0  0  0
  -28.7048  -23.8205   21.5998 H   0  0  0  0  0  0
  -27.5657  -18.5191   21.9721 H   0  0  0  0  0  0
  -29.0190  -18.9684   22.8753 H   0  0  0  0  0  0
  -28.6858  -17.2824   22.5319 H   0  0  0  0  0  0
  -29.8452  -21.5738   21.4070 H   0  0  0  0  0  0
  -28.2818  -20.9032   21.6916 H   0  0  0  0  0  0
  -27.8538  -24.9071   18.7938 H   0  0  0  0  0  0
  -29.4464  -24.8936   19.3985 H   0  0  0  0  0  0
  -28.9623  -15.6563   21.1588 H   0  0  0  0  0  0
  1 25  1  0  0  0
  1 30  2  0  0  0
  1 85  1  0  0  0
  2  3  1  0  0  0
  2 25  1  0  0  0
  2 87  1  0  0  0
  2 88  1  0  0  0
  3  4  1  0  0  0
  3 89  1  0  0  0
  3 90  1  0  0  0
  4  5  1  0  0  0
  4 91  1  0  0  0
  4 92  1  0  0  0
  5  6  1  0  0  0
  5 26  1  0  0  0
  5 93  1  0  0  0
  6 25  1  0  0  0
  6 94  1  0  0  0
  6 95  1  0  0  0
  7  8  2  0  0  0
  7 26  1  0  0  0
  7 29  1  0  0  0
  8  9  1  0  0  0
  8 22  1  0  0  0
  9 10  1  0  0  0
  9 27  2  0  0  0
 10 11  2  0  0  0
 10 15  1  0  0  0
 11 12  1  0  0  0
 11 96  1  0  0  0
 12 13  2  0  0  0
 12 97  1  0  0  0
 13 14  1  0  0  0
 13 31  1  0  0  0
 14 15  2  0  0  0
 14 98  1  0  0  0
 15 99  1  0  0  0
 16 17  2  0  0  0
 16 21  1  0  0  0
 16 31  1  0  0  0
 17 18  1  0  0  0
 17100  1  0  0  0
 18 19  2  0  0  0
 18101  1  0  0  0
 19 20  1  0  0  0
 19 24  1  0  0  0
 20 21  2  0  0  0
 20102  1  0  0  0
 21 23  1  0  0  0
 22 28  1  0  0  0
 22 32  2  0  0  0
 26 27  1  0  0  0
 28103  1  0  0  0
 28104  1  0  0  0
 29105  1  0  0  0
 29106  1  0  0  0
 33 34  1  0  0  0
 33 66  1  0  0  0
 33 70  2  0  0  0
 34 36  1  0  0  0
 34 59  1  0  0  0
 34107  1  0  0  0
 35 44  2  0  0  0
 35 45  1  0  0  0
 35 68  1  0  0  0
 36 56  1  0  0  0
 36108  1  0  0  0
 37 39  1  0  0  0
 37 47  1  0  0  0
 37 66  1  0  0  0
 37109  1  0  0  0
 38 43  2  0  0  0
 38 46  1  0  0  0
 38 47  1  0  0  0
 39 64  1  0  0  0
 39 67  2  0  0  0
 40 52  1  0  0  0
 40 53  2  0  0  0
 40 58  1  0  0  0
 41110  1  0  0  0
 41111  1  0  0  0
 41112  1  0  0  0
 41 48  1  0  0  0
 42 43  1  0  0  0
 42 66  1  0  0  0
 42113  1  0  0  0
 42114  1  0  0  0
 43 44  1  0  0  0
 44115  1  0  0  0
 45 46  2  0  0  0
 45116  1  0  0  0
 46117  1  0  0  0
 47118  1  0  0  0
 47119  1  0  0  0
 48 56  1  0  0  0
 48 65  1  0  0  0
 48120  1  0  0  0
 49 50  1  0  0  0
 49 53  1  0  0  0
 49 64  1  0  0  0
 49121  1  0  0  0
 50 51  1  0  0  0
 50122  1  0  0  0
 50123  1  0  0  0
 51 52  1  0  0  0
 51124  1  0  0  0
 51125  1  0  0  0
 52126  1  0  0  0
 52127  1  0  0  0
 53 54  1  0  0  0
 54 55  2  0  0  0
 54128  1  0  0  0
 55 57  1  0  0  0
 55129  1  0  0  0
 56 69  2  0  0  0
 57 58  2  0  0  0
 57130  1  0  0  0
 58131  1  0  0  0
 59 60  1  0  0  0
 59 61  1  0  0  0
 59 62  1  0  0  0
 60132  1  0  0  0
 60133  1  0  0  0
 60134  1  0  0  0
 61135  1  0  0  0
 61136  1  0  0  0
 61137  1  0  0  0
 62138  1  0  0  0
 62139  1  0  0  0
 62140  1  0  0  0
 63 65  1  0  0  0
 63141  1  0  0  0
 63142  1  0  0  0
 63143  1  0  0  0
 64144  1  0  0  0
 65145  1  0  0  0
 68 83  1  0  0  0
 71 72  2  0  0  0
 71 73  1  0  0  0
 71146  1  0  0  0
 72 74  1  0  0  0
 72147  1  0  0  0
 73 76  2  0  0  0
 73148  1  0  0  0
 74 75  2  0  0  0
 74 82  1  0  0  0
 75 76  1  0  0  0
 75 81  1  0  0  0
 76 85  1  0  0  0
 77 78  1  0  0  0
 77 84  1  0  0  0
 77 86  2  0  0  0
 78 79  1  0  0  0
 78149  1  0  0  0
 78150  1  0  0  0
 79 80  1  0  0  0
 79151  1  0  0  0
 79152  1  0  0  0
 80 83  1  0  0  0
 80 84  1  0  0  0
 80153  1  0  0  0
 81154  1  0  0  0
 81155  1  0  0  0
 81156  1  0  0  0
 82 84  1  0  0  0
 82157  1  0  0  0
 82158  1  0  0  0
 83159  1  0  0  0
 83160  1  0  0  0
 85161  1  0  0  0
M  ISO  4   1 100  68 101  83 101  85 100
M  END
> <chiral flag>
0

> <version>
0

> <s_m_source_file>
/data/baiqing/PycharmProjects/Reinvent-master-3.2/result/LINK_invent/BTK/process_docking_weight1_custom_product_contain_oxygen_bond_distance_aromatic_linkinvent_7_9_3/rearranged_h_0061.sdf

> <i_m_source_file_index>
81

> <r_mmod_Potential_Energy-OPLS-2005>
199.21223449707

> <r_mmod_Stretch_Energy-OPLS-2005>
130.4951171875

> <r_mmod_Bend_Energy-OPLS-2005>
215.628219604492

> <r_mmod_Torsional_Energy-OPLS-2005>
266.37744140625

> <r_mmod_Improper_Torsional_Energy-OPLS-2005>
9.20562553405762

> <r_mmod_Van_der_Waal_Energy-OPLS-2005>
133.131576538086

> <r_mmod_Electrostatic_Energy-OPLS-2005>
-402.205200195312

> <r_mmod_Solvation_Energy-OPLS-2005>
-231.405975341797

> <b_mmod_Minimization_Converged-OPLS-2005>
0

> <r_mmod_RMS_Derivative-OPLS-2005>
0.651593267917633

$$$$
82
                    3D
 Structure written by MMmdl.
160168  0  0  1  0            999 V2000
  -30.7199  -14.4360   20.6492 C   0  0  0  0  0  0
  -30.3849  -12.3066   19.4125 C   0  0  0  0  0  0
  -29.4754  -12.5610   18.1954 C   0  0  0  0  0  0
  -27.9987  -12.3887   18.5994 C   0  0  0  0  0  0
  -27.6469  -13.2178   19.8643 C   0  0  2  0  0  0
  -28.6792  -12.9813   20.9895 C   0  0  0  0  0  0
  -25.2487  -13.8212   20.5655 C   0  0  0  0  0  0
  -24.1762  -13.0438   20.9130 C   0  0  0  0  0  0
  -24.6355  -11.6926   20.8646 C   0  0  0  0  0  0
  -23.9010  -10.4331   21.0342 C   0  0  0  0  0  0
  -24.3612   -9.4288   21.9132 C   0  0  0  0  0  0
  -23.6333   -8.2305   22.0740 C   0  0  0  0  0  0
  -22.4304   -8.0297   21.3550 C   0  0  0  0  0  0
  -21.9893   -9.0223   20.4626 C   0  0  0  0  0  0
  -22.7188  -10.2123   20.3000 C   0  0  0  0  0  0
  -21.6886   -6.0743   22.5276 C   0  0  0  0  0  0
  -21.4054   -6.5641   23.8216 C   0  0  0  0  0  0
  -21.3656   -5.6788   24.9157 C   0  0  0  0  0  0
  -21.6045   -4.3055   24.7193 C   0  0  0  0  0  0
  -21.8839   -3.8152   23.4319 C   0  0  0  0  0  0
  -21.9215   -4.6978   22.3382 C   0  0  0  0  0  0
  -22.7801  -13.5219   21.1782 C   0  0  0  0  0  0
  -22.1674   -4.2183   21.0961 F   0  0  0  0  0  0
  -21.5608   -3.4520   25.7694 F   0  0  0  0  0  0
  -30.0210  -13.2803   20.4532 N   0  0  0  0  0  0
  -26.2918  -12.9390   20.3262 N   0  0  0  0  0  0
  -25.9275  -11.6542   20.5695 N   0  0  0  0  0  0
  -22.0474  -12.8201   22.0359 N   0  0  0  0  0  0
  -25.4124  -15.1940   20.4229 N   0  0  0  0  0  0
  -31.8019  -14.6632   20.1002 O   0  0  0  0  0  0
  -21.6687   -6.8874   21.4249 O   0  0  0  0  0  0
  -22.3491  -14.5530   20.6637 O   0  0  0  0  0  0
  -24.6185  -31.8631   23.1999 C   0  0  0  0  0  0
  -25.9063  -32.4770   23.8325 C   0  0  1  0  0  0
  -27.2296  -27.3956   20.1051 C   0  0  0  0  0  0
  -25.5908  -33.8580   24.2264 N   0  0  0  0  0  0
  -23.4123  -30.4817   21.5414 C   0  0  2  0  0  0
  -24.8570  -28.9374   20.1142 C   0  0  0  0  0  0
  -22.7436  -29.4629   22.4924 C   0  0  0  0  0  0
  -18.0299  -28.1364   22.8469 C   0  0  0  0  0  0
  -24.1487  -36.7293   23.2638 C   0  0  0  0  0  0
  -25.9445  -30.8141   21.3614 C   0  0  0  0  0  0
  -26.0173  -29.4461   20.7101 C   0  0  0  0  0  0
  -27.2124  -28.6860   20.6912 C   0  0  0  0  0  0
  -26.0512  -26.9033   19.5115 C   0  0  0  0  0  0
  -24.8681  -27.6680   19.5122 C   0  0  0  0  0  0
  -23.6233  -29.8108   20.1578 C   0  0  0  0  0  0
  -25.4109  -36.3073   24.0317 C   0  0  1  0  0  0
  -20.5880  -28.3655   23.1276 C   0  0  2  0  0  0
  -20.6763  -26.9387   22.5398 C   0  0  0  0  0  0
  -19.5763  -26.6372   21.5177 C   0  0  0  0  0  0
  -18.1946  -26.7908   22.1592 C   0  0  0  0  0  0
  -19.1540  -28.8826   23.2861 C   0  0  0  0  0  0
  -18.9476  -30.1437   23.8873 C   0  0  0  0  0  0
  -17.6477  -30.6570   24.0559 C   0  0  0  0  0  0
  -25.9041  -34.9441   23.5095 C   0  0  0  0  0  0
  -16.5366  -29.9075   23.6324 C   0  0  0  0  0  0
  -16.7272  -28.6497   23.0334 C   0  0  0  0  0  0
  -26.4478  -31.6555   25.0667 C   0  0  0  0  0  0
  -25.3758  -31.3685   26.1415 C   0  0  0  0  0  0
  -27.0308  -30.2990   24.6065 C   0  0  0  0  0  0
  -27.6036  -32.4263   25.7470 C   0  0  0  0  0  0
  -27.5574  -37.1802   24.8459 C   0  0  0  0  0  0
  -21.4152  -29.3028   22.3684 N   0  0  0  0  0  0
  -26.4278  -37.3759   23.9404 N   0  0  0  0  0  0
  -24.6770  -31.0689   22.0926 N   0  0  0  0  0  0
  -23.4182  -28.8195   23.2998 O   0  0  0  0  0  0
  -28.3897  -26.6462   20.0812 O   0  0  0  0  0  0
  -26.5623  -34.8907   22.4667 O   0  0  0  0  0  0
  -23.5366  -32.1383   23.7380 O   0  0  0  0  0  0
  -30.4010  -18.5394   20.3053 C   0  0  0  0  0  0
  -29.9258  -19.8106   19.9008 C   0  0  0  0  0  0
  -28.1605  -19.6704   21.5597 C   0  0  0  0  0  0
  -29.8107  -17.8545   21.3947 C   0  0  0  0  0  0
  -28.6532  -18.4153   21.9959 C   0  0  0  0  0  0
  -28.8191  -20.4058   20.5501 C   0  0  0  0  0  0
  -28.9697  -22.8518   20.0039 C   0  0  0  0  0  0
  -27.9610  -17.7292   23.1669 C   0  0  0  0  0  0
  -32.0084  -16.8736   22.2334 C   0  0  0  0  0  0
  -28.1510  -24.1264   19.6570 C   0  0  0  0  0  0
  -28.3319  -25.3154   20.6513 C   0  0  0  0  0  0
  -30.5064  -16.6272   22.0149 C   0  0  2  0  0  0
  -28.2976  -21.6910   20.1859 N   0  0  0  0  0  0
  -30.1136  -15.3156   21.4668 N   0  0  0  0  0  0
  -30.1998  -22.9285   20.0815 O   0  0  0  0  0  0
  -31.4360  -12.3550   19.1374 H   0  0  0  0  0  0
  -30.2211  -11.2942   19.7839 H   0  0  0  0  0  0
  -29.7294  -11.8933   17.3717 H   0  0  0  0  0  0
  -29.6336  -13.5747   17.8215 H   0  0  0  0  0  0
  -27.8165  -11.3283   18.7809 H   0  0  0  0  0  0
  -27.3453  -12.6692   17.7751 H   0  0  0  0  0  0
  -27.6891  -14.2673   19.5740 H   0  0  0  0  0  0
  -28.6384  -11.9432   21.3198 H   0  0  0  0  0  0
  -28.4152  -13.5703   21.8670 H   0  0  0  0  0  0
  -25.2741   -9.5875   22.4683 H   0  0  0  0  0  0
  -24.0106   -7.4726   22.7474 H   0  0  0  0  0  0
  -21.0811   -8.8658   19.8923 H   0  0  0  0  0  0
  -22.3567  -10.9616   19.6096 H   0  0  0  0  0  0
  -21.2093   -7.6160   23.9725 H   0  0  0  0  0  0
  -21.1428   -6.0502   25.9056 H   0  0  0  0  0  0
  -22.0627   -2.7610   23.2775 H   0  0  0  0  0  0
  -22.4141  -11.9894   22.4757 H   0  0  0  0  0  0
  -21.1058  -13.1182   22.2551 H   0  0  0  0  0  0
  -24.6365  -15.8326   20.5590 H   0  0  0  0  0  0
  -26.2771  -15.6599   20.1718 H   0  0  0  0  0  0
  -26.7164  -32.5456   23.1106 H   0  0  0  0  0  0
  -25.0006  -33.9726   25.0382 H   0  0  0  0  0  0
  -22.7030  -31.2991   21.3941 H   0  0  0  0  0  0
  -23.3716  -35.9661   23.3286 H   0  0  0  0  0  0
  -24.3586  -36.8917   22.2057 H   0  0  0  0  0  0
  -23.7265  -37.6505   23.6662 H   0  0  0  0  0  0
  -26.0675  -31.5754   20.5892 H   0  0  0  0  0  0
  -26.8301  -30.8642   21.9823 H   0  0  0  0  0  0
  -28.1144  -29.0804   21.1370 H   0  0  0  0  0  0
  -26.0438  -25.9345   19.0353 H   0  0  0  0  0  0
  -23.9778  -27.2671   19.0458 H   0  0  0  0  0  0
  -23.7456  -30.5808   19.3931 H   0  0  0  0  0  0
  -22.7491  -29.2303   19.8582 H   0  0  0  0  0  0
  -25.1302  -36.1908   25.0805 H   0  0  0  0  0  0
  -20.9979  -28.3225   24.1378 H   0  0  0  0  0  0
  -20.5574  -26.2300   23.3595 H   0  0  0  0  0  0
  -21.6662  -26.7360   22.1290 H   0  0  0  0  0  0
  -19.6914  -25.6292   21.1192 H   0  0  0  0  0  0
  -19.6681  -27.3190   20.6708 H   0  0  0  0  0  0
  -17.4218  -26.6622   21.3990 H   0  0  0  0  0  0
  -18.0350  -26.0063   22.8983 H   0  0  0  0  0  0
  -19.7956  -30.7261   24.2216 H   0  0  0  0  0  0
  -17.5039  -31.6243   24.5177 H   0  0  0  0  0  0
  -15.5372  -30.2970   23.7660 H   0  0  0  0  0  0
  -15.8676  -28.0809   22.7031 H   0  0  0  0  0  0
  -24.5945  -30.6995   25.7766 H   0  0  0  0  0  0
  -24.8943  -32.2865   26.4807 H   0  0  0  0  0  0
  -25.8131  -30.8904   27.0192 H   0  0  0  0  0  0
  -26.2860  -29.6740   24.1113 H   0  0  0  0  0  0
  -27.4068  -29.7198   25.4508 H   0  0  0  0  0  0
  -27.8691  -30.4260   23.9209 H   0  0  0  0  0  0
  -27.2638  -33.3549   26.2062 H   0  0  0  0  0  0
  -28.3882  -32.6833   25.0345 H   0  0  0  0  0  0
  -28.0665  -31.8366   26.5392 H   0  0  0  0  0  0
  -28.2593  -38.0100   24.7522 H   0  0  0  0  0  0
  -28.1079  -36.2637   24.6277 H   0  0  0  0  0  0
  -27.2304  -37.1444   25.8865 H   0  0  0  0  0  0
  -20.9281  -29.8810   21.6967 H   0  0  0  0  0  0
  -26.0137  -38.2818   24.1413 H   0  0  0  0  0  0
  -31.2665  -18.1252   19.8058 H   0  0  0  0  0  0
  -30.4306  -20.3290   19.0980 H   0  0  0  0  0  0
  -27.2989  -20.0996   22.0485 H   0  0  0  0  0  0
  -26.9898  -18.1665   23.4023 H   0  0  0  0  0  0
  -28.5853  -17.8148   24.0576 H   0  0  0  0  0  0
  -27.8006  -16.6703   22.9596 H   0  0  0  0  0  0
  -32.4310  -16.1609   22.9400 H   0  0  0  0  0  0
  -32.1582  -17.8692   22.6603 H   0  0  0  0  0  0
  -32.5781  -16.8259   21.3089 H   0  0  0  0  0  0
  -27.0932  -23.8687   19.5847 H   0  0  0  0  0  0
  -28.4520  -24.4333   18.6546 H   0  0  0  0  0  0
  -29.2667  -25.1927   21.1998 H   0  0  0  0  0  0
  -27.5524  -25.2621   21.4114 H   0  0  0  0  0  0
  -30.1528  -16.5501   23.0403 H   0  0  0  0  0  0
  -27.2897  -21.7653   20.1686 H   0  0  0  0  0  0
  -29.2332  -14.9731   21.8157 H   0  0  0  0  0  0
  1 25  1  0  0  0
  1 30  2  0  0  0
  1 84  1  0  0  0
  2  3  1  0  0  0
  2 25  1  0  0  0
  2 86  1  0  0  0
  2 87  1  0  0  0
  3  4  1  0  0  0
  3 88  1  0  0  0
  3 89  1  0  0  0
  4  5  1  0  0  0
  4 90  1  0  0  0
  4 91  1  0  0  0
  5  6  1  0  0  0
  5 26  1  0  0  0
  5 92  1  0  0  0
  6 25  1  0  0  0
  6 93  1  0  0  0
  6 94  1  0  0  0
  7  8  2  0  0  0
  7 26  1  0  0  0
  7 29  1  0  0  0
  8  9  1  0  0  0
  8 22  1  0  0  0
  9 10  1  0  0  0
  9 27  2  0  0  0
 10 11  2  0  0  0
 10 15  1  0  0  0
 11 12  1  0  0  0
 11 95  1  0  0  0
 12 13  2  0  0  0
 12 96  1  0  0  0
 13 14  1  0  0  0
 13 31  1  0  0  0
 14 15  2  0  0  0
 14 97  1  0  0  0
 15 98  1  0  0  0
 16 17  2  0  0  0
 16 21  1  0  0  0
 16 31  1  0  0  0
 17 18  1  0  0  0
 17 99  1  0  0  0
 18 19  2  0  0  0
 18100  1  0  0  0
 19 20  1  0  0  0
 19 24  1  0  0  0
 20 21  2  0  0  0
 20101  1  0  0  0
 21 23  1  0  0  0
 22 28  1  0  0  0
 22 32  2  0  0  0
 26 27  1  0  0  0
 28102  1  0  0  0
 28103  1  0  0  0
 29104  1  0  0  0
 29105  1  0  0  0
 33 34  1  0  0  0
 33 66  1  0  0  0
 33 70  2  0  0  0
 34 36  1  0  0  0
 34 59  1  0  0  0
 34106  1  0  0  0
 35 44  2  0  0  0
 35 45  1  0  0  0
 35 68  1  0  0  0
 36 56  1  0  0  0
 36107  1  0  0  0
 37 39  1  0  0  0
 37 47  1  0  0  0
 37 66  1  0  0  0
 37108  1  0  0  0
 38 43  2  0  0  0
 38 46  1  0  0  0
 38 47  1  0  0  0
 39 64  1  0  0  0
 39 67  2  0  0  0
 40 52  1  0  0  0
 40 53  2  0  0  0
 40 58  1  0  0  0
 41109  1  0  0  0
 41110  1  0  0  0
 41111  1  0  0  0
 41 48  1  0  0  0
 42 43  1  0  0  0
 42 66  1  0  0  0
 42112  1  0  0  0
 42113  1  0  0  0
 43 44  1  0  0  0
 44114  1  0  0  0
 45 46  2  0  0  0
 45115  1  0  0  0
 46116  1  0  0  0
 47117  1  0  0  0
 47118  1  0  0  0
 48 56  1  0  0  0
 48 65  1  0  0  0
 48119  1  0  0  0
 49 50  1  0  0  0
 49 53  1  0  0  0
 49 64  1  0  0  0
 49120  1  0  0  0
 50 51  1  0  0  0
 50121  1  0  0  0
 50122  1  0  0  0
 51 52  1  0  0  0
 51123  1  0  0  0
 51124  1  0  0  0
 52125  1  0  0  0
 52126  1  0  0  0
 53 54  1  0  0  0
 54 55  2  0  0  0
 54127  1  0  0  0
 55 57  1  0  0  0
 55128  1  0  0  0
 56 69  2  0  0  0
 57 58  2  0  0  0
 57129  1  0  0  0
 58130  1  0  0  0
 59 60  1  0  0  0
 59 61  1  0  0  0
 59 62  1  0  0  0
 60131  1  0  0  0
 60132  1  0  0  0
 60133  1  0  0  0
 61134  1  0  0  0
 61135  1  0  0  0
 61136  1  0  0  0
 62137  1  0  0  0
 62138  1  0  0  0
 62139  1  0  0  0
 63 65  1  0  0  0
 63140  1  0  0  0
 63141  1  0  0  0
 63142  1  0  0  0
 64143  1  0  0  0
 65144  1  0  0  0
 68 81  1  0  0  0
 71 72  2  0  0  0
 71 74  1  0  0  0
 71145  1  0  0  0
 72 76  1  0  0  0
 72146  1  0  0  0
 73 75  1  0  0  0
 73 76  2  0  0  0
 73147  1  0  0  0
 74 75  2  0  0  0
 74 82  1  0  0  0
 75 78  1  0  0  0
 76 83  1  0  0  0
 77 80  1  0  0  0
 77 83  1  0  0  0
 77 85  2  0  0  0
 78148  1  0  0  0
 78149  1  0  0  0
 78150  1  0  0  0
 79151  1  0  0  0
 79152  1  0  0  0
 79153  1  0  0  0
 79 82  1  0  0  0
 80 81  1  0  0  0
 80154  1  0  0  0
 80155  1  0  0  0
 81156  1  0  0  0
 81157  1  0  0  0
 82 84  1  0  0  0
 82158  1  0  0  0
 83159  1  0  0  0
 84160  1  0  0  0
M  ISO  4   1 100  68 101  81 101  84 100
M  END
> <chiral flag>
0

> <version>
0

> <s_m_source_file>
/data/baiqing/PycharmProjects/Reinvent-master-3.2/result/LINK_invent/BTK/process_docking_weight1_custom_product_contain_oxygen_bond_distance_aromatic_linkinvent_7_9_3/rearranged_h_0061.sdf

> <i_m_source_file_index>
82

> <r_mmod_Potential_Energy-OPLS-2005>
-96.3324432373047

> <r_mmod_Stretch_Energy-OPLS-2005>
43.0502090454102

> <r_mmod_Bend_Energy-OPLS-2005>
120.543296813965

> <r_mmod_Torsional_Energy-OPLS-2005>
239.562576293945

> <r_mmod_Improper_Torsional_Energy-OPLS-2005>
2.8354127407074

> <r_mmod_Van_der_Waal_Energy-OPLS-2005>
149.827117919922

> <r_mmod_Electrostatic_Energy-OPLS-2005>
-432.069610595703

> <r_mmod_Solvation_Energy-OPLS-2005>
-233.253372192383

> <b_mmod_Minimization_Converged-OPLS-2005>
0

> <r_mmod_RMS_Derivative-OPLS-2005>
5.37161016464233

$$$$
83
                    3D
 Structure written by MMmdl.
169178  0  0  1  0            999 V2000
  -30.7612  -14.3619   20.7045 C   0  0  0  0  0  0
  -30.4252  -12.2967   19.3872 C   0  0  0  0  0  0
  -29.4851  -12.5332   18.1899 C   0  0  0  0  0  0
  -28.0102  -12.3819   18.6076 C   0  0  0  0  0  0
  -27.6695  -13.1987   19.8808 C   0  0  2  0  0  0
  -28.7063  -12.9249   20.9911 C   0  0  0  0  0  0
  -25.2625  -13.8150   20.5667 C   0  0  0  0  0  0
  -24.1860  -13.0436   20.9151 C   0  0  0  0  0  0
  -24.6404  -11.6899   20.8714 C   0  0  0  0  0  0
  -23.9062  -10.4289   21.0397 C   0  0  0  0  0  0
  -24.3611   -9.4211   21.9183 C   0  0  0  0  0  0
  -23.6286   -8.2248   22.0760 C   0  0  0  0  0  0
  -22.4272   -8.0283   21.3545 C   0  0  0  0  0  0
  -21.9912   -9.0247   20.4641 C   0  0  0  0  0  0
  -22.7236  -10.2128   20.3045 C   0  0  0  0  0  0
  -21.6849   -6.0734   22.5274 C   0  0  0  0  0  0
  -21.4011   -6.5637   23.8206 C   0  0  0  0  0  0
  -21.3659   -5.6792   24.9171 C   0  0  0  0  0  0
  -21.6046   -4.3056   24.7222 C   0  0  0  0  0  0
  -21.8820   -3.8145   23.4343 C   0  0  0  0  0  0
  -21.9190   -4.6962   22.3399 C   0  0  0  0  0  0
  -22.7884  -13.5242   21.1820 C   0  0  0  0  0  0
  -22.1662   -4.2152   21.0974 F   0  0  0  0  0  0
  -21.5628   -3.4543   25.7739 F   0  0  0  0  0  0
  -30.0547  -13.2253   20.4646 N   0  0  0  0  0  0
  -26.3066  -12.9307   20.3374 N   0  0  0  0  0  0
  -25.9325  -11.6468   20.5742 N   0  0  0  0  0  0
  -22.0514  -12.8227   22.0358 N   0  0  0  0  0  0
  -25.4364  -15.1869   20.4102 N   0  0  0  0  0  0
  -31.7648  -14.6810   20.0583 O   0  0  0  0  0  0
  -21.6633   -6.8883   21.4242 O   0  0  0  0  0  0
  -22.3573  -14.5556   20.6680 O   0  0  0  0  0  0
  -24.6137  -31.8711   23.2123 C   0  0  0  0  0  0
  -25.9046  -32.4842   23.8407 C   0  0  1  0  0  0
  -27.2387  -27.4519   20.0653 C   0  0  0  0  0  0
  -25.5916  -33.8640   24.2337 N   0  0  0  0  0  0
  -23.3991  -30.4967   21.5532 C   0  0  2  0  0  0
  -24.8433  -28.9645   20.1175 C   0  0  0  0  0  0
  -22.7390  -29.4690   22.5001 C   0  0  0  0  0  0
  -18.0271  -28.1389   22.8504 C   0  0  0  0  0  0
  -24.1489  -36.7313   23.2633 C   0  0  0  0  0  0
  -25.9276  -30.8363   21.3654 C   0  0  0  0  0  0
  -26.0025  -29.4699   20.7164 C   0  0  0  0  0  0
  -27.1964  -28.7138   20.7014 C   0  0  0  0  0  0
  -26.0541  -26.9635   19.4632 C   0  0  0  0  0  0
  -24.8613  -27.7056   19.4976 C   0  0  0  0  0  0
  -23.6064  -29.8316   20.1673 C   0  0  0  0  0  0
  -25.4115  -36.3122   24.0329 C   0  0  1  0  0  0
  -20.5857  -28.3681   23.1324 C   0  0  2  0  0  0
  -20.6769  -26.9417   22.5420 C   0  0  0  0  0  0
  -19.5745  -26.6395   21.5223 C   0  0  0  0  0  0
  -18.1912  -26.7941   22.1617 C   0  0  0  0  0  0
  -19.1517  -28.8846   23.2916 C   0  0  0  0  0  0
  -18.9454  -30.1455   23.8928 C   0  0  0  0  0  0
  -17.6461  -30.6601   24.0575 C   0  0  0  0  0  0
  -25.9047  -34.9488   23.5127 C   0  0  0  0  0  0
  -16.5353  -29.9106   23.6332 C   0  0  0  0  0  0
  -16.7265  -28.6517   23.0361 C   0  0  0  0  0  0
  -26.4476  -31.6604   25.0725 C   0  0  0  0  0  0
  -25.3737  -31.3665   26.1457 C   0  0  0  0  0  0
  -27.0324  -30.3060   24.6072 C   0  0  0  0  0  0
  -27.6046  -32.4312   25.7505 C   0  0  0  0  0  0
  -27.5585  -37.1809   24.8457 C   0  0  0  0  0  0
  -21.4121  -29.3061   22.3739 N   0  0  0  0  0  0
  -26.4296  -37.3811   23.9411 N   0  0  0  0  0  0
  -24.6652  -31.0814   22.1028 N   0  0  0  0  0  0
  -23.4169  -28.8225   23.3032 O   0  0  0  0  0  0
  -28.4356  -26.7596   20.0623 O   0  0  0  0  0  0
  -26.5606  -34.8930   22.4685 O   0  0  0  0  0  0
  -23.5332  -32.1470   23.7525 O   0  0  0  0  0  0
  -31.4876  -18.6371   21.9590 C   0  0  0  0  0  0
  -31.3184  -17.3255   21.4718 C   0  0  0  0  0  0
  -30.2534  -18.0511   23.9707 C   0  0  0  0  0  0
  -30.9472  -19.0097   23.2066 C   0  0  0  0  0  0
  -30.0669  -16.7414   23.4850 C   0  0  0  0  0  0
  -30.5982  -16.3668   22.2263 C   0  0  0  0  0  0
  -29.0157  -22.7025   21.3582 C   0  0  0  0  0  0
  -30.2424  -22.0967   22.0539 C   0  0  0  0  0  0
  -28.1802  -24.3233   19.8596 C   0  0  0  0  0  0
  -27.6457  -22.0392   21.6445 C   0  0  0  0  0  0
  -27.6584  -20.8948   22.6665 C   0  0  0  0  0  0
  -28.6844  -21.1497   23.7683 C   0  0  2  0  0  0
  -29.2712  -15.7543   24.3245 C   0  0  0  0  0  0
  -28.3316  -22.3539   24.6650 C   0  0  0  0  0  0
  -31.0583  -20.4472   23.7012 C   0  0  0  0  0  0
  -28.6151  -25.6375   19.1862 C   0  0  0  0  0  0
  -29.2009  -23.7238   20.5902 N   0  0  0  0  0  0
  -30.0042  -21.3042   23.1349 N   0  0  0  0  0  0
  -30.3203  -15.0480   21.7696 N   0  0  0  0  0  0
  -31.3800  -22.3111   21.6117 O   0  0  0  0  0  0
  -27.0292  -23.9232   19.6759 O   0  0  0  0  0  0
  -31.4657  -12.4127   19.0777 H   0  0  0  0  0  0
  -30.3379  -11.2688   19.7428 H   0  0  0  0  0  0
  -29.7176  -11.8344   17.3850 H   0  0  0  0  0  0
  -29.6502  -13.5334   17.7851 H   0  0  0  0  0  0
  -27.8201  -11.3226   18.7854 H   0  0  0  0  0  0
  -27.3544  -12.6746   17.7870 H   0  0  0  0  0  0
  -27.7323  -14.2547   19.6166 H   0  0  0  0  0  0
  -28.6686  -11.8756   21.2877 H   0  0  0  0  0  0
  -28.4381  -13.4803   21.8897 H   0  0  0  0  0  0
  -25.2758   -9.5686   22.4759 H   0  0  0  0  0  0
  -23.9988   -7.4648   22.7493 H   0  0  0  0  0  0
  -21.0843   -8.8760   19.8948 H   0  0  0  0  0  0
  -22.3699  -10.9660   19.6146 H   0  0  0  0  0  0
  -21.2004   -7.6143   23.9709 H   0  0  0  0  0  0
  -21.1479   -6.0522   25.9072 H   0  0  0  0  0  0
  -22.0600   -2.7609   23.2837 H   0  0  0  0  0  0
  -22.4103  -11.9857   22.4707 H   0  0  0  0  0  0
  -21.1132  -13.1252   22.2564 H   0  0  0  0  0  0
  -24.6761  -15.8476   20.5294 H   0  0  0  0  0  0
  -26.3006  -15.6258   20.1166 H   0  0  0  0  0  0
  -26.7115  -32.5567   23.1173 H   0  0  0  0  0  0
  -25.0075  -33.9824   25.0485 H   0  0  0  0  0  0
  -22.6884  -31.3146   21.4155 H   0  0  0  0  0  0
  -23.3770  -35.9624   23.3294 H   0  0  0  0  0  0
  -24.3578  -36.8939   22.2048 H   0  0  0  0  0  0
  -23.7220  -37.6504   23.6657 H   0  0  0  0  0  0
  -26.0353  -31.5996   20.5931 H   0  0  0  0  0  0
  -26.8175  -30.8942   21.9802 H   0  0  0  0  0  0
  -28.0928  -29.1032   21.1647 H   0  0  0  0  0  0
  -26.0175  -26.0171   18.9499 H   0  0  0  0  0  0
  -23.9695  -27.3092   19.0323 H   0  0  0  0  0  0
  -23.7154  -30.6084   19.4090 H   0  0  0  0  0  0
  -22.7293  -29.2537   19.8710 H   0  0  0  0  0  0
  -25.1287  -36.1986   25.0822 H   0  0  0  0  0  0
  -20.9962  -28.3258   24.1438 H   0  0  0  0  0  0
  -20.5699  -26.2293   23.3609 H   0  0  0  0  0  0
  -21.6642  -26.7475   22.1200 H   0  0  0  0  0  0
  -19.6911  -25.6311   21.1240 H   0  0  0  0  0  0
  -19.6679  -27.3227   20.6771 H   0  0  0  0  0  0
  -17.4192  -26.6733   21.4002 H   0  0  0  0  0  0
  -18.0286  -26.0065   22.8985 H   0  0  0  0  0  0
  -19.7935  -30.7267   24.2298 H   0  0  0  0  0  0
  -17.5020  -31.6280   24.5177 H   0  0  0  0  0  0
  -15.5359  -30.3026   23.7625 H   0  0  0  0  0  0
  -15.8666  -28.0851   22.7056 H   0  0  0  0  0  0
  -24.5957  -30.6972   25.7771 H   0  0  0  0  0  0
  -24.8878  -32.2795   26.4902 H   0  0  0  0  0  0
  -25.8090  -30.8839   27.0213 H   0  0  0  0  0  0
  -26.2871  -29.6815   24.1135 H   0  0  0  0  0  0
  -27.4142  -29.7292   25.4506 H   0  0  0  0  0  0
  -27.8672  -30.4412   23.9191 H   0  0  0  0  0  0
  -27.2683  -33.3622   26.2074 H   0  0  0  0  0  0
  -28.3874  -32.6844   25.0347 H   0  0  0  0  0  0
  -28.0689  -31.8433   26.5431 H   0  0  0  0  0  0
  -28.2566  -38.0145   24.7563 H   0  0  0  0  0  0
  -28.1117  -36.2673   24.6211 H   0  0  0  0  0  0
  -27.2301  -37.1381   25.8859 H   0  0  0  0  0  0
  -20.9277  -29.8800   21.6977 H   0  0  0  0  0  0
  -26.0181  -38.2880   24.1441 H   0  0  0  0  0  0
  -32.0203  -19.3644   21.3616 H   0  0  0  0  0  0
  -31.7299  -17.0894   20.5017 H   0  0  0  0  0  0
  -29.8345  -18.3312   24.9275 H   0  0  0  0  0  0
  -27.2295  -21.6508   20.7154 H   0  0  0  0  0  0
  -26.9612  -22.8056   22.0080 H   0  0  0  0  0  0
  -27.9122  -19.9612   22.1599 H   0  0  0  0  0  0
  -26.6625  -20.7434   23.0848 H   0  0  0  0  0  0
  -28.6803  -20.2728   24.4152 H   0  0  0  0  0  0
  -29.0117  -16.1743   25.2971 H   0  0  0  0  0  0
  -29.8473  -14.8456   24.5014 H   0  0  0  0  0  0
  -28.3418  -15.4856   23.8208 H   0  0  0  0  0  0
  -28.2840  -23.2930   24.1135 H   0  0  0  0  0  0
  -29.0684  -22.4797   25.4587 H   0  0  0  0  0  0
  -27.3622  -22.2098   25.1430 H   0  0  0  0  0  0
  -32.0586  -20.8250   23.4809 H   0  0  0  0  0  0
  -30.9896  -20.4661   24.7900 H   0  0  0  0  0  0
  -28.1065  -25.7701   18.2303 H   0  0  0  0  0  0
  -29.6755  -25.5748   18.9377 H   0  0  0  0  0  0
  -29.6000  -14.5643   22.2816 H   0  0  0  0  0  0
  1 25  1  0  0  0
  1 30  2  0  0  0
  1 89  1  0  0  0
  2  3  1  0  0  0
  2 25  1  0  0  0
  2 92  1  0  0  0
  2 93  1  0  0  0
  3  4  1  0  0  0
  3 94  1  0  0  0
  3 95  1  0  0  0
  4  5  1  0  0  0
  4 96  1  0  0  0
  4 97  1  0  0  0
  5  6  1  0  0  0
  5 26  1  0  0  0
  5 98  1  0  0  0
  6 25  1  0  0  0
  6 99  1  0  0  0
  6100  1  0  0  0
  7  8  2  0  0  0
  7 26  1  0  0  0
  7 29  1  0  0  0
  8  9  1  0  0  0
  8 22  1  0  0  0
  9 10  1  0  0  0
  9 27  2  0  0  0
 10 11  2  0  0  0
 10 15  1  0  0  0
 11 12  1  0  0  0
 11101  1  0  0  0
 12 13  2  0  0  0
 12102  1  0  0  0
 13 14  1  0  0  0
 13 31  1  0  0  0
 14 15  2  0  0  0
 14103  1  0  0  0
 15104  1  0  0  0
 16 17  2  0  0  0
 16 21  1  0  0  0
 16 31  1  0  0  0
 17 18  1  0  0  0
 17105  1  0  0  0
 18 19  2  0  0  0
 18106  1  0  0  0
 19 20  1  0  0  0
 19 24  1  0  0  0
 20 21  2  0  0  0
 20107  1  0  0  0
 21 23  1  0  0  0
 22 28  1  0  0  0
 22 32  2  0  0  0
 26 27  1  0  0  0
 28108  1  0  0  0
 28109  1  0  0  0
 29110  1  0  0  0
 29111  1  0  0  0
 33 34  1  0  0  0
 33 66  1  0  0  0
 33 70  2  0  0  0
 34 36  1  0  0  0
 34 59  1  0  0  0
 34112  1  0  0  0
 35 44  2  0  0  0
 35 45  1  0  0  0
 35 68  1  0  0  0
 36 56  1  0  0  0
 36113  1  0  0  0
 37 39  1  0  0  0
 37 47  1  0  0  0
 37 66  1  0  0  0
 37114  1  0  0  0
 38 43  2  0  0  0
 38 46  1  0  0  0
 38 47  1  0  0  0
 39 64  1  0  0  0
 39 67  2  0  0  0
 40 52  1  0  0  0
 40 53  2  0  0  0
 40 58  1  0  0  0
 41115  1  0  0  0
 41116  1  0  0  0
 41117  1  0  0  0
 41 48  1  0  0  0
 42 43  1  0  0  0
 42 66  1  0  0  0
 42118  1  0  0  0
 42119  1  0  0  0
 43 44  1  0  0  0
 44120  1  0  0  0
 45 46  2  0  0  0
 45121  1  0  0  0
 46122  1  0  0  0
 47123  1  0  0  0
 47124  1  0  0  0
 48 56  1  0  0  0
 48 65  1  0  0  0
 48125  1  0  0  0
 49 50  1  0  0  0
 49 53  1  0  0  0
 49 64  1  0  0  0
 49126  1  0  0  0
 50 51  1  0  0  0
 50127  1  0  0  0
 50128  1  0  0  0
 51 52  1  0  0  0
 51129  1  0  0  0
 51130  1  0  0  0
 52131  1  0  0  0
 52132  1  0  0  0
 53 54  1  0  0  0
 54 55  2  0  0  0
 54133  1  0  0  0
 55 57  1  0  0  0
 55134  1  0  0  0
 56 69  2  0  0  0
 57 58  2  0  0  0
 57135  1  0  0  0
 58136  1  0  0  0
 59 60  1  0  0  0
 59 61  1  0  0  0
 59 62  1  0  0  0
 60137  1  0  0  0
 60138  1  0  0  0
 60139  1  0  0  0
 61140  1  0  0  0
 61141  1  0  0  0
 61142  1  0  0  0
 62143  1  0  0  0
 62144  1  0  0  0
 62145  1  0  0  0
 63 65  1  0  0  0
 63146  1  0  0  0
 63147  1  0  0  0
 63148  1  0  0  0
 64149  1  0  0  0
 65150  1  0  0  0
 68 86  1  0  0  0
 71 72  2  0  0  0
 71 74  1  0  0  0
 71151  1  0  0  0
 72 76  1  0  0  0
 72152  1  0  0  0
 73 74  2  0  0  0
 73 75  1  0  0  0
 73153  1  0  0  0
 74 85  1  0  0  0
 75 76  2  0  0  0
 75 83  1  0  0  0
 76 89  1  0  0  0
 77 78  1  0  0  0
 77 80  1  0  0  0
 77 87  2  0  0  0
 78 88  1  0  0  0
 78 90  2  0  0  0
 79 86  1  0  0  0
 79 87  1  0  0  0
 79 91  2  0  0  0
 80 81  1  0  0  0
 80154  1  0  0  0
 80155  1  0  0  0
 81 82  1  0  0  0
 81156  1  0  0  0
 81157  1  0  0  0
 82 84  1  0  0  0
 82 88  1  0  0  0
 82158  1  0  0  0
 83159  1  0  0  0
 83160  1  0  0  0
 83161  1  0  0  0
 84162  1  0  0  0
 84163  1  0  0  0
 84164  1  0  0  0
 85 88  1  0  0  0
 85165  1  0  0  0
 85166  1  0  0  0
 86167  1  0  0  0
 86168  1  0  0  0
 89169  1  0  0  0
M  ISO  4   1 100  68 101  86 101  89 100
M  END
> <chiral flag>
0

> <version>
0

> <s_m_source_file>
/data/baiqing/PycharmProjects/Reinvent-master-3.2/result/LINK_invent/BTK/process_docking_weight1_custom_product_contain_oxygen_bond_distance_aromatic_linkinvent_7_9_3/rearranged_h_0061.sdf

> <i_m_source_file_index>
83

> <r_mmod_Potential_Energy-OPLS-2005>
37.7780723571777

> <r_mmod_Stretch_Energy-OPLS-2005>
44.585033416748

> <r_mmod_Bend_Energy-OPLS-2005>
132.807800292969

> <r_mmod_Torsional_Energy-OPLS-2005>
237.251327514648

> <r_mmod_Improper_Torsional_Energy-OPLS-2005>
2.70696902275085

> <r_mmod_Van_der_Waal_Energy-OPLS-2005>
193.550933837891

> <r_mmod_Electrostatic_Energy-OPLS-2005>
-352.384460449219

> <r_mmod_Solvation_Energy-OPLS-2005>
-228.763565063477

> <b_mmod_Minimization_Converged-OPLS-2005>
0

> <r_mmod_RMS_Derivative-OPLS-2005>
1.29354882240295

$$$$
84
                    3D
 Structure written by MMmdl.
160169  0  0  1  0            999 V2000
  -30.6532  -14.5365   20.5724 C   0  0  0  0  0  0
  -30.4400  -12.3471   19.4280 C   0  0  0  0  0  0
  -29.5031  -12.5232   18.2124 C   0  0  0  0  0  0
  -28.0249  -12.3678   18.6241 C   0  0  0  0  0  0
  -27.6653  -13.2060   19.8784 C   0  0  2  0  0  0
  -28.7075  -12.9848   20.9987 C   0  0  0  0  0  0
  -25.2614  -13.8148   20.5685 C   0  0  0  0  0  0
  -24.1861  -13.0433   20.9193 C   0  0  0  0  0  0
  -24.6408  -11.6896   20.8746 C   0  0  0  0  0  0
  -23.9056  -10.4294   21.0411 C   0  0  0  0  0  0
  -24.3612   -9.4209   21.9182 C   0  0  0  0  0  0
  -23.6303   -8.2233   22.0744 C   0  0  0  0  0  0
  -22.4281   -8.0276   21.3532 C   0  0  0  0  0  0
  -21.9910   -9.0251   20.4631 C   0  0  0  0  0  0
  -22.7230  -10.2138   20.3048 C   0  0  0  0  0  0
  -21.6846   -6.0743   22.5282 C   0  0  0  0  0  0
  -21.4012   -6.5648   23.8218 C   0  0  0  0  0  0
  -21.3666   -5.6798   24.9179 C   0  0  0  0  0  0
  -21.6049   -4.3058   24.7229 C   0  0  0  0  0  0
  -21.8819   -3.8149   23.4345 C   0  0  0  0  0  0
  -21.9190   -4.6972   22.3404 C   0  0  0  0  0  0
  -22.7882  -13.5238   21.1857 C   0  0  0  0  0  0
  -22.1651   -4.2157   21.0979 F   0  0  0  0  0  0
  -21.5635   -3.4534   25.7733 F   0  0  0  0  0  0
  -30.0369  -13.3232   20.4548 N   0  0  0  0  0  0
  -26.3049  -12.9312   20.3364 N   0  0  0  0  0  0
  -25.9335  -11.6475   20.5765 N   0  0  0  0  0  0
  -22.0509  -12.8233   22.0403 N   0  0  0  0  0  0
  -25.4333  -15.1858   20.4072 N   0  0  0  0  0  0
  -31.7721  -14.7621   20.0989 O   0  0  0  0  0  0
  -21.6636   -6.8880   21.4239 O   0  0  0  0  0  0
  -22.3575  -14.5559   20.6719 O   0  0  0  0  0  0
  -24.6179  -31.8638   23.2081 C   0  0  0  0  0  0
  -25.9058  -32.4800   23.8393 C   0  0  1  0  0  0
  -27.2459  -27.4104   20.1078 C   0  0  0  0  0  0
  -25.5907  -33.8601   24.2327 N   0  0  0  0  0  0
  -23.4098  -30.4849   21.5478 C   0  0  2  0  0  0
  -24.8608  -28.9433   20.1180 C   0  0  0  0  0  0
  -22.7431  -29.4636   22.4982 C   0  0  0  0  0  0
  -18.0275  -28.1383   22.8493 C   0  0  0  0  0  0
  -24.1481  -36.7307   23.2641 C   0  0  0  0  0  0
  -25.9402  -30.8236   21.3641 C   0  0  0  0  0  0
  -26.0211  -29.4540   20.7148 C   0  0  0  0  0  0
  -27.2195  -28.6966   20.7027 C   0  0  0  0  0  0
  -26.0696  -26.9160   19.5100 C   0  0  0  0  0  0
  -24.8808  -27.6741   19.5115 C   0  0  0  0  0  0
  -23.6221  -29.8126   20.1645 C   0  0  0  0  0  0
  -25.4101  -36.3101   24.0343 C   0  0  1  0  0  0
  -20.5867  -28.3673   23.1312 C   0  0  2  0  0  0
  -20.6767  -26.9407   22.5422 C   0  0  0  0  0  0
  -19.5752  -26.6387   21.5214 C   0  0  0  0  0  0
  -18.1925  -26.7932   22.1615 C   0  0  0  0  0  0
  -19.1527  -28.8844   23.2896 C   0  0  0  0  0  0
  -18.9446  -30.1445   23.8910 C   0  0  0  0  0  0
  -17.6446  -30.6584   24.0563 C   0  0  0  0  0  0
  -25.9029  -34.9467   23.5130 C   0  0  0  0  0  0
  -16.5339  -29.9083   23.6326 C   0  0  0  0  0  0
  -16.7261  -28.6500   23.0351 C   0  0  0  0  0  0
  -26.4482  -31.6583   25.0724 C   0  0  0  0  0  0
  -25.3749  -31.3685   26.1466 C   0  0  0  0  0  0
  -27.0321  -30.3030   24.6115 C   0  0  0  0  0  0
  -27.6070  -32.4296   25.7473 C   0  0  0  0  0  0
  -27.5581  -37.1800   24.8465 C   0  0  0  0  0  0
  -21.4152  -29.3034   22.3715 N   0  0  0  0  0  0
  -26.4285  -37.3790   23.9421 N   0  0  0  0  0  0
  -24.6745  -31.0721   22.0988 N   0  0  0  0  0  0
  -23.4177  -28.8187   23.3053 O   0  0  0  0  0  0
  -28.3932  -26.6375   20.0796 O   0  0  0  0  0  0
  -26.5595  -34.8922   22.4691 O   0  0  0  0  0  0
  -23.5357  -32.1387   23.7458 O   0  0  0  0  0  0
  -30.7648  -19.1834   20.6781 C   0  0  0  0  0  0
  -28.3858  -18.9116   20.9292 C   0  0  0  0  0  0
  -30.9434  -17.7739   20.7830 C   0  0  0  0  0  0
  -28.5586  -17.5159   21.0575 C   0  0  0  0  0  0
  -29.4809  -19.7961   20.7403 C   0  0  0  0  0  0
  -29.8322  -16.9147   20.9777 C   0  0  0  0  0  0
  -30.0084  -22.1079   19.8219 C   0  0  0  0  0  0
  -30.7173  -21.7000   18.7534 C   0  0  0  0  0  0
  -29.9060  -23.6217   20.1263 C   0  0  0  0  0  0
  -28.1364  -23.1753   21.7748 C   0  0  0  0  0  0
  -28.0816  -21.6989   21.3431 C   0  0  0  0  0  0
  -28.5232  -24.1160   20.6235 C   0  0  1  0  0  0
  -28.4773  -25.6137   21.0967 C   0  0  0  0  0  0
  -29.2907  -21.2193   20.6503 N   0  0  0  0  0  0
  -29.8945  -15.4889   21.1663 N   0  0  0  0  0  0
  -31.4799  -12.4786   19.1250 H   0  0  0  0  0  0
  -30.3699  -11.3331   19.8244 H   0  0  0  0  0  0
  -29.7533  -11.7980   17.4365 H   0  0  0  0  0  0
  -29.6577  -13.5093   17.7702 H   0  0  0  0  0  0
  -27.8471  -11.3105   18.8245 H   0  0  0  0  0  0
  -27.3699  -12.6344   17.7937 H   0  0  0  0  0  0
  -27.7075  -14.2546   19.5831 H   0  0  0  0  0  0
  -28.6992  -11.9443   21.3266 H   0  0  0  0  0  0
  -28.4507  -13.5629   21.8869 H   0  0  0  0  0  0
  -25.2752   -9.5687   22.4765 H   0  0  0  0  0  0
  -24.0009   -7.4627   22.7473 H   0  0  0  0  0  0
  -21.0827   -8.8782   19.8946 H   0  0  0  0  0  0
  -22.3690  -10.9690   19.6163 H   0  0  0  0  0  0
  -21.1997   -7.6155   23.9730 H   0  0  0  0  0  0
  -21.1487   -6.0519   25.9090 H   0  0  0  0  0  0
  -22.0593   -2.7613   23.2838 H   0  0  0  0  0  0
  -22.4105  -11.9874   22.4770 H   0  0  0  0  0  0
  -21.1136  -13.1281   22.2624 H   0  0  0  0  0  0
  -24.6643  -15.8384   20.5130 H   0  0  0  0  0  0
  -26.2716  -15.6145   20.0371 H   0  0  0  0  0  0
  -26.7138  -32.5510   23.1166 H   0  0  0  0  0  0
  -25.0083  -33.9759   25.0493 H   0  0  0  0  0  0
  -22.7001  -31.3019   21.4034 H   0  0  0  0  0  0
  -23.3747  -35.9635   23.3290 H   0  0  0  0  0  0
  -24.3591  -36.8930   22.2059 H   0  0  0  0  0  0
  -23.7223  -37.6507   23.6658 H   0  0  0  0  0  0
  -26.0526  -31.5876   20.5937 H   0  0  0  0  0  0
  -26.8274  -30.8806   21.9827 H   0  0  0  0  0  0
  -28.1180  -29.0915   21.1549 H   0  0  0  0  0  0
  -26.0757  -25.9400   19.0453 H   0  0  0  0  0  0
  -23.9896  -27.2746   19.0464 H   0  0  0  0  0  0
  -23.7323  -30.5848   19.4020 H   0  0  0  0  0  0
  -22.7470  -29.2311   19.8685 H   0  0  0  0  0  0
  -25.1273  -36.1963   25.0836 H   0  0  0  0  0  0
  -20.9951  -28.3231   24.1436 H   0  0  0  0  0  0
  -20.5662  -26.2278   23.3611 H   0  0  0  0  0  0
  -21.6631  -26.7441   22.1210 H   0  0  0  0  0  0
  -19.6907  -25.6298   21.1238 H   0  0  0  0  0  0
  -19.6698  -27.3199   20.6745 H   0  0  0  0  0  0
  -17.4201  -26.6689   21.4009 H   0  0  0  0  0  0
  -18.0310  -26.0068   22.8997 H   0  0  0  0  0  0
  -19.7923  -30.7256   24.2288 H   0  0  0  0  0  0
  -17.5003  -31.6271   24.5156 H   0  0  0  0  0  0
  -15.5342  -30.2987   23.7649 H   0  0  0  0  0  0
  -15.8658  -28.0818   22.7067 H   0  0  0  0  0  0
  -24.5949  -30.6994   25.7806 H   0  0  0  0  0  0
  -24.8895  -32.2821   26.4902 H   0  0  0  0  0  0
  -25.8097  -30.8875   27.0234 H   0  0  0  0  0  0
  -26.2867  -29.6775   24.1181 H   0  0  0  0  0  0
  -27.4105  -29.7282   25.4581 H   0  0  0  0  0  0
  -27.8695  -30.4354   23.9260 H   0  0  0  0  0  0
  -27.2721  -33.3605   26.2060 H   0  0  0  0  0  0
  -28.3866  -32.6830   25.0278 H   0  0  0  0  0  0
  -28.0753  -31.8405   26.5369 H   0  0  0  0  0  0
  -28.2582  -38.0114   24.7527 H   0  0  0  0  0  0
  -28.1088  -36.2643   24.6252 H   0  0  0  0  0  0
  -27.2310  -37.1397   25.8872 H   0  0  0  0  0  0
  -20.9321  -29.8741   21.6918 H   0  0  0  0  0  0
  -26.0169  -38.2863   24.1438 H   0  0  0  0  0  0
  -31.6422  -19.8030   20.5586 H   0  0  0  0  0  0
  -27.3734  -19.2832   20.9753 H   0  0  0  0  0  0
  -31.9438  -17.3664   20.7349 H   0  0  0  0  0  0
  -27.6813  -16.9053   21.2154 H   0  0  0  0  0  0
  -31.2350  -22.4087   18.1229 H   0  0  0  0  0  0
  -30.7864  -20.6620   18.4629 H   0  0  0  0  0  0
  -30.1734  -24.1944   19.2369 H   0  0  0  0  0  0
  -30.6730  -23.8559   20.8666 H   0  0  0  0  0  0
  -28.8466  -23.2861   22.5952 H   0  0  0  0  0  0
  -27.1623  -23.4580   22.1764 H   0  0  0  0  0  0
  -27.2247  -21.5530   20.6832 H   0  0  0  0  0  0
  -27.8971  -21.1061   22.2407 H   0  0  0  0  0  0
  -27.7927  -23.9904   19.8236 H   0  0  0  0  0  0
  -29.3629  -25.8224   21.6972 H   0  0  0  0  0  0
  -27.6416  -25.7342   21.7901 H   0  0  0  0  0  0
  -29.0541  -15.0916   21.5590 H   0  0  0  0  0  0
  1 25  1  0  0  0
  1 30  2  0  0  0
  1 85  1  0  0  0
  2  3  1  0  0  0
  2 25  1  0  0  0
  2 86  1  0  0  0
  2 87  1  0  0  0
  3  4  1  0  0  0
  3 88  1  0  0  0
  3 89  1  0  0  0
  4  5  1  0  0  0
  4 90  1  0  0  0
  4 91  1  0  0  0
  5  6  1  0  0  0
  5 26  1  0  0  0
  5 92  1  0  0  0
  6 25  1  0  0  0
  6 93  1  0  0  0
  6 94  1  0  0  0
  7  8  2  0  0  0
  7 26  1  0  0  0
  7 29  1  0  0  0
  8  9  1  0  0  0
  8 22  1  0  0  0
  9 10  1  0  0  0
  9 27  2  0  0  0
 10 11  2  0  0  0
 10 15  1  0  0  0
 11 12  1  0  0  0
 11 95  1  0  0  0
 12 13  2  0  0  0
 12 96  1  0  0  0
 13 14  1  0  0  0
 13 31  1  0  0  0
 14 15  2  0  0  0
 14 97  1  0  0  0
 15 98  1  0  0  0
 16 17  2  0  0  0
 16 21  1  0  0  0
 16 31  1  0  0  0
 17 18  1  0  0  0
 17 99  1  0  0  0
 18 19  2  0  0  0
 18100  1  0  0  0
 19 20  1  0  0  0
 19 24  1  0  0  0
 20 21  2  0  0  0
 20101  1  0  0  0
 21 23  1  0  0  0
 22 28  1  0  0  0
 22 32  2  0  0  0
 26 27  1  0  0  0
 28102  1  0  0  0
 28103  1  0  0  0
 29104  1  0  0  0
 29105  1  0  0  0
 33 34  1  0  0  0
 33 66  1  0  0  0
 33 70  2  0  0  0
 34 36  1  0  0  0
 34 59  1  0  0  0
 34106  1  0  0  0
 35 44  2  0  0  0
 35 45  1  0  0  0
 35 68  1  0  0  0
 36 56  1  0  0  0
 36107  1  0  0  0
 37 39  1  0  0  0
 37 47  1  0  0  0
 37 66  1  0  0  0
 37108  1  0  0  0
 38 43  2  0  0  0
 38 46  1  0  0  0
 38 47  1  0  0  0
 39 64  1  0  0  0
 39 67  2  0  0  0
 40 52  1  0  0  0
 40 53  2  0  0  0
 40 58  1  0  0  0
 41109  1  0  0  0
 41110  1  0  0  0
 41111  1  0  0  0
 41 48  1  0  0  0
 42 43  1  0  0  0
 42 66  1  0  0  0
 42112  1  0  0  0
 42113  1  0  0  0
 43 44  1  0  0  0
 44114  1  0  0  0
 45 46  2  0  0  0
 45115  1  0  0  0
 46116  1  0  0  0
 47117  1  0  0  0
 47118  1  0  0  0
 48 56  1  0  0  0
 48 65  1  0  0  0
 48119  1  0  0  0
 49 50  1  0  0  0
 49 53  1  0  0  0
 49 64  1  0  0  0
 49120  1  0  0  0
 50 51  1  0  0  0
 50121  1  0  0  0
 50122  1  0  0  0
 51 52  1  0  0  0
 51123  1  0  0  0
 51124  1  0  0  0
 52125  1  0  0  0
 52126  1  0  0  0
 53 54  1  0  0  0
 54 55  2  0  0  0
 54127  1  0  0  0
 55 57  1  0  0  0
 55128  1  0  0  0
 56 69  2  0  0  0
 57 58  2  0  0  0
 57129  1  0  0  0
 58130  1  0  0  0
 59 60  1  0  0  0
 59 61  1  0  0  0
 59 62  1  0  0  0
 60131  1  0  0  0
 60132  1  0  0  0
 60133  1  0  0  0
 61134  1  0  0  0
 61135  1  0  0  0
 61136  1  0  0  0
 62137  1  0  0  0
 62138  1  0  0  0
 62139  1  0  0  0
 63 65  1  0  0  0
 63140  1  0  0  0
 63141  1  0  0  0
 63142  1  0  0  0
 64143  1  0  0  0
 65144  1  0  0  0
 68 83  1  0  0  0
 71 73  2  0  0  0
 71 75  1  0  0  0
 71145  1  0  0  0
 72 74  1  0  0  0
 72 75  2  0  0  0
 72146  1  0  0  0
 73 76  1  0  0  0
 73147  1  0  0  0
 74 76  2  0  0  0
 74148  1  0  0  0
 75 84  1  0  0  0
 76 85  1  0  0  0
 77 78  2  0  0  0
 77 79  1  0  0  0
 77 84  1  0  0  0
 78149  1  0  0  0
 78150  1  0  0  0
 79 82  1  0  0  0
 79151  1  0  0  0
 79152  1  0  0  0
 80 81  1  0  0  0
 80 82  1  0  0  0
 80153  1  0  0  0
 80154  1  0  0  0
 81 84  1  0  0  0
 81155  1  0  0  0
 81156  1  0  0  0
 82 83  1  0  0  0
 82157  1  0  0  0
 83158  1  0  0  0
 83159  1  0  0  0
 85160  1  0  0  0
M  ISO  4   1 100  68 101  83 101  85 100
M  END
> <chiral flag>
0

> <version>
0

> <s_m_source_file>
/data/baiqing/PycharmProjects/Reinvent-master-3.2/result/LINK_invent/BTK/process_docking_weight1_custom_product_contain_oxygen_bond_distance_aromatic_linkinvent_7_9_3/rearranged_h_0061.sdf

> <i_m_source_file_index>
84

> <r_mmod_Potential_Energy-OPLS-2005>
-7.82501745223999

> <r_mmod_Stretch_Energy-OPLS-2005>
52.3782272338867

> <r_mmod_Bend_Energy-OPLS-2005>
119.217964172363

> <r_mmod_Torsional_Energy-OPLS-2005>
261.406677246094

> <r_mmod_Improper_Torsional_Energy-OPLS-2005>
4.50410270690918

> <r_mmod_Van_der_Waal_Energy-OPLS-2005>
160.05632019043

> <r_mmod_Electrostatic_Energy-OPLS-2005>
-417.387023925781

> <r_mmod_Solvation_Energy-OPLS-2005>
-206.601898193359

> <b_mmod_Minimization_Converged-OPLS-2005>
0

> <r_mmod_RMS_Derivative-OPLS-2005>
1.59069848060608

$$$$
85
                    3D
 Structure written by MMmdl.
166175  0  0  1  0            999 V2000
  -30.7176  -14.3666   20.7145 C   0  0  0  0  0  0
  -30.4197  -12.3062   19.3769 C   0  0  0  0  0  0
  -29.4711  -12.5300   18.1849 C   0  0  0  0  0  0
  -27.9980  -12.3776   18.6105 C   0  0  0  0  0  0
  -27.6630  -13.1893   19.8896 C   0  0  2  0  0  0
  -28.6996  -12.8973   20.9953 C   0  0  0  0  0  0
  -25.2614  -13.8123   20.5743 C   0  0  0  0  0  0
  -24.1841  -13.0439   20.9195 C   0  0  0  0  0  0
  -24.6363  -11.6882   20.8730 C   0  0  0  0  0  0
  -23.9040  -10.4275   21.0378 C   0  0  0  0  0  0
  -24.3609   -9.4195   21.9152 C   0  0  0  0  0  0
  -23.6287   -8.2235   22.0741 C   0  0  0  0  0  0
  -22.4265   -8.0271   21.3539 C   0  0  0  0  0  0
  -21.9888   -9.0237   20.4643 C   0  0  0  0  0  0
  -22.7207  -10.2117   20.3042 C   0  0  0  0  0  0
  -21.6848   -6.0734   22.5279 C   0  0  0  0  0  0
  -21.4021   -6.5637   23.8214 C   0  0  0  0  0  0
  -21.3661   -5.6797   24.9174 C   0  0  0  0  0  0
  -21.6038   -4.3058   24.7235 C   0  0  0  0  0  0
  -21.8817   -3.8151   23.4355 C   0  0  0  0  0  0
  -21.9189   -4.6963   22.3404 C   0  0  0  0  0  0
  -22.7869  -13.5254   21.1858 C   0  0  0  0  0  0
  -22.1657   -4.2145   21.0988 F   0  0  0  0  0  0
  -21.5626   -3.4539   25.7746 F   0  0  0  0  0  0
  -30.0312  -13.2267   20.4522 N   0  0  0  0  0  0
  -26.3017  -12.9265   20.3432 N   0  0  0  0  0  0
  -25.9279  -11.6438   20.5781 N   0  0  0  0  0  0
  -22.0545  -12.8247   22.0434 N   0  0  0  0  0  0
  -25.4440  -15.1851   20.4289 N   0  0  0  0  0  0
  -31.7387  -14.6898   20.0974 O   0  0  0  0  0  0
  -21.6640   -6.8862   21.4236 O   0  0  0  0  0  0
  -22.3552  -14.5546   20.6675 O   0  0  0  0  0  0
  -24.6154  -31.8712   23.2134 C   0  0  0  0  0  0
  -25.9059  -32.4816   23.8434 C   0  0  1  0  0  0
  -27.2192  -27.4775   20.0856 C   0  0  0  0  0  0
  -25.5898  -33.8624   24.2313 N   0  0  0  0  0  0
  -23.3990  -30.5088   21.5490 C   0  0  2  0  0  0
  -24.8323  -28.9768   20.1101 C   0  0  0  0  0  0
  -22.7388  -29.4784   22.4896 C   0  0  0  0  0  0
  -18.0324  -28.1376   22.8242 C   0  0  0  0  0  0
  -24.1482  -36.7365   23.2647 C   0  0  0  0  0  0
  -25.9240  -30.8642   21.3443 C   0  0  0  0  0  0
  -25.9964  -29.5012   20.6904 C   0  0  0  0  0  0
  -27.1946  -28.7645   20.6670 C   0  0  0  0  0  0
  -26.0439  -26.9551   19.5124 C   0  0  0  0  0  0
  -24.8445  -27.6972   19.5228 C   0  0  0  0  0  0
  -23.6062  -29.8533   20.1583 C   0  0  0  0  0  0
  -25.4055  -36.3067   24.0341 C   0  0  1  0  0  0
  -20.5924  -28.3663   23.1170 C   0  0  2  0  0  0
  -20.6862  -26.9466   22.5201 C   0  0  0  0  0  0
  -19.5944  -26.6558   21.4867 C   0  0  0  0  0  0
  -18.2002  -26.8029   22.1090 C   0  0  0  0  0  0
  -19.1568  -28.8774   23.2816 C   0  0  0  0  0  0
  -18.9460  -30.1279   23.9009 C   0  0  0  0  0  0
  -17.6480  -30.6427   24.0618 C   0  0  0  0  0  0
  -25.9032  -34.9476   23.5112 C   0  0  0  0  0  0
  -16.5383  -29.9001   23.6262 C   0  0  0  0  0  0
  -16.7305  -28.6512   23.0084 C   0  0  0  0  0  0
  -26.4476  -31.6579   25.0772 C   0  0  0  0  0  0
  -25.3793  -31.3757   26.1577 C   0  0  0  0  0  0
  -27.0237  -30.2975   24.6145 C   0  0  0  0  0  0
  -27.6008  -32.4302   25.7576 C   0  0  0  0  0  0
  -27.5537  -37.1845   24.8464 C   0  0  0  0  0  0
  -21.4150  -29.3022   22.3509 N   0  0  0  0  0  0
  -26.4204  -37.3760   23.9464 N   0  0  0  0  0  0
  -24.6663  -31.0893   22.0987 N   0  0  0  0  0  0
  -23.4146  -28.8431   23.3057 O   0  0  0  0  0  0
  -28.3545  -26.7117   20.0806 O   0  0  0  0  0  0
  -26.5598  -34.8919   22.4660 O   0  0  0  0  0  0
  -23.5338  -32.1459   23.7536 O   0  0  0  0  0  0
  -27.5397  -19.3138   22.4105 C   0  0  0  0  0  0
  -28.3897  -18.2253   22.6888 C   0  0  0  0  0  0
  -28.4504  -19.4272   20.1670 C   0  0  0  0  0  0
  -29.3089  -18.3361   20.4354 C   0  0  0  0  0  0
  -27.6283  -20.0026   21.1757 C   0  0  0  0  0  0
  -29.3454  -17.7941   21.7448 C   0  0  0  0  0  0
  -26.8698  -22.0807   22.2095 C   0  0  0  0  0  0
  -27.3304  -23.3743   22.3339 C   0  0  0  0  0  0
  -27.1578  -22.0324   19.8659 C   0  0  0  0  0  0
  -27.8398  -23.4501   19.9895 C   0  0  0  0  0  0
  -30.2135  -17.8303   19.3252 C   0  0  0  0  0  0
  -30.1657  -27.1716   21.5803 C   0  0  0  0  0  0
  -29.1580  -24.8838   21.4678 C   0  0  0  0  0  0
  -28.8540  -26.3942   21.3779 C   0  0  2  0  0  0
  -27.0797  -21.3360   21.0317 N   0  0  0  0  0  0
  -28.0163  -23.9562   21.2422 N   0  0  0  0  0  0
  -30.1828  -15.1396   21.7426 N   0  0  0  0  0  0
  -27.2457  -24.2152   23.2532 O   0  5  0  0  0  0
  -26.7442  -21.6240   18.7729 O   0  0  0  0  0  0
  -28.2743  -23.9944   18.9673 O   0  0  0  0  0  0
  -31.9528  -17.0545   21.7296 O   0  0  0  0  0  0
  -30.5729  -16.6017   23.7937 O   0  0  0  0  0  0
  -30.6601  -16.6765   22.3224 S   0  0  0  0  0  0
  -31.4526  -12.4534   19.0635 H   0  0  0  0  0  0
  -30.3674  -11.2760   19.7308 H   0  0  0  0  0  0
  -29.7032  -11.8250   17.3859 H   0  0  0  0  0  0
  -29.6268  -13.5264   17.7673 H   0  0  0  0  0  0
  -27.8051  -11.3175   18.7808 H   0  0  0  0  0  0
  -27.3361  -12.6673   17.7933 H   0  0  0  0  0  0
  -27.7333  -14.2474   19.6387 H   0  0  0  0  0  0
  -28.6741  -11.8425   21.2753 H   0  0  0  0  0  0
  -28.4338  -13.4231   21.9128 H   0  0  0  0  0  0
  -25.2757   -9.5664   22.4714 H   0  0  0  0  0  0
  -23.9986   -7.4632   22.7463 H   0  0  0  0  0  0
  -21.0812   -8.8762   19.8953 H   0  0  0  0  0  0
  -22.3659  -10.9662   19.6163 H   0  0  0  0  0  0
  -21.2026   -7.6147   23.9716 H   0  0  0  0  0  0
  -21.1484   -6.0530   25.9076 H   0  0  0  0  0  0
  -22.0598   -2.7618   23.2863 H   0  0  0  0  0  0
  -22.4218  -11.9899   22.4757 H   0  0  0  0  0  0
  -21.1158  -13.1230   22.2677 H   0  0  0  0  0  0
  -24.6947  -15.8475   20.5959 H   0  0  0  0  0  0
  -26.3222  -15.6303   20.1957 H   0  0  0  0  0  0
  -26.7191  -32.5543   23.1272 H   0  0  0  0  0  0
  -24.9930  -33.9826   25.0372 H   0  0  0  0  0  0
  -22.6927  -31.3278   21.4106 H   0  0  0  0  0  0
  -23.3658  -35.9788   23.3251 H   0  0  0  0  0  0
  -24.3668  -36.9007   22.2093 H   0  0  0  0  0  0
  -23.7344  -37.6613   23.6671 H   0  0  0  0  0  0
  -26.0255  -31.6287   20.5709 H   0  0  0  0  0  0
  -26.8201  -30.9257   21.9538 H   0  0  0  0  0  0
  -28.0951  -29.1810   21.0894 H   0  0  0  0  0  0
  -26.0508  -25.9645   19.0782 H   0  0  0  0  0  0
  -23.9428  -27.2830   19.0881 H   0  0  0  0  0  0
  -23.7468  -30.6433   19.4169 H   0  0  0  0  0  0
  -22.7216  -29.3092   19.8335 H   0  0  0  0  0  0
  -25.1234  -36.1853   25.0821 H   0  0  0  0  0  0
  -21.0084  -28.3185   24.1257 H   0  0  0  0  0  0
  -20.5793  -26.2277   23.3315 H   0  0  0  0  0  0
  -21.6790  -26.7665   22.1002 H   0  0  0  0  0  0
  -19.7260  -25.6570   21.0667 H   0  0  0  0  0  0
  -19.6989  -27.3579   20.6555 H   0  0  0  0  0  0
  -17.4490  -26.7081   21.3247 H   0  0  0  0  0  0
  -18.0070  -26.0033   22.8238 H   0  0  0  0  0  0
  -19.7901  -30.6991   24.2639 H   0  0  0  0  0  0
  -17.5006  -31.6072   24.5306 H   0  0  0  0  0  0
  -15.5400  -30.2900   23.7616 H   0  0  0  0  0  0
  -15.8717  -28.1004   22.6521 H   0  0  0  0  0  0
  -24.5779  -30.7316   25.7984 H   0  0  0  0  0  0
  -24.9287  -32.2996   26.5195 H   0  0  0  0  0  0
  -25.8147  -30.8784   27.0243 H   0  0  0  0  0  0
  -26.2830  -29.6858   24.0998 H   0  0  0  0  0  0
  -27.3752  -29.7052   25.4604 H   0  0  0  0  0  0
  -27.8749  -30.4240   23.9456 H   0  0  0  0  0  0
  -27.2499  -33.3450   26.2340 H   0  0  0  0  0  0
  -28.3702  -32.7106   25.0403 H   0  0  0  0  0  0
  -28.0814  -31.8363   26.5361 H   0  0  0  0  0  0
  -28.2485  -38.0188   24.7375 H   0  0  0  0  0  0
  -28.1001  -36.2679   24.6218 H   0  0  0  0  0  0
  -27.2352  -37.1509   25.8903 H   0  0  0  0  0  0
  -20.9368  -29.8427   21.6424 H   0  0  0  0  0  0
  -26.0004  -38.2781   24.1472 H   0  0  0  0  0  0
  -26.9007  -19.6608   23.2072 H   0  0  0  0  0  0
  -28.3589  -17.7812   23.6748 H   0  0  0  0  0  0
  -28.5236  -19.8813   19.1906 H   0  0  0  0  0  0
  -26.3070  -21.5858   22.9862 H   0  0  0  0  0  0
  -30.0736  -18.3923   18.4000 H   0  0  0  0  0  0
  -30.0036  -16.7779   19.1259 H   0  0  0  0  0  0
  -31.2617  -17.9313   19.5963 H   0  0  0  0  0  0
  -30.6552  -26.8899   22.5150 H   0  0  0  0  0  0
  -30.0278  -28.2513   21.6027 H   0  0  0  0  0  0
  -30.8647  -26.9551   20.7694 H   0  0  0  0  0  0
  -29.5789  -24.6816   22.4535 H   0  0  0  0  0  0
  -29.9737  -24.6473   20.7778 H   0  0  0  0  0  0
  -28.1448  -26.6672   22.1630 H   0  0  0  0  0  0
  -29.3494  -14.8139   22.2231 H   0  0  0  0  0  0
  1 25  1  0  0  0
  1 30  2  0  0  0
  1 87  1  0  0  0
  2  3  1  0  0  0
  2 25  1  0  0  0
  2 94  1  0  0  0
  2 95  1  0  0  0
  3  4  1  0  0  0
  3 96  1  0  0  0
  3 97  1  0  0  0
  4  5  1  0  0  0
  4 98  1  0  0  0
  4 99  1  0  0  0
  5  6  1  0  0  0
  5 26  1  0  0  0
  5100  1  0  0  0
  6 25  1  0  0  0
  6101  1  0  0  0
  6102  1  0  0  0
  7  8  2  0  0  0
  7 26  1  0  0  0
  7 29  1  0  0  0
  8  9  1  0  0  0
  8 22  1  0  0  0
  9 10  1  0  0  0
  9 27  2  0  0  0
 10 11  2  0  0  0
 10 15  1  0  0  0
 11 12  1  0  0  0
 11103  1  0  0  0
 12 13  2  0  0  0
 12104  1  0  0  0
 13 14  1  0  0  0
 13 31  1  0  0  0
 14 15  2  0  0  0
 14105  1  0  0  0
 15106  1  0  0  0
 16 17  2  0  0  0
 16 21  1  0  0  0
 16 31  1  0  0  0
 17 18  1  0  0  0
 17107  1  0  0  0
 18 19  2  0  0  0
 18108  1  0  0  0
 19 20  1  0  0  0
 19 24  1  0  0  0
 20 21  2  0  0  0
 20109  1  0  0  0
 21 23  1  0  0  0
 22 28  1  0  0  0
 22 32  2  0  0  0
 26 27  1  0  0  0
 28110  1  0  0  0
 28111  1  0  0  0
 29112  1  0  0  0
 29113  1  0  0  0
 33 34  1  0  0  0
 33 66  1  0  0  0
 33 70  2  0  0  0
 34 36  1  0  0  0
 34 59  1  0  0  0
 34114  1  0  0  0
 35 44  2  0  0  0
 35 45  1  0  0  0
 35 68  1  0  0  0
 36 56  1  0  0  0
 36115  1  0  0  0
 37 39  1  0  0  0
 37 47  1  0  0  0
 37 66  1  0  0  0
 37116  1  0  0  0
 38 43  2  0  0  0
 38 46  1  0  0  0
 38 47  1  0  0  0
 39 64  1  0  0  0
 39 67  2  0  0  0
 40 52  1  0  0  0
 40 53  2  0  0  0
 40 58  1  0  0  0
 41117  1  0  0  0
 41118  1  0  0  0
 41119  1  0  0  0
 41 48  1  0  0  0
 42 43  1  0  0  0
 42 66  1  0  0  0
 42120  1  0  0  0
 42121  1  0  0  0
 43 44  1  0  0  0
 44122  1  0  0  0
 45 46  2  0  0  0
 45123  1  0  0  0
 46124  1  0  0  0
 47125  1  0  0  0
 47126  1  0  0  0
 48 56  1  0  0  0
 48 65  1  0  0  0
 48127  1  0  0  0
 49 50  1  0  0  0
 49 53  1  0  0  0
 49 64  1  0  0  0
 49128  1  0  0  0
 50 51  1  0  0  0
 50129  1  0  0  0
 50130  1  0  0  0
 51 52  1  0  0  0
 51131  1  0  0  0
 51132  1  0  0  0
 52133  1  0  0  0
 52134  1  0  0  0
 53 54  1  0  0  0
 54 55  2  0  0  0
 54135  1  0  0  0
 55 57  1  0  0  0
 55136  1  0  0  0
 56 69  2  0  0  0
 57 58  2  0  0  0
 57137  1  0  0  0
 58138  1  0  0  0
 59 60  1  0  0  0
 59 61  1  0  0  0
 59 62  1  0  0  0
 60139  1  0  0  0
 60140  1  0  0  0
 60141  1  0  0  0
 61142  1  0  0  0
 61143  1  0  0  0
 61144  1  0  0  0
 62145  1  0  0  0
 62146  1  0  0  0
 62147  1  0  0  0
 63 65  1  0  0  0
 63148  1  0  0  0
 63149  1  0  0  0
 63150  1  0  0  0
 64151  1  0  0  0
 65152  1  0  0  0
 68 84  1  0  0  0
 71 72  2  0  0  0
 71 75  1  0  0  0
 71153  1  0  0  0
 72 76  1  0  0  0
 72154  1  0  0  0
 73 74  1  0  0  0
 73 75  2  0  0  0
 73155  1  0  0  0
 74 76  2  0  0  0
 74 81  1  0  0  0
 75 85  1  0  0  0
 76 93  1  0  0  0
 77 78  2  0  0  0
 77 85  1  0  0  0
 77156  1  0  0  0
 78 86  1  0  0  0
 78 88  1  0  0  0
 79 80  1  0  0  0
 79 85  1  0  0  0
 79 89  2  0  0  0
 80 86  1  0  0  0
 80 90  2  0  0  0
 81157  1  0  0  0
 81158  1  0  0  0
 81159  1  0  0  0
 82160  1  0  0  0
 82161  1  0  0  0
 82162  1  0  0  0
 82 84  1  0  0  0
 83 84  1  0  0  0
 83 86  1  0  0  0
 83163  1  0  0  0
 83164  1  0  0  0
 84165  1  0  0  0
 87166  1  0  0  0
 87 93  1  0  0  0
 91 93  2  0  0  0
 92 93  2  0  0  0
M  CHG  1  88  -1
M  ISO  4   1 100  68 101  84 101  87 100
M  END
> <chiral flag>
0

> <version>
0

> <s_m_source_file>
/data/baiqing/PycharmProjects/Reinvent-master-3.2/result/LINK_invent/BTK/process_docking_weight1_custom_product_contain_oxygen_bond_distance_aromatic_linkinvent_7_9_3/rearranged_h_0061.sdf

> <i_m_source_file_index>
85

> <r_mmod_Potential_Energy-OPLS-2005>
-146.633682250977

> <r_mmod_Stretch_Energy-OPLS-2005>
46.8544502258301

> <r_mmod_Bend_Energy-OPLS-2005>
111.945617675781

> <r_mmod_Torsional_Energy-OPLS-2005>
313.863067626953

> <r_mmod_Improper_Torsional_Energy-OPLS-2005>
5.81173181533813

> <r_mmod_Van_der_Waal_Energy-OPLS-2005>
194.537002563477

> <r_mmod_Electrostatic_Energy-OPLS-2005>
-358.002685546875

> <r_mmod_Solvation_Energy-OPLS-2005>
-472.301361083984

> <b_mmod_Minimization_Converged-OPLS-2005>
0

> <r_mmod_RMS_Derivative-OPLS-2005>
6.82350873947144

$$$$
86
                    3D
 Structure written by MMmdl.
162171  0  0  1  0            999 V2000
  -30.6762  -14.5300   20.5472 C   0  0  0  0  0  0
  -30.4318  -12.3357   19.4350 C   0  0  0  0  0  0
  -29.5016  -12.5020   18.2144 C   0  0  0  0  0  0
  -28.0235  -12.3544   18.6284 C   0  0  0  0  0  0
  -27.6585  -13.2081   19.8717 C   0  0  2  0  0  0
  -28.7030  -13.0198   20.9957 C   0  0  0  0  0  0
  -25.2536  -13.8095   20.5643 C   0  0  0  0  0  0
  -24.1819  -13.0383   20.9201 C   0  0  0  0  0  0
  -24.6394  -11.6867   20.8756 C   0  0  0  0  0  0
  -23.9060  -10.4268   21.0413 C   0  0  0  0  0  0
  -24.3608   -9.4192   21.9198 C   0  0  0  0  0  0
  -23.6285   -8.2229   22.0756 C   0  0  0  0  0  0
  -22.4271   -8.0274   21.3541 C   0  0  0  0  0  0
  -21.9905   -9.0249   20.4649 C   0  0  0  0  0  0
  -22.7230  -10.2127   20.3063 C   0  0  0  0  0  0
  -21.6849   -6.0739   22.5278 C   0  0  0  0  0  0
  -21.4011   -6.5643   23.8213 C   0  0  0  0  0  0
  -21.3657   -5.6791   24.9174 C   0  0  0  0  0  0
  -21.6044   -4.3054   24.7220 C   0  0  0  0  0  0
  -21.8821   -3.8150   23.4342 C   0  0  0  0  0  0
  -21.9193   -4.6969   22.3401 C   0  0  0  0  0  0
  -22.7850  -13.5206   21.1858 C   0  0  0  0  0  0
  -22.1661   -4.2157   21.0977 F   0  0  0  0  0  0
  -21.5634   -3.4538   25.7736 F   0  0  0  0  0  0
  -30.0284  -13.3354   20.4372 N   0  0  0  0  0  0
  -26.3003  -12.9301   20.3348 N   0  0  0  0  0  0
  -25.9328  -11.6464   20.5793 N   0  0  0  0  0  0
  -22.0478  -12.8216   22.0416 N   0  0  0  0  0  0
  -25.4128  -15.1780   20.3920 N   0  0  0  0  0  0
  -31.8302  -14.6931   20.1386 O   0  0  0  0  0  0
  -21.6634   -6.8873   21.4235 O   0  0  0  0  0  0
  -22.3559  -14.5532   20.6726 O   0  0  0  0  0  0
  -24.6160  -31.8661   23.2065 C   0  0  0  0  0  0
  -25.9047  -32.4814   23.8367 C   0  0  1  0  0  0
  -27.2399  -27.4117   20.1093 C   0  0  0  0  0  0
  -25.5896  -33.8612   24.2311 N   0  0  0  0  0  0
  -23.4057  -30.4870   21.5473 C   0  0  2  0  0  0
  -24.8537  -28.9446   20.1169 C   0  0  0  0  0  0
  -22.7414  -29.4652   22.4979 C   0  0  0  0  0  0
  -18.0273  -28.1381   22.8498 C   0  0  0  0  0  0
  -24.1488  -36.7300   23.2640 C   0  0  0  0  0  0
  -25.9349  -30.8268   21.3593 C   0  0  0  0  0  0
  -26.0143  -29.4578   20.7087 C   0  0  0  0  0  0
  -27.2109  -28.7025   20.6925 C   0  0  0  0  0  0
  -26.0610  -26.9143   19.5118 C   0  0  0  0  0  0
  -24.8730  -27.6738   19.5134 C   0  0  0  0  0  0
  -23.6159  -29.8139   20.1637 C   0  0  0  0  0  0
  -25.4114  -36.3108   24.0336 C   0  0  1  0  0  0
  -20.5866  -28.3674   23.1322 C   0  0  2  0  0  0
  -20.6767  -26.9408   22.5425 C   0  0  0  0  0  0
  -19.5746  -26.6393   21.5219 C   0  0  0  0  0  0
  -18.1923  -26.7934   22.1627 C   0  0  0  0  0  0
  -19.1522  -28.8842   23.2910 C   0  0  0  0  0  0
  -18.9450  -30.1448   23.8924 C   0  0  0  0  0  0
  -17.6453  -30.6590   24.0570 C   0  0  0  0  0  0
  -25.9036  -34.9473   23.5124 C   0  0  0  0  0  0
  -16.5344  -29.9095   23.6324 C   0  0  0  0  0  0
  -16.7265  -28.6506   23.0359 C   0  0  0  0  0  0
  -26.4475  -31.6597   25.0698 C   0  0  0  0  0  0
  -25.3738  -31.3700   26.1442 C   0  0  0  0  0  0
  -27.0301  -30.3042   24.6064 C   0  0  0  0  0  0
  -27.6053  -32.4313   25.7462 C   0  0  0  0  0  0
  -27.5584  -37.1806   24.8470 C   0  0  0  0  0  0
  -21.4142  -29.3034   22.3716 N   0  0  0  0  0  0
  -26.4302  -37.3791   23.9406 N   0  0  0  0  0  0
  -24.6708  -31.0747   22.0965 N   0  0  0  0  0  0
  -23.4177  -28.8208   23.3038 O   0  0  0  0  0  0
  -28.4139  -26.6804   20.1129 O   0  0  0  0  0  0
  -26.5601  -34.8931   22.4688 O   0  0  0  0  0  0
  -23.5348  -32.1423   23.7448 O   0  0  0  0  0  0
  -31.6522  -18.8960   21.3592 C   0  0  0  0  0  0
  -31.4173  -17.5032   21.3510 C   0  0  0  0  0  0
  -29.4440  -19.3033   20.4770 C   0  0  0  0  0  0
  -29.1908  -17.9052   20.4899 C   0  0  0  0  0  0
  -30.6854  -19.8369   20.8988 C   0  0  0  0  0  0
  -30.1847  -16.9788   20.9088 C   0  0  0  0  0  0
  -30.1583  -23.6663   21.4588 C   0  0  0  0  0  0
  -32.2251  -21.7446   20.8282 C   0  0  0  0  0  0
  -29.5426  -24.8590   21.2462 C   0  0  0  0  0  0
  -31.3962  -23.6332   22.3236 C   0  0  0  0  0  0
  -29.8191  -22.2733   20.8791 C   0  0  0  0  0  0
  -32.5553  -23.0899   21.4849 C   0  0  0  0  0  0
  -27.8277  -17.4186   20.0458 C   0  0  0  0  0  0
  -28.3435  -25.2622   20.3919 C   0  0  0  0  0  0
  -30.9455  -21.2752   20.8951 N   0  0  0  0  0  0
  -29.9044  -15.5671   20.9538 N   0  0  0  0  0  0
  -33.1450  -21.1509   20.2553 O   0  0  0  0  0  0
  -31.4754  -12.4449   19.1337 H   0  0  0  0  0  0
  -30.3461  -11.3312   19.8526 H   0  0  0  0  0  0
  -29.7500  -11.7652   17.4495 H   0  0  0  0  0  0
  -29.6617  -13.4804   17.7583 H   0  0  0  0  0  0
  -27.8481  -11.3005   18.8462 H   0  0  0  0  0  0
  -27.3691  -12.6055   17.7928 H   0  0  0  0  0  0
  -27.6902  -14.2498   19.5545 H   0  0  0  0  0  0
  -28.6912  -11.9904   21.3562 H   0  0  0  0  0  0
  -28.4623  -13.6356   21.8634 H   0  0  0  0  0  0
  -25.2741   -9.5677   22.4788 H   0  0  0  0  0  0
  -24.0000   -7.4615   22.7467 H   0  0  0  0  0  0
  -21.0844   -8.8766   19.8951 H   0  0  0  0  0  0
  -22.3683  -10.9678   19.6188 H   0  0  0  0  0  0
  -21.2000   -7.6150   23.9722 H   0  0  0  0  0  0
  -21.1476   -6.0517   25.9078 H   0  0  0  0  0  0
  -22.0602   -2.7613   23.2835 H   0  0  0  0  0  0
  -22.4067  -11.9868   22.4811 H   0  0  0  0  0  0
  -21.1108  -13.1280   22.2621 H   0  0  0  0  0  0
  -24.6298  -15.8169   20.4730 H   0  0  0  0  0  0
  -26.2332  -15.6026   19.9827 H   0  0  0  0  0  0
  -26.7114  -32.5524   23.1126 H   0  0  0  0  0  0
  -25.0072  -33.9774   25.0473 H   0  0  0  0  0  0
  -22.6958  -31.3041   21.4042 H   0  0  0  0  0  0
  -23.3757  -35.9624   23.3316 H   0  0  0  0  0  0
  -24.3582  -36.8898   22.2051 H   0  0  0  0  0  0
  -23.7231  -37.6506   23.6641 H   0  0  0  0  0  0
  -26.0477  -31.5906   20.5888 H   0  0  0  0  0  0
  -26.8232  -30.8843   21.9768 H   0  0  0  0  0  0
  -28.1100  -29.0990   21.1435 H   0  0  0  0  0  0
  -26.0578  -25.9436   19.0367 H   0  0  0  0  0  0
  -23.9804  -27.2738   19.0521 H   0  0  0  0  0  0
  -23.7269  -30.5867   19.4023 H   0  0  0  0  0  0
  -22.7393  -29.2343   19.8680 H   0  0  0  0  0  0
  -25.1293  -36.1976   25.0829 H   0  0  0  0  0  0
  -20.9963  -28.3244   24.1442 H   0  0  0  0  0  0
  -20.5682  -26.2277   23.3614 H   0  0  0  0  0  0
  -21.6639  -26.7461   22.1210 H   0  0  0  0  0  0
  -19.6909  -25.6309   21.1239 H   0  0  0  0  0  0
  -19.6689  -27.3214   20.6758 H   0  0  0  0  0  0
  -17.4198  -26.6692   21.4023 H   0  0  0  0  0  0
  -18.0315  -26.0068   22.9012 H   0  0  0  0  0  0
  -19.7926  -30.7251   24.2313 H   0  0  0  0  0  0
  -17.5011  -31.6276   24.5162 H   0  0  0  0  0  0
  -15.5349  -30.3010   23.7631 H   0  0  0  0  0  0
  -15.8664  -28.0831   22.7076 H   0  0  0  0  0  0
  -24.5917  -30.7044   25.7779 H   0  0  0  0  0  0
  -24.8921  -32.2850   26.4895 H   0  0  0  0  0  0
  -25.8092  -30.8871   27.0198 H   0  0  0  0  0  0
  -26.2834  -29.6805   24.1135 H   0  0  0  0  0  0
  -27.4100  -29.7278   25.4510 H   0  0  0  0  0  0
  -27.8657  -30.4373   23.9188 H   0  0  0  0  0  0
  -27.2679  -33.3607   26.2065 H   0  0  0  0  0  0
  -28.3849  -32.6884   25.0277 H   0  0  0  0  0  0
  -28.0732  -31.8418   26.5357 H   0  0  0  0  0  0
  -28.2619  -38.0089   24.7516 H   0  0  0  0  0  0
  -28.1064  -36.2624   24.6304 H   0  0  0  0  0  0
  -27.2299  -37.1466   25.8874 H   0  0  0  0  0  0
  -20.9302  -29.8737   21.6922 H   0  0  0  0  0  0
  -26.0193  -38.2871   24.1406 H   0  0  0  0  0  0
  -32.6097  -19.2218   21.7398 H   0  0  0  0  0  0
  -32.1922  -16.8420   21.7136 H   0  0  0  0  0  0
  -28.6662  -19.9699   20.1315 H   0  0  0  0  0  0
  -29.9541  -25.7109   21.7692 H   0  0  0  0  0  0
  -31.2131  -22.9959   23.1906 H   0  0  0  0  0  0
  -31.6463  -24.6208   22.7129 H   0  0  0  0  0  0
  -28.9962  -21.8772   21.4740 H   0  0  0  0  0  0
  -29.4469  -22.3872   19.8605 H   0  0  0  0  0  0
  -32.8162  -23.8004   20.6997 H   0  0  0  0  0  0
  -33.4396  -22.9700   22.1109 H   0  0  0  0  0  0
  -27.3003  -17.0012   20.9024 H   0  0  0  0  0  0
  -27.9214  -16.6547   19.2742 H   0  0  0  0  0  0
  -27.2215  -18.2291   19.6396 H   0  0  0  0  0  0
  -28.3267  -24.6866   19.4655 H   0  0  0  0  0  0
  -27.4408  -25.0212   20.9556 H   0  0  0  0  0  0
  -28.9480  -15.3153   21.1459 H   0  0  0  0  0  0
  1 25  1  0  0  0
  1 30  2  0  0  0
  1 86  1  0  0  0
  2  3  1  0  0  0
  2 25  1  0  0  0
  2 88  1  0  0  0
  2 89  1  0  0  0
  3  4  1  0  0  0
  3 90  1  0  0  0
  3 91  1  0  0  0
  4  5  1  0  0  0
  4 92  1  0  0  0
  4 93  1  0  0  0
  5  6  1  0  0  0
  5 26  1  0  0  0
  5 94  1  0  0  0
  6 25  1  0  0  0
  6 95  1  0  0  0
  6 96  1  0  0  0
  7  8  2  0  0  0
  7 26  1  0  0  0
  7 29  1  0  0  0
  8  9  1  0  0  0
  8 22  1  0  0  0
  9 10  1  0  0  0
  9 27  2  0  0  0
 10 11  2  0  0  0
 10 15  1  0  0  0
 11 12  1  0  0  0
 11 97  1  0  0  0
 12 13  2  0  0  0
 12 98  1  0  0  0
 13 14  1  0  0  0
 13 31  1  0  0  0
 14 15  2  0  0  0
 14 99  1  0  0  0
 15100  1  0  0  0
 16 17  2  0  0  0
 16 21  1  0  0  0
 16 31  1  0  0  0
 17 18  1  0  0  0
 17101  1  0  0  0
 18 19  2  0  0  0
 18102  1  0  0  0
 19 20  1  0  0  0
 19 24  1  0  0  0
 20 21  2  0  0  0
 20103  1  0  0  0
 21 23  1  0  0  0
 22 28  1  0  0  0
 22 32  2  0  0  0
 26 27  1  0  0  0
 28104  1  0  0  0
 28105  1  0  0  0
 29106  1  0  0  0
 29107  1  0  0  0
 33 34  1  0  0  0
 33 66  1  0  0  0
 33 70  2  0  0  0
 34 36  1  0  0  0
 34 59  1  0  0  0
 34108  1  0  0  0
 35 44  2  0  0  0
 35 45  1  0  0  0
 35 68  1  0  0  0
 36 56  1  0  0  0
 36109  1  0  0  0
 37 39  1  0  0  0
 37 47  1  0  0  0
 37 66  1  0  0  0
 37110  1  0  0  0
 38 43  2  0  0  0
 38 46  1  0  0  0
 38 47  1  0  0  0
 39 64  1  0  0  0
 39 67  2  0  0  0
 40 52  1  0  0  0
 40 53  2  0  0  0
 40 58  1  0  0  0
 41111  1  0  0  0
 41112  1  0  0  0
 41113  1  0  0  0
 41 48  1  0  0  0
 42 43  1  0  0  0
 42 66  1  0  0  0
 42114  1  0  0  0
 42115  1  0  0  0
 43 44  1  0  0  0
 44116  1  0  0  0
 45 46  2  0  0  0
 45117  1  0  0  0
 46118  1  0  0  0
 47119  1  0  0  0
 47120  1  0  0  0
 48 56  1  0  0  0
 48 65  1  0  0  0
 48121  1  0  0  0
 49 50  1  0  0  0
 49 53  1  0  0  0
 49 64  1  0  0  0
 49122  1  0  0  0
 50 51  1  0  0  0
 50123  1  0  0  0
 50124  1  0  0  0
 51 52  1  0  0  0
 51125  1  0  0  0
 51126  1  0  0  0
 52127  1  0  0  0
 52128  1  0  0  0
 53 54  1  0  0  0
 54 55  2  0  0  0
 54129  1  0  0  0
 55 57  1  0  0  0
 55130  1  0  0  0
 56 69  2  0  0  0
 57 58  2  0  0  0
 57131  1  0  0  0
 58132  1  0  0  0
 59 60  1  0  0  0
 59 61  1  0  0  0
 59 62  1  0  0  0
 60133  1  0  0  0
 60134  1  0  0  0
 60135  1  0  0  0
 61136  1  0  0  0
 61137  1  0  0  0
 61138  1  0  0  0
 62139  1  0  0  0
 62140  1  0  0  0
 62141  1  0  0  0
 63 65  1  0  0  0
 63142  1  0  0  0
 63143  1  0  0  0
 63144  1  0  0  0
 64145  1  0  0  0
 65146  1  0  0  0
 68 84  1  0  0  0
 71 72  2  0  0  0
 71 75  1  0  0  0
 71147  1  0  0  0
 72 76  1  0  0  0
 72148  1  0  0  0
 73 74  1  0  0  0
 73 75  2  0  0  0
 73149  1  0  0  0
 74 76  2  0  0  0
 74 83  1  0  0  0
 75 85  1  0  0  0
 76 86  1  0  0  0
 77 79  2  0  0  0
 77 80  1  0  0  0
 77 81  1  0  0  0
 78 82  1  0  0  0
 78 85  1  0  0  0
 78 87  2  0  0  0
 79 84  1  0  0  0
 79150  1  0  0  0
 80 82  1  0  0  0
 80151  1  0  0  0
 80152  1  0  0  0
 81 85  1  0  0  0
 81153  1  0  0  0
 81154  1  0  0  0
 82155  1  0  0  0
 82156  1  0  0  0
 83157  1  0  0  0
 83158  1  0  0  0
 83159  1  0  0  0
 84160  1  0  0  0
 84161  1  0  0  0
 86162  1  0  0  0
M  ISO  4   1 100  68 101  84 101  86 100
M  END
> <chiral flag>
0

> <version>
0

> <s_m_source_file>
/data/baiqing/PycharmProjects/Reinvent-master-3.2/result/LINK_invent/BTK/process_docking_weight1_custom_product_contain_oxygen_bond_distance_aromatic_linkinvent_7_9_3/rearranged_h_0061.sdf

> <i_m_source_file_index>
86

> <r_mmod_Potential_Energy-OPLS-2005>
63.088321685791

> <r_mmod_Stretch_Energy-OPLS-2005>
53.902271270752

> <r_mmod_Bend_Energy-OPLS-2005>
116.838851928711

> <r_mmod_Torsional_Energy-OPLS-2005>
288.45556640625

> <r_mmod_Improper_Torsional_Energy-OPLS-2005>
5.25987529754639

> <r_mmod_Van_der_Waal_Energy-OPLS-2005>
172.517242431641

> <r_mmod_Electrostatic_Energy-OPLS-2005>
-371.384796142578

> <r_mmod_Solvation_Energy-OPLS-2005>
-221.382339477539

> <b_mmod_Minimization_Converged-OPLS-2005>
0

> <r_mmod_RMS_Derivative-OPLS-2005>
1.07405304908752

$$$$
87
                    3D
 Structure written by MMmdl.
174182  0  0  1  0            999 V2000
  -30.7344  -14.3888   20.6742 C   0  0  0  0  0  0
  -30.4134  -12.2986   19.3946 C   0  0  0  0  0  0
  -29.4792  -12.5214   18.1893 C   0  0  0  0  0  0
  -28.0053  -12.3777   18.6110 C   0  0  0  0  0  0
  -27.6623  -13.2038   19.8792 C   0  0  2  0  0  0
  -28.6994  -12.9543   20.9965 C   0  0  0  0  0  0
  -25.2609  -13.8182   20.5713 C   0  0  0  0  0  0
  -24.1827  -13.0453   20.9170 C   0  0  0  0  0  0
  -24.6354  -11.6921   20.8721 C   0  0  0  0  0  0
  -23.9007  -10.4298   21.0386 C   0  0  0  0  0  0
  -24.3566   -9.4215   21.9173 C   0  0  0  0  0  0
  -23.6238   -8.2263   22.0751 C   0  0  0  0  0  0
  -22.4244   -8.0265   21.3516 C   0  0  0  0  0  0
  -21.9848   -9.0247   20.4639 C   0  0  0  0  0  0
  -22.7161  -10.2137   20.3046 C   0  0  0  0  0  0
  -21.6865   -6.0680   22.5245 C   0  0  0  0  0  0
  -21.4009   -6.5602   23.8173 C   0  0  0  0  0  0
  -21.3669   -5.6766   24.9154 C   0  0  0  0  0  0
  -21.6069   -4.3035   24.7222 C   0  0  0  0  0  0
  -21.8809   -3.8092   23.4354 C   0  0  0  0  0  0
  -21.9200   -4.6899   22.3398 C   0  0  0  0  0  0
  -22.7852  -13.5289   21.1792 C   0  0  0  0  0  0
  -22.1671   -4.2065   21.0978 F   0  0  0  0  0  0
  -21.5645   -3.4541   25.7764 F   0  0  0  0  0  0
  -30.0366  -13.2444   20.4555 N   0  0  0  0  0  0
  -26.3019  -12.9329   20.3405 N   0  0  0  0  0  0
  -25.9293  -11.6493   20.5765 N   0  0  0  0  0  0
  -22.0486  -12.8284   22.0350 N   0  0  0  0  0  0
  -25.4384  -15.1884   20.4119 N   0  0  0  0  0  0
  -31.7641  -14.6832   20.0599 O   0  0  0  0  0  0
  -21.6644   -6.8811   21.4205 O   0  0  0  0  0  0
  -22.3539  -14.5597   20.6643 O   0  0  0  0  0  0
  -24.6162  -31.8702   23.2078 C   0  0  0  0  0  0
  -25.9055  -32.4838   23.8391 C   0  0  1  0  0  0
  -27.2318  -27.4564   20.0783 C   0  0  0  0  0  0
  -25.5914  -33.8626   24.2360 N   0  0  0  0  0  0
  -23.4015  -30.4972   21.5505 C   0  0  2  0  0  0
  -24.8447  -28.9677   20.1119 C   0  0  0  0  0  0
  -22.7402  -29.4697   22.4981 C   0  0  0  0  0  0
  -18.0317  -28.1312   22.8423 C   0  0  0  0  0  0
  -24.1495  -36.7307   23.2640 C   0  0  0  0  0  0
  -25.9342  -30.8400   21.3607 C   0  0  0  0  0  0
  -26.0083  -29.4799   20.7002 C   0  0  0  0  0  0
  -27.2058  -28.7318   20.6788 C   0  0  0  0  0  0
  -26.0511  -26.9521   19.4913 C   0  0  0  0  0  0
  -24.8609  -27.6977   19.5096 C   0  0  0  0  0  0
  -23.6052  -29.8317   20.1639 C   0  0  0  0  0  0
  -25.4103  -36.3102   24.0360 C   0  0  1  0  0  0
  -20.5908  -28.3670   23.1375 C   0  0  2  0  0  0
  -20.6835  -26.9398   22.5491 C   0  0  0  0  0  0
  -19.5927  -26.6399   21.5134 C   0  0  0  0  0  0
  -18.2034  -26.7910   22.1429 C   0  0  0  0  0  0
  -19.1516  -28.8773   23.2928 C   0  0  0  0  0  0
  -18.9392  -30.1355   23.8973 C   0  0  0  0  0  0
  -17.6386  -30.6519   24.0555 C   0  0  0  0  0  0
  -25.9031  -34.9474   23.5148 C   0  0  0  0  0  0
  -16.5315  -29.8971   23.6271 C   0  0  0  0  0  0
  -16.7286  -28.6412   23.0291 C   0  0  0  0  0  0
  -26.4474  -31.6577   25.0705 C   0  0  0  0  0  0
  -25.3753  -31.3651   26.1478 C   0  0  0  0  0  0
  -27.0298  -30.3025   24.6054 C   0  0  0  0  0  0
  -27.6084  -32.4256   25.7440 C   0  0  0  0  0  0
  -27.5588  -37.1802   24.8476 C   0  0  0  0  0  0
  -21.4140  -29.3001   22.3684 N   0  0  0  0  0  0
  -26.4292  -37.3786   23.9410 N   0  0  0  0  0  0
  -24.6686  -31.0854   22.0946 N   0  0  0  0  0  0
  -23.4148  -28.8218   23.3037 O   0  0  0  0  0  0
  -28.3976  -26.7234   20.0710 O   0  0  0  0  0  0
  -26.5609  -34.8957   22.4716 O   0  0  0  0  0  0
  -23.5352  -32.1410   23.7495 O   0  0  0  0  0  0
  -29.7860  -15.9579   24.0324 C   0  0  0  0  0  0
  -30.2619  -15.0437   23.0750 C   0  0  0  0  0  0
  -29.2446  -17.1917   23.6226 C   0  0  0  0  0  0
  -29.6628  -16.5935   21.2964 C   0  0  0  0  0  0
  -30.2037  -15.3530   21.6999 C   0  0  0  0  0  0
  -29.1762  -17.5217   22.2472 C   0  0  0  0  0  0
  -28.6450  -18.8544   21.7815 C   0  0  0  0  0  0
  -26.8109  -21.2714   21.1063 C   0  0  0  0  0  0
  -29.2614  -23.0810   24.8303 C   0  0  0  0  0  0
  -30.0455  -21.7150   22.8591 C   0  0  0  0  0  0
  -25.5894  -20.2647   23.0288 C   0  0  0  0  0  0
  -28.1212  -24.3337   19.4095 C   0  0  0  0  0  0
  -27.5200  -21.7393   23.5973 C   0  0  0  0  0  0
  -27.0118  -23.2787   19.6285 C   0  0  0  0  0  0
  -28.2832  -25.3753   20.5426 C   0  0  0  0  0  0
  -28.8706  -22.5080   23.4548 C   0  0  0  0  0  0
  -26.9963  -20.7004   22.5460 C   0  0  2  0  0  0
  -27.8000  -19.4639   22.6300 N   0  0  0  0  0  0
  -27.1848  -22.5368   20.8742 N   0  0  0  0  0  0
  -28.9686  -19.2882   20.6749 O   0  0  0  0  0  0
  -26.2928  -20.5767   20.2286 O   0  0  0  0  0  0
  -31.4555  -12.4080   19.0870 H   0  0  0  0  0  0
  -30.3162  -11.2785   19.7674 H   0  0  0  0  0  0
  -29.7116  -11.8066   17.3963 H   0  0  0  0  0  0
  -29.6409  -13.5125   17.7610 H   0  0  0  0  0  0
  -27.8093  -11.3183   18.7912 H   0  0  0  0  0  0
  -27.3496  -12.6750   17.7916 H   0  0  0  0  0  0
  -27.7116  -14.2580   19.6026 H   0  0  0  0  0  0
  -28.6772  -11.9147   21.3212 H   0  0  0  0  0  0
  -28.4338  -13.5450   21.8748 H   0  0  0  0  0  0
  -25.2721   -9.5722   22.4725 H   0  0  0  0  0  0
  -23.9937   -7.4674   22.7520 H   0  0  0  0  0  0
  -21.0746   -8.8749   19.8966 H   0  0  0  0  0  0
  -22.3589  -10.9661   19.6146 H   0  0  0  0  0  0
  -21.1972   -7.6106   23.9666 H   0  0  0  0  0  0
  -21.1530   -6.0493   25.9057 H   0  0  0  0  0  0
  -22.0585   -2.7543   23.2882 H   0  0  0  0  0  0
  -22.4097  -11.9944   22.4736 H   0  0  0  0  0  0
  -21.1150  -13.1351   22.2635 H   0  0  0  0  0  0
  -24.6795  -15.8513   20.5201 H   0  0  0  0  0  0
  -26.3049  -15.6172   20.1154 H   0  0  0  0  0  0
  -26.7133  -32.5565   23.1147 H   0  0  0  0  0  0
  -25.0049  -33.9780   25.0504 H   0  0  0  0  0  0
  -22.6910  -31.3124   21.4136 H   0  0  0  0  0  0
  -23.3763  -35.9636   23.3309 H   0  0  0  0  0  0
  -24.3583  -36.8890   22.2047 H   0  0  0  0  0  0
  -23.7282  -37.6537   23.6635 H   0  0  0  0  0  0
  -26.0564  -31.6060   20.5952 H   0  0  0  0  0  0
  -26.8214  -30.8789   21.9807 H   0  0  0  0  0  0
  -28.1046  -29.1221   21.1377 H   0  0  0  0  0  0
  -26.0492  -25.9879   19.0075 H   0  0  0  0  0  0
  -23.9679  -27.2918   19.0556 H   0  0  0  0  0  0
  -23.6975  -30.6076   19.4020 H   0  0  0  0  0  0
  -22.7324  -29.2374   19.8813 H   0  0  0  0  0  0
  -25.1266  -36.1961   25.0855 H   0  0  0  0  0  0
  -20.9979  -28.3256   24.1521 H   0  0  0  0  0  0
  -20.5703  -26.2229   23.3638 H   0  0  0  0  0  0
  -21.6758  -26.7422   22.1451 H   0  0  0  0  0  0
  -19.7164  -25.6332   21.1106 H   0  0  0  0  0  0
  -19.7010  -27.3213   20.6685 H   0  0  0  0  0  0
  -17.4367  -26.6675   21.3758 H   0  0  0  0  0  0
  -18.0350  -25.9979   22.8719 H   0  0  0  0  0  0
  -19.7873  -30.7096   24.2432 H   0  0  0  0  0  0
  -17.4896  -31.6201   24.5146 H   0  0  0  0  0  0
  -15.5301  -30.2810   23.7536 H   0  0  0  0  0  0
  -15.8723  -28.0721   22.6924 H   0  0  0  0  0  0
  -24.5951  -30.6962   25.7817 H   0  0  0  0  0  0
  -24.8919  -32.2775   26.4964 H   0  0  0  0  0  0
  -25.8141  -30.8802   27.0203 H   0  0  0  0  0  0
  -26.2796  -29.6802   24.1162 H   0  0  0  0  0  0
  -27.4121  -29.7268   25.4491 H   0  0  0  0  0  0
  -27.8618  -30.4385   23.9150 H   0  0  0  0  0  0
  -27.2765  -33.3553   26.2072 H   0  0  0  0  0  0
  -28.3867  -32.6785   25.0227 H   0  0  0  0  0  0
  -28.0796  -31.8326   26.5299 H   0  0  0  0  0  0
  -28.2614  -38.0088   24.7478 H   0  0  0  0  0  0
  -28.1067  -36.2607   24.6309 H   0  0  0  0  0  0
  -27.2302  -37.1462   25.8884 H   0  0  0  0  0  0
  -20.9289  -29.8528   21.6748 H   0  0  0  0  0  0
  -26.0192  -38.2880   24.1329 H   0  0  0  0  0  0
  -29.8394  -15.7100   25.0847 H   0  0  0  0  0  0
  -30.6791  -14.1005   23.3982 H   0  0  0  0  0  0
  -28.9011  -17.8846   24.3791 H   0  0  0  0  0  0
  -29.6159  -16.8306   20.2410 H   0  0  0  0  0  0
  -30.1252  -23.7432   24.7643 H   0  0  0  0  0  0
  -29.5005  -22.2882   25.5423 H   0  0  0  0  0  0
  -28.4470  -23.6627   25.2620 H   0  0  0  0  0  0
  -30.9671  -22.2980   22.8673 H   0  0  0  0  0  0
  -29.8689  -21.4625   21.8136 H   0  0  0  0  0  0
  -30.2391  -20.7923   23.4039 H   0  0  0  0  0  0
  -24.8653  -21.0784   22.9577 H   0  0  0  0  0  0
  -25.5997  -19.9503   24.0725 H   0  0  0  0  0  0
  -25.1957  -19.4278   22.4488 H   0  0  0  0  0  0
  -27.9269  -24.8527   18.4705 H   0  0  0  0  0  0
  -29.0711  -23.8224   19.2550 H   0  0  0  0  0  0
  -26.7468  -22.5017   23.7150 H   0  0  0  0  0  0
  -27.5405  -21.2277   24.5605 H   0  0  0  0  0  0
  -26.9951  -22.6005   18.7732 H   0  0  0  0  0  0
  -26.0359  -23.7599   19.6606 H   0  0  0  0  0  0
  -27.4795  -25.2966   21.2756 H   0  0  0  0  0  0
  -29.1968  -25.1489   21.0928 H   0  0  0  0  0  0
  -28.7112  -23.3736   22.8082 H   0  0  0  0  0  0
  -27.6657  -18.9521   23.4869 H   0  0  0  0  0  0
  -27.5544  -23.0391   21.6700 H   0  0  0  0  0  0
  1 25  1  0  0  0
  1 30  2  0  0  0
  1 75  1  0  0  0
  2  3  1  0  0  0
  2 25  1  0  0  0
  2 92  1  0  0  0
  2 93  1  0  0  0
  3  4  1  0  0  0
  3 94  1  0  0  0
  3 95  1  0  0  0
  4  5  1  0  0  0
  4 96  1  0  0  0
  4 97  1  0  0  0
  5  6  1  0  0  0
  5 26  1  0  0  0
  5 98  1  0  0  0
  6 25  1  0  0  0
  6 99  1  0  0  0
  6100  1  0  0  0
  7  8  2  0  0  0
  7 26  1  0  0  0
  7 29  1  0  0  0
  8  9  1  0  0  0
  8 22  1  0  0  0
  9 10  1  0  0  0
  9 27  2  0  0  0
 10 11  2  0  0  0
 10 15  1  0  0  0
 11 12  1  0  0  0
 11101  1  0  0  0
 12 13  2  0  0  0
 12102  1  0  0  0
 13 14  1  0  0  0
 13 31  1  0  0  0
 14 15  2  0  0  0
 14103  1  0  0  0
 15104  1  0  0  0
 16 17  2  0  0  0
 16 21  1  0  0  0
 16 31  1  0  0  0
 17 18  1  0  0  0
 17105  1  0  0  0
 18 19  2  0  0  0
 18106  1  0  0  0
 19 20  1  0  0  0
 19 24  1  0  0  0
 20 21  2  0  0  0
 20107  1  0  0  0
 21 23  1  0  0  0
 22 28  1  0  0  0
 22 32  2  0  0  0
 26 27  1  0  0  0
 28108  1  0  0  0
 28109  1  0  0  0
 29110  1  0  0  0
 29111  1  0  0  0
 33 34  1  0  0  0
 33 66  1  0  0  0
 33 70  2  0  0  0
 34 36  1  0  0  0
 34 59  1  0  0  0
 34112  1  0  0  0
 35 44  2  0  0  0
 35 45  1  0  0  0
 35 68  1  0  0  0
 36 56  1  0  0  0
 36113  1  0  0  0
 37 39  1  0  0  0
 37 47  1  0  0  0
 37 66  1  0  0  0
 37114  1  0  0  0
 38 43  2  0  0  0
 38 46  1  0  0  0
 38 47  1  0  0  0
 39 64  1  0  0  0
 39 67  2  0  0  0
 40 52  1  0  0  0
 40 53  2  0  0  0
 40 58  1  0  0  0
 41115  1  0  0  0
 41116  1  0  0  0
 41117  1  0  0  0
 41 48  1  0  0  0
 42 43  1  0  0  0
 42 66  1  0  0  0
 42118  1  0  0  0
 42119  1  0  0  0
 43 44  1  0  0  0
 44120  1  0  0  0
 45 46  2  0  0  0
 45121  1  0  0  0
 46122  1  0  0  0
 47123  1  0  0  0
 47124  1  0  0  0
 48 56  1  0  0  0
 48 65  1  0  0  0
 48125  1  0  0  0
 49 50  1  0  0  0
 49 53  1  0  0  0
 49 64  1  0  0  0
 49126  1  0  0  0
 50 51  1  0  0  0
 50127  1  0  0  0
 50128  1  0  0  0
 51 52  1  0  0  0
 51129  1  0  0  0
 51130  1  0  0  0
 52131  1  0  0  0
 52132  1  0  0  0
 53 54  1  0  0  0
 54 55  2  0  0  0
 54133  1  0  0  0
 55 57  1  0  0  0
 55134  1  0  0  0
 56 69  2  0  0  0
 57 58  2  0  0  0
 57135  1  0  0  0
 58136  1  0  0  0
 59 60  1  0  0  0
 59 61  1  0  0  0
 59 62  1  0  0  0
 60137  1  0  0  0
 60138  1  0  0  0
 60139  1  0  0  0
 61140  1  0  0  0
 61141  1  0  0  0
 61142  1  0  0  0
 62143  1  0  0  0
 62144  1  0  0  0
 62145  1  0  0  0
 63 65  1  0  0  0
 63146  1  0  0  0
 63147  1  0  0  0
 63148  1  0  0  0
 64149  1  0  0  0
 65150  1  0  0  0
 68 85  1  0  0  0
 71 72  2  0  0  0
 71 73  1  0  0  0
 71151  1  0  0  0
 72 75  1  0  0  0
 72152  1  0  0  0
 73 76  2  0  0  0
 73153  1  0  0  0
 74 75  2  0  0  0
 74 76  1  0  0  0
 74154  1  0  0  0
 76 77  1  0  0  0
 77 88  1  0  0  0
 77 90  2  0  0  0
 78 89  1  0  0  0
 78 91  2  0  0  0
 78 87  1  0  0  0
 79155  1  0  0  0
 79156  1  0  0  0
 79157  1  0  0  0
 79 86  1  0  0  0
 80 86  1  0  0  0
 80158  1  0  0  0
 80159  1  0  0  0
 80160  1  0  0  0
 81161  1  0  0  0
 81162  1  0  0  0
 81163  1  0  0  0
 81 87  1  0  0  0
 82 84  1  0  0  0
 82 85  1  0  0  0
 82164  1  0  0  0
 82165  1  0  0  0
 83 86  1  0  0  0
 83 87  1  0  0  0
 83166  1  0  0  0
 83167  1  0  0  0
 84 89  1  0  0  0
 84168  1  0  0  0
 84169  1  0  0  0
 85170  1  0  0  0
 85171  1  0  0  0
 86172  1  0  0  0
 87 88  1  0  0  0
 88173  1  0  0  0
 89174  1  0  0  0
M  ISO  4   1 100  68 101  75 100  85 101
M  END
> <chiral flag>
0

> <version>
0

> <s_m_source_file>
/data/baiqing/PycharmProjects/Reinvent-master-3.2/result/LINK_invent/BTK/process_docking_weight1_custom_product_contain_oxygen_bond_distance_aromatic_linkinvent_7_9_3/rearranged_h_0061.sdf

> <i_m_source_file_index>
87

> <r_mmod_Potential_Energy-OPLS-2005>
-58.4037780761719

> <r_mmod_Stretch_Energy-OPLS-2005>
40.3776664733887

> <r_mmod_Bend_Energy-OPLS-2005>
126.456451416016

> <r_mmod_Torsional_Energy-OPLS-2005>
246.557144165039

> <r_mmod_Improper_Torsional_Energy-OPLS-2005>
2.15886425971985

> <r_mmod_Van_der_Waal_Energy-OPLS-2005>
158.191329956055

> <r_mmod_Electrostatic_Energy-OPLS-2005>
-409.871612548828

> <r_mmod_Solvation_Energy-OPLS-2005>
-230.508560180664

> <b_mmod_Minimization_Converged-OPLS-2005>
0

> <r_mmod_RMS_Derivative-OPLS-2005>
5.25344753265381

$$$$
88
                    3D
 Structure written by MMmdl.
154162  0  0  1  0            999 V2000
  -30.6458  -14.5870   20.5395 C   0  0  0  0  0  0
  -30.4367  -12.3695   19.4444 C   0  0  0  0  0  0
  -29.5113  -12.5225   18.2194 C   0  0  0  0  0  0
  -28.0307  -12.3715   18.6242 C   0  0  0  0  0  0
  -27.6604  -13.2181   19.8724 C   0  0  2  0  0  0
  -28.7033  -13.0332   20.9983 C   0  0  0  0  0  0
  -25.2568  -13.8186   20.5673 C   0  0  0  0  0  0
  -24.1839  -13.0439   20.9171 C   0  0  0  0  0  0
  -24.6399  -11.6914   20.8716 C   0  0  0  0  0  0
  -23.9057  -10.4300   21.0365 C   0  0  0  0  0  0
  -24.3618   -9.4220   21.9139 C   0  0  0  0  0  0
  -23.6306   -8.2252   22.0727 C   0  0  0  0  0  0
  -22.4278   -8.0276   21.3536 C   0  0  0  0  0  0
  -21.9900   -9.0238   20.4631 C   0  0  0  0  0  0
  -22.7222  -10.2121   20.3025 C   0  0  0  0  0  0
  -21.6862   -6.0728   22.5283 C   0  0  0  0  0  0
  -21.4015   -6.5628   23.8219 C   0  0  0  0  0  0
  -21.3663   -5.6778   24.9178 C   0  0  0  0  0  0
  -21.6046   -4.3044   24.7226 C   0  0  0  0  0  0
  -21.8822   -3.8133   23.4347 C   0  0  0  0  0  0
  -21.9195   -4.6952   22.3403 C   0  0  0  0  0  0
  -22.7850  -13.5220   21.1854 C   0  0  0  0  0  0
  -22.1661   -4.2137   21.0979 F   0  0  0  0  0  0
  -21.5630   -3.4525   25.7738 F   0  0  0  0  0  0
  -30.0244  -13.3713   20.4452 N   0  0  0  0  0  0
  -26.3017  -12.9367   20.3330 N   0  0  0  0  0  0
  -25.9337  -11.6517   20.5740 N   0  0  0  0  0  0
  -22.0488  -12.8219   22.0419 N   0  0  0  0  0  0
  -25.4277  -15.1917   20.4124 N   0  0  0  0  0  0
  -31.7811  -14.7749   20.0904 O   0  0  0  0  0  0
  -21.6651   -6.8867   21.4243 O   0  0  0  0  0  0
  -22.3530  -14.5511   20.6690 O   0  0  0  0  0  0
  -24.6246  -31.8618   23.2049 C   0  0  0  0  0  0
  -25.9106  -32.4779   23.8353 C   0  0  1  0  0  0
  -27.2317  -27.3516   20.0897 C   0  0  0  0  0  0
  -25.5915  -33.8577   24.2277 N   0  0  0  0  0  0
  -23.4160  -30.4909   21.5462 C   0  0  2  0  0  0
  -24.8601  -28.9556   20.1067 C   0  0  0  0  0  0
  -22.7469  -29.4646   22.4922 C   0  0  0  0  0  0
  -18.0287  -28.1368   22.8480 C   0  0  0  0  0  0
  -24.1483  -36.7311   23.2632 C   0  0  0  0  0  0
  -25.9563  -30.8035   21.3719 C   0  0  0  0  0  0
  -26.0295  -29.4367   20.7076 C   0  0  0  0  0  0
  -27.2137  -28.6463   20.6916 C   0  0  0  0  0  0
  -26.0238  -26.9133   19.4909 C   0  0  0  0  0  0
  -24.8576  -27.6960   19.4944 C   0  0  0  0  0  0
  -23.6289  -29.8326   20.1583 C   0  0  0  0  0  0
  -25.4097  -36.3084   24.0332 C   0  0  1  0  0  0
  -20.5889  -28.3669   23.1276 C   0  0  2  0  0  0
  -20.6763  -26.9387   22.5407 C   0  0  0  0  0  0
  -19.5726  -26.6368   21.5217 C   0  0  0  0  0  0
  -18.1918  -26.7907   22.1640 C   0  0  0  0  0  0
  -19.1542  -28.8837   23.2871 C   0  0  0  0  0  0
  -18.9469  -30.1446   23.8873 C   0  0  0  0  0  0
  -17.6468  -30.6568   24.0566 C   0  0  0  0  0  0
  -25.9042  -34.9455   23.5103 C   0  0  0  0  0  0
  -16.5358  -29.9073   23.6322 C   0  0  0  0  0  0
  -16.7278  -28.6502   23.0320 C   0  0  0  0  0  0
  -26.4484  -31.6579   25.0720 C   0  0  0  0  0  0
  -25.3748  -31.3741   26.1478 C   0  0  0  0  0  0
  -27.0318  -30.2986   24.6192 C   0  0  0  0  0  0
  -27.6014  -32.4329   25.7511 C   0  0  0  0  0  0
  -27.5578  -37.1800   24.8450 C   0  0  0  0  0  0
  -21.4184  -29.3047   22.3686 N   0  0  0  0  0  0
  -26.4263  -37.3790   23.9435 N   0  0  0  0  0  0
  -24.6842  -31.0684   22.0970 N   0  0  0  0  0  0
  -23.4224  -28.8169   23.2961 O   0  0  0  0  0  0
  -28.3722  -26.5363   20.1797 O   0  0  0  0  0  0
  -26.5627  -34.8927   22.4681 O   0  0  0  0  0  0
  -23.5423  -32.1385   23.7417 O   0  0  0  0  0  0
  -30.3002  -17.8193   22.0990 C   0  0  0  0  0  0
  -30.3917  -19.2347   22.0285 C   0  0  0  0  0  0
  -29.8651  -17.7406   19.7243 C   0  0  0  0  0  0
  -29.9393  -19.1678   19.6465 C   0  0  0  0  0  0
  -30.0676  -17.0373   20.9421 C   0  0  0  0  0  0
  -30.2259  -19.9421   20.8101 C   0  0  0  0  0  0
  -28.4588  -25.1853   19.7367 C   0  0  0  0  0  0
  -29.7288  -19.8354   18.2983 C   0  0  0  0  0  0
  -29.4375  -24.2628   20.5199 C   0  0  0  0  0  0
  -29.8947  -15.6020   21.0516 N   0  0  0  0  0  0
  -29.2858  -22.7681   20.3361 N   0  0  0  0  0  0
  -27.8463  -24.6970   18.7831 O   0  0  0  0  0  0
  -30.9530  -22.1716   22.1750 O   0  0  0  0  0  0
  -31.6612  -21.9997   19.7626 O   0  0  0  0  0  0
  -30.6405  -21.7643   20.7962 S   0  0  0  0  0  0
  -31.4797  -12.4855   19.1482 H   0  0  0  0  0  0
  -30.3572  -11.3639   19.8585 H   0  0  0  0  0  0
  -29.7702  -11.7846   17.4590 H   0  0  0  0  0  0
  -29.6705  -13.5008   17.7634 H   0  0  0  0  0  0
  -27.8469  -11.3155   18.8235 H   0  0  0  0  0  0
  -27.3858  -12.6383   17.7858 H   0  0  0  0  0  0
  -27.6904  -14.2632   19.5614 H   0  0  0  0  0  0
  -28.7046  -12.0003   21.3486 H   0  0  0  0  0  0
  -28.4509  -13.6383   21.8700 H   0  0  0  0  0  0
  -25.2760   -9.5714   22.4710 H   0  0  0  0  0  0
  -24.0021   -7.4645   22.7450 H   0  0  0  0  0  0
  -21.0817   -8.8738   19.8954 H   0  0  0  0  0  0
  -22.3647  -10.9642   19.6138 H   0  0  0  0  0  0
  -21.2005   -7.6137   23.9720 H   0  0  0  0  0  0
  -21.1485   -6.0506   25.9087 H   0  0  0  0  0  0
  -22.0600   -2.7594   23.2851 H   0  0  0  0  0  0
  -22.4103  -11.9904   22.4852 H   0  0  0  0  0  0
  -21.1092  -13.1238   22.2585 H   0  0  0  0  0  0
  -24.6635  -15.8475   20.5303 H   0  0  0  0  0  0
  -26.2820  -15.6352   20.0978 H   0  0  0  0  0  0
  -26.7194  -32.5469   23.1120 H   0  0  0  0  0  0
  -25.0029  -33.9705   25.0402 H   0  0  0  0  0  0
  -22.7067  -31.3097   21.4080 H   0  0  0  0  0  0
  -23.3739  -35.9646   23.3252 H   0  0  0  0  0  0
  -24.3591  -36.8971   22.2055 H   0  0  0  0  0  0
  -23.7234  -37.6498   23.6684 H   0  0  0  0  0  0
  -26.0919  -31.5728   20.6105 H   0  0  0  0  0  0
  -26.8341  -30.8432   22.0048 H   0  0  0  0  0  0
  -28.1101  -29.0150   21.1719 H   0  0  0  0  0  0
  -25.9238  -25.9473   19.0274 H   0  0  0  0  0  0
  -23.9599  -27.3118   19.0302 H   0  0  0  0  0  0
  -23.7460  -30.6113   19.4028 H   0  0  0  0  0  0
  -22.7494  -29.2619   19.8551 H   0  0  0  0  0  0
  -25.1278  -36.1904   25.0821 H   0  0  0  0  0  0
  -20.9993  -28.3237   24.1393 H   0  0  0  0  0  0
  -20.5643  -26.2294   23.3620 H   0  0  0  0  0  0
  -21.6630  -26.7393   22.1216 H   0  0  0  0  0  0
  -19.6867  -25.6287   21.1224 H   0  0  0  0  0  0
  -19.6632  -27.3201   20.6765 H   0  0  0  0  0  0
  -17.4187  -26.6650   21.4046 H   0  0  0  0  0  0
  -18.0303  -26.0052   22.9035 H   0  0  0  0  0  0
  -19.7954  -30.7269   24.2209 H   0  0  0  0  0  0
  -17.5030  -31.6239   24.5175 H   0  0  0  0  0  0
  -15.5357  -30.2966   23.7648 H   0  0  0  0  0  0
  -15.8688  -28.0843   22.6983 H   0  0  0  0  0  0
  -24.5903  -30.7086   25.7861 H   0  0  0  0  0  0
  -24.8984  -32.2928   26.4906 H   0  0  0  0  0  0
  -25.8111  -30.8942   27.0250 H   0  0  0  0  0  0
  -26.2895  -29.6742   24.1206 H   0  0  0  0  0  0
  -27.3969  -29.7228   25.4707 H   0  0  0  0  0  0
  -27.8789  -30.4224   23.9441 H   0  0  0  0  0  0
  -27.2561  -33.3604   26.2092 H   0  0  0  0  0  0
  -28.3834  -32.6930   25.0367 H   0  0  0  0  0  0
  -28.0671  -31.8469   26.5443 H   0  0  0  0  0  0
  -28.2554  -38.0135   24.7569 H   0  0  0  0  0  0
  -28.1113  -36.2683   24.6169 H   0  0  0  0  0  0
  -27.2337  -37.1330   25.8857 H   0  0  0  0  0  0
  -20.9337  -29.8846   21.6983 H   0  0  0  0  0  0
  -26.0132  -38.2853   24.1460 H   0  0  0  0  0  0
  -30.4331  -17.3359   23.0576 H   0  0  0  0  0  0
  -30.6368  -19.7838   22.9260 H   0  0  0  0  0  0
  -29.6372  -17.1756   18.8308 H   0  0  0  0  0  0
  -29.3963  -19.1182   17.5464 H   0  0  0  0  0  0
  -30.6537  -20.2878   17.9393 H   0  0  0  0  0  0
  -28.9619  -20.6067   18.3668 H   0  0  0  0  0  0
  -29.3708  -24.5025   21.5807 H   0  0  0  0  0  0
  -30.4441  -24.5494   20.2132 H   0  0  0  0  0  0
  -29.0363  -15.3010   21.4869 H   0  0  0  0  0  0
  -29.0319  -22.5672   19.3669 H   0  0  0  0  0  0
  1 25  1  0  0  0
  1 30  2  0  0  0
  1 80  1  0  0  0
  2  3  1  0  0  0
  2 25  1  0  0  0
  2 86  1  0  0  0
  2 87  1  0  0  0
  3  4  1  0  0  0
  3 88  1  0  0  0
  3 89  1  0  0  0
  4  5  1  0  0  0
  4 90  1  0  0  0
  4 91  1  0  0  0
  5  6  1  0  0  0
  5 26  1  0  0  0
  5 92  1  0  0  0
  6 25  1  0  0  0
  6 93  1  0  0  0
  6 94  1  0  0  0
  7  8  2  0  0  0
  7 26  1  0  0  0
  7 29  1  0  0  0
  8  9  1  0  0  0
  8 22  1  0  0  0
  9 10  1  0  0  0
  9 27  2  0  0  0
 10 11  2  0  0  0
 10 15  1  0  0  0
 11 12  1  0  0  0
 11 95  1  0  0  0
 12 13  2  0  0  0
 12 96  1  0  0  0
 13 14  1  0  0  0
 13 31  1  0  0  0
 14 15  2  0  0  0
 14 97  1  0  0  0
 15 98  1  0  0  0
 16 17  2  0  0  0
 16 21  1  0  0  0
 16 31  1  0  0  0
 17 18  1  0  0  0
 17 99  1  0  0  0
 18 19  2  0  0  0
 18100  1  0  0  0
 19 20  1  0  0  0
 19 24  1  0  0  0
 20 21  2  0  0  0
 20101  1  0  0  0
 21 23  1  0  0  0
 22 28  1  0  0  0
 22 32  2  0  0  0
 26 27  1  0  0  0
 28102  1  0  0  0
 28103  1  0  0  0
 29104  1  0  0  0
 29105  1  0  0  0
 33 34  1  0  0  0
 33 66  1  0  0  0
 33 70  2  0  0  0
 34 36  1  0  0  0
 34 59  1  0  0  0
 34106  1  0  0  0
 35 44  2  0  0  0
 35 45  1  0  0  0
 35 68  1  0  0  0
 36 56  1  0  0  0
 36107  1  0  0  0
 37 39  1  0  0  0
 37 47  1  0  0  0
 37 66  1  0  0  0
 37108  1  0  0  0
 38 43  2  0  0  0
 38 46  1  0  0  0
 38 47  1  0  0  0
 39 64  1  0  0  0
 39 67  2  0  0  0
 40 52  1  0  0  0
 40 53  2  0  0  0
 40 58  1  0  0  0
 41109  1  0  0  0
 41110  1  0  0  0
 41111  1  0  0  0
 41 48  1  0  0  0
 42 43  1  0  0  0
 42 66  1  0  0  0
 42112  1  0  0  0
 42113  1  0  0  0
 43 44  1  0  0  0
 44114  1  0  0  0
 45 46  2  0  0  0
 45115  1  0  0  0
 46116  1  0  0  0
 47117  1  0  0  0
 47118  1  0  0  0
 48 56  1  0  0  0
 48 65  1  0  0  0
 48119  1  0  0  0
 49 50  1  0  0  0
 49 53  1  0  0  0
 49 64  1  0  0  0
 49120  1  0  0  0
 50 51  1  0  0  0
 50121  1  0  0  0
 50122  1  0  0  0
 51 52  1  0  0  0
 51123  1  0  0  0
 51124  1  0  0  0
 52125  1  0  0  0
 52126  1  0  0  0
 53 54  1  0  0  0
 54 55  2  0  0  0
 54127  1  0  0  0
 55 57  1  0  0  0
 55128  1  0  0  0
 56 69  2  0  0  0
 57 58  2  0  0  0
 57129  1  0  0  0
 58130  1  0  0  0
 59 60  1  0  0  0
 59 61  1  0  0  0
 59 62  1  0  0  0
 60131  1  0  0  0
 60132  1  0  0  0
 60133  1  0  0  0
 61134  1  0  0  0
 61135  1  0  0  0
 61136  1  0  0  0
 62137  1  0  0  0
 62138  1  0  0  0
 62139  1  0  0  0
 63 65  1  0  0  0
 63140  1  0  0  0
 63141  1  0  0  0
 63142  1  0  0  0
 64143  1  0  0  0
 65144  1  0  0  0
 68 77  1  0  0  0
 71 72  2  0  0  0
 71 75  1  0  0  0
 71145  1  0  0  0
 72 76  1  0  0  0
 72146  1  0  0  0
 73 74  1  0  0  0
 73 75  2  0  0  0
 73147  1  0  0  0
 74 76  2  0  0  0
 74 78  1  0  0  0
 75 80  1  0  0  0
 76 85  1  0  0  0
 77 79  1  0  0  0
 77 82  2  0  0  0
 78148  1  0  0  0
 78149  1  0  0  0
 78150  1  0  0  0
 79 81  1  0  0  0
 79151  1  0  0  0
 79152  1  0  0  0
 80153  1  0  0  0
 81154  1  0  0  0
 81 85  1  0  0  0
 83 85  2  0  0  0
 84 85  2  0  0  0
M  ISO  4   1 100  68 101  77 101  80 100
M  END
> <chiral flag>
0

> <version>
0

> <s_m_source_file>
/data/baiqing/PycharmProjects/Reinvent-master-3.2/result/LINK_invent/BTK/process_docking_weight1_custom_product_contain_oxygen_bond_distance_aromatic_linkinvent_7_9_3/rearranged_h_0061.sdf

> <i_m_source_file_index>
88

> <r_mmod_Potential_Energy-OPLS-2005>
-69.6201248168945

> <r_mmod_Stretch_Energy-OPLS-2005>
69.7577514648438

> <r_mmod_Bend_Energy-OPLS-2005>
131.580337524414

> <r_mmod_Torsional_Energy-OPLS-2005>
256.719970703125

> <r_mmod_Improper_Torsional_Energy-OPLS-2005>
10.1934938430786

> <r_mmod_Van_der_Waal_Energy-OPLS-2005>
143.183868408203

> <r_mmod_Electrostatic_Energy-OPLS-2005>
-465.617431640625

> <r_mmod_Solvation_Energy-OPLS-2005>
-249.879577636719

> <b_mmod_Minimization_Converged-OPLS-2005>
0

> <r_mmod_RMS_Derivative-OPLS-2005>
2.03669333457947

$$$$
89
                    3D
 Structure written by MMmdl.
167176  0  0  1  0            999 V2000
  -30.7329  -14.4507   20.5983 C   0  0  0  0  0  0
  -30.4155  -12.3012   19.4275 C   0  0  0  0  0  0
  -29.4923  -12.5109   18.2108 C   0  0  0  0  0  0
  -28.0142  -12.3735   18.6221 C   0  0  0  0  0  0
  -27.6627  -13.2117   19.8807 C   0  0  2  0  0  0
  -28.7034  -12.9930   21.0029 C   0  0  0  0  0  0
  -25.2558  -13.8159   20.5637 C   0  0  0  0  0  0
  -24.1826  -13.0436   20.9167 C   0  0  0  0  0  0
  -24.6397  -11.6908   20.8745 C   0  0  0  0  0  0
  -23.9064  -10.4291   21.0410 C   0  0  0  0  0  0
  -24.3614   -9.4206   21.9188 C   0  0  0  0  0  0
  -23.6291   -8.2241   22.0754 C   0  0  0  0  0  0
  -22.4274   -8.0281   21.3544 C   0  0  0  0  0  0
  -21.9910   -9.0254   20.4645 C   0  0  0  0  0  0
  -22.7238  -10.2133   20.3057 C   0  0  0  0  0  0
  -21.6853   -6.0736   22.5279 C   0  0  0  0  0  0
  -21.4011   -6.5639   23.8213 C   0  0  0  0  0  0
  -21.3658   -5.6792   24.9176 C   0  0  0  0  0  0
  -21.6045   -4.3056   24.7226 C   0  0  0  0  0  0
  -21.8820   -3.8148   23.4347 C   0  0  0  0  0  0
  -21.9193   -4.6965   22.3403 C   0  0  0  0  0  0
  -22.7850  -13.5234   21.1837 C   0  0  0  0  0  0
  -22.1663   -4.2150   21.0981 F   0  0  0  0  0  0
  -21.5629   -3.4538   25.7738 F   0  0  0  0  0  0
  -30.0387  -13.2875   20.4544 N   0  0  0  0  0  0
  -26.3030  -12.9353   20.3403 N   0  0  0  0  0  0
  -25.9333  -11.6507   20.5805 N   0  0  0  0  0  0
  -22.0494  -12.8227   22.0398 N   0  0  0  0  0  0
  -25.4231  -15.1857   20.3934 N   0  0  0  0  0  0
  -31.8332  -14.6187   20.0668 O   0  0  0  0  0  0
  -21.6638   -6.8877   21.4241 O   0  0  0  0  0  0
  -22.3530  -14.5540   20.6692 O   0  0  0  0  0  0
  -24.6131  -31.8695   23.2120 C   0  0  0  0  0  0
  -25.9028  -32.4830   23.8412 C   0  0  1  0  0  0
  -27.2321  -27.4367   20.1063 C   0  0  0  0  0  0
  -25.5890  -33.8630   24.2346 N   0  0  0  0  0  0
  -23.4021  -30.4922   21.5515 C   0  0  2  0  0  0
  -24.8516  -28.9578   20.1178 C   0  0  0  0  0  0
  -22.7405  -29.4662   22.4994 C   0  0  0  0  0  0
  -18.0272  -28.1380   22.8499 C   0  0  0  0  0  0
  -24.1481  -36.7313   23.2637 C   0  0  0  0  0  0
  -25.9303  -30.8317   21.3698 C   0  0  0  0  0  0
  -26.0079  -29.4622   20.7282 C   0  0  0  0  0  0
  -27.2014  -28.7034   20.7338 C   0  0  0  0  0  0
  -26.0724  -26.9605   19.4646 C   0  0  0  0  0  0
  -24.8767  -27.7023   19.4859 C   0  0  0  0  0  0
  -23.6128  -29.8242   20.1660 C   0  0  0  0  0  0
  -25.4101  -36.3118   24.0342 C   0  0  1  0  0  0
  -20.5863  -28.3662   23.1321 C   0  0  2  0  0  0
  -20.6764  -26.9399   22.5419 C   0  0  0  0  0  0
  -19.5743  -26.6391   21.5213 C   0  0  0  0  0  0
  -18.1919  -26.7929   22.1624 C   0  0  0  0  0  0
  -19.1522  -28.8838   23.2910 C   0  0  0  0  0  0
  -18.9451  -30.1445   23.8916 C   0  0  0  0  0  0
  -17.6454  -30.6587   24.0572 C   0  0  0  0  0  0
  -25.9031  -34.9481   23.5142 C   0  0  0  0  0  0
  -16.5344  -29.9089   23.6331 C   0  0  0  0  0  0
  -16.7264  -28.6506   23.0353 C   0  0  0  0  0  0
  -26.4465  -31.6596   25.0726 C   0  0  0  0  0  0
  -25.3735  -31.3696   26.1476 C   0  0  0  0  0  0
  -27.0288  -30.3037   24.6087 C   0  0  0  0  0  0
  -27.6049  -32.4306   25.7483 C   0  0  0  0  0  0
  -27.5580  -37.1811   24.8465 C   0  0  0  0  0  0
  -21.4135  -29.3030   22.3727 N   0  0  0  0  0  0
  -26.4292  -37.3798   23.9412 N   0  0  0  0  0  0
  -24.6662  -31.0795   22.1025 N   0  0  0  0  0  0
  -23.4177  -28.8211   23.3040 O   0  0  0  0  0  0
  -28.3721  -26.6695   20.0373 O   0  0  0  0  0  0
  -26.5591  -34.8929   22.4702 O   0  0  0  0  0  0
  -23.5321  -32.1452   23.7507 O   0  0  0  0  0  0
  -31.9764  -18.7113   21.1347 C   0  0  0  0  0  0
  -30.9242  -19.6298   21.2741 C   0  0  0  0  0  0
  -31.7204  -17.3308   21.1632 C   0  0  0  0  0  0
  -29.3420  -17.7747   21.5222 C   0  0  0  0  0  0
  -29.6008  -19.1797   21.4756 C   0  0  0  0  0  0
  -30.4016  -16.8383   21.3211 C   0  0  0  0  0  0
  -29.0916  -22.3742   22.6269 C   0  0  0  0  0  0
  -28.6011  -22.2311   20.2977 C   0  0  0  0  0  0
  -27.6288  -16.4148   22.7413 C   0  0  0  0  0  0
  -27.9676  -17.3063   21.7944 C   0  0  0  0  0  0
  -29.2483  -23.9085   22.5396 C   0  0  0  0  0  0
  -28.7424  -23.7592   20.1314 C   0  0  0  0  0  0
  -28.4121  -24.5614   21.4117 C   0  0  0  0  0  0
  -26.9022  -24.4837   21.7626 C   0  0  0  0  0  0
  -28.4562  -20.1954   21.6723 C   0  0  0  0  0  0
  -28.8277  -26.0614   21.2524 C   0  0  0  0  0  0
  -28.7594  -21.6493   21.5210 N   0  0  0  0  0  0
  -30.1054  -15.4318   21.2811 N   0  0  0  0  0  0
  -29.2743  -21.8504   23.7314 O   0  0  0  0  0  0
  -28.3375  -21.5759   19.2833 O   0  0  0  0  0  0
  -31.4616  -12.3819   19.1268 H   0  0  0  0  0  0
  -30.3027  -11.2907   19.8234 H   0  0  0  0  0  0
  -29.7306  -11.7896   17.4280 H   0  0  0  0  0  0
  -29.6654  -13.4988   17.7809 H   0  0  0  0  0  0
  -27.8226  -11.3174   18.8159 H   0  0  0  0  0  0
  -27.3641  -12.6517   17.7919 H   0  0  0  0  0  0
  -27.7080  -14.2609   19.5875 H   0  0  0  0  0  0
  -28.6741  -11.9584   21.3483 H   0  0  0  0  0  0
  -28.4621  -13.5954   21.8792 H   0  0  0  0  0  0
  -25.2758   -9.5684   22.4763 H   0  0  0  0  0  0
  -24.0003   -7.4631   22.7471 H   0  0  0  0  0  0
  -21.0845   -8.8771   19.8948 H   0  0  0  0  0  0
  -22.3698  -10.9672   19.6164 H   0  0  0  0  0  0
  -21.2001   -7.6148   23.9717 H   0  0  0  0  0  0
  -21.1479   -6.0522   25.9078 H   0  0  0  0  0  0
  -22.0600   -2.7611   23.2846 H   0  0  0  0  0  0
  -22.4107  -11.9885   22.4782 H   0  0  0  0  0  0
  -21.1113  -13.1252   22.2606 H   0  0  0  0  0  0
  -24.6587  -15.8430   20.4982 H   0  0  0  0  0  0
  -26.2888  -15.6229   20.1057 H   0  0  0  0  0  0
  -26.7097  -32.5555   23.1181 H   0  0  0  0  0  0
  -25.0045  -33.9799   25.0491 H   0  0  0  0  0  0
  -22.6907  -31.3089   21.4122 H   0  0  0  0  0  0
  -23.3744  -35.9645   23.3314 H   0  0  0  0  0  0
  -24.3579  -36.8912   22.2048 H   0  0  0  0  0  0
  -23.7232  -37.6524   23.6637 H   0  0  0  0  0  0
  -26.0405  -31.5915   20.5948 H   0  0  0  0  0  0
  -26.8197  -30.8918   21.9852 H   0  0  0  0  0  0
  -28.0948  -29.0903   21.2042 H   0  0  0  0  0  0
  -26.0949  -26.0083   18.9540 H   0  0  0  0  0  0
  -23.9923  -27.3139   19.0005 H   0  0  0  0  0  0
  -23.7199  -30.5994   19.4061 H   0  0  0  0  0  0
  -22.7377  -29.2425   19.8710 H   0  0  0  0  0  0
  -25.1276  -36.1988   25.0834 H   0  0  0  0  0  0
  -20.9965  -28.3227   24.1439 H   0  0  0  0  0  0
  -20.5669  -26.2268   23.3604 H   0  0  0  0  0  0
  -21.6634  -26.7445   22.1208 H   0  0  0  0  0  0
  -19.6903  -25.6309   21.1224 H   0  0  0  0  0  0
  -19.6683  -27.3222   20.6759 H   0  0  0  0  0  0
  -17.4193  -26.6691   21.4020 H   0  0  0  0  0  0
  -18.0316  -26.0064   22.9014 H   0  0  0  0  0  0
  -19.7925  -30.7260   24.2290 H   0  0  0  0  0  0
  -17.5008  -31.6266   24.5174 H   0  0  0  0  0  0
  -15.5347  -30.2997   23.7643 H   0  0  0  0  0  0
  -15.8666  -28.0833   22.7053 H   0  0  0  0  0  0
  -24.5911  -30.7039   25.7815 H   0  0  0  0  0  0
  -24.8919  -32.2845   26.4933 H   0  0  0  0  0  0
  -25.8092  -30.8860   27.0226 H   0  0  0  0  0  0
  -26.2827  -29.6810   24.1134 H   0  0  0  0  0  0
  -27.4056  -29.7257   25.4535 H   0  0  0  0  0  0
  -27.8666  -30.4361   23.9235 H   0  0  0  0  0  0
  -27.2681  -33.3599   26.2088 H   0  0  0  0  0  0
  -28.3841  -32.6875   25.0296 H   0  0  0  0  0  0
  -28.0732  -31.8408   26.5374 H   0  0  0  0  0  0
  -28.2605  -38.0102   24.7517 H   0  0  0  0  0  0
  -28.1072  -36.2637   24.6285 H   0  0  0  0  0  0
  -27.2305  -37.1453   25.8872 H   0  0  0  0  0  0
  -20.9294  -29.8745   21.6945 H   0  0  0  0  0  0
  -26.0185  -38.2879   24.1416 H   0  0  0  0  0  0
  -32.9886  -19.0670   21.0002 H   0  0  0  0  0  0
  -31.1584  -20.6838   21.2420 H   0  0  0  0  0  0
  -32.5645  -16.6662   21.0568 H   0  0  0  0  0  0
  -26.6006  -16.1070   22.8703 H   0  0  0  0  0  0
  -28.3640  -15.9832   23.4057 H   0  0  0  0  0  0
  -27.1861  -17.7046   21.1629 H   0  0  0  0  0  0
  -30.3101  -24.1102   22.3902 H   0  0  0  0  0  0
  -28.9900  -24.3500   23.5030 H   0  0  0  0  0  0
  -28.1073  -24.0876   19.3078 H   0  0  0  0  0  0
  -29.7680  -23.9589   19.8184 H   0  0  0  0  0  0
  -26.5760  -23.4800   22.0349 H   0  0  0  0  0  0
  -26.2757  -24.7846   20.9273 H   0  0  0  0  0  0
  -26.6576  -25.1345   22.6031 H   0  0  0  0  0  0
  -28.0207  -20.0052   22.6553 H   0  0  0  0  0  0
  -27.6502  -19.9274   20.9875 H   0  0  0  0  0  0
  -29.9160  -26.1332   21.2303 H   0  0  0  0  0  0
  -28.5182  -26.6390   22.1257 H   0  0  0  0  0  0
  -29.1892  -15.1842   21.6235 H   0  0  0  0  0  0
  1 25  1  0  0  0
  1 30  2  0  0  0
  1 88  1  0  0  0
  2  3  1  0  0  0
  2 25  1  0  0  0
  2 91  1  0  0  0
  2 92  1  0  0  0
  3  4  1  0  0  0
  3 93  1  0  0  0
  3 94  1  0  0  0
  4  5  1  0  0  0
  4 95  1  0  0  0
  4 96  1  0  0  0
  5  6  1  0  0  0
  5 26  1  0  0  0
  5 97  1  0  0  0
  6 25  1  0  0  0
  6 98  1  0  0  0
  6 99  1  0  0  0
  7  8  2  0  0  0
  7 26  1  0  0  0
  7 29  1  0  0  0
  8  9  1  0  0  0
  8 22  1  0  0  0
  9 10  1  0  0  0
  9 27  2  0  0  0
 10 11  2  0  0  0
 10 15  1  0  0  0
 11 12  1  0  0  0
 11100  1  0  0  0
 12 13  2  0  0  0
 12101  1  0  0  0
 13 14  1  0  0  0
 13 31  1  0  0  0
 14 15  2  0  0  0
 14102  1  0  0  0
 15103  1  0  0  0
 16 17  2  0  0  0
 16 21  1  0  0  0
 16 31  1  0  0  0
 17 18  1  0  0  0
 17104  1  0  0  0
 18 19  2  0  0  0
 18105  1  0  0  0
 19 20  1  0  0  0
 19 24  1  0  0  0
 20 21  2  0  0  0
 20106  1  0  0  0
 21 23  1  0  0  0
 22 28  1  0  0  0
 22 32  2  0  0  0
 26 27  1  0  0  0
 28107  1  0  0  0
 28108  1  0  0  0
 29109  1  0  0  0
 29110  1  0  0  0
 33 34  1  0  0  0
 33 66  1  0  0  0
 33 70  2  0  0  0
 34 36  1  0  0  0
 34 59  1  0  0  0
 34111  1  0  0  0
 35 44  2  0  0  0
 35 45  1  0  0  0
 35 68  1  0  0  0
 36 56  1  0  0  0
 36112  1  0  0  0
 37 39  1  0  0  0
 37 47  1  0  0  0
 37 66  1  0  0  0
 37113  1  0  0  0
 38 43  2  0  0  0
 38 46  1  0  0  0
 38 47  1  0  0  0
 39 64  1  0  0  0
 39 67  2  0  0  0
 40 52  1  0  0  0
 40 53  2  0  0  0
 40 58  1  0  0  0
 41114  1  0  0  0
 41115  1  0  0  0
 41116  1  0  0  0
 41 48  1  0  0  0
 42 43  1  0  0  0
 42 66  1  0  0  0
 42117  1  0  0  0
 42118  1  0  0  0
 43 44  1  0  0  0
 44119  1  0  0  0
 45 46  2  0  0  0
 45120  1  0  0  0
 46121  1  0  0  0
 47122  1  0  0  0
 47123  1  0  0  0
 48 56  1  0  0  0
 48 65  1  0  0  0
 48124  1  0  0  0
 49 50  1  0  0  0
 49 53  1  0  0  0
 49 64  1  0  0  0
 49125  1  0  0  0
 50 51  1  0  0  0
 50126  1  0  0  0
 50127  1  0  0  0
 51 52  1  0  0  0
 51128  1  0  0  0
 51129  1  0  0  0
 52130  1  0  0  0
 52131  1  0  0  0
 53 54  1  0  0  0
 54 55  2  0  0  0
 54132  1  0  0  0
 55 57  1  0  0  0
 55133  1  0  0  0
 56 69  2  0  0  0
 57 58  2  0  0  0
 57134  1  0  0  0
 58135  1  0  0  0
 59 60  1  0  0  0
 59 61  1  0  0  0
 59 62  1  0  0  0
 60136  1  0  0  0
 60137  1  0  0  0
 60138  1  0  0  0
 61139  1  0  0  0
 61140  1  0  0  0
 61141  1  0  0  0
 62142  1  0  0  0
 62143  1  0  0  0
 62144  1  0  0  0
 63 65  1  0  0  0
 63145  1  0  0  0
 63146  1  0  0  0
 63147  1  0  0  0
 64148  1  0  0  0
 65149  1  0  0  0
 68 86  1  0  0  0
 71 72  2  0  0  0
 71 73  1  0  0  0
 71150  1  0  0  0
 72 75  1  0  0  0
 72151  1  0  0  0
 73 76  2  0  0  0
 73152  1  0  0  0
 74 75  2  0  0  0
 74 76  1  0  0  0
 74 80  1  0  0  0
 75 85  1  0  0  0
 76 88  1  0  0  0
 77 81  1  0  0  0
 77 87  1  0  0  0
 77 89  2  0  0  0
 78 82  1  0  0  0
 78 87  1  0  0  0
 78 90  2  0  0  0
 79 80  2  0  0  0
 79153  1  0  0  0
 79154  1  0  0  0
 80155  1  0  0  0
 81 83  1  0  0  0
 81156  1  0  0  0
 81157  1  0  0  0
 82 83  1  0  0  0
 82158  1  0  0  0
 82159  1  0  0  0
 83 84  1  0  0  0
 83 86  1  0  0  0
 84160  1  0  0  0
 84161  1  0  0  0
 84162  1  0  0  0
 85 87  1  0  0  0
 85163  1  0  0  0
 85164  1  0  0  0
 86165  1  0  0  0
 86166  1  0  0  0
 88167  1  0  0  0
M  ISO  4   1 100  68 101  86 101  88 100
M  END
> <chiral flag>
0

> <version>
0

> <s_m_source_file>
/data/baiqing/PycharmProjects/Reinvent-master-3.2/result/LINK_invent/BTK/process_docking_weight1_custom_product_contain_oxygen_bond_distance_aromatic_linkinvent_7_9_3/rearranged_h_0061.sdf

> <i_m_source_file_index>
89

> <r_mmod_Potential_Energy-OPLS-2005>
-93.9757919311523

> <r_mmod_Stretch_Energy-OPLS-2005>
48.6790962219238

> <r_mmod_Bend_Energy-OPLS-2005>
112.732681274414

> <r_mmod_Torsional_Energy-OPLS-2005>
237.780548095703

> <r_mmod_Improper_Torsional_Energy-OPLS-2005>
3.1364221572876

> <r_mmod_Van_der_Waal_Energy-OPLS-2005>
179.727310180664

> <r_mmod_Electrostatic_Energy-OPLS-2005>
-462.840209960938

> <r_mmod_Solvation_Energy-OPLS-2005>
-224.027465820312

> <b_mmod_Minimization_Converged-OPLS-2005>
0

> <r_mmod_RMS_Derivative-OPLS-2005>
0.588901698589325

$$$$
90
                    3D
 Structure written by MMmdl.
169178  0  0  1  0            999 V2000
  -30.6964  -14.5401   20.5360 C   0  0  0  0  0  0
  -30.4202  -12.3410   19.4358 C   0  0  0  0  0  0
  -29.4980  -12.5124   18.2108 C   0  0  0  0  0  0
  -28.0180  -12.3767   18.6190 C   0  0  0  0  0  0
  -27.6564  -13.2228   19.8686 C   0  0  2  0  0  0
  -28.7007  -13.0508   20.9949 C   0  0  0  0  0  0
  -25.2549  -13.8223   20.5723 C   0  0  0  0  0  0
  -24.1806  -13.0468   20.9220 C   0  0  0  0  0  0
  -24.6374  -11.6941   20.8754 C   0  0  0  0  0  0
  -23.9042  -10.4306   21.0428 C   0  0  0  0  0  0
  -24.3587   -9.4210   21.9210 C   0  0  0  0  0  0
  -23.6266   -8.2238   22.0769 C   0  0  0  0  0  0
  -22.4251   -8.0272   21.3554 C   0  0  0  0  0  0
  -21.9881   -9.0253   20.4658 C   0  0  0  0  0  0
  -22.7211  -10.2136   20.3072 C   0  0  0  0  0  0
  -21.6842   -6.0715   22.5278 C   0  0  0  0  0  0
  -21.4012   -6.5628   23.8207 C   0  0  0  0  0  0
  -21.3671   -5.6787   24.9172 C   0  0  0  0  0  0
  -21.6055   -4.3049   24.7229 C   0  0  0  0  0  0
  -21.8819   -3.8134   23.4351 C   0  0  0  0  0  0
  -21.9186   -4.6943   22.3400 C   0  0  0  0  0  0
  -22.7818  -13.5256   21.1873 C   0  0  0  0  0  0
  -22.1653   -4.2127   21.0976 F   0  0  0  0  0  0
  -21.5632   -3.4535   25.7744 F   0  0  0  0  0  0
  -30.0267  -13.3522   20.4340 N   0  0  0  0  0  0
  -26.2992  -12.9420   20.3353 N   0  0  0  0  0  0
  -25.9305  -11.6573   20.5756 N   0  0  0  0  0  0
  -22.0408  -12.8271   22.0411 N   0  0  0  0  0  0
  -25.4277  -15.1944   20.4155 N   0  0  0  0  0  0
  -31.8435  -14.6670   20.1077 O   0  0  0  0  0  0
  -21.6622   -6.8860   21.4241 O   0  0  0  0  0  0
  -22.3524  -14.5570   20.6711 O   0  0  0  0  0  0
  -24.6217  -31.8672   23.2059 C   0  0  0  0  0  0
  -25.9120  -32.4792   23.8362 C   0  0  1  0  0  0
  -27.2219  -27.3817   20.1245 C   0  0  0  0  0  0
  -25.5997  -33.8585   24.2309 N   0  0  0  0  0  0
  -23.4088  -30.4912   21.5473 C   0  0  2  0  0  0
  -24.8548  -28.9483   20.1112 C   0  0  0  0  0  0
  -22.7428  -29.4689   22.4982 C   0  0  0  0  0  0
  -18.0318  -28.1321   22.8495 C   0  0  0  0  0  0
  -24.1491  -36.7294   23.2632 C   0  0  0  0  0  0
  -25.9412  -30.8124   21.3698 C   0  0  0  0  0  0
  -26.0149  -29.4412   20.7241 C   0  0  0  0  0  0
  -27.2031  -28.6651   20.7291 C   0  0  0  0  0  0
  -26.0634  -26.9400   19.4577 C   0  0  0  0  0  0
  -24.8799  -27.6996   19.4664 C   0  0  0  0  0  0
  -23.6173  -29.8209   20.1610 C   0  0  0  0  0  0
  -25.4120  -36.3093   24.0331 C   0  0  1  0  0  0
  -20.5888  -28.3721   23.1332 C   0  0  2  0  0  0
  -20.6833  -26.9454   22.5459 C   0  0  0  0  0  0
  -19.5862  -26.6400   21.5214 C   0  0  0  0  0  0
  -18.2033  -26.7854   22.1643 C   0  0  0  0  0  0
  -19.1532  -28.8835   23.2894 C   0  0  0  0  0  0
  -18.9416  -30.1434   23.8906 C   0  0  0  0  0  0
  -17.6403  -30.6548   24.0531 C   0  0  0  0  0  0
  -25.9067  -34.9462   23.5111 C   0  0  0  0  0  0
  -16.5317  -29.9013   23.6289 C   0  0  0  0  0  0
  -16.7297  -28.6414   23.0352 C   0  0  0  0  0  0
  -26.4538  -31.6562   25.0698 C   0  0  0  0  0  0
  -25.3781  -31.3668   26.1433 C   0  0  0  0  0  0
  -27.0384  -30.2999   24.6086 C   0  0  0  0  0  0
  -27.6104  -32.4272   25.7459 C   0  0  0  0  0  0
  -27.5577  -37.1809   24.8467 C   0  0  0  0  0  0
  -21.4141  -29.3117   22.3736 N   0  0  0  0  0  0
  -26.4287  -37.3801   23.9415 N   0  0  0  0  0  0
  -24.6752  -31.0741   22.0973 N   0  0  0  0  0  0
  -23.4168  -28.8225   23.3050 O   0  0  0  0  0  0
  -28.3525  -26.5834   20.1085 O   0  0  0  0  0  0
  -26.5587  -34.8936   22.4642 O   0  0  0  0  0  0
  -23.5417  -32.1462   23.7450 O   0  0  0  0  0  0
  -29.1840  -17.9598   21.0399 C   0  0  0  0  0  0
  -30.7024  -19.8561   20.8379 C   0  0  0  0  0  0
  -31.5647  -17.5547   20.7935 C   0  0  0  0  0  0
  -29.3903  -19.3729   21.0023 C   0  0  0  0  0  0
  -30.2549  -17.0255   20.9219 C   0  0  0  0  0  0
  -31.7760  -18.9496   20.7412 C   0  0  0  0  0  0
  -28.2586  -22.8667   21.5098 C   0  0  0  0  0  0
  -26.1917  -24.1609   21.1222 C   0  0  0  0  0  0
  -27.9676  -23.6097   19.2893 C   0  0  0  0  0  0
  -28.0595  -22.0692   19.3429 C   0  0  0  0  0  0
  -27.7025  -24.0985   20.7368 C   0  0  2  0  0  0
  -25.2002  -23.1860   20.4844 C   0  0  0  0  0  0
  -33.7935  -20.1928   22.3321 C   0  0  0  0  0  0
  -28.2100  -20.3445   21.2071 C   0  0  0  0  0  0
  -28.4334  -25.4725   21.0564 C   0  0  0  0  0  0
  -28.3249  -21.7526   20.7397 N   0  0  0  0  0  0
  -29.9661  -15.6029   20.9749 N   0  0  0  0  0  0
  -28.5297  -22.8925   22.7166 O   0  0  0  0  0  0
  -25.7641  -24.9688   21.9540 O   0  0  0  0  0  0
  -34.3774  -18.5082   20.3397 O   0  0  0  0  0  0
  -33.4326  -20.7878   19.7574 O   0  0  0  0  0  0
  -33.4420  -19.6083   20.6410 S   0  0  0  0  0  0
  -31.4661  -12.4298   19.1336 H   0  0  0  0  0  0
  -30.3156  -11.3383   19.8523 H   0  0  0  0  0  0
  -29.7409  -11.7651   17.4535 H   0  0  0  0  0  0
  -29.6721  -13.4870   17.7528 H   0  0  0  0  0  0
  -27.8323  -11.3212   18.8174 H   0  0  0  0  0  0
  -27.3701  -12.6508   17.7855 H   0  0  0  0  0  0
  -27.6861  -14.2661   19.5564 H   0  0  0  0  0  0
  -28.6827  -12.0309   21.3818 H   0  0  0  0  0  0
  -28.4546  -13.6936   21.8413 H   0  0  0  0  0  0
  -25.2712   -9.5699   22.4813 H   0  0  0  0  0  0
  -23.9973   -7.4634   22.7492 H   0  0  0  0  0  0
  -21.0811   -8.8776   19.8962 H   0  0  0  0  0  0
  -22.3669  -10.9683   19.6185 H   0  0  0  0  0  0
  -21.1997   -7.6134   23.9704 H   0  0  0  0  0  0
  -21.1508   -6.0519   25.9079 H   0  0  0  0  0  0
  -22.0583   -2.7594   23.2856 H   0  0  0  0  0  0
  -22.3935  -11.9910   22.4842 H   0  0  0  0  0  0
  -21.1036  -13.1371   22.2582 H   0  0  0  0  0  0
  -24.6679  -15.8564   20.5355 H   0  0  0  0  0  0
  -26.2667  -15.6249   20.0493 H   0  0  0  0  0  0
  -26.7161  -32.5509   23.1087 H   0  0  0  0  0  0
  -25.0230  -33.9675   25.0522 H   0  0  0  0  0  0
  -22.7027  -31.3133   21.4069 H   0  0  0  0  0  0
  -23.3746  -35.9629   23.3307 H   0  0  0  0  0  0
  -24.3564  -36.8907   22.2040 H   0  0  0  0  0  0
  -23.7235  -37.6504   23.6634 H   0  0  0  0  0  0
  -26.0628  -31.5729   20.5983 H   0  0  0  0  0  0
  -26.8250  -30.8657   21.9934 H   0  0  0  0  0  0
  -28.0998  -29.0373   21.2022 H   0  0  0  0  0  0
  -26.0740  -25.9968   18.9313 H   0  0  0  0  0  0
  -24.0010  -27.3268   18.9597 H   0  0  0  0  0  0
  -23.7272  -30.5954   19.4015 H   0  0  0  0  0  0
  -22.7367  -29.2470   19.8637 H   0  0  0  0  0  0
  -25.1275  -36.1950   25.0818 H   0  0  0  0  0  0
  -20.9973  -28.3331   24.1460 H   0  0  0  0  0  0
  -20.5740  -26.2349   23.3661 H   0  0  0  0  0  0
  -21.6747  -26.7516   22.1312 H   0  0  0  0  0  0
  -19.7077  -25.6323   21.1239 H   0  0  0  0  0  0
  -19.6800  -27.3201   20.6740 H   0  0  0  0  0  0
  -17.4298  -26.6485   21.4063 H   0  0  0  0  0  0
  -18.0569  -25.9955   22.9028 H   0  0  0  0  0  0
  -19.7892  -30.7230   24.2299 H   0  0  0  0  0  0
  -17.4948  -31.6230   24.5118 H   0  0  0  0  0  0
  -15.5300  -30.2897   23.7556 H   0  0  0  0  0  0
  -15.8745  -28.0663   22.7081 H   0  0  0  0  0  0
  -24.5970  -30.6999   25.7765 H   0  0  0  0  0  0
  -24.8961  -32.2834   26.4853 H   0  0  0  0  0  0
  -25.8152  -30.8860   27.0201 H   0  0  0  0  0  0
  -26.2936  -29.6703   24.1207 H   0  0  0  0  0  0
  -27.4237  -29.7279   25.4541 H   0  0  0  0  0  0
  -27.8742  -30.4285   23.9189 H   0  0  0  0  0  0
  -27.2716  -33.3564   26.2043 H   0  0  0  0  0  0
  -28.3927  -32.6835   25.0297 H   0  0  0  0  0  0
  -28.0763  -31.8386   26.5375 H   0  0  0  0  0  0
  -28.2604  -38.0097   24.7514 H   0  0  0  0  0  0
  -28.1062  -36.2631   24.6291 H   0  0  0  0  0  0
  -27.2287  -37.1465   25.8866 H   0  0  0  0  0  0
  -20.9296  -29.8925   21.7021 H   0  0  0  0  0  0
  -26.0180  -38.2879   24.1425 H   0  0  0  0  0  0
  -28.1782  -17.5851   21.1698 H   0  0  0  0  0  0
  -30.9066  -20.9166   20.8194 H   0  0  0  0  0  0
  -32.4317  -16.9143   20.7468 H   0  0  0  0  0  0
  -27.2188  -23.9486   18.5736 H   0  0  0  0  0  0
  -28.9255  -23.9966   18.9408 H   0  0  0  0  0  0
  -28.8481  -21.6766   18.6971 H   0  0  0  0  0  0
  -27.1230  -21.6105   19.0211 H   0  0  0  0  0  0
  -25.1467  -23.3457   19.4095 H   0  0  0  0  0  0
  -24.1999  -23.3357   20.8928 H   0  0  0  0  0  0
  -25.4849  -22.1522   20.6776 H   0  0  0  0  0  0
  -34.7909  -20.6251   22.3644 H   0  0  0  0  0  0
  -33.7314  -19.3543   23.0231 H   0  0  0  0  0  0
  -33.0585  -20.9463   22.6096 H   0  0  0  0  0  0
  -27.9566  -20.3310   22.2698 H   0  0  0  0  0  0
  -27.3482  -19.9109   20.6997 H   0  0  0  0  0  0
  -29.4987  -25.2614   21.1616 H   0  0  0  0  0  0
  -28.1452  -25.8430   22.0424 H   0  0  0  0  0  0
  -29.0295  -15.3571   21.2557 H   0  0  0  0  0  0
  1 25  1  0  0  0
  1 30  2  0  0  0
  1 87  1  0  0  0
  2  3  1  0  0  0
  2 25  1  0  0  0
  2 93  1  0  0  0
  2 94  1  0  0  0
  3  4  1  0  0  0
  3 95  1  0  0  0
  3 96  1  0  0  0
  4  5  1  0  0  0
  4 97  1  0  0  0
  4 98  1  0  0  0
  5  6  1  0  0  0
  5 26  1  0  0  0
  5 99  1  0  0  0
  6 25  1  0  0  0
  6100  1  0  0  0
  6101  1  0  0  0
  7  8  2  0  0  0
  7 26  1  0  0  0
  7 29  1  0  0  0
  8  9  1  0  0  0
  8 22  1  0  0  0
  9 10  1  0  0  0
  9 27  2  0  0  0
 10 11  2  0  0  0
 10 15  1  0  0  0
 11 12  1  0  0  0
 11102  1  0  0  0
 12 13  2  0  0  0
 12103  1  0  0  0
 13 14  1  0  0  0
 13 31  1  0  0  0
 14 15  2  0  0  0
 14104  1  0  0  0
 15105  1  0  0  0
 16 17  2  0  0  0
 16 21  1  0  0  0
 16 31  1  0  0  0
 17 18  1  0  0  0
 17106  1  0  0  0
 18 19  2  0  0  0
 18107  1  0  0  0
 19 20  1  0  0  0
 19 24  1  0  0  0
 20 21  2  0  0  0
 20108  1  0  0  0
 21 23  1  0  0  0
 22 28  1  0  0  0
 22 32  2  0  0  0
 26 27  1  0  0  0
 28109  1  0  0  0
 28110  1  0  0  0
 29111  1  0  0  0
 29112  1  0  0  0
 33 34  1  0  0  0
 33 66  1  0  0  0
 33 70  2  0  0  0
 34 36  1  0  0  0
 34 59  1  0  0  0
 34113  1  0  0  0
 35 44  2  0  0  0
 35 45  1  0  0  0
 35 68  1  0  0  0
 36 56  1  0  0  0
 36114  1  0  0  0
 37 39  1  0  0  0
 37 47  1  0  0  0
 37 66  1  0  0  0
 37115  1  0  0  0
 38 43  2  0  0  0
 38 46  1  0  0  0
 38 47  1  0  0  0
 39 64  1  0  0  0
 39 67  2  0  0  0
 40 52  1  0  0  0
 40 53  2  0  0  0
 40 58  1  0  0  0
 41116  1  0  0  0
 41117  1  0  0  0
 41118  1  0  0  0
 41 48  1  0  0  0
 42 43  1  0  0  0
 42 66  1  0  0  0
 42119  1  0  0  0
 42120  1  0  0  0
 43 44  1  0  0  0
 44121  1  0  0  0
 45 46  2  0  0  0
 45122  1  0  0  0
 46123  1  0  0  0
 47124  1  0  0  0
 47125  1  0  0  0
 48 56  1  0  0  0
 48 65  1  0  0  0
 48126  1  0  0  0
 49 50  1  0  0  0
 49 53  1  0  0  0
 49 64  1  0  0  0
 49127  1  0  0  0
 50 51  1  0  0  0
 50128  1  0  0  0
 50129  1  0  0  0
 51 52  1  0  0  0
 51130  1  0  0  0
 51131  1  0  0  0
 52132  1  0  0  0
 52133  1  0  0  0
 53 54  1  0  0  0
 54 55  2  0  0  0
 54134  1  0  0  0
 55 57  1  0  0  0
 55135  1  0  0  0
 56 69  2  0  0  0
 57 58  2  0  0  0
 57136  1  0  0  0
 58137  1  0  0  0
 59 60  1  0  0  0
 59 61  1  0  0  0
 59 62  1  0  0  0
 60138  1  0  0  0
 60139  1  0  0  0
 60140  1  0  0  0
 61141  1  0  0  0
 61142  1  0  0  0
 61143  1  0  0  0
 62144  1  0  0  0
 62145  1  0  0  0
 62146  1  0  0  0
 63 65  1  0  0  0
 63147  1  0  0  0
 63148  1  0  0  0
 63149  1  0  0  0
 64150  1  0  0  0
 65151  1  0  0  0
 68 85  1  0  0  0
 71 74  2  0  0  0
 71 75  1  0  0  0
 71152  1  0  0  0
 72 74  1  0  0  0
 72 76  2  0  0  0
 72153  1  0  0  0
 73 75  2  0  0  0
 73 76  1  0  0  0
 73154  1  0  0  0
 74 84  1  0  0  0
 75 87  1  0  0  0
 76 92  1  0  0  0
 77 81  1  0  0  0
 77 86  1  0  0  0
 77 88  2  0  0  0
 78 82  1  0  0  0
 78 89  2  0  0  0
 78 81  1  0  0  0
 79 80  1  0  0  0
 79 81  1  0  0  0
 79155  1  0  0  0
 79156  1  0  0  0
 80 86  1  0  0  0
 80157  1  0  0  0
 80158  1  0  0  0
 81 85  1  0  0  0
 82159  1  0  0  0
 82160  1  0  0  0
 82161  1  0  0  0
 83162  1  0  0  0
 83163  1  0  0  0
 83164  1  0  0  0
 83 92  1  0  0  0
 84 86  1  0  0  0
 84165  1  0  0  0
 84166  1  0  0  0
 85167  1  0  0  0
 85168  1  0  0  0
 87169  1  0  0  0
 90 92  2  0  0  0
 91 92  2  0  0  0
M  ISO  4   1 100  68 101  85 101  87 100
M  END
> <chiral flag>
0

> <version>
0

> <s_m_source_file>
/data/baiqing/PycharmProjects/Reinvent-master-3.2/result/LINK_invent/BTK/process_docking_weight1_custom_product_contain_oxygen_bond_distance_aromatic_linkinvent_7_9_3/rearranged_h_0061.sdf

> <i_m_source_file_index>
90

> <r_mmod_Potential_Energy-OPLS-2005>
-123.640678405762

> <r_mmod_Stretch_Energy-OPLS-2005>
58.6942825317383

> <r_mmod_Bend_Energy-OPLS-2005>
148.480804443359

> <r_mmod_Torsional_Energy-OPLS-2005>
269.960357666016

> <r_mmod_Improper_Torsional_Energy-OPLS-2005>
5.83541488647461

> <r_mmod_Van_der_Waal_Energy-OPLS-2005>
132.81396484375

> <r_mmod_Electrostatic_Energy-OPLS-2005>
-460.913970947266

> <r_mmod_Solvation_Energy-OPLS-2005>
-302.488616943359

> <b_mmod_Minimization_Converged-OPLS-2005>
0

> <r_mmod_RMS_Derivative-OPLS-2005>
3.6820969581604

$$$$
91
                    3D
 Structure written by MMmdl.
161170  0  0  1  0            999 V2000
  -30.6615  -14.5783   20.5358 C   0  0  0  0  0  0
  -30.4291  -12.3662   19.4412 C   0  0  0  0  0  0
  -29.5035  -12.5195   18.2170 C   0  0  0  0  0  0
  -28.0256  -12.3550   18.6267 C   0  0  0  0  0  0
  -27.6531  -13.2153   19.8646 C   0  0  2  0  0  0
  -28.6969  -13.0550   20.9929 C   0  0  0  0  0  0
  -25.2565  -13.8179   20.5668 C   0  0  0  0  0  0
  -24.1832  -13.0450   20.9198 C   0  0  0  0  0  0
  -24.6390  -11.6909   20.8742 C   0  0  0  0  0  0
  -23.9058  -10.4290   21.0398 C   0  0  0  0  0  0
  -24.3610   -9.4212   21.9175 C   0  0  0  0  0  0
  -23.6288   -8.2249   22.0749 C   0  0  0  0  0  0
  -22.4265   -8.0277   21.3546 C   0  0  0  0  0  0
  -21.9898   -9.0248   20.4647 C   0  0  0  0  0  0
  -22.7226  -10.2124   20.3054 C   0  0  0  0  0  0
  -21.6856   -6.0727   22.5274 C   0  0  0  0  0  0
  -21.4016   -6.5629   23.8208 C   0  0  0  0  0  0
  -21.3671   -5.6789   24.9170 C   0  0  0  0  0  0
  -21.6055   -4.3056   24.7235 C   0  0  0  0  0  0
  -21.8823   -3.8142   23.4352 C   0  0  0  0  0  0
  -21.9199   -4.6956   22.3398 C   0  0  0  0  0  0
  -22.7854  -13.5248   21.1852 C   0  0  0  0  0  0
  -22.1663   -4.2139   21.0984 F   0  0  0  0  0  0
  -21.5630   -3.4535   25.7750 F   0  0  0  0  0  0
  -30.0158  -13.3778   20.4285 N   0  0  0  0  0  0
  -26.2986  -12.9350   20.3310 N   0  0  0  0  0  0
  -25.9317  -11.6502   20.5754 N   0  0  0  0  0  0
  -22.0477  -12.8246   22.0407 N   0  0  0  0  0  0
  -25.4319  -15.1893   20.4020 N   0  0  0  0  0  0
  -31.8296  -14.7219   20.1623 O   0  0  0  0  0  0
  -21.6647   -6.8856   21.4230 O   0  0  0  0  0  0
  -22.3544  -14.5543   20.6679 O   0  0  0  0  0  0
  -24.6246  -31.8625   23.2050 C   0  0  0  0  0  0
  -25.9115  -32.4786   23.8363 C   0  0  1  0  0  0
  -27.2292  -27.3536   20.1107 C   0  0  0  0  0  0
  -25.5950  -33.8579   24.2288 N   0  0  0  0  0  0
  -23.4146  -30.4855   21.5490 C   0  0  2  0  0  0
  -24.8579  -28.9373   20.1231 C   0  0  0  0  0  0
  -22.7438  -29.4656   22.4995 C   0  0  0  0  0  0
  -18.0273  -28.1392   22.8507 C   0  0  0  0  0  0
  -24.1500  -36.7282   23.2633 C   0  0  0  0  0  0
  -25.9520  -30.8031   21.3689 C   0  0  0  0  0  0
  -26.0251  -29.4307   20.7176 C   0  0  0  0  0  0
  -27.2131  -28.6498   20.7022 C   0  0  0  0  0  0
  -26.0299  -26.8912   19.5215 C   0  0  0  0  0  0
  -24.8577  -27.6704   19.5212 C   0  0  0  0  0  0
  -23.6256  -29.8133   20.1666 C   0  0  0  0  0  0
  -25.4119  -36.3084   24.0326 C   0  0  1  0  0  0
  -20.5867  -28.3686   23.1313 C   0  0  2  0  0  0
  -20.6791  -26.9426   22.5408 C   0  0  0  0  0  0
  -19.5766  -26.6396   21.5217 C   0  0  0  0  0  0
  -18.1937  -26.7941   22.1622 C   0  0  0  0  0  0
  -19.1523  -28.8857   23.2907 C   0  0  0  0  0  0
  -18.9449  -30.1466   23.8914 C   0  0  0  0  0  0
  -17.6449  -30.6602   24.0569 C   0  0  0  0  0  0
  -25.9054  -34.9447   23.5089 C   0  0  0  0  0  0
  -16.5343  -29.9091   23.6344 C   0  0  0  0  0  0
  -16.7257  -28.6501   23.0382 C   0  0  0  0  0  0
  -26.4505  -31.6600   25.0718 C   0  0  0  0  0  0
  -25.3729  -31.3722   26.1429 C   0  0  0  0  0  0
  -27.0329  -30.3029   24.6149 C   0  0  0  0  0  0
  -27.6081  -32.4324   25.7474 C   0  0  0  0  0  0
  -27.5588  -37.1782   24.8449 C   0  0  0  0  0  0
  -21.4160  -29.3046   22.3710 N   0  0  0  0  0  0
  -26.4287  -37.3783   23.9420 N   0  0  0  0  0  0
  -24.6832  -31.0657   22.0986 N   0  0  0  0  0  0
  -23.4173  -28.8206   23.3072 O   0  0  0  0  0  0
  -28.3986  -26.5910   20.0871 O   0  0  0  0  0  0
  -26.5608  -34.8911   22.4646 O   0  0  0  0  0  0
  -23.5428  -32.1412   23.7403 O   0  0  0  0  0  0
  -31.4086  -17.4339   21.6850 C   0  0  0  0  0  0
  -29.4561  -18.0832   20.3901 C   0  0  0  0  0  0
  -31.7781  -18.7949   21.7954 C   0  0  0  0  0  0
  -29.8385  -19.4699   20.4334 C   0  0  0  0  0  0
  -30.2553  -17.0470   20.9678 C   0  0  0  0  0  0
  -31.0106  -19.7972   21.1569 C   0  0  0  0  0  0
  -28.1106  -22.8982   19.2980 C   0  0  0  0  0  0
  -29.0765  -20.2891   18.2990 C   0  0  0  0  0  0
  -28.0528  -24.2692   19.3744 C   0  0  0  0  0  0
  -28.4778  -25.2245   20.4445 C   0  0  0  0  0  0
  -27.4675  -22.2413   18.0969 C   0  0  0  0  0  0
  -28.7443  -21.8365   20.2520 C   0  0  0  0  0  0
  -28.4790  -21.3559   17.3848 C   0  0  0  0  0  0
  -33.0233  -19.1948   22.5789 C   0  0  0  0  0  0
  -29.1638  -20.5051   19.6440 N   0  0  0  0  0  0
  -29.8840  -15.6488   20.8674 N   0  0  0  0  0  0
  -29.4735  -19.2577   17.7456 O   0  0  0  0  0  0
  -28.9409  -24.8630   21.5272 O   0  0  0  0  0  0
  -31.4439  -21.0804   21.1958 F   0  0  0  0  0  0
  -33.6266  -18.1419   23.1339 F   0  0  0  0  0  0
  -33.9027  -19.7934   21.7749 F   0  0  0  0  0  0
  -32.6932  -20.0379   23.5574 F   0  0  0  0  0  0
  -31.4722  -12.4797   19.1427 H   0  0  0  0  0  0
  -30.3444  -11.3654   19.8661 H   0  0  0  0  0  0
  -29.7653  -11.7904   17.4494 H   0  0  0  0  0  0
  -29.6523  -13.5019   17.7642 H   0  0  0  0  0  0
  -27.8585  -11.2994   18.8444 H   0  0  0  0  0  0
  -27.3735  -12.6012   17.7873 H   0  0  0  0  0  0
  -27.6744  -14.2547   19.5359 H   0  0  0  0  0  0
  -28.6975  -12.0330   21.3746 H   0  0  0  0  0  0
  -28.4525  -13.6908   21.8449 H   0  0  0  0  0  0
  -25.2748   -9.5703   22.4751 H   0  0  0  0  0  0
  -24.0009   -7.4651   22.7470 H   0  0  0  0  0  0
  -21.0831   -8.8771   19.8952 H   0  0  0  0  0  0
  -22.3682  -10.9670   19.6174 H   0  0  0  0  0  0
  -21.1990   -7.6139   23.9710 H   0  0  0  0  0  0
  -21.1496   -6.0513   25.9077 H   0  0  0  0  0  0
  -22.0590   -2.7603   23.2862 H   0  0  0  0  0  0
  -22.4079  -11.9908   22.4809 H   0  0  0  0  0  0
  -21.1101  -13.1297   22.2585 H   0  0  0  0  0  0
  -24.6635  -15.8452   20.4848 H   0  0  0  0  0  0
  -26.2723  -15.6150   20.0338 H   0  0  0  0  0  0
  -26.7174  -32.5468   23.1112 H   0  0  0  0  0  0
  -25.0146  -33.9756   25.0468 H   0  0  0  0  0  0
  -22.7098  -31.3064   21.4023 H   0  0  0  0  0  0
  -23.3773  -35.9602   23.3275 H   0  0  0  0  0  0
  -24.3608  -36.8922   22.2055 H   0  0  0  0  0  0
  -23.7225  -37.6461   23.6662 H   0  0  0  0  0  0
  -26.0791  -31.5659   20.5999 H   0  0  0  0  0  0
  -26.8356  -30.8539   21.9935 H   0  0  0  0  0  0
  -28.1172  -29.0321   21.1546 H   0  0  0  0  0  0
  -25.9650  -25.9223   19.0567 H   0  0  0  0  0  0
  -23.9588  -27.2833   19.0616 H   0  0  0  0  0  0
  -23.7403  -30.5820   19.4012 H   0  0  0  0  0  0
  -22.7487  -29.2342   19.8720 H   0  0  0  0  0  0
  -25.1307  -36.1923   25.0816 H   0  0  0  0  0  0
  -20.9964  -28.3252   24.1430 H   0  0  0  0  0  0
  -20.5742  -26.2287   23.3593 H   0  0  0  0  0  0
  -21.6659  -26.7521   22.1169 H   0  0  0  0  0  0
  -19.6941  -25.6304   21.1261 H   0  0  0  0  0  0
  -19.6706  -27.3196   20.6748 H   0  0  0  0  0  0
  -17.4219  -26.6708   21.4016 H   0  0  0  0  0  0
  -18.0340  -26.0062   22.9002 H   0  0  0  0  0  0
  -19.7914  -30.7291   24.2290 H   0  0  0  0  0  0
  -17.4990  -31.6285   24.5168 H   0  0  0  0  0  0
  -15.5343  -30.3010   23.7649 H   0  0  0  0  0  0
  -15.8661  -28.0812   22.7140 H   0  0  0  0  0  0
  -24.5920  -30.7069   25.7735 H   0  0  0  0  0  0
  -24.8899  -32.2874   26.4857 H   0  0  0  0  0  0
  -25.8044  -30.8881   27.0198 H   0  0  0  0  0  0
  -26.2876  -29.6783   24.1205 H   0  0  0  0  0  0
  -27.4067  -29.7299   25.4649 H   0  0  0  0  0  0
  -27.8741  -30.4332   23.9332 H   0  0  0  0  0  0
  -27.2715  -33.3632   26.2052 H   0  0  0  0  0  0
  -28.3871  -32.6874   25.0276 H   0  0  0  0  0  0
  -28.0752  -31.8431   26.5373 H   0  0  0  0  0  0
  -28.2569  -38.0124   24.7586 H   0  0  0  0  0  0
  -28.1128  -36.2659   24.6174 H   0  0  0  0  0  0
  -27.2315  -37.1298   25.8852 H   0  0  0  0  0  0
  -20.9348  -29.8685   21.6846 H   0  0  0  0  0  0
  -26.0163  -38.2848   24.1463 H   0  0  0  0  0  0
  -32.0230  -16.6840   22.1608 H   0  0  0  0  0  0
  -28.5693  -17.8037   19.8404 H   0  0  0  0  0  0
  -27.6121  -24.7632   18.5248 H   0  0  0  0  0  0
  -27.0692  -22.9769   17.3960 H   0  0  0  0  0  0
  -26.6157  -21.6472   18.4331 H   0  0  0  0  0  0
  -27.9893  -21.6015   21.0033 H   0  0  0  0  0  0
  -29.5637  -22.3091   20.7879 H   0  0  0  0  0  0
  -28.0082  -20.8737   16.5274 H   0  0  0  0  0  0
  -29.2951  -21.9618   16.9927 H   0  0  0  0  0  0
  -28.9032  -15.4367   20.9759 H   0  0  0  0  0  0
  1 25  1  0  0  0
  1 30  2  0  0  0
  1 86  1  0  0  0
  2  3  1  0  0  0
  2 25  1  0  0  0
  2 93  1  0  0  0
  2 94  1  0  0  0
  3  4  1  0  0  0
  3 95  1  0  0  0
  3 96  1  0  0  0
  4  5  1  0  0  0
  4 97  1  0  0  0
  4 98  1  0  0  0
  5  6  1  0  0  0
  5 26  1  0  0  0
  5 99  1  0  0  0
  6 25  1  0  0  0
  6100  1  0  0  0
  6101  1  0  0  0
  7  8  2  0  0  0
  7 26  1  0  0  0
  7 29  1  0  0  0
  8  9  1  0  0  0
  8 22  1  0  0  0
  9 10  1  0  0  0
  9 27  2  0  0  0
 10 11  2  0  0  0
 10 15  1  0  0  0
 11 12  1  0  0  0
 11102  1  0  0  0
 12 13  2  0  0  0
 12103  1  0  0  0
 13 14  1  0  0  0
 13 31  1  0  0  0
 14 15  2  0  0  0
 14104  1  0  0  0
 15105  1  0  0  0
 16 17  2  0  0  0
 16 21  1  0  0  0
 16 31  1  0  0  0
 17 18  1  0  0  0
 17106  1  0  0  0
 18 19  2  0  0  0
 18107  1  0  0  0
 19 20  1  0  0  0
 19 24  1  0  0  0
 20 21  2  0  0  0
 20108  1  0  0  0
 21 23  1  0  0  0
 22 28  1  0  0  0
 22 32  2  0  0  0
 26 27  1  0  0  0
 28109  1  0  0  0
 28110  1  0  0  0
 29111  1  0  0  0
 29112  1  0  0  0
 33 34  1  0  0  0
 33 66  1  0  0  0
 33 70  2  0  0  0
 34 36  1  0  0  0
 34 59  1  0  0  0
 34113  1  0  0  0
 35 44  2  0  0  0
 35 45  1  0  0  0
 35 68  1  0  0  0
 36 56  1  0  0  0
 36114  1  0  0  0
 37 39  1  0  0  0
 37 47  1  0  0  0
 37 66  1  0  0  0
 37115  1  0  0  0
 38 43  2  0  0  0
 38 46  1  0  0  0
 38 47  1  0  0  0
 39 64  1  0  0  0
 39 67  2  0  0  0
 40 52  1  0  0  0
 40 53  2  0  0  0
 40 58  1  0  0  0
 41116  1  0  0  0
 41117  1  0  0  0
 41118  1  0  0  0
 41 48  1  0  0  0
 42 43  1  0  0  0
 42 66  1  0  0  0
 42119  1  0  0  0
 42120  1  0  0  0
 43 44  1  0  0  0
 44121  1  0  0  0
 45 46  2  0  0  0
 45122  1  0  0  0
 46123  1  0  0  0
 47124  1  0  0  0
 47125  1  0  0  0
 48 56  1  0  0  0
 48 65  1  0  0  0
 48126  1  0  0  0
 49 50  1  0  0  0
 49 53  1  0  0  0
 49 64  1  0  0  0
 49127  1  0  0  0
 50 51  1  0  0  0
 50128  1  0  0  0
 50129  1  0  0  0
 51 52  1  0  0  0
 51130  1  0  0  0
 51131  1  0  0  0
 52132  1  0  0  0
 52133  1  0  0  0
 53 54  1  0  0  0
 54 55  2  0  0  0
 54134  1  0  0  0
 55 57  1  0  0  0
 55135  1  0  0  0
 56 69  2  0  0  0
 57 58  2  0  0  0
 57136  1  0  0  0
 58137  1  0  0  0
 59 60  1  0  0  0
 59 61  1  0  0  0
 59 62  1  0  0  0
 60138  1  0  0  0
 60139  1  0  0  0
 60140  1  0  0  0
 61141  1  0  0  0
 61142  1  0  0  0
 61143  1  0  0  0
 62144  1  0  0  0
 62145  1  0  0  0
 62146  1  0  0  0
 63 65  1  0  0  0
 63147  1  0  0  0
 63148  1  0  0  0
 63149  1  0  0  0
 64150  1  0  0  0
 65151  1  0  0  0
 68 80  1  0  0  0
 71 73  2  0  0  0
 71 75  1  0  0  0
 71152  1  0  0  0
 72 74  1  0  0  0
 72 75  2  0  0  0
 72153  1  0  0  0
 73 76  1  0  0  0
 73 84  1  0  0  0
 74 76  2  0  0  0
 74 85  1  0  0  0
 75 86  1  0  0  0
 76 89  1  0  0  0
 77 79  2  0  0  0
 77 81  1  0  0  0
 77 82  1  0  0  0
 78 83  1  0  0  0
 78 85  1  0  0  0
 78 87  2  0  0  0
 79 80  1  0  0  0
 79154  1  0  0  0
 80 88  2  0  0  0
 81 83  1  0  0  0
 81155  1  0  0  0
 81156  1  0  0  0
 82 85  1  0  0  0
 82157  1  0  0  0
 82158  1  0  0  0
 83159  1  0  0  0
 83160  1  0  0  0
 84 90  1  0  0  0
 84 91  1  0  0  0
 84 92  1  0  0  0
 86161  1  0  0  0
M  ISO  4   1 100  68 101  80 101  86 100
M  END
> <chiral flag>
0

> <version>
0

> <s_m_source_file>
/data/baiqing/PycharmProjects/Reinvent-master-3.2/result/LINK_invent/BTK/process_docking_weight1_custom_product_contain_oxygen_bond_distance_aromatic_linkinvent_7_9_3/rearranged_h_0061.sdf

> <i_m_source_file_index>
91

> <r_mmod_Potential_Energy-OPLS-2005>
162.04508972168

> <r_mmod_Stretch_Energy-OPLS-2005>
75.9138717651367

> <r_mmod_Bend_Energy-OPLS-2005>
138.939727783203

> <r_mmod_Torsional_Energy-OPLS-2005>
323.206756591797

> <r_mmod_Improper_Torsional_Energy-OPLS-2005>
6.42967796325684

> <r_mmod_Van_der_Waal_Energy-OPLS-2005>
166.845260620117

> <r_mmod_Electrostatic_Energy-OPLS-2005>
-347.395935058594

> <r_mmod_Solvation_Energy-OPLS-2005>
-232.195739746094

> <b_mmod_Minimization_Converged-OPLS-2005>
0

> <r_mmod_RMS_Derivative-OPLS-2005>
2.60741281509399

$$$$
92
                    3D
 Structure written by MMmdl.
159168  0  0  1  0            999 V2000
  -30.6088  -14.6874   20.4620 C   0  0  0  0  0  0
  -30.4312  -12.4124   19.4789 C   0  0  0  0  0  0
  -29.5158  -12.5035   18.2379 C   0  0  0  0  0  0
  -28.0348  -12.3498   18.6388 C   0  0  0  0  0  0
  -27.6483  -13.2291   19.8608 C   0  0  2  0  0  0
  -28.6875  -13.1175   20.9974 C   0  0  0  0  0  0
  -25.2534  -13.8205   20.5712 C   0  0  0  0  0  0
  -24.1812  -13.0448   20.9198 C   0  0  0  0  0  0
  -24.6385  -11.6926   20.8735 C   0  0  0  0  0  0
  -23.9069  -10.4310   21.0395 C   0  0  0  0  0  0
  -24.3625   -9.4223   21.9165 C   0  0  0  0  0  0
  -23.6307   -8.2257   22.0735 C   0  0  0  0  0  0
  -22.4294   -8.0292   21.3528 C   0  0  0  0  0  0
  -21.9919   -9.0262   20.4641 C   0  0  0  0  0  0
  -22.7239  -10.2142   20.3048 C   0  0  0  0  0  0
  -21.6862   -6.0750   22.5273 C   0  0  0  0  0  0
  -21.4026   -6.5643   23.8212 C   0  0  0  0  0  0
  -21.3658   -5.6786   24.9162 C   0  0  0  0  0  0
  -21.6044   -4.3049   24.7211 C   0  0  0  0  0  0
  -21.8820   -3.8150   23.4330 C   0  0  0  0  0  0
  -21.9194   -4.6974   22.3393 C   0  0  0  0  0  0
  -22.7826  -13.5233   21.1842 C   0  0  0  0  0  0
  -22.1656   -4.2163   21.0966 F   0  0  0  0  0  0
  -21.5622   -3.4524   25.7727 F   0  0  0  0  0  0
  -29.9990  -13.4578   20.4331 N   0  0  0  0  0  0
  -26.2961  -12.9407   20.3295 N   0  0  0  0  0  0
  -25.9320  -11.6547   20.5741 N   0  0  0  0  0  0
  -22.0468  -12.8241   22.0414 N   0  0  0  0  0  0
  -25.4225  -15.1935   20.4172 N   0  0  0  0  0  0
  -31.7846  -14.8024   20.1027 O   0  0  0  0  0  0
  -21.6639   -6.8899   21.4245 O   0  0  0  0  0  0
  -22.3518  -14.5528   20.6666 O   0  0  0  0  0  0
  -24.6319  -31.8554   23.2004 C   0  0  0  0  0  0
  -25.9135  -32.4759   23.8360 C   0  0  1  0  0  0
  -27.2111  -27.2593   20.1230 C   0  0  0  0  0  0
  -25.5923  -33.8555   24.2278 N   0  0  0  0  0  0
  -23.4290  -30.4809   21.5429 C   0  0  2  0  0  0
  -24.8744  -28.9325   20.1105 C   0  0  0  0  0  0
  -22.7514  -29.4612   22.4900 C   0  0  0  0  0  0
  -18.0289  -28.1382   22.8480 C   0  0  0  0  0  0
  -24.1481  -36.7283   23.2643 C   0  0  0  0  0  0
  -25.9766  -30.7694   21.3803 C   0  0  0  0  0  0
  -26.0482  -29.3916   20.7207 C   0  0  0  0  0  0
  -27.2208  -28.5677   20.7173 C   0  0  0  0  0  0
  -26.0131  -26.8776   19.4764 C   0  0  0  0  0  0
  -24.8617  -27.6832   19.4775 C   0  0  0  0  0  0
  -23.6469  -29.8195   20.1582 C   0  0  0  0  0  0
  -25.4102  -36.3067   24.0335 C   0  0  1  0  0  0
  -20.5898  -28.3696   23.1248 C   0  0  2  0  0  0
  -20.6762  -26.9408   22.5397 C   0  0  0  0  0  0
  -19.5743  -26.6373   21.5196 C   0  0  0  0  0  0
  -18.1930  -26.7920   22.1622 C   0  0  0  0  0  0
  -19.1546  -28.8855   23.2860 C   0  0  0  0  0  0
  -18.9463  -30.1450   23.8887 C   0  0  0  0  0  0
  -17.6465  -30.6583   24.0553 C   0  0  0  0  0  0
  -25.9043  -34.9435   23.5111 C   0  0  0  0  0  0
  -16.5356  -29.9084   23.6323 C   0  0  0  0  0  0
  -16.7277  -28.6500   23.0350 C   0  0  0  0  0  0
  -26.4489  -31.6581   25.0753 C   0  0  0  0  0  0
  -25.3713  -31.3728   26.1481 C   0  0  0  0  0  0
  -27.0341  -30.3009   24.6232 C   0  0  0  0  0  0
  -27.6058  -32.4304   25.7516 C   0  0  0  0  0  0
  -27.5569  -37.1794   24.8461 C   0  0  0  0  0  0
  -21.4221  -29.3051   22.3647 N   0  0  0  0  0  0
  -26.4279  -37.3765   23.9412 N   0  0  0  0  0  0
  -24.6986  -31.0516   22.0977 N   0  0  0  0  0  0
  -23.4213  -28.8131   23.2988 O   0  0  0  0  0  0
  -28.2879  -26.3428   20.1905 O   0  0  0  0  0  0
  -26.5614  -34.8906   22.4682 O   0  0  0  0  0  0
  -23.5468  -32.1365   23.7297 O   0  0  0  0  0  0
  -30.0330  -19.7542   18.9271 C   0  0  0  0  0  0
  -30.4214  -17.3284   18.8670 C   0  0  0  0  0  0
  -29.4400  -18.3628   20.8288 C   0  0  0  0  0  0
  -30.4724  -18.5951   18.2497 C   0  0  0  0  0  0
  -29.5055  -19.6967   20.2376 C   0  0  0  0  0  0
  -29.9194  -17.1602   20.1762 C   0  0  0  0  0  0
  -29.1877  -21.1005   22.2936 C   0  0  0  0  0  0
  -28.5075  -22.1644   20.1237 C   0  0  0  0  0  0
  -29.5044  -23.7933   21.8644 C   0  0  0  0  0  0
  -28.9924  -23.6804   20.4247 C   0  0  2  0  0  0
  -31.0028  -18.7076   16.8338 C   0  0  0  0  0  0
  -27.9733  -24.8766   20.0501 C   0  0  0  0  0  0
  -29.1088  -20.9825   20.8882 N   0  0  0  0  0  0
  -29.8342  -15.7983   20.7431 N   0  0  0  0  0  0
  -29.5888  -20.2452   23.0877 O   0  0  0  0  0  0
  -28.6388  -22.6831   23.0066 S   0  0  0  0  0  0
  -31.4762  -12.5244   19.1844 H   0  0  0  0  0  0
  -30.3587  -11.4258   19.9411 H   0  0  0  0  0  0
  -29.7886  -11.7349   17.5135 H   0  0  0  0  0  0
  -29.6641  -13.4617   17.7378 H   0  0  0  0  0  0
  -27.8640  -11.2990   18.8735 H   0  0  0  0  0  0
  -27.3901  -12.5771   17.7899 H   0  0  0  0  0  0
  -27.6574  -14.2608   19.5065 H   0  0  0  0  0  0
  -28.7029  -12.1063   21.4090 H   0  0  0  0  0  0
  -28.4283  -13.7792   21.8262 H   0  0  0  0  0  0
  -25.2772   -9.5697   22.4729 H   0  0  0  0  0  0
  -24.0010   -7.4656   22.7456 H   0  0  0  0  0  0
  -21.0843   -8.8790   19.8964 H   0  0  0  0  0  0
  -22.3690  -10.9677   19.6161 H   0  0  0  0  0  0
  -21.2026   -7.6153   23.9725 H   0  0  0  0  0  0
  -21.1474   -6.0504   25.9066 H   0  0  0  0  0  0
  -22.0601   -2.7618   23.2813 H   0  0  0  0  0  0
  -22.4073  -11.9934   22.4869 H   0  0  0  0  0  0
  -21.1073  -13.1260   22.2587 H   0  0  0  0  0  0
  -24.6583  -15.8469   20.5515 H   0  0  0  0  0  0
  -26.2749  -15.6390   20.1024 H   0  0  0  0  0  0
  -26.7221  -32.5406   23.1117 H   0  0  0  0  0  0
  -25.0046  -33.9688   25.0412 H   0  0  0  0  0  0
  -22.7273  -31.3047   21.3981 H   0  0  0  0  0  0
  -23.3738  -35.9620   23.3289 H   0  0  0  0  0  0
  -24.3585  -36.8918   22.2062 H   0  0  0  0  0  0
  -23.7226  -37.6484   23.6668 H   0  0  0  0  0  0
  -26.1118  -31.5285   20.6083 H   0  0  0  0  0  0
  -26.8571  -30.8222   22.0097 H   0  0  0  0  0  0
  -28.1173  -28.9063   21.2178 H   0  0  0  0  0  0
  -25.9234  -25.9274   18.9739 H   0  0  0  0  0  0
  -23.9631  -27.3270   18.9921 H   0  0  0  0  0  0
  -23.7752  -30.5968   19.4044 H   0  0  0  0  0  0
  -22.7654  -29.2549   19.8501 H   0  0  0  0  0  0
  -25.1275  -36.1922   25.0828 H   0  0  0  0  0  0
  -21.0000  -28.3265   24.1362 H   0  0  0  0  0  0
  -20.5623  -26.2314   23.3606 H   0  0  0  0  0  0
  -21.6631  -26.7394   22.1210 H   0  0  0  0  0  0
  -19.6889  -25.6276   21.1239 H   0  0  0  0  0  0
  -19.6674  -27.3167   20.6714 H   0  0  0  0  0  0
  -17.4186  -26.6653   21.4039 H   0  0  0  0  0  0
  -18.0350  -26.0070   22.9033 H   0  0  0  0  0  0
  -19.7939  -30.7256   24.2271 H   0  0  0  0  0  0
  -17.5018  -31.6263   24.5148 H   0  0  0  0  0  0
  -15.5355  -30.2979   23.7636 H   0  0  0  0  0  0
  -15.8682  -28.0803   22.7078 H   0  0  0  0  0  0
  -24.5905  -30.7051   25.7813 H   0  0  0  0  0  0
  -24.8881  -32.2899   26.4876 H   0  0  0  0  0  0
  -25.8041  -30.8940   27.0282 H   0  0  0  0  0  0
  -26.2944  -29.6764   24.1222 H   0  0  0  0  0  0
  -27.3996  -29.7253   25.4745 H   0  0  0  0  0  0
  -27.8821  -30.4292   23.9502 H   0  0  0  0  0  0
  -27.2701  -33.3619   26.2085 H   0  0  0  0  0  0
  -28.3880  -32.6840   25.0346 H   0  0  0  0  0  0
  -28.0723  -31.8435   26.5442 H   0  0  0  0  0  0
  -28.2577  -38.0101   24.7512 H   0  0  0  0  0  0
  -28.1078  -36.2630   24.6272 H   0  0  0  0  0  0
  -27.2300  -37.1423   25.8870 H   0  0  0  0  0  0
  -20.9395  -29.8836   21.6904 H   0  0  0  0  0  0
  -26.0153  -38.2840   24.1428 H   0  0  0  0  0  0
  -30.1300  -20.7038   18.4223 H   0  0  0  0  0  0
  -30.7565  -16.4686   18.3037 H   0  0  0  0  0  0
  -29.0155  -18.2433   21.8148 H   0  0  0  0  0  0
  -28.5283  -21.9916   19.0502 H   0  0  0  0  0  0
  -27.4439  -22.1185   20.3626 H   0  0  0  0  0  0
  -29.4316  -24.8205   22.2235 H   0  0  0  0  0  0
  -30.5628  -23.5311   21.8971 H   0  0  0  0  0  0
  -29.8665  -23.8418   19.7923 H   0  0  0  0  0  0
  -31.5460  -19.6412   16.6887 H   0  0  0  0  0  0
  -30.1800  -18.6744   16.1192 H   0  0  0  0  0  0
  -31.6855  -17.8907   16.6000 H   0  0  0  0  0  0
  -27.0649  -24.6794   20.6232 H   0  0  0  0  0  0
  -27.7100  -24.7108   19.0047 H   0  0  0  0  0  0
  -28.9856  -15.5968   21.2507 H   0  0  0  0  0  0
  1 25  1  0  0  0
  1 30  2  0  0  0
  1 84  1  0  0  0
  2  3  1  0  0  0
  2 25  1  0  0  0
  2 87  1  0  0  0
  2 88  1  0  0  0
  3  4  1  0  0  0
  3 89  1  0  0  0
  3 90  1  0  0  0
  4  5  1  0  0  0
  4 91  1  0  0  0
  4 92  1  0  0  0
  5  6  1  0  0  0
  5 26  1  0  0  0
  5 93  1  0  0  0
  6 25  1  0  0  0
  6 94  1  0  0  0
  6 95  1  0  0  0
  7  8  2  0  0  0
  7 26  1  0  0  0
  7 29  1  0  0  0
  8  9  1  0  0  0
  8 22  1  0  0  0
  9 10  1  0  0  0
  9 27  2  0  0  0
 10 11  2  0  0  0
 10 15  1  0  0  0
 11 12  1  0  0  0
 11 96  1  0  0  0
 12 13  2  0  0  0
 12 97  1  0  0  0
 13 14  1  0  0  0
 13 31  1  0  0  0
 14 15  2  0  0  0
 14 98  1  0  0  0
 15 99  1  0  0  0
 16 17  2  0  0  0
 16 21  1  0  0  0
 16 31  1  0  0  0
 17 18  1  0  0  0
 17100  1  0  0  0
 18 19  2  0  0  0
 18101  1  0  0  0
 19 20  1  0  0  0
 19 24  1  0  0  0
 20 21  2  0  0  0
 20102  1  0  0  0
 21 23  1  0  0  0
 22 28  1  0  0  0
 22 32  2  0  0  0
 26 27  1  0  0  0
 28103  1  0  0  0
 28104  1  0  0  0
 29105  1  0  0  0
 29106  1  0  0  0
 33 34  1  0  0  0
 33 66  1  0  0  0
 33 70  2  0  0  0
 34 36  1  0  0  0
 34 59  1  0  0  0
 34107  1  0  0  0
 35 44  2  0  0  0
 35 45  1  0  0  0
 35 68  1  0  0  0
 36 56  1  0  0  0
 36108  1  0  0  0
 37 39  1  0  0  0
 37 47  1  0  0  0
 37 66  1  0  0  0
 37109  1  0  0  0
 38 43  2  0  0  0
 38 46  1  0  0  0
 38 47  1  0  0  0
 39 64  1  0  0  0
 39 67  2  0  0  0
 40 52  1  0  0  0
 40 53  2  0  0  0
 40 58  1  0  0  0
 41110  1  0  0  0
 41111  1  0  0  0
 41112  1  0  0  0
 41 48  1  0  0  0
 42 43  1  0  0  0
 42 66  1  0  0  0
 42113  1  0  0  0
 42114  1  0  0  0
 43 44  1  0  0  0
 44115  1  0  0  0
 45 46  2  0  0  0
 45116  1  0  0  0
 46117  1  0  0  0
 47118  1  0  0  0
 47119  1  0  0  0
 48 56  1  0  0  0
 48 65  1  0  0  0
 48120  1  0  0  0
 49 50  1  0  0  0
 49 53  1  0  0  0
 49 64  1  0  0  0
 49121  1  0  0  0
 50 51  1  0  0  0
 50122  1  0  0  0
 50123  1  0  0  0
 51 52  1  0  0  0
 51124  1  0  0  0
 51125  1  0  0  0
 52126  1  0  0  0
 52127  1  0  0  0
 53 54  1  0  0  0
 54 55  2  0  0  0
 54128  1  0  0  0
 55 57  1  0  0  0
 55129  1  0  0  0
 56 69  2  0  0  0
 57 58  2  0  0  0
 57130  1  0  0  0
 58131  1  0  0  0
 59 60  1  0  0  0
 59 61  1  0  0  0
 59 62  1  0  0  0
 60132  1  0  0  0
 60133  1  0  0  0
 60134  1  0  0  0
 61135  1  0  0  0
 61136  1  0  0  0
 61137  1  0  0  0
 62138  1  0  0  0
 62139  1  0  0  0
 62140  1  0  0  0
 63 65  1  0  0  0
 63141  1  0  0  0
 63142  1  0  0  0
 63143  1  0  0  0
 64144  1  0  0  0
 65145  1  0  0  0
 68 82  1  0  0  0
 71 74  2  0  0  0
 71 75  1  0  0  0
 71146  1  0  0  0
 72 74  1  0  0  0
 72 76  2  0  0  0
 72147  1  0  0  0
 73 75  2  0  0  0
 73 76  1  0  0  0
 73148  1  0  0  0
 74 81  1  0  0  0
 75 83  1  0  0  0
 76 84  1  0  0  0
 77 83  1  0  0  0
 77 85  2  0  0  0
 77 86  1  0  0  0
 78 80  1  0  0  0
 78 83  1  0  0  0
 78149  1  0  0  0
 78150  1  0  0  0
 79 80  1  0  0  0
 79 86  1  0  0  0
 79151  1  0  0  0
 79152  1  0  0  0
 80 82  1  0  0  0
 80153  1  0  0  0
 81154  1  0  0  0
 81155  1  0  0  0
 81156  1  0  0  0
 82157  1  0  0  0
 82158  1  0  0  0
 84159  1  0  0  0
M  ISO  4   1 100  68 101  82 101  84 100
M  END
> <chiral flag>
0

> <version>
0

> <s_m_source_file>
/data/baiqing/PycharmProjects/Reinvent-master-3.2/result/LINK_invent/BTK/process_docking_weight1_custom_product_contain_oxygen_bond_distance_aromatic_linkinvent_7_9_3/rearranged_h_0061.sdf

> <i_m_source_file_index>
92

> <r_mmod_Potential_Energy-OPLS-2005>
227.963302612305

> <r_mmod_Stretch_Energy-OPLS-2005>
122.598892211914

> <r_mmod_Bend_Energy-OPLS-2005>
154.979263305664

> <r_mmod_Torsional_Energy-OPLS-2005>
289.265808105469

> <r_mmod_Improper_Torsional_Energy-OPLS-2005>
4.44546031951904

> <r_mmod_Van_der_Waal_Energy-OPLS-2005>
158.852081298828

> <r_mmod_Electrostatic_Energy-OPLS-2005>
-341.604461669922

> <r_mmod_Solvation_Energy-OPLS-2005>
-235.603866577148

> <b_mmod_Minimization_Converged-OPLS-2005>
0

> <r_mmod_RMS_Derivative-OPLS-2005>
2.3315258026123

$$$$
93
                    3D
 Structure written by MMmdl.
165174  0  0  1  0            999 V2000
  -30.7637  -14.3933   20.6740 C   0  0  0  0  0  0
  -30.4170  -12.3047   19.4004 C   0  0  0  0  0  0
  -29.4847  -12.5220   18.1944 C   0  0  0  0  0  0
  -28.0093  -12.3768   18.6120 C   0  0  0  0  0  0
  -27.6632  -13.2067   19.8764 C   0  0  2  0  0  0
  -28.7025  -12.9660   20.9933 C   0  0  0  0  0  0
  -25.2592  -13.8166   20.5679 C   0  0  0  0  0  0
  -24.1838  -13.0441   20.9164 C   0  0  0  0  0  0
  -24.6393  -11.6908   20.8726 C   0  0  0  0  0  0
  -23.9059  -10.4292   21.0400 C   0  0  0  0  0  0
  -24.3611   -9.4211   21.9179 C   0  0  0  0  0  0
  -23.6289   -8.2246   22.0753 C   0  0  0  0  0  0
  -22.4271   -8.0282   21.3546 C   0  0  0  0  0  0
  -21.9905   -9.0252   20.4645 C   0  0  0  0  0  0
  -22.7232  -10.2131   20.3050 C   0  0  0  0  0  0
  -21.6852   -6.0735   22.5280 C   0  0  0  0  0  0
  -21.4011   -6.5639   23.8212 C   0  0  0  0  0  0
  -21.3658   -5.6792   24.9174 C   0  0  0  0  0  0
  -21.6045   -4.3054   24.7223 C   0  0  0  0  0  0
  -21.8820   -3.8145   23.4345 C   0  0  0  0  0  0
  -21.9192   -4.6963   22.3402 C   0  0  0  0  0  0
  -22.7862  -13.5238   21.1834 C   0  0  0  0  0  0
  -22.1661   -4.2148   21.0979 F   0  0  0  0  0  0
  -21.5629   -3.4537   25.7735 F   0  0  0  0  0  0
  -30.0416  -13.2628   20.4517 N   0  0  0  0  0  0
  -26.3033  -12.9338   20.3371 N   0  0  0  0  0  0
  -25.9319  -11.6494   20.5758 N   0  0  0  0  0  0
  -22.0498  -12.8231   22.0387 N   0  0  0  0  0  0
  -25.4327  -15.1883   20.4105 N   0  0  0  0  0  0
  -31.8027  -14.6579   20.0622 O   0  0  0  0  0  0
  -21.6639   -6.8877   21.4241 O   0  0  0  0  0  0
  -22.3547  -14.5547   20.6690 O   0  0  0  0  0  0
  -24.6121  -31.8700   23.2116 C   0  0  0  0  0  0
  -25.9025  -32.4834   23.8406 C   0  0  1  0  0  0
  -27.2367  -27.4561   20.0954 C   0  0  0  0  0  0
  -25.5901  -33.8632   24.2344 N   0  0  0  0  0  0
  -23.4001  -30.4922   21.5509 C   0  0  2  0  0  0
  -24.8497  -28.9568   20.1189 C   0  0  0  0  0  0
  -22.7400  -29.4669   22.5002 C   0  0  0  0  0  0
  -18.0272  -28.1375   22.8498 C   0  0  0  0  0  0
  -24.1484  -36.7309   23.2635 C   0  0  0  0  0  0
  -25.9263  -30.8391   21.3642 C   0  0  0  0  0  0
  -26.0059  -29.4710   20.7214 C   0  0  0  0  0  0
  -27.2042  -28.7233   20.7183 C   0  0  0  0  0  0
  -26.0723  -26.9521   19.4858 C   0  0  0  0  0  0
  -24.8751  -27.6928   19.5024 C   0  0  0  0  0  0
  -23.6097  -29.8210   20.1664 C   0  0  0  0  0  0
  -25.4105  -36.3119   24.0342 C   0  0  1  0  0  0
  -20.5859  -28.3659   23.1327 C   0  0  2  0  0  0
  -20.6763  -26.9398   22.5421 C   0  0  0  0  0  0
  -19.5743  -26.6386   21.5213 C   0  0  0  0  0  0
  -18.1921  -26.7925   22.1623 C   0  0  0  0  0  0
  -19.1521  -28.8833   23.2910 C   0  0  0  0  0  0
  -18.9451  -30.1441   23.8915 C   0  0  0  0  0  0
  -17.6454  -30.6585   24.0564 C   0  0  0  0  0  0
  -25.9032  -34.9483   23.5136 C   0  0  0  0  0  0
  -16.5344  -29.9088   23.6325 C   0  0  0  0  0  0
  -16.7262  -28.6503   23.0348 C   0  0  0  0  0  0
  -26.4467  -31.6597   25.0715 C   0  0  0  0  0  0
  -25.3753  -31.3699   26.1478 C   0  0  0  0  0  0
  -27.0279  -30.3043   24.6053 C   0  0  0  0  0  0
  -27.6056  -32.4301   25.7474 C   0  0  0  0  0  0
  -27.5584  -37.1807   24.8464 C   0  0  0  0  0  0
  -21.4130  -29.3031   22.3737 N   0  0  0  0  0  0
  -26.4291  -37.3804   23.9418 N   0  0  0  0  0  0
  -24.6640  -31.0813   22.1010 N   0  0  0  0  0  0
  -23.4180  -28.8216   23.3041 O   0  0  0  0  0  0
  -28.3798  -26.6996   20.0378 O   0  0  0  0  0  0
  -26.5584  -34.8930   22.4690 O   0  0  0  0  0  0
  -23.5319  -32.1447   23.7519 O   0  0  0  0  0  0
  -30.4493  -24.6995   20.1552 C   0  0  0  0  0  0
  -29.0199  -19.5858   22.4695 C   0  0  0  0  0  0
  -31.1857  -18.5096   21.0421 C   0  0  0  0  0  0
  -29.3839  -18.2327   22.6637 C   0  0  0  0  0  0
  -30.4979  -17.6945   21.9684 C   0  0  0  0  0  0
  -29.7494  -20.4091   21.5842 C   0  0  0  0  0  0
  -30.8222  -19.8577   20.8533 C   0  0  0  0  0  0
  -28.5571  -22.2655   20.5869 C   0  0  0  0  0  0
  -28.2065  -23.7655   20.5633 C   0  0  0  0  0  0
  -29.7653  -24.1244   22.4573 C   0  0  0  0  0  0
  -30.2926  -22.6845   22.3220 C   0  0  0  0  0  0
  -29.3168  -24.6925   21.1006 C   0  0  1  0  0  0
  -28.5975  -17.3977   23.6604 C   0  0  0  0  0  0
  -31.0408  -16.2950   22.2634 C   0  0  0  0  0  0
  -28.7954  -26.1417   21.2841 C   0  0  0  0  0  0
  -31.3401  -24.6991   19.4128 N   0  0  0  0  0  0
  -29.4583  -21.8012   21.4912 N   0  0  0  0  0  0
  -30.3037  -15.1903   21.6484 N   0  0  0  0  0  0
  -27.9616  -21.5231   19.7991 O   0  0  0  0  0  0
  -31.5320  -20.6310   19.9966 F   0  0  0  0  0  0
  -31.4599  -12.4049   19.0946 H   0  0  0  0  0  0
  -30.3200  -11.2858   19.7785 H   0  0  0  0  0  0
  -29.7208  -11.8089   17.4034 H   0  0  0  0  0  0
  -29.6521  -13.5145   17.7731 H   0  0  0  0  0  0
  -27.8192  -11.3192   18.7990 H   0  0  0  0  0  0
  -27.3552  -12.6602   17.7867 H   0  0  0  0  0  0
  -27.7162  -14.2587   19.5948 H   0  0  0  0  0  0
  -28.6708  -11.9255   21.3195 H   0  0  0  0  0  0
  -28.4471  -13.5507   21.8771 H   0  0  0  0  0  0
  -25.2758   -9.5687   22.4751 H   0  0  0  0  0  0
  -24.0000   -7.4636   22.7473 H   0  0  0  0  0  0
  -21.0838   -8.8766   19.8949 H   0  0  0  0  0  0
  -22.3694  -10.9664   19.6151 H   0  0  0  0  0  0
  -21.2000   -7.6147   23.9715 H   0  0  0  0  0  0
  -21.1478   -6.0521   25.9077 H   0  0  0  0  0  0
  -22.0599   -2.7607   23.2842 H   0  0  0  0  0  0
  -22.4103  -11.9884   22.4766 H   0  0  0  0  0  0
  -21.1113  -13.1260   22.2582 H   0  0  0  0  0  0
  -24.6715  -15.8485   20.5251 H   0  0  0  0  0  0
  -26.2961  -15.6266   20.1139 H   0  0  0  0  0  0
  -26.7100  -32.5563   23.1176 H   0  0  0  0  0  0
  -25.0095  -33.9803   25.0519 H   0  0  0  0  0  0
  -22.6879  -31.3078   21.4105 H   0  0  0  0  0  0
  -23.3755  -35.9632   23.3300 H   0  0  0  0  0  0
  -24.3585  -36.8912   22.2048 H   0  0  0  0  0  0
  -23.7219  -37.6511   23.6638 H   0  0  0  0  0  0
  -26.0315  -31.6005   20.5898 H   0  0  0  0  0  0
  -26.8171  -30.9001   21.9773 H   0  0  0  0  0  0
  -28.0990  -29.1188   21.1781 H   0  0  0  0  0  0
  -26.0934  -25.9852   19.0027 H   0  0  0  0  0  0
  -23.9876  -27.2912   19.0328 H   0  0  0  0  0  0
  -23.7158  -30.5934   19.4040 H   0  0  0  0  0  0
  -22.7358  -29.2366   19.8725 H   0  0  0  0  0  0
  -25.1278  -36.1984   25.0837 H   0  0  0  0  0  0
  -20.9955  -28.3215   24.1447 H   0  0  0  0  0  0
  -20.5666  -26.2265   23.3602 H   0  0  0  0  0  0
  -21.6632  -26.7447   22.1207 H   0  0  0  0  0  0
  -19.6902  -25.6302   21.1228 H   0  0  0  0  0  0
  -19.6687  -27.3209   20.6753 H   0  0  0  0  0  0
  -17.4196  -26.6686   21.4014 H   0  0  0  0  0  0
  -18.0315  -26.0057   22.9005 H   0  0  0  0  0  0
  -19.7929  -30.7248   24.2290 H   0  0  0  0  0  0
  -17.5014  -31.6268   24.5161 H   0  0  0  0  0  0
  -15.5346  -30.2995   23.7643 H   0  0  0  0  0  0
  -15.8661  -28.0829   22.7052 H   0  0  0  0  0  0
  -24.5905  -30.7067   25.7821 H   0  0  0  0  0  0
  -24.8971  -32.2857   26.4965 H   0  0  0  0  0  0
  -25.8122  -30.8839   27.0212 H   0  0  0  0  0  0
  -26.2800  -29.6821   24.1126 H   0  0  0  0  0  0
  -27.4084  -29.7257   25.4480 H   0  0  0  0  0  0
  -27.8624  -30.4368   23.9163 H   0  0  0  0  0  0
  -27.2692  -33.3604   26.2063 H   0  0  0  0  0  0
  -28.3865  -32.6851   25.0297 H   0  0  0  0  0  0
  -28.0719  -31.8410   26.5380 H   0  0  0  0  0  0
  -28.2599  -38.0110   24.7529 H   0  0  0  0  0  0
  -28.1084  -36.2645   24.6264 H   0  0  0  0  0  0
  -27.2311  -37.1421   25.8869 H   0  0  0  0  0  0
  -20.9285  -29.8757   21.6968 H   0  0  0  0  0  0
  -26.0183  -38.2881   24.1429 H   0  0  0  0  0  0
  -28.1982  -20.0094   23.0306 H   0  0  0  0  0  0
  -32.0337  -18.1163   20.5000 H   0  0  0  0  0  0
  -27.2997  -23.8930   21.1550 H   0  0  0  0  0  0
  -27.9480  -24.0524   19.5437 H   0  0  0  0  0  0
  -30.5388  -24.7553   22.8975 H   0  0  0  0  0  0
  -28.9286  -24.1392   23.1573 H   0  0  0  0  0  0
  -30.4060  -22.2474   23.3151 H   0  0  0  0  0  0
  -31.2933  -22.7026   21.8871 H   0  0  0  0  0  0
  -27.6888  -17.9096   23.9784 H   0  0  0  0  0  0
  -29.1955  -17.1996   24.5502 H   0  0  0  0  0  0
  -28.2983  -16.4450   23.2241 H   0  0  0  0  0  0
  -31.0367  -16.1372   23.3421 H   0  0  0  0  0  0
  -32.0976  -16.2580   21.9911 H   0  0  0  0  0  0
  -29.5821  -26.7757   21.6951 H   0  0  0  0  0  0
  -27.9812  -26.1487   22.0123 H   0  0  0  0  0  0
  -29.4448  -14.9072   22.0931 H   0  0  0  0  0  0
  1 25  1  0  0  0
  1 30  2  0  0  0
  1 88  1  0  0  0
  2  3  1  0  0  0
  2 25  1  0  0  0
  2 91  1  0  0  0
  2 92  1  0  0  0
  3  4  1  0  0  0
  3 93  1  0  0  0
  3 94  1  0  0  0
  4  5  1  0  0  0
  4 95  1  0  0  0
  4 96  1  0  0  0
  5  6  1  0  0  0
  5 26  1  0  0  0
  5 97  1  0  0  0
  6 25  1  0  0  0
  6 98  1  0  0  0
  6 99  1  0  0  0
  7  8  2  0  0  0
  7 26  1  0  0  0
  7 29  1  0  0  0
  8  9  1  0  0  0
  8 22  1  0  0  0
  9 10  1  0  0  0
  9 27  2  0  0  0
 10 11  2  0  0  0
 10 15  1  0  0  0
 11 12  1  0  0  0
 11100  1  0  0  0
 12 13  2  0  0  0
 12101  1  0  0  0
 13 14  1  0  0  0
 13 31  1  0  0  0
 14 15  2  0  0  0
 14102  1  0  0  0
 15103  1  0  0  0
 16 17  2  0  0  0
 16 21  1  0  0  0
 16 31  1  0  0  0
 17 18  1  0  0  0
 17104  1  0  0  0
 18 19  2  0  0  0
 18105  1  0  0  0
 19 20  1  0  0  0
 19 24  1  0  0  0
 20 21  2  0  0  0
 20106  1  0  0  0
 21 23  1  0  0  0
 22 28  1  0  0  0
 22 32  2  0  0  0
 26 27  1  0  0  0
 28107  1  0  0  0
 28108  1  0  0  0
 29109  1  0  0  0
 29110  1  0  0  0
 33 34  1  0  0  0
 33 66  1  0  0  0
 33 70  2  0  0  0
 34 36  1  0  0  0
 34 59  1  0  0  0
 34111  1  0  0  0
 35 44  2  0  0  0
 35 45  1  0  0  0
 35 68  1  0  0  0
 36 56  1  0  0  0
 36112  1  0  0  0
 37 39  1  0  0  0
 37 47  1  0  0  0
 37 66  1  0  0  0
 37113  1  0  0  0
 38 43  2  0  0  0
 38 46  1  0  0  0
 38 47  1  0  0  0
 39 64  1  0  0  0
 39 67  2  0  0  0
 40 52  1  0  0  0
 40 53  2  0  0  0
 40 58  1  0  0  0
 41114  1  0  0  0
 41115  1  0  0  0
 41116  1  0  0  0
 41 48  1  0  0  0
 42 43  1  0  0  0
 42 66  1  0  0  0
 42117  1  0  0  0
 42118  1  0  0  0
 43 44  1  0  0  0
 44119  1  0  0  0
 45 46  2  0  0  0
 45120  1  0  0  0
 46121  1  0  0  0
 47122  1  0  0  0
 47123  1  0  0  0
 48 56  1  0  0  0
 48 65  1  0  0  0
 48124  1  0  0  0
 49 50  1  0  0  0
 49 53  1  0  0  0
 49 64  1  0  0  0
 49125  1  0  0  0
 50 51  1  0  0  0
 50126  1  0  0  0
 50127  1  0  0  0
 51 52  1  0  0  0
 51128  1  0  0  0
 51129  1  0  0  0
 52130  1  0  0  0
 52131  1  0  0  0
 53 54  1  0  0  0
 54 55  2  0  0  0
 54132  1  0  0  0
 55 57  1  0  0  0
 55133  1  0  0  0
 56 69  2  0  0  0
 57 58  2  0  0  0
 57134  1  0  0  0
 58135  1  0  0  0
 59 60  1  0  0  0
 59 61  1  0  0  0
 59 62  1  0  0  0
 60136  1  0  0  0
 60137  1  0  0  0
 60138  1  0  0  0
 61139  1  0  0  0
 61140  1  0  0  0
 61141  1  0  0  0
 62142  1  0  0  0
 62143  1  0  0  0
 62144  1  0  0  0
 63 65  1  0  0  0
 63145  1  0  0  0
 63146  1  0  0  0
 63147  1  0  0  0
 64148  1  0  0  0
 65149  1  0  0  0
 68 85  1  0  0  0
 71 86  3  0  0  0
 71 82  1  0  0  0
 72 74  2  0  0  0
 72 76  1  0  0  0
 72150  1  0  0  0
 73 75  2  0  0  0
 73 77  1  0  0  0
 73151  1  0  0  0
 74 75  1  0  0  0
 74 83  1  0  0  0
 75 84  1  0  0  0
 76 77  2  0  0  0
 76 87  1  0  0  0
 77 90  1  0  0  0
 78 79  1  0  0  0
 78 87  1  0  0  0
 78 89  2  0  0  0
 79 82  1  0  0  0
 79152  1  0  0  0
 79153  1  0  0  0
 80 81  1  0  0  0
 80 82  1  0  0  0
 80154  1  0  0  0
 80155  1  0  0  0
 81 87  1  0  0  0
 81156  1  0  0  0
 81157  1  0  0  0
 82 85  1  0  0  0
 83158  1  0  0  0
 83159  1  0  0  0
 83160  1  0  0  0
 84 88  1  0  0  0
 84161  1  0  0  0
 84162  1  0  0  0
 85163  1  0  0  0
 85164  1  0  0  0
 88165  1  0  0  0
M  ISO  4   1 100  68 101  85 101  88 100
M  END
> <chiral flag>
0

> <version>
0

> <s_m_source_file>
/data/baiqing/PycharmProjects/Reinvent-master-3.2/result/LINK_invent/BTK/process_docking_weight1_custom_product_contain_oxygen_bond_distance_aromatic_linkinvent_7_9_3/rearranged_h_0061.sdf

> <i_m_source_file_index>
93

> <r_mmod_Potential_Energy-OPLS-2005>
-105.038703918457

> <r_mmod_Stretch_Energy-OPLS-2005>
36.2647895812988

> <r_mmod_Bend_Energy-OPLS-2005>
96.7901458740234

> <r_mmod_Torsional_Energy-OPLS-2005>
302.31640625

> <r_mmod_Improper_Torsional_Energy-OPLS-2005>
2.78435087203979

> <r_mmod_Van_der_Waal_Energy-OPLS-2005>
152.141174316406

> <r_mmod_Electrostatic_Energy-OPLS-2005>
-462.198455810547

> <r_mmod_Solvation_Energy-OPLS-2005>
-240.323181152344

> <b_mmod_Minimization_Converged-OPLS-2005>
0

> <r_mmod_RMS_Derivative-OPLS-2005>
0.635323524475098

$$$$
94
                    3D
 Structure written by MMmdl.
160169  0  0  1  0            999 V2000
  -30.6116  -14.6557   20.5711 C   0  0  0  0  0  0
  -30.4477  -12.4164   19.4604 C   0  0  0  0  0  0
  -29.5160  -12.5223   18.2312 C   0  0  0  0  0  0
  -28.0376  -12.3556   18.6339 C   0  0  0  0  0  0
  -27.6602  -13.2140   19.8706 C   0  0  2  0  0  0
  -28.6999  -13.0438   21.0020 C   0  0  0  0  0  0
  -25.2481  -13.8063   20.5380 C   0  0  0  0  0  0
  -24.1811  -13.0384   20.9141 C   0  0  0  0  0  0
  -24.6412  -11.6877   20.8769 C   0  0  0  0  0  0
  -23.9079  -10.4273   21.0427 C   0  0  0  0  0  0
  -24.3616   -9.4189   21.9202 C   0  0  0  0  0  0
  -23.6275   -8.2237   22.0758 C   0  0  0  0  0  0
  -22.4265   -8.0283   21.3539 C   0  0  0  0  0  0
  -21.9907   -9.0274   20.4648 C   0  0  0  0  0  0
  -22.7252  -10.2144   20.3070 C   0  0  0  0  0  0
  -21.6852   -6.0724   22.5274 C   0  0  0  0  0  0
  -21.4004   -6.5628   23.8219 C   0  0  0  0  0  0
  -21.3652   -5.6776   24.9172 C   0  0  0  0  0  0
  -21.6058   -4.3040   24.7229 C   0  0  0  0  0  0
  -21.8823   -3.8132   23.4344 C   0  0  0  0  0  0
  -21.9189   -4.6946   22.3394 C   0  0  0  0  0  0
  -22.7850  -13.5218   21.1817 C   0  0  0  0  0  0
  -22.1665   -4.2134   21.0975 F   0  0  0  0  0  0
  -21.5621   -3.4531   25.7735 F   0  0  0  0  0  0
  -30.0218  -13.4173   20.4657 N   0  0  0  0  0  0
  -26.3017  -12.9305   20.3310 N   0  0  0  0  0  0
  -25.9362  -11.6476   20.5836 N   0  0  0  0  0  0
  -22.0489  -12.8259   22.0400 N   0  0  0  0  0  0
  -25.3970  -15.1667   20.3197 N   0  0  0  0  0  0
  -31.6844  -14.9029   20.0096 O   0  0  0  0  0  0
  -21.6630   -6.8875   21.4242 O   0  0  0  0  0  0
  -22.3558  -14.5553   20.6674 O   0  0  0  0  0  0
  -24.6273  -31.8584   23.2033 C   0  0  0  0  0  0
  -25.9112  -32.4778   23.8371 C   0  0  1  0  0  0
  -27.2316  -27.3115   20.1029 C   0  0  0  0  0  0
  -25.5910  -33.8579   24.2285 N   0  0  0  0  0  0
  -23.4234  -30.4818   21.5451 C   0  0  2  0  0  0
  -24.8739  -28.9419   20.1074 C   0  0  0  0  0  0
  -22.7487  -29.4611   22.4935 C   0  0  0  0  0  0
  -18.0289  -28.1386   22.8485 C   0  0  0  0  0  0
  -24.1485  -36.7295   23.2637 C   0  0  0  0  0  0
  -25.9671  -30.7828   21.3816 C   0  0  0  0  0  0
  -26.0413  -29.4103   20.7224 C   0  0  0  0  0  0
  -27.2193  -28.6024   20.7205 C   0  0  0  0  0  0
  -26.0440  -26.9171   19.4388 C   0  0  0  0  0  0
  -24.8785  -27.7018   19.4558 C   0  0  0  0  0  0
  -23.6399  -29.8184   20.1601 C   0  0  0  0  0  0
  -25.4109  -36.3085   24.0330 C   0  0  1  0  0  0
  -20.5888  -28.3687   23.1281 C   0  0  2  0  0  0
  -20.6772  -26.9412   22.5407 C   0  0  0  0  0  0
  -19.5750  -26.6385   21.5210 C   0  0  0  0  0  0
  -18.1933  -26.7931   22.1623 C   0  0  0  0  0  0
  -19.1542  -28.8856   23.2878 C   0  0  0  0  0  0
  -18.9462  -30.1449   23.8905 C   0  0  0  0  0  0
  -17.6463  -30.6584   24.0565 C   0  0  0  0  0  0
  -25.9045  -34.9453   23.5110 C   0  0  0  0  0  0
  -16.5356  -29.9085   23.6324 C   0  0  0  0  0  0
  -16.7278  -28.6502   23.0353 C   0  0  0  0  0  0
  -26.4491  -31.6593   25.0742 C   0  0  0  0  0  0
  -25.3719  -31.3748   26.1468 C   0  0  0  0  0  0
  -27.0322  -30.3008   24.6204 C   0  0  0  0  0  0
  -27.6054  -32.4327   25.7496 C   0  0  0  0  0  0
  -27.5578  -37.1806   24.8464 C   0  0  0  0  0  0
  -21.4201  -29.3033   22.3673 N   0  0  0  0  0  0
  -26.4291  -37.3775   23.9406 N   0  0  0  0  0  0
  -24.6911  -31.0579   22.0995 N   0  0  0  0  0  0
  -23.4203  -28.8140   23.3015 O   0  0  0  0  0  0
  -28.3432  -26.4457   20.1716 O   0  0  0  0  0  0
  -26.5623  -34.8917   22.4681 O   0  0  0  0  0  0
  -23.5430  -32.1392   23.7345 O   0  0  0  0  0  0
  -27.5689  -19.1211   21.3109 C   0  0  0  0  0  0
  -27.9354  -16.7342   21.5966 C   0  0  0  0  0  0
  -29.7719  -18.1536   20.8386 C   0  0  0  0  0  0
  -27.0901  -17.8542   21.6698 C   0  0  0  0  0  0
  -28.9071  -19.3283   20.9054 C   0  0  0  0  0  0
  -29.2815  -16.8283   21.1847 C   0  0  0  0  0  0
  -29.2163  -21.2393   19.3593 C   0  0  0  0  0  0
  -29.1987  -21.6479   21.6687 C   0  0  0  0  0  0
  -29.3789  -22.7658   19.0320 C   0  0  0  0  0  0
  -28.7338  -23.1267   21.4624 C   0  0  0  0  0  0
  -29.1656  -23.8457   20.1541 C   0  0  0  0  0  0
  -25.6670  -17.7204   22.1808 C   0  0  0  0  0  0
  -28.1868  -25.0412   19.7150 C   0  0  0  0  0  0
  -29.2329  -20.7512   20.6342 N   0  0  0  0  0  0
  -29.9994  -15.5622   21.3956 N   0  0  0  0  0  0
  -29.1006  -20.4800   18.3890 O   0  0  0  0  0  0
  -29.4849  -21.3082   22.8228 O   0  0  0  0  0  0
  -31.4874  -12.5584   19.1594 H   0  0  0  0  0  0
  -30.3993  -11.4133   19.8887 H   0  0  0  0  0  0
  -29.7842  -11.7675   17.4909 H   0  0  0  0  0  0
  -29.6578  -13.4899   17.7464 H   0  0  0  0  0  0
  -27.8696  -11.2988   18.8501 H   0  0  0  0  0  0
  -27.3904  -12.5982   17.7901 H   0  0  0  0  0  0
  -27.6848  -14.2554   19.5467 H   0  0  0  0  0  0
  -28.7167  -12.0074   21.3420 H   0  0  0  0  0  0
  -28.4188  -13.6271   21.8788 H   0  0  0  0  0  0
  -25.2762   -9.5651   22.4785 H   0  0  0  0  0  0
  -23.9966   -7.4626   22.7486 H   0  0  0  0  0  0
  -21.0836   -8.8830   19.8958 H   0  0  0  0  0  0
  -22.3736  -10.9695   19.6183 H   0  0  0  0  0  0
  -21.2000   -7.6135   23.9718 H   0  0  0  0  0  0
  -21.1459   -6.0499   25.9081 H   0  0  0  0  0  0
  -22.0598   -2.7589   23.2860 H   0  0  0  0  0  0
  -22.4061  -11.9905   22.4792 H   0  0  0  0  0  0
  -21.1125  -13.1329   22.2611 H   0  0  0  0  0  0
  -24.6046  -15.7972   20.3590 H   0  0  0  0  0  0
  -26.2285  -15.6028   19.9421 H   0  0  0  0  0  0
  -26.7186  -32.5449   23.1128 H   0  0  0  0  0  0
  -25.0044  -33.9724   25.0419 H   0  0  0  0  0  0
  -22.7179  -31.3025   21.4005 H   0  0  0  0  0  0
  -23.3740  -35.9635   23.3313 H   0  0  0  0  0  0
  -24.3576  -36.8897   22.2049 H   0  0  0  0  0  0
  -23.7253  -37.6508   23.6645 H   0  0  0  0  0  0
  -26.1024  -31.5460   20.6142 H   0  0  0  0  0  0
  -26.8463  -30.8307   22.0123 H   0  0  0  0  0  0
  -28.1113  -28.9520   21.2220 H   0  0  0  0  0  0
  -25.9761  -25.9909   18.8894 H   0  0  0  0  0  0
  -23.9915  -27.3470   18.9488 H   0  0  0  0  0  0
  -23.7541  -30.5947   19.4029 H   0  0  0  0  0  0
  -22.7629  -29.2431   19.8590 H   0  0  0  0  0  0
  -25.1291  -36.1943   25.0825 H   0  0  0  0  0  0
  -20.9977  -28.3257   24.1403 H   0  0  0  0  0  0
  -20.5654  -26.2303   23.3603 H   0  0  0  0  0  0
  -21.6640  -26.7416   22.1213 H   0  0  0  0  0  0
  -19.6904  -25.6297   21.1235 H   0  0  0  0  0  0
  -19.6688  -27.3194   20.6741 H   0  0  0  0  0  0
  -17.4195  -26.6672   21.4035 H   0  0  0  0  0  0
  -18.0331  -26.0071   22.9013 H   0  0  0  0  0  0
  -19.7937  -30.7257   24.2286 H   0  0  0  0  0  0
  -17.5017  -31.6267   24.5162 H   0  0  0  0  0  0
  -15.5356  -30.2991   23.7640 H   0  0  0  0  0  0
  -15.8679  -28.0815   22.7077 H   0  0  0  0  0  0
  -24.5895  -30.7088   25.7810 H   0  0  0  0  0  0
  -24.8911  -32.2921   26.4879 H   0  0  0  0  0  0
  -25.8045  -30.8946   27.0252 H   0  0  0  0  0  0
  -26.2895  -29.6773   24.1207 H   0  0  0  0  0  0
  -27.3983  -29.7256   25.4720 H   0  0  0  0  0  0
  -27.8788  -30.4290   23.9453 H   0  0  0  0  0  0
  -27.2670  -33.3629   26.2070 H   0  0  0  0  0  0
  -28.3855  -32.6883   25.0313 H   0  0  0  0  0  0
  -28.0721  -31.8451   26.5410 H   0  0  0  0  0  0
  -28.2613  -38.0084   24.7483 H   0  0  0  0  0  0
  -28.1054  -36.2618   24.6315 H   0  0  0  0  0  0
  -27.2294  -37.1486   25.8867 H   0  0  0  0  0  0
  -20.9385  -29.8785   21.6903 H   0  0  0  0  0  0
  -26.0174  -38.2851   24.1394 H   0  0  0  0  0  0
  -26.8912  -19.9612   21.3901 H   0  0  0  0  0  0
  -27.5331  -15.7814   21.9096 H   0  0  0  0  0  0
  -30.8112  -18.2794   20.5743 H   0  0  0  0  0  0
  -28.7143  -22.9741   18.1927 H   0  0  0  0  0  0
  -30.3830  -22.8912   18.6241 H   0  0  0  0  0  0
  -29.0432  -23.7241   22.3208 H   0  0  0  0  0  0
  -27.6449  -23.0983   21.5149 H   0  0  0  0  0  0
  -30.1450  -24.2926   20.3331 H   0  0  0  0  0  0
  -25.4906  -18.4064   23.0090 H   0  0  0  0  0  0
  -25.4589  -16.7132   22.5422 H   0  0  0  0  0  0
  -24.9505  -17.9538   21.3927 H   0  0  0  0  0  0
  -27.1896  -24.6846   19.9690 H   0  0  0  0  0  0
  -28.2088  -25.1130   18.6265 H   0  0  0  0  0  0
  -29.4794  -15.0043   22.0568 H   0  0  0  0  0  0
  1 25  1  0  0  0
  1 30  2  0  0  0
  1 85  1  0  0  0
  2  3  1  0  0  0
  2 25  1  0  0  0
  2 88  1  0  0  0
  2 89  1  0  0  0
  3  4  1  0  0  0
  3 90  1  0  0  0
  3 91  1  0  0  0
  4  5  1  0  0  0
  4 92  1  0  0  0
  4 93  1  0  0  0
  5  6  1  0  0  0
  5 26  1  0  0  0
  5 94  1  0  0  0
  6 25  1  0  0  0
  6 95  1  0  0  0
  6 96  1  0  0  0
  7  8  2  0  0  0
  7 26  1  0  0  0
  7 29  1  0  0  0
  8  9  1  0  0  0
  8 22  1  0  0  0
  9 10  1  0  0  0
  9 27  2  0  0  0
 10 11  2  0  0  0
 10 15  1  0  0  0
 11 12  1  0  0  0
 11 97  1  0  0  0
 12 13  2  0  0  0
 12 98  1  0  0  0
 13 14  1  0  0  0
 13 31  1  0  0  0
 14 15  2  0  0  0
 14 99  1  0  0  0
 15100  1  0  0  0
 16 17  2  0  0  0
 16 21  1  0  0  0
 16 31  1  0  0  0
 17 18  1  0  0  0
 17101  1  0  0  0
 18 19  2  0  0  0
 18102  1  0  0  0
 19 20  1  0  0  0
 19 24  1  0  0  0
 20 21  2  0  0  0
 20103  1  0  0  0
 21 23  1  0  0  0
 22 28  1  0  0  0
 22 32  2  0  0  0
 26 27  1  0  0  0
 28104  1  0  0  0
 28105  1  0  0  0
 29106  1  0  0  0
 29107  1  0  0  0
 33 34  1  0  0  0
 33 66  1  0  0  0
 33 70  2  0  0  0
 34 36  1  0  0  0
 34 59  1  0  0  0
 34108  1  0  0  0
 35 44  2  0  0  0
 35 45  1  0  0  0
 35 68  1  0  0  0
 36 56  1  0  0  0
 36109  1  0  0  0
 37 39  1  0  0  0
 37 47  1  0  0  0
 37 66  1  0  0  0
 37110  1  0  0  0
 38 43  2  0  0  0
 38 46  1  0  0  0
 38 47  1  0  0  0
 39 64  1  0  0  0
 39 67  2  0  0  0
 40 52  1  0  0  0
 40 53  2  0  0  0
 40 58  1  0  0  0
 41111  1  0  0  0
 41112  1  0  0  0
 41113  1  0  0  0
 41 48  1  0  0  0
 42 43  1  0  0  0
 42 66  1  0  0  0
 42114  1  0  0  0
 42115  1  0  0  0
 43 44  1  0  0  0
 44116  1  0  0  0
 45 46  2  0  0  0
 45117  1  0  0  0
 46118  1  0  0  0
 47119  1  0  0  0
 47120  1  0  0  0
 48 56  1  0  0  0
 48 65  1  0  0  0
 48121  1  0  0  0
 49 50  1  0  0  0
 49 53  1  0  0  0
 49 64  1  0  0  0
 49122  1  0  0  0
 50 51  1  0  0  0
 50123  1  0  0  0
 50124  1  0  0  0
 51 52  1  0  0  0
 51125  1  0  0  0
 51126  1  0  0  0
 52127  1  0  0  0
 52128  1  0  0  0
 53 54  1  0  0  0
 54 55  2  0  0  0
 54129  1  0  0  0
 55 57  1  0  0  0
 55130  1  0  0  0
 56 69  2  0  0  0
 57 58  2  0  0  0
 57131  1  0  0  0
 58132  1  0  0  0
 59 60  1  0  0  0
 59 61  1  0  0  0
 59 62  1  0  0  0
 60133  1  0  0  0
 60134  1  0  0  0
 60135  1  0  0  0
 61136  1  0  0  0
 61137  1  0  0  0
 61138  1  0  0  0
 62139  1  0  0  0
 62140  1  0  0  0
 62141  1  0  0  0
 63 65  1  0  0  0
 63142  1  0  0  0
 63143  1  0  0  0
 63144  1  0  0  0
 64145  1  0  0  0
 65146  1  0  0  0
 68 83  1  0  0  0
 71 74  2  0  0  0
 71 75  1  0  0  0
 71147  1  0  0  0
 72 74  1  0  0  0
 72 76  2  0  0  0
 72148  1  0  0  0
 73 75  2  0  0  0
 73 76  1  0  0  0
 73149  1  0  0  0
 74 82  1  0  0  0
 75 84  1  0  0  0
 76 85  1  0  0  0
 77 79  1  0  0  0
 77 84  1  0  0  0
 77 86  2  0  0  0
 78 80  1  0  0  0
 78 84  1  0  0  0
 78 87  2  0  0  0
 79 81  1  0  0  0
 79150  1  0  0  0
 79151  1  0  0  0
 80 81  1  0  0  0
 80152  1  0  0  0
 80153  1  0  0  0
 81 83  1  0  0  0
 81154  1  0  0  0
 82155  1  0  0  0
 82156  1  0  0  0
 82157  1  0  0  0
 83158  1  0  0  0
 83159  1  0  0  0
 85160  1  0  0  0
M  ISO  4   1 100  68 101  83 101  85 100
M  END
> <chiral flag>
0

> <version>
0

> <s_m_source_file>
/data/baiqing/PycharmProjects/Reinvent-master-3.2/result/LINK_invent/BTK/process_docking_weight1_custom_product_contain_oxygen_bond_distance_aromatic_linkinvent_7_9_3/rearranged_h_0061.sdf

> <i_m_source_file_index>
94

> <r_mmod_Potential_Energy-OPLS-2005>
213.580993652344

> <r_mmod_Stretch_Energy-OPLS-2005>
100.20637512207

> <r_mmod_Bend_Energy-OPLS-2005>
193.032943725586

> <r_mmod_Torsional_Energy-OPLS-2005>
319.026062011719

> <r_mmod_Improper_Torsional_Energy-OPLS-2005>
9.36789703369141

> <r_mmod_Van_der_Waal_Energy-OPLS-2005>
160.226318359375

> <r_mmod_Electrostatic_Energy-OPLS-2005>
-384.624176025391

> <r_mmod_Solvation_Energy-OPLS-2005>
-240.816101074219

> <b_mmod_Minimization_Converged-OPLS-2005>
0

> <r_mmod_RMS_Derivative-OPLS-2005>
2.62635684013367

$$$$
95
                    3D
 Structure written by MMmdl.
160169  0  0  1  0            999 V2000
  -30.5982  -14.7376   20.4591 C   0  0  0  0  0  0
  -30.4364  -12.4451   19.4906 C   0  0  0  0  0  0
  -29.5200  -12.5152   18.2470 C   0  0  0  0  0  0
  -28.0437  -12.3394   18.6518 C   0  0  0  0  0  0
  -27.6472  -13.2326   19.8575 C   0  0  2  0  0  0
  -28.6847  -13.1498   20.9995 C   0  0  0  0  0  0
  -25.2530  -13.8203   20.5700 C   0  0  0  0  0  0
  -24.1810  -13.0446   20.9191 C   0  0  0  0  0  0
  -24.6397  -11.6925   20.8719 C   0  0  0  0  0  0
  -23.9073  -10.4309   21.0395 C   0  0  0  0  0  0
  -24.3627   -9.4227   21.9180 C   0  0  0  0  0  0
  -23.6295   -8.2260   22.0757 C   0  0  0  0  0  0
  -22.4269   -8.0291   21.3558 C   0  0  0  0  0  0
  -21.9906   -9.0265   20.4660 C   0  0  0  0  0  0
  -22.7237  -10.2145   20.3058 C   0  0  0  0  0  0
  -21.6852   -6.0740   22.5280 C   0  0  0  0  0  0
  -21.4016   -6.5644   23.8209 C   0  0  0  0  0  0
  -21.3662   -5.6790   24.9171 C   0  0  0  0  0  0
  -21.6040   -4.3055   24.7220 C   0  0  0  0  0  0
  -21.8817   -3.8151   23.4337 C   0  0  0  0  0  0
  -21.9195   -4.6973   22.3396 C   0  0  0  0  0  0
  -22.7828  -13.5232   21.1851 C   0  0  0  0  0  0
  -22.1664   -4.2164   21.0973 F   0  0  0  0  0  0
  -21.5631   -3.4536   25.7733 F   0  0  0  0  0  0
  -29.9958  -13.4987   20.4358 N   0  0  0  0  0  0
  -26.2953  -12.9413   20.3275 N   0  0  0  0  0  0
  -25.9331  -11.6555   20.5721 N   0  0  0  0  0  0
  -22.0474  -12.8238   22.0416 N   0  0  0  0  0  0
  -25.4255  -15.1918   20.4161 N   0  0  0  0  0  0
  -31.7607  -14.8608   20.0619 O   0  0  0  0  0  0
  -21.6639   -6.8884   21.4241 O   0  0  0  0  0  0
  -22.3519  -14.5540   20.6694 O   0  0  0  0  0  0
  -24.6328  -31.8568   23.1983 C   0  0  0  0  0  0
  -25.9145  -32.4768   23.8337 C   0  0  1  0  0  0
  -27.2080  -27.2510   20.1293 C   0  0  0  0  0  0
  -25.5931  -33.8570   24.2255 N   0  0  0  0  0  0
  -23.4290  -30.4805   21.5437 C   0  0  2  0  0  0
  -24.8733  -28.9313   20.1075 C   0  0  0  0  0  0
  -22.7514  -29.4607   22.4914 C   0  0  0  0  0  0
  -18.0296  -28.1386   22.8485 C   0  0  0  0  0  0
  -24.1486  -36.7289   23.2637 C   0  0  0  0  0  0
  -25.9769  -30.7653   21.3811 C   0  0  0  0  0  0
  -26.0463  -29.3886   20.7208 C   0  0  0  0  0  0
  -27.2166  -28.5609   20.7210 C   0  0  0  0  0  0
  -26.0145  -26.8749   19.4700 C   0  0  0  0  0  0
  -24.8628  -27.6830   19.4708 C   0  0  0  0  0  0
  -23.6459  -29.8200   20.1575 C   0  0  0  0  0  0
  -25.4116  -36.3085   24.0324 C   0  0  1  0  0  0
  -20.5901  -28.3703   23.1261 C   0  0  2  0  0  0
  -20.6779  -26.9418   22.5407 C   0  0  0  0  0  0
  -19.5755  -26.6383   21.5209 C   0  0  0  0  0  0
  -18.1934  -26.7926   22.1620 C   0  0  0  0  0  0
  -19.1550  -28.8863   23.2864 C   0  0  0  0  0  0
  -18.9474  -30.1457   23.8895 C   0  0  0  0  0  0
  -17.6472  -30.6584   24.0567 C   0  0  0  0  0  0
  -25.9063  -34.9453   23.5099 C   0  0  0  0  0  0
  -16.5365  -29.9087   23.6324 C   0  0  0  0  0  0
  -16.7283  -28.6499   23.0357 C   0  0  0  0  0  0
  -26.4490  -31.6603   25.0740 C   0  0  0  0  0  0
  -25.3682  -31.3795   26.1445 C   0  0  0  0  0  0
  -27.0329  -30.3011   24.6249 C   0  0  0  0  0  0
  -27.6048  -32.4347   25.7507 C   0  0  0  0  0  0
  -27.5585  -37.1795   24.8458 C   0  0  0  0  0  0
  -21.4222  -29.3048   22.3651 N   0  0  0  0  0  0
  -26.4290  -37.3785   23.9414 N   0  0  0  0  0  0
  -24.6990  -31.0525   22.0967 N   0  0  0  0  0  0
  -23.4211  -28.8147   23.3015 O   0  0  0  0  0  0
  -28.2827  -26.3298   20.2157 O   0  0  0  0  0  0
  -26.5646  -34.8930   22.4676 O   0  0  0  0  0  0
  -23.5470  -32.1405   23.7260 O   0  0  0  0  0  0
  -29.1417  -18.1608   17.9176 C   0  0  0  0  0  0
  -29.4123  -17.0243   18.6979 C   0  0  0  0  0  0
  -29.6170  -18.4740   20.6397 C   0  0  0  0  0  0
  -29.1266  -19.4655   18.4586 C   0  0  0  0  0  0
  -29.3410  -19.6798   19.8540 C   0  0  0  0  0  0
  -29.6741  -17.1269   20.0778 C   0  0  0  0  0  0
  -31.3396  -22.6843   20.4373 C   0  0  0  0  0  0
  -28.5075  -22.1296   20.2216 C   0  0  0  0  0  0
  -30.4311  -23.8868   20.2083 C   0  0  0  0  0  0
  -30.6733  -21.4579   21.0515 C   0  0  0  0  0  0
  -28.9363  -23.6510   20.5440 C   0  0  1  0  0  0
  -28.9371  -20.6071   17.4675 C   0  0  0  0  0  0
  -28.0075  -24.8611   19.9847 C   0  0  0  0  0  0
  -29.4229  -21.0820   20.3776 N   0  0  0  0  0  0
  -29.8447  -15.8491   20.8133 N   0  0  0  0  0  0
  -27.3464  -21.9219   19.8618 O   0  0  0  0  0  0
  -32.9580  -22.7226   20.0375 S   0  0  0  0  0  0
  -31.4826  -12.5613   19.1998 H   0  0  0  0  0  0
  -30.3707  -11.4631   19.9631 H   0  0  0  0  0  0
  -29.8050  -11.7508   17.5238 H   0  0  0  0  0  0
  -29.6553  -13.4733   17.7424 H   0  0  0  0  0  0
  -27.8945  -11.2887   18.9048 H   0  0  0  0  0  0
  -27.3931  -12.5435   17.8012 H   0  0  0  0  0  0
  -27.6497  -14.2572   19.4838 H   0  0  0  0  0  0
  -28.7094  -12.1479   21.4288 H   0  0  0  0  0  0
  -28.4142  -13.8218   21.8154 H   0  0  0  0  0  0
  -25.2781   -9.5697   22.4742 H   0  0  0  0  0  0
  -24.0017   -7.4643   22.7461 H   0  0  0  0  0  0
  -21.0840   -8.8771   19.8961 H   0  0  0  0  0  0
  -22.3692  -10.9672   19.6153 H   0  0  0  0  0  0
  -21.2011   -7.6151   23.9718 H   0  0  0  0  0  0
  -21.1483   -6.0522   25.9072 H   0  0  0  0  0  0
  -22.0596   -2.7617   23.2827 H   0  0  0  0  0  0
  -22.4075  -11.9905   22.4820 H   0  0  0  0  0  0
  -21.1091  -13.1269   22.2613 H   0  0  0  0  0  0
  -24.6622  -15.8491   20.5390 H   0  0  0  0  0  0
  -26.2807  -15.6345   20.1052 H   0  0  0  0  0  0
  -26.7215  -32.5406   23.1080 H   0  0  0  0  0  0
  -25.0052  -33.9708   25.0382 H   0  0  0  0  0  0
  -22.7260  -31.3032   21.4009 H   0  0  0  0  0  0
  -23.3763  -35.9603   23.3286 H   0  0  0  0  0  0
  -24.3582  -36.8932   22.2055 H   0  0  0  0  0  0
  -23.7215  -37.6474   23.6676 H   0  0  0  0  0  0
  -26.1210  -31.5255   20.6120 H   0  0  0  0  0  0
  -26.8527  -30.8112   22.0161 H   0  0  0  0  0  0
  -28.1111  -28.9040   21.2215 H   0  0  0  0  0  0
  -25.9319  -25.9261   18.9611 H   0  0  0  0  0  0
  -23.9664  -27.3296   18.9802 H   0  0  0  0  0  0
  -23.7734  -30.6000   19.4058 H   0  0  0  0  0  0
  -22.7625  -29.2577   19.8496 H   0  0  0  0  0  0
  -25.1289  -36.1941   25.0813 H   0  0  0  0  0  0
  -20.9989  -28.3284   24.1383 H   0  0  0  0  0  0
  -20.5672  -26.2318   23.3618 H   0  0  0  0  0  0
  -21.6649  -26.7434   22.1212 H   0  0  0  0  0  0
  -19.6917  -25.6290   21.1250 H   0  0  0  0  0  0
  -19.6682  -27.3184   20.6730 H   0  0  0  0  0  0
  -17.4198  -26.6674   21.4025 H   0  0  0  0  0  0
  -18.0336  -26.0072   22.9022 H   0  0  0  0  0  0
  -19.7948  -30.7270   24.2270 H   0  0  0  0  0  0
  -17.5031  -31.6261   24.5170 H   0  0  0  0  0  0
  -15.5371  -30.2997   23.7641 H   0  0  0  0  0  0
  -15.8678  -28.0816   22.7089 H   0  0  0  0  0  0
  -24.5832  -30.7177   25.7768 H   0  0  0  0  0  0
  -24.8895  -32.2985   26.4841 H   0  0  0  0  0  0
  -25.7950  -30.8978   27.0247 H   0  0  0  0  0  0
  -26.2920  -29.6775   24.1231 H   0  0  0  0  0  0
  -27.3951  -29.7271   25.4789 H   0  0  0  0  0  0
  -27.8829  -30.4282   23.9539 H   0  0  0  0  0  0
  -27.2656  -33.3648   26.2083 H   0  0  0  0  0  0
  -28.3845  -32.6912   25.0321 H   0  0  0  0  0  0
  -28.0731  -31.8478   26.5419 H   0  0  0  0  0  0
  -28.2591  -38.0104   24.7535 H   0  0  0  0  0  0
  -28.1091  -36.2642   24.6241 H   0  0  0  0  0  0
  -27.2312  -37.1396   25.8861 H   0  0  0  0  0  0
  -20.9415  -29.8790   21.6868 H   0  0  0  0  0  0
  -26.0176  -38.2858   24.1431 H   0  0  0  0  0  0
  -28.9568  -18.0157   16.8620 H   0  0  0  0  0  0
  -29.3984  -16.0574   18.2145 H   0  0  0  0  0  0
  -29.7993  -18.5906   21.6986 H   0  0  0  0  0  0
  -30.5182  -24.1830   19.1621 H   0  0  0  0  0  0
  -30.8059  -24.7227   20.7990 H   0  0  0  0  0  0
  -30.4734  -21.6608   22.1039 H   0  0  0  0  0  0
  -31.3718  -20.6214   21.0298 H   0  0  0  0  0  0
  -28.8589  -23.7114   21.6305 H   0  0  0  0  0  0
  -29.0819  -20.2696   16.4402 H   0  0  0  0  0  0
  -29.6534  -21.4106   17.6401 H   0  0  0  0  0  0
  -27.9271  -21.0099   17.5322 H   0  0  0  0  0  0
  -27.0198  -24.6510   20.3979 H   0  0  0  0  0  0
  -27.9139  -24.7270   18.9060 H   0  0  0  0  0  0
  -29.0541  -15.6144   21.3952 H   0  0  0  0  0  0
  1 25  1  0  0  0
  1 30  2  0  0  0
  1 85  1  0  0  0
  2  3  1  0  0  0
  2 25  1  0  0  0
  2 88  1  0  0  0
  2 89  1  0  0  0
  3  4  1  0  0  0
  3 90  1  0  0  0
  3 91  1  0  0  0
  4  5  1  0  0  0
  4 92  1  0  0  0
  4 93  1  0  0  0
  5  6  1  0  0  0
  5 26  1  0  0  0
  5 94  1  0  0  0
  6 25  1  0  0  0
  6 95  1  0  0  0
  6 96  1  0  0  0
  7  8  2  0  0  0
  7 26  1  0  0  0
  7 29  1  0  0  0
  8  9  1  0  0  0
  8 22  1  0  0  0
  9 10  1  0  0  0
  9 27  2  0  0  0
 10 11  2  0  0  0
 10 15  1  0  0  0
 11 12  1  0  0  0
 11 97  1  0  0  0
 12 13  2  0  0  0
 12 98  1  0  0  0
 13 14  1  0  0  0
 13 31  1  0  0  0
 14 15  2  0  0  0
 14 99  1  0  0  0
 15100  1  0  0  0
 16 17  2  0  0  0
 16 21  1  0  0  0
 16 31  1  0  0  0
 17 18  1  0  0  0
 17101  1  0  0  0
 18 19  2  0  0  0
 18102  1  0  0  0
 19 20  1  0  0  0
 19 24  1  0  0  0
 20 21  2  0  0  0
 20103  1  0  0  0
 21 23  1  0  0  0
 22 28  1  0  0  0
 22 32  2  0  0  0
 26 27  1  0  0  0
 28104  1  0  0  0
 28105  1  0  0  0
 29106  1  0  0  0
 29107  1  0  0  0
 33 34  1  0  0  0
 33 66  1  0  0  0
 33 70  2  0  0  0
 34 36  1  0  0  0
 34 59  1  0  0  0
 34108  1  0  0  0
 35 44  2  0  0  0
 35 45  1  0  0  0
 35 68  1  0  0  0
 36 56  1  0  0  0
 36109  1  0  0  0
 37 39  1  0  0  0
 37 47  1  0  0  0
 37 66  1  0  0  0
 37110  1  0  0  0
 38 43  2  0  0  0
 38 46  1  0  0  0
 38 47  1  0  0  0
 39 64  1  0  0  0
 39 67  2  0  0  0
 40 52  1  0  0  0
 40 53  2  0  0  0
 40 58  1  0  0  0
 41111  1  0  0  0
 41112  1  0  0  0
 41113  1  0  0  0
 41 48  1  0  0  0
 42 43  1  0  0  0
 42 66  1  0  0  0
 42114  1  0  0  0
 42115  1  0  0  0
 43 44  1  0  0  0
 44116  1  0  0  0
 45 46  2  0  0  0
 45117  1  0  0  0
 46118  1  0  0  0
 47119  1  0  0  0
 47120  1  0  0  0
 48 56  1  0  0  0
 48 65  1  0  0  0
 48121  1  0  0  0
 49 50  1  0  0  0
 49 53  1  0  0  0
 49 64  1  0  0  0
 49122  1  0  0  0
 50 51  1  0  0  0
 50123  1  0  0  0
 50124  1  0  0  0
 51 52  1  0  0  0
 51125  1  0  0  0
 51126  1  0  0  0
 52127  1  0  0  0
 52128  1  0  0  0
 53 54  1  0  0  0
 54 55  2  0  0  0
 54129  1  0  0  0
 55 57  1  0  0  0
 55130  1  0  0  0
 56 69  2  0  0  0
 57 58  2  0  0  0
 57131  1  0  0  0
 58132  1  0  0  0
 59 60  1  0  0  0
 59 61  1  0  0  0
 59 62  1  0  0  0
 60133  1  0  0  0
 60134  1  0  0  0
 60135  1  0  0  0
 61136  1  0  0  0
 61137  1  0  0  0
 61138  1  0  0  0
 62139  1  0  0  0
 62140  1  0  0  0
 62141  1  0  0  0
 63 65  1  0  0  0
 63142  1  0  0  0
 63143  1  0  0  0
 63144  1  0  0  0
 64145  1  0  0  0
 65146  1  0  0  0
 68 83  1  0  0  0
 71 72  2  0  0  0
 71 74  1  0  0  0
 71147  1  0  0  0
 72 76  1  0  0  0
 72148  1  0  0  0
 73 75  1  0  0  0
 73 76  2  0  0  0
 73149  1  0  0  0
 74 75  2  0  0  0
 74 82  1  0  0  0
 75 84  1  0  0  0
 76 85  1  0  0  0
 77 79  1  0  0  0
 77 80  1  0  0  0
 77 87  2  0  0  0
 78 81  1  0  0  0
 78 84  1  0  0  0
 78 86  2  0  0  0
 79 81  1  0  0  0
 79150  1  0  0  0
 79151  1  0  0  0
 80 84  1  0  0  0
 80152  1  0  0  0
 80153  1  0  0  0
 81 83  1  0  0  0
 81154  1  0  0  0
 82155  1  0  0  0
 82156  1  0  0  0
 82157  1  0  0  0
 83158  1  0  0  0
 83159  1  0  0  0
 85160  1  0  0  0
M  ISO  4   1 100  68 101  83 101  85 100
M  END
> <chiral flag>
0

> <version>
0

> <s_m_source_file>
/data/baiqing/PycharmProjects/Reinvent-master-3.2/result/LINK_invent/BTK/process_docking_weight1_custom_product_contain_oxygen_bond_distance_aromatic_linkinvent_7_9_3/rearranged_h_0061.sdf

> <i_m_source_file_index>
95

> <r_mmod_Potential_Energy-OPLS-2005>
208.825485229492

> <r_mmod_Stretch_Energy-OPLS-2005>
137.626098632812

> <r_mmod_Bend_Energy-OPLS-2005>
160.327224731445

> <r_mmod_Torsional_Energy-OPLS-2005>
322.786010742188

> <r_mmod_Improper_Torsional_Energy-OPLS-2005>
6.02568864822388

> <r_mmod_Van_der_Waal_Energy-OPLS-2005>
158.17936706543

> <r_mmod_Electrostatic_Energy-OPLS-2005>
-420.626342773438

> <r_mmod_Solvation_Energy-OPLS-2005>
-244.812103271484

> <b_mmod_Minimization_Converged-OPLS-2005>
0

> <r_mmod_RMS_Derivative-OPLS-2005>
1.76667666435242

$$$$
96
                    3D
 Structure written by MMmdl.
157165  0  0  1  0            999 V2000
  -30.6645  -14.5367   20.5722 C   0  0  0  0  0  0
  -30.4253  -12.3511   19.4337 C   0  0  0  0  0  0
  -29.4990  -12.5368   18.2136 C   0  0  0  0  0  0
  -28.0209  -12.3774   18.6196 C   0  0  0  0  0  0
  -27.6557  -13.2158   19.8739 C   0  0  2  0  0  0
  -28.6954  -13.0157   20.9997 C   0  0  0  0  0  0
  -25.2495  -13.8117   20.5572 C   0  0  0  0  0  0
  -24.1812  -13.0409   20.9197 C   0  0  0  0  0  0
  -24.6393  -11.6886   20.8766 C   0  0  0  0  0  0
  -23.9067  -10.4288   21.0410 C   0  0  0  0  0  0
  -24.3621   -9.4199   21.9183 C   0  0  0  0  0  0
  -23.6294   -8.2239   22.0745 C   0  0  0  0  0  0
  -22.4273   -8.0279   21.3547 C   0  0  0  0  0  0
  -21.9911   -9.0250   20.4640 C   0  0  0  0  0  0
  -22.7241  -10.2131   20.3048 C   0  0  0  0  0  0
  -21.6854   -6.0736   22.5270 C   0  0  0  0  0  0
  -21.4016   -6.5640   23.8207 C   0  0  0  0  0  0
  -21.3660   -5.6790   24.9162 C   0  0  0  0  0  0
  -21.6050   -4.3053   24.7214 C   0  0  0  0  0  0
  -21.8823   -3.8145   23.4340 C   0  0  0  0  0  0
  -21.9198   -4.6963   22.3393 C   0  0  0  0  0  0
  -22.7836  -13.5209   21.1853 C   0  0  0  0  0  0
  -22.1661   -4.2147   21.0972 F   0  0  0  0  0  0
  -21.5628   -3.4529   25.7728 F   0  0  0  0  0  0
  -30.0211  -13.3395   20.4513 N   0  0  0  0  0  0
  -26.2979  -12.9336   20.3330 N   0  0  0  0  0  0
  -25.9326  -11.6486   20.5788 N   0  0  0  0  0  0
  -22.0465  -12.8215   22.0401 N   0  0  0  0  0  0
  -25.4087  -15.1790   20.3678 N   0  0  0  0  0  0
  -31.8018  -14.6978   20.1208 O   0  0  0  0  0  0
  -21.6648   -6.8870   21.4232 O   0  0  0  0  0  0
  -22.3546  -14.5526   20.6688 O   0  0  0  0  0  0
  -24.6145  -31.8691   23.2106 C   0  0  0  0  0  0
  -25.9051  -32.4830   23.8400 C   0  0  1  0  0  0
  -27.2241  -27.4179   20.0987 C   0  0  0  0  0  0
  -25.5929  -33.8630   24.2325 N   0  0  0  0  0  0
  -23.4020  -30.4956   21.5487 C   0  0  2  0  0  0
  -24.8459  -28.9632   20.1092 C   0  0  0  0  0  0
  -22.7418  -29.4686   22.4961 C   0  0  0  0  0  0
  -18.0290  -28.1383   22.8506 C   0  0  0  0  0  0
  -24.1478  -36.7284   23.2622 C   0  0  0  0  0  0
  -25.9338  -30.8294   21.3661 C   0  0  0  0  0  0
  -26.0057  -29.4633   20.7115 C   0  0  0  0  0  0
  -27.1941  -28.6961   20.7091 C   0  0  0  0  0  0
  -26.0435  -26.9426   19.4807 C   0  0  0  0  0  0
  -24.8595  -27.7020   19.4911 C   0  0  0  0  0  0
  -23.6094  -29.8345   20.1603 C   0  0  0  0  0  0
  -25.4088  -36.3108   24.0350 C   0  0  1  0  0  0
  -20.5877  -28.3670   23.1306 C   0  0  2  0  0  0
  -20.6770  -26.9406   22.5405 C   0  0  0  0  0  0
  -19.5756  -26.6408   21.5197 C   0  0  0  0  0  0
  -18.1928  -26.7946   22.1605 C   0  0  0  0  0  0
  -19.1538  -28.8844   23.2911 C   0  0  0  0  0  0
  -18.9462  -30.1445   23.8924 C   0  0  0  0  0  0
  -17.6467  -30.6590   24.0577 C   0  0  0  0  0  0
  -25.9056  -34.9487   23.5133 C   0  0  0  0  0  0
  -16.5351  -29.9094   23.6333 C   0  0  0  0  0  0
  -16.7279  -28.6511   23.0360 C   0  0  0  0  0  0
  -26.4487  -31.6620   25.0731 C   0  0  0  0  0  0
  -25.3777  -31.3740   26.1514 C   0  0  0  0  0  0
  -27.0317  -30.3078   24.6108 C   0  0  0  0  0  0
  -27.6081  -32.4355   25.7456 C   0  0  0  0  0  0
  -27.5625  -37.1708   24.8409 C   0  0  0  0  0  0
  -21.4154  -29.3032   22.3696 N   0  0  0  0  0  0
  -26.4231  -37.3838   23.9529 N   0  0  0  0  0  0
  -24.6685  -31.0804   22.0990 N   0  0  0  0  0  0
  -23.4192  -28.8230   23.3002 O   0  0  0  0  0  0
  -28.3951  -26.6784   20.1503 O   0  0  0  0  0  0
  -26.5613  -34.8959   22.4690 O   0  0  0  0  0  0
  -23.5347  -32.1433   23.7510 O   0  0  0  0  0  0
  -31.5385  -18.9716   20.7222 C   0  0  0  0  0  0
  -31.3584  -17.5763   20.7286 C   0  0  0  0  0  0
  -30.4831  -19.8263   21.0743 C   0  0  0  0  0  0
  -29.0556  -17.8689   21.4951 C   0  0  0  0  0  0
  -30.1210  -16.9898   21.1003 C   0  0  0  0  0  0
  -29.2402  -19.2951   21.4534 C   0  0  0  0  0  0
  -28.4187  -23.2027   21.0536 C   0  0  0  0  0  0
  -27.7350  -17.2697   21.9733 C   0  0  0  0  0  0
  -27.6546  -24.2225   20.1780 C   0  0  0  0  0  0
  -28.4676  -25.3822   19.5206 C   0  0  0  0  0  0
  -29.9213  -15.5514   21.0945 N   0  0  0  0  0  0
  -28.1710  -21.8494   20.7666 N   0  0  0  0  0  0
  -29.1446  -23.5653   21.9850 O   0  0  0  0  0  0
  -28.2470  -21.0218   23.2480 O   0  0  0  0  0  0
  -26.6310  -19.9854   21.5855 O   0  0  0  0  0  0
  -27.9641  -20.5325   21.8865 S   0  0  0  0  0  0
  -31.4694  -12.4596   19.1351 H   0  0  0  0  0  0
  -30.3343  -11.3391   19.8304 H   0  0  0  0  0  0
  -29.7518  -11.8236   17.4283 H   0  0  0  0  0  0
  -29.6534  -13.5297   17.7858 H   0  0  0  0  0  0
  -27.8424  -11.3194   18.8133 H   0  0  0  0  0  0
  -27.3702  -12.6458   17.7860 H   0  0  0  0  0  0
  -27.6898  -14.2639   19.5738 H   0  0  0  0  0  0
  -28.6838  -11.9815   21.3450 H   0  0  0  0  0  0
  -28.4461  -13.6176   21.8741 H   0  0  0  0  0  0
  -25.2758   -9.5689   22.4753 H   0  0  0  0  0  0
  -24.0004   -7.4631   22.7460 H   0  0  0  0  0  0
  -21.0839   -8.8771   19.8939 H   0  0  0  0  0  0
  -22.3695  -10.9670   19.6158 H   0  0  0  0  0  0
  -21.2003   -7.6139   23.9708 H   0  0  0  0  0  0
  -21.1477   -6.0515   25.9074 H   0  0  0  0  0  0
  -22.0602   -2.7599   23.2833 H   0  0  0  0  0  0
  -22.4085  -11.9881   22.4792 H   0  0  0  0  0  0
  -21.1065  -13.1234   22.2565 H   0  0  0  0  0  0
  -24.5907  -15.7765   20.3347 H   0  0  0  0  0  0
  -26.1918  -15.5532   19.8490 H   0  0  0  0  0  0
  -26.7112  -32.5521   23.1147 H   0  0  0  0  0  0
  -25.0130  -33.9815   25.0510 H   0  0  0  0  0  0
  -22.6918  -31.3136   21.4095 H   0  0  0  0  0  0
  -23.3827  -35.9516   23.3129 H   0  0  0  0  0  0
  -24.3663  -36.9057   22.2078 H   0  0  0  0  0  0
  -23.7085  -37.6377   23.6739 H   0  0  0  0  0  0
  -26.0569  -31.5968   20.6009 H   0  0  0  0  0  0
  -26.8174  -30.8747   21.9900 H   0  0  0  0  0  0
  -28.0901  -29.0770   21.1806 H   0  0  0  0  0  0
  -26.0046  -25.9832   18.9895 H   0  0  0  0  0  0
  -23.9675  -27.3092   19.0215 H   0  0  0  0  0  0
  -23.7181  -30.6134   19.4042 H   0  0  0  0  0  0
  -22.7310  -29.2589   19.8580 H   0  0  0  0  0  0
  -25.1203  -36.1924   25.0824 H   0  0  0  0  0  0
  -20.9986  -28.3238   24.1425 H   0  0  0  0  0  0
  -20.5651  -26.2290   23.3601 H   0  0  0  0  0  0
  -21.6634  -26.7439   22.1188 H   0  0  0  0  0  0
  -19.6931  -25.6331   21.1200 H   0  0  0  0  0  0
  -19.6712  -27.3253   20.6756 H   0  0  0  0  0  0
  -17.4206  -26.6752   21.3996 H   0  0  0  0  0  0
  -18.0310  -26.0060   22.8969 H   0  0  0  0  0  0
  -19.7940  -30.7248   24.2313 H   0  0  0  0  0  0
  -17.5030  -31.6268   24.5180 H   0  0  0  0  0  0
  -15.5361  -30.2999   23.7669 H   0  0  0  0  0  0
  -15.8684  -28.0838   22.7053 H   0  0  0  0  0  0
  -24.5905  -30.7136   25.7865 H   0  0  0  0  0  0
  -24.9012  -32.2893   26.5020 H   0  0  0  0  0  0
  -25.8136  -30.8857   27.0234 H   0  0  0  0  0  0
  -26.2829  -29.6832   24.1223 H   0  0  0  0  0  0
  -27.4164  -29.7344   25.4546 H   0  0  0  0  0  0
  -27.8652  -30.4423   23.9217 H   0  0  0  0  0  0
  -27.2719  -33.3663   26.2033 H   0  0  0  0  0  0
  -28.3856  -32.6903   25.0243 H   0  0  0  0  0  0
  -28.0797  -31.8487   26.5346 H   0  0  0  0  0  0
  -28.2355  -38.0268   24.7871 H   0  0  0  0  0  0
  -28.1368  -36.2859   24.5641 H   0  0  0  0  0  0
  -27.2463  -37.0610   25.8793 H   0  0  0  0  0  0
  -20.9319  -29.8777   21.6922 H   0  0  0  0  0  0
  -26.0099  -38.2836   24.1810 H   0  0  0  0  0  0
  -32.4921  -19.3954   20.4427 H   0  0  0  0  0  0
  -32.2118  -16.9814   20.4465 H   0  0  0  0  0  0
  -30.6328  -20.8961   21.0711 H   0  0  0  0  0  0
  -27.8611  -16.2692   22.3848 H   0  0  0  0  0  0
  -27.0256  -17.2153   21.1495 H   0  0  0  0  0  0
  -27.2790  -17.8557   22.7699 H   0  0  0  0  0  0
  -26.8360  -24.6206   20.7783 H   0  0  0  0  0  0
  -27.1750  -23.6631   19.3739 H   0  0  0  0  0  0
  -28.1730  -25.4918   18.4765 H   0  0  0  0  0  0
  -29.5217  -25.1096   19.4729 H   0  0  0  0  0  0
  -29.0167  -15.2483   21.4197 H   0  0  0  0  0  0
  -27.7140  -21.6117   19.8875 H   0  0  0  0  0  0
  1 25  1  0  0  0
  1 30  2  0  0  0
  1 81  1  0  0  0
  2  3  1  0  0  0
  2 25  1  0  0  0
  2 87  1  0  0  0
  2 88  1  0  0  0
  3  4  1  0  0  0
  3 89  1  0  0  0
  3 90  1  0  0  0
  4  5  1  0  0  0
  4 91  1  0  0  0
  4 92  1  0  0  0
  5  6  1  0  0  0
  5 26  1  0  0  0
  5 93  1  0  0  0
  6 25  1  0  0  0
  6 94  1  0  0  0
  6 95  1  0  0  0
  7  8  2  0  0  0
  7 26  1  0  0  0
  7 29  1  0  0  0
  8  9  1  0  0  0
  8 22  1  0  0  0
  9 10  1  0  0  0
  9 27  2  0  0  0
 10 11  2  0  0  0
 10 15  1  0  0  0
 11 12  1  0  0  0
 11 96  1  0  0  0
 12 13  2  0  0  0
 12 97  1  0  0  0
 13 14  1  0  0  0
 13 31  1  0  0  0
 14 15  2  0  0  0
 14 98  1  0  0  0
 15 99  1  0  0  0
 16 17  2  0  0  0
 16 21  1  0  0  0
 16 31  1  0  0  0
 17 18  1  0  0  0
 17100  1  0  0  0
 18 19  2  0  0  0
 18101  1  0  0  0
 19 20  1  0  0  0
 19 24  1  0  0  0
 20 21  2  0  0  0
 20102  1  0  0  0
 21 23  1  0  0  0
 22 28  1  0  0  0
 22 32  2  0  0  0
 26 27  1  0  0  0
 28103  1  0  0  0
 28104  1  0  0  0
 29105  1  0  0  0
 29106  1  0  0  0
 33 34  1  0  0  0
 33 66  1  0  0  0
 33 70  2  0  0  0
 34 36  1  0  0  0
 34 59  1  0  0  0
 34107  1  0  0  0
 35 44  2  0  0  0
 35 45  1  0  0  0
 35 68  1  0  0  0
 36 56  1  0  0  0
 36108  1  0  0  0
 37 39  1  0  0  0
 37 47  1  0  0  0
 37 66  1  0  0  0
 37109  1  0  0  0
 38 43  2  0  0  0
 38 46  1  0  0  0
 38 47  1  0  0  0
 39 64  1  0  0  0
 39 67  2  0  0  0
 40 52  1  0  0  0
 40 53  2  0  0  0
 40 58  1  0  0  0
 41110  1  0  0  0
 41111  1  0  0  0
 41112  1  0  0  0
 41 48  1  0  0  0
 42 43  1  0  0  0
 42 66  1  0  0  0
 42113  1  0  0  0
 42114  1  0  0  0
 43 44  1  0  0  0
 44115  1  0  0  0
 45 46  2  0  0  0
 45116  1  0  0  0
 46117  1  0  0  0
 47118  1  0  0  0
 47119  1  0  0  0
 48 56  1  0  0  0
 48 65  1  0  0  0
 48120  1  0  0  0
 49 50  1  0  0  0
 49 53  1  0  0  0
 49 64  1  0  0  0
 49121  1  0  0  0
 50 51  1  0  0  0
 50122  1  0  0  0
 50123  1  0  0  0
 51 52  1  0  0  0
 51124  1  0  0  0
 51125  1  0  0  0
 52126  1  0  0  0
 52127  1  0  0  0
 53 54  1  0  0  0
 54 55  2  0  0  0
 54128  1  0  0  0
 55 57  1  0  0  0
 55129  1  0  0  0
 56 69  2  0  0  0
 57 58  2  0  0  0
 57130  1  0  0  0
 58131  1  0  0  0
 59 60  1  0  0  0
 59 61  1  0  0  0
 59 62  1  0  0  0
 60132  1  0  0  0
 60133  1  0  0  0
 60134  1  0  0  0
 61135  1  0  0  0
 61136  1  0  0  0
 61137  1  0  0  0
 62138  1  0  0  0
 62139  1  0  0  0
 62140  1  0  0  0
 63 65  1  0  0  0
 63141  1  0  0  0
 63142  1  0  0  0
 63143  1  0  0  0
 64144  1  0  0  0
 65145  1  0  0  0
 68 80  1  0  0  0
 71 72  2  0  0  0
 71 73  1  0  0  0
 71146  1  0  0  0
 72 75  1  0  0  0
 72147  1  0  0  0
 73 76  2  0  0  0
 73148  1  0  0  0
 74 75  2  0  0  0
 74 76  1  0  0  0
 74 78  1  0  0  0
 75 81  1  0  0  0
 76 86  1  0  0  0
 77 79  1  0  0  0
 77 82  1  0  0  0
 77 83  2  0  0  0
 78149  1  0  0  0
 78150  1  0  0  0
 78151  1  0  0  0
 79 80  1  0  0  0
 79152  1  0  0  0
 79153  1  0  0  0
 80154  1  0  0  0
 80155  1  0  0  0
 81156  1  0  0  0
 82157  1  0  0  0
 82 86  1  0  0  0
 84 86  2  0  0  0
 85 86  2  0  0  0
M  ISO  4   1 100  68 101  80 101  81 100
M  END
> <chiral flag>
0

> <version>
0

> <s_m_source_file>
/data/baiqing/PycharmProjects/Reinvent-master-3.2/result/LINK_invent/BTK/process_docking_weight1_custom_product_contain_oxygen_bond_distance_aromatic_linkinvent_7_9_3/rearranged_h_0061.sdf

> <i_m_source_file_index>
96

> <r_mmod_Potential_Energy-OPLS-2005>
-185.918090820312

> <r_mmod_Stretch_Energy-OPLS-2005>
49.3220672607422

> <r_mmod_Bend_Energy-OPLS-2005>
122.734771728516

> <r_mmod_Torsional_Energy-OPLS-2005>
224.609298706055

> <r_mmod_Improper_Torsional_Energy-OPLS-2005>
6.97731590270996

> <r_mmod_Van_der_Waal_Energy-OPLS-2005>
153.842376708984

> <r_mmod_Electrostatic_Energy-OPLS-2005>
-494.852813720703

> <r_mmod_Solvation_Energy-OPLS-2005>
-268.442810058594

> <b_mmod_Minimization_Converged-OPLS-2005>
0

> <r_mmod_RMS_Derivative-OPLS-2005>
3.39298033714294

$$$$
97
                    3D
 Structure written by MMmdl.
157165  0  0  1  0            999 V2000
  -30.6641  -14.5489   20.5316 C   0  0  0  0  0  0
  -30.4302  -12.3429   19.4346 C   0  0  0  0  0  0
  -29.5006  -12.5044   18.2129 C   0  0  0  0  0  0
  -28.0221  -12.3548   18.6244 C   0  0  0  0  0  0
  -27.6573  -13.2092   19.8678 C   0  0  2  0  0  0
  -28.7016  -13.0263   20.9929 C   0  0  0  0  0  0
  -25.2576  -13.8156   20.5676 C   0  0  0  0  0  0
  -24.1835  -13.0433   20.9188 C   0  0  0  0  0  0
  -24.6389  -11.6901   20.8735 C   0  0  0  0  0  0
  -23.9052  -10.4289   21.0399 C   0  0  0  0  0  0
  -24.3607   -9.4206   21.9176 C   0  0  0  0  0  0
  -23.6285   -8.2241   22.0750 C   0  0  0  0  0  0
  -22.4266   -8.0277   21.3543 C   0  0  0  0  0  0
  -21.9896   -9.0249   20.4647 C   0  0  0  0  0  0
  -22.7224  -10.2130   20.3051 C   0  0  0  0  0  0
  -21.6854   -6.0727   22.5274 C   0  0  0  0  0  0
  -21.4019   -6.5633   23.8208 C   0  0  0  0  0  0
  -21.3660   -5.6787   24.9170 C   0  0  0  0  0  0
  -21.6042   -4.3049   24.7222 C   0  0  0  0  0  0
  -21.8820   -3.8141   23.4347 C   0  0  0  0  0  0
  -21.9196   -4.6958   22.3401 C   0  0  0  0  0  0
  -22.7858  -13.5235   21.1844 C   0  0  0  0  0  0
  -22.1663   -4.2140   21.0978 F   0  0  0  0  0  0
  -21.5626   -3.4533   25.7738 F   0  0  0  0  0  0
  -30.0254  -13.3467   20.4341 N   0  0  0  0  0  0
  -26.3004  -12.9327   20.3332 N   0  0  0  0  0  0
  -25.9315  -11.6487   20.5750 N   0  0  0  0  0  0
  -22.0496  -12.8237   22.0404 N   0  0  0  0  0  0
  -25.4292  -15.1873   20.4067 N   0  0  0  0  0  0
  -31.8192  -14.7081   20.1265 O   0  0  0  0  0  0
  -21.6636   -6.8871   21.4238 O   0  0  0  0  0  0
  -22.3546  -14.5542   20.6688 O   0  0  0  0  0  0
  -24.6202  -31.8648   23.2081 C   0  0  0  0  0  0
  -25.9081  -32.4804   23.8383 C   0  0  1  0  0  0
  -27.2249  -27.3791   20.1006 C   0  0  0  0  0  0
  -25.5920  -33.8604   24.2313 N   0  0  0  0  0  0
  -23.4100  -30.4904   21.5502 C   0  0  2  0  0  0
  -24.8541  -28.9560   20.1109 C   0  0  0  0  0  0
  -22.7440  -29.4644   22.4967 C   0  0  0  0  0  0
  -18.0279  -28.1376   22.8483 C   0  0  0  0  0  0
  -24.1491  -36.7304   23.2637 C   0  0  0  0  0  0
  -25.9461  -30.8133   21.3710 C   0  0  0  0  0  0
  -26.0204  -29.4469   20.7109 C   0  0  0  0  0  0
  -27.2089  -28.6690   20.6982 C   0  0  0  0  0  0
  -26.0348  -26.9262   19.4820 C   0  0  0  0  0  0
  -24.8598  -27.6979   19.4906 C   0  0  0  0  0  0
  -23.6200  -29.8289   20.1633 C   0  0  0  0  0  0
  -25.4110  -36.3097   24.0337 C   0  0  1  0  0  0
  -20.5872  -28.3672   23.1298 C   0  0  2  0  0  0
  -20.6770  -26.9403   22.5414 C   0  0  0  0  0  0
  -19.5751  -26.6384   21.5205 C   0  0  0  0  0  0
  -18.1928  -26.7924   22.1614 C   0  0  0  0  0  0
  -19.1530  -28.8842   23.2887 C   0  0  0  0  0  0
  -18.9457  -30.1445   23.8903 C   0  0  0  0  0  0
  -17.6459  -30.6582   24.0562 C   0  0  0  0  0  0
  -25.9042  -34.9464   23.5119 C   0  0  0  0  0  0
  -16.5350  -29.9081   23.6324 C   0  0  0  0  0  0
  -16.7266  -28.6496   23.0347 C   0  0  0  0  0  0
  -26.4484  -31.6597   25.0732 C   0  0  0  0  0  0
  -25.3743  -31.3733   26.1480 C   0  0  0  0  0  0
  -27.0307  -30.3023   24.6151 C   0  0  0  0  0  0
  -27.6057  -32.4321   25.7490 C   0  0  0  0  0  0
  -27.5583  -37.1805   24.8458 C   0  0  0  0  0  0
  -21.4161  -29.3037   22.3705 N   0  0  0  0  0  0
  -26.4293  -37.3785   23.9407 N   0  0  0  0  0  0
  -24.6772  -31.0711   22.1006 N   0  0  0  0  0  0
  -23.4190  -28.8176   23.3020 O   0  0  0  0  0  0
  -28.3666  -26.5809   20.1433 O   0  0  0  0  0  0
  -26.5598  -34.8921   22.4679 O   0  0  0  0  0  0
  -23.5384  -32.1425   23.7448 O   0  0  0  0  0  0
  -29.0062  -17.8862   20.6395 C   0  0  0  0  0  0
  -29.1722  -19.2965   20.5620 C   0  0  0  0  0  0
  -31.3835  -17.6085   20.9874 C   0  0  0  0  0  0
  -31.5607  -19.0168   20.9273 C   0  0  0  0  0  0
  -30.1084  -17.0142   20.8365 C   0  0  0  0  0  0
  -30.4492  -19.8843   20.7069 C   0  0  0  0  0  0
  -32.9679  -19.5632   21.1151 C   0  0  0  0  0  0
  -29.3738  -24.2385   20.4242 C   0  0  0  0  0  0
  -28.1763  -25.1426   19.9970 C   0  0  0  0  0  0
  -29.1295  -22.6846   20.3478 C   0  0  0  0  0  0
  -31.4904  -22.0069   19.2706 N   0  0  0  0  0  0
  -29.8818  -15.5891   20.9250 N   0  0  0  0  0  0
  -31.2772  -22.1814   21.8644 O   0  0  0  0  0  0
  -30.7035  -21.7151   20.5914 S   0  0  2  0  0  0
  -31.4733  -12.4520   19.1322 H   0  0  0  0  0  0
  -30.3446  -11.3393   19.8535 H   0  0  0  0  0  0
  -29.7519  -11.7689   17.4478 H   0  0  0  0  0  0
  -29.6578  -13.4837   17.7578 H   0  0  0  0  0  0
  -27.8440  -11.2997   18.8365 H   0  0  0  0  0  0
  -27.3705  -12.6102   17.7877 H   0  0  0  0  0  0
  -27.6884  -14.2506   19.5477 H   0  0  0  0  0  0
  -28.6943  -11.9975   21.3560 H   0  0  0  0  0  0
  -28.4594  -13.6443   21.8589 H   0  0  0  0  0  0
  -25.2754   -9.5685   22.4745 H   0  0  0  0  0  0
  -23.9999   -7.4633   22.7465 H   0  0  0  0  0  0
  -21.0826   -8.8765   19.8954 H   0  0  0  0  0  0
  -22.3677  -10.9665   19.6157 H   0  0  0  0  0  0
  -21.2015   -7.6141   23.9709 H   0  0  0  0  0  0
  -21.1478   -6.0516   25.9071 H   0  0  0  0  0  0
  -22.0602   -2.7603   23.2848 H   0  0  0  0  0  0
  -22.4106  -11.9896   22.4797 H   0  0  0  0  0  0
  -21.1116  -13.1266   22.2604 H   0  0  0  0  0  0
  -24.6582  -15.8391   20.5043 H   0  0  0  0  0  0
  -26.2686  -15.6207   20.0456 H   0  0  0  0  0  0
  -26.7145  -32.5489   23.1131 H   0  0  0  0  0  0
  -25.0083  -33.9760   25.0467 H   0  0  0  0  0  0
  -22.7004  -31.3089   21.4126 H   0  0  0  0  0  0
  -23.3751  -35.9641   23.3308 H   0  0  0  0  0  0
  -24.3587  -36.8910   22.2050 H   0  0  0  0  0  0
  -23.7252  -37.6516   23.6644 H   0  0  0  0  0  0
  -26.0723  -31.5824   20.6078 H   0  0  0  0  0  0
  -26.8285  -30.8578   21.9976 H   0  0  0  0  0  0
  -28.1056  -29.0422   21.1727 H   0  0  0  0  0  0
  -25.9833  -25.9675   18.9883 H   0  0  0  0  0  0
  -23.9650  -27.3163   19.0183 H   0  0  0  0  0  0
  -23.7331  -30.6072   19.4075 H   0  0  0  0  0  0
  -22.7411  -29.2551   19.8633 H   0  0  0  0  0  0
  -25.1289  -36.1957   25.0830 H   0  0  0  0  0  0
  -20.9964  -28.3247   24.1419 H   0  0  0  0  0  0
  -20.5658  -26.2283   23.3608 H   0  0  0  0  0  0
  -21.6643  -26.7439   22.1215 H   0  0  0  0  0  0
  -19.6914  -25.6297   21.1232 H   0  0  0  0  0  0
  -19.6692  -27.3194   20.6735 H   0  0  0  0  0  0
  -17.4201  -26.6672   21.4013 H   0  0  0  0  0  0
  -18.0328  -26.0063   22.9006 H   0  0  0  0  0  0
  -19.7937  -30.7252   24.2280 H   0  0  0  0  0  0
  -17.5017  -31.6263   24.5165 H   0  0  0  0  0  0
  -15.5350  -30.2983   23.7646 H   0  0  0  0  0  0
  -15.8668  -28.0813   22.7063 H   0  0  0  0  0  0
  -24.5905  -30.7086   25.7831 H   0  0  0  0  0  0
  -24.8949  -32.2902   26.4916 H   0  0  0  0  0  0
  -25.8092  -30.8914   27.0246 H   0  0  0  0  0  0
  -26.2858  -29.6795   24.1181 H   0  0  0  0  0  0
  -27.4020  -29.7253   25.4630 H   0  0  0  0  0  0
  -27.8723  -30.4313   23.9343 H   0  0  0  0  0  0
  -27.2674  -33.3614   26.2085 H   0  0  0  0  0  0
  -28.3850  -32.6899   25.0306 H   0  0  0  0  0  0
  -28.0743  -31.8440   26.5392 H   0  0  0  0  0  0
  -28.2601  -38.0102   24.7508 H   0  0  0  0  0  0
  -28.1078  -36.2635   24.6273 H   0  0  0  0  0  0
  -27.2306  -37.1451   25.8862 H   0  0  0  0  0  0
  -20.9328  -29.8768   21.6931 H   0  0  0  0  0  0
  -26.0181  -38.2863   24.1410 H   0  0  0  0  0  0
  -28.0108  -17.4782   20.5327 H   0  0  0  0  0  0
  -28.3126  -19.9280   20.3945 H   0  0  0  0  0  0
  -32.2461  -16.9822   21.1666 H   0  0  0  0  0  0
  -33.7014  -18.7617   21.2079 H   0  0  0  0  0  0
  -33.0274  -20.1672   22.0207 H   0  0  0  0  0  0
  -33.2679  -20.1780   20.2671 H   0  0  0  0  0  0
  -29.6670  -24.4967   21.4422 H   0  0  0  0  0  0
  -30.2299  -24.4938   19.7990 H   0  0  0  0  0  0
  -27.3105  -24.8336   20.5853 H   0  0  0  0  0  0
  -27.9478  -24.9260   18.9523 H   0  0  0  0  0  0
  -28.7041  -22.3958   19.3877 H   0  0  0  0  0  0
  -28.4243  -22.3692   21.1167 H   0  0  0  0  0  0
  -31.0831  -21.5003   18.4741 H   0  0  0  0  0  0
  -28.9402  -15.3134   21.1574 H   0  0  0  0  0  0
  1 25  1  0  0  0
  1 30  2  0  0  0
  1 82  1  0  0  0
  2  3  1  0  0  0
  2 25  1  0  0  0
  2 85  1  0  0  0
  2 86  1  0  0  0
  3  4  1  0  0  0
  3 87  1  0  0  0
  3 88  1  0  0  0
  4  5  1  0  0  0
  4 89  1  0  0  0
  4 90  1  0  0  0
  5  6  1  0  0  0
  5 26  1  0  0  0
  5 91  1  0  0  0
  6 25  1  0  0  0
  6 92  1  0  0  0
  6 93  1  0  0  0
  7  8  2  0  0  0
  7 26  1  0  0  0
  7 29  1  0  0  0
  8  9  1  0  0  0
  8 22  1  0  0  0
  9 10  1  0  0  0
  9 27  2  0  0  0
 10 11  2  0  0  0
 10 15  1  0  0  0
 11 12  1  0  0  0
 11 94  1  0  0  0
 12 13  2  0  0  0
 12 95  1  0  0  0
 13 14  1  0  0  0
 13 31  1  0  0  0
 14 15  2  0  0  0
 14 96  1  0  0  0
 15 97  1  0  0  0
 16 17  2  0  0  0
 16 21  1  0  0  0
 16 31  1  0  0  0
 17 18  1  0  0  0
 17 98  1  0  0  0
 18 19  2  0  0  0
 18 99  1  0  0  0
 19 20  1  0  0  0
 19 24  1  0  0  0
 20 21  2  0  0  0
 20100  1  0  0  0
 21 23  1  0  0  0
 22 28  1  0  0  0
 22 32  2  0  0  0
 26 27  1  0  0  0
 28101  1  0  0  0
 28102  1  0  0  0
 29103  1  0  0  0
 29104  1  0  0  0
 33 34  1  0  0  0
 33 66  1  0  0  0
 33 70  2  0  0  0
 34 36  1  0  0  0
 34 59  1  0  0  0
 34105  1  0  0  0
 35 44  2  0  0  0
 35 45  1  0  0  0
 35 68  1  0  0  0
 36 56  1  0  0  0
 36106  1  0  0  0
 37 39  1  0  0  0
 37 47  1  0  0  0
 37 66  1  0  0  0
 37107  1  0  0  0
 38 43  2  0  0  0
 38 46  1  0  0  0
 38 47  1  0  0  0
 39 64  1  0  0  0
 39 67  2  0  0  0
 40 52  1  0  0  0
 40 53  2  0  0  0
 40 58  1  0  0  0
 41108  1  0  0  0
 41109  1  0  0  0
 41110  1  0  0  0
 41 48  1  0  0  0
 42 43  1  0  0  0
 42 66  1  0  0  0
 42111  1  0  0  0
 42112  1  0  0  0
 43 44  1  0  0  0
 44113  1  0  0  0
 45 46  2  0  0  0
 45114  1  0  0  0
 46115  1  0  0  0
 47116  1  0  0  0
 47117  1  0  0  0
 48 56  1  0  0  0
 48 65  1  0  0  0
 48118  1  0  0  0
 49 50  1  0  0  0
 49 53  1  0  0  0
 49 64  1  0  0  0
 49119  1  0  0  0
 50 51  1  0  0  0
 50120  1  0  0  0
 50121  1  0  0  0
 51 52  1  0  0  0
 51122  1  0  0  0
 51123  1  0  0  0
 52124  1  0  0  0
 52125  1  0  0  0
 53 54  1  0  0  0
 54 55  2  0  0  0
 54126  1  0  0  0
 55 57  1  0  0  0
 55127  1  0  0  0
 56 69  2  0  0  0
 57 58  2  0  0  0
 57128  1  0  0  0
 58129  1  0  0  0
 59 60  1  0  0  0
 59 61  1  0  0  0
 59 62  1  0  0  0
 60130  1  0  0  0
 60131  1  0  0  0
 60132  1  0  0  0
 61133  1  0  0  0
 61134  1  0  0  0
 61135  1  0  0  0
 62136  1  0  0  0
 62137  1  0  0  0
 62138  1  0  0  0
 63 65  1  0  0  0
 63139  1  0  0  0
 63140  1  0  0  0
 63141  1  0  0  0
 64142  1  0  0  0
 65143  1  0  0  0
 68 79  1  0  0  0
 71 72  2  0  0  0
 71 75  1  0  0  0
 71144  1  0  0  0
 72 76  1  0  0  0
 72145  1  0  0  0
 73 74  1  0  0  0
 73 75  2  0  0  0
 73146  1  0  0  0
 74 76  2  0  0  0
 74 77  1  0  0  0
 75 82  1  0  0  0
 76 84  1  0  0  0
 77147  1  0  0  0
 77148  1  0  0  0
 77149  1  0  0  0
 78 79  1  0  0  0
 78 80  1  0  0  0
 78150  1  0  0  0
 78151  1  0  0  0
 79152  1  0  0  0
 79153  1  0  0  0
 80154  1  0  0  0
 80155  1  0  0  0
 80 84  1  0  0  0
 81 84  2  0  0  0
 81156  1  0  0  0
 82157  1  0  0  0
 83 84  2  0  0  0
M  ISO  4   1 100  68 101  79 101  82 100
M  END
> <chiral flag>
0

> <version>
0

> <s_m_source_file>
/data/baiqing/PycharmProjects/Reinvent-master-3.2/result/LINK_invent/BTK/process_docking_weight1_custom_product_contain_oxygen_bond_distance_aromatic_linkinvent_7_9_3/rearranged_h_0061.sdf

> <i_m_source_file_index>
97

> <r_mmod_Potential_Energy-OPLS-2005>
-164.399505615234

> <r_mmod_Stretch_Energy-OPLS-2005>
53.8178977966309

> <r_mmod_Bend_Energy-OPLS-2005>
115.510543823242

> <r_mmod_Torsional_Energy-OPLS-2005>
218.222808837891

> <r_mmod_Improper_Torsional_Energy-OPLS-2005>
4.70454263687134

> <r_mmod_Van_der_Waal_Energy-OPLS-2005>
145.905044555664

> <r_mmod_Electrostatic_Energy-OPLS-2005>
-462.121185302734

> <r_mmod_Solvation_Energy-OPLS-2005>
-266.166839599609

> <b_mmod_Minimization_Converged-OPLS-2005>
0

> <r_mmod_RMS_Derivative-OPLS-2005>
0.710267901420593

$$$$
