0
                    3D
 Structure written by MMmdl.
156165  0  0  1  0            999 V2000
  -30.6439  -14.8465   20.4251 C   0  0  0  0  0  0
  -30.4169  -12.5221   19.4818 C   0  0  0  0  0  0
  -29.5062  -12.5141   18.2373 C   0  0  0  0  0  0
  -28.0360  -12.3281   18.6554 C   0  0  0  0  0  0
  -27.6291  -13.2536   19.8340 C   0  0  2  0  0  0
  -28.6785  -13.2814   20.9659 C   0  0  0  0  0  0
  -25.2479  -13.8237   20.5737 C   0  0  0  0  0  0
  -24.1795  -13.0460   20.9224 C   0  0  0  0  0  0
  -24.6419  -11.6944   20.8757 C   0  0  0  0  0  0
  -23.9096  -10.4317   21.0401 C   0  0  0  0  0  0
  -24.3640   -9.4223   21.9178 C   0  0  0  0  0  0
  -23.6318   -8.2257   22.0744 C   0  0  0  0  0  0
  -22.4297   -8.0291   21.3542 C   0  0  0  0  0  0
  -21.9935   -9.0271   20.4643 C   0  0  0  0  0  0
  -22.7262  -10.2155   20.3053 C   0  0  0  0  0  0
  -21.6863   -6.0747   22.5275 C   0  0  0  0  0  0
  -21.4022   -6.5648   23.8211 C   0  0  0  0  0  0
  -21.3663   -5.6792   24.9172 C   0  0  0  0  0  0
  -21.6050   -4.3057   24.7215 C   0  0  0  0  0  0
  -21.8819   -3.8153   23.4335 C   0  0  0  0  0  0
  -21.9202   -4.6976   22.3394 C   0  0  0  0  0  0
  -22.7816  -13.5227   21.1882 C   0  0  0  0  0  0
  -22.1663   -4.2160   21.0972 F   0  0  0  0  0  0
  -21.5630   -3.4538   25.7725 F   0  0  0  0  0  0
  -29.9577  -13.6431   20.3466 N   0  0  0  0  0  0
  -26.2910  -12.9487   20.3268 N   0  0  0  0  0  0
  -25.9359  -11.6614   20.5751 N   0  0  0  0  0  0
  -22.0463  -12.8219   22.0428 N   0  0  0  0  0  0
  -25.4207  -15.1973   20.4188 N   0  0  0  0  0  0
  -31.8606  -14.8001   20.2124 O   0  0  0  0  0  0
  -21.6660   -6.8893   21.4236 O   0  0  0  0  0  0
  -22.3493  -14.5528   20.6717 O   0  0  0  0  0  0
  -24.6412  -31.8512   23.1942 C   0  0  0  0  0  0
  -25.9215  -32.4719   23.8314 C   0  0  1  0  0  0
  -27.1859  -27.1783   20.1398 C   0  0  0  0  0  0
  -25.5990  -33.8528   24.2238 N   0  0  0  0  0  0
  -23.4384  -30.4766   21.5414 C   0  0  2  0  0  0
  -24.8782  -28.9154   20.1066 C   0  0  0  0  0  0
  -22.7539  -29.4613   22.4889 C   0  0  0  0  0  0
  -18.0306  -28.1409   22.8456 C   0  0  0  0  0  0
  -24.1495  -36.7267   23.2638 C   0  0  0  0  0  0
  -25.9916  -30.7324   21.3898 C   0  0  0  0  0  0
  -26.0551  -29.3492   20.7323 C   0  0  0  0  0  0
  -27.2151  -28.4938   20.7400 C   0  0  0  0  0  0
  -25.9923  -26.8417   19.4659 C   0  0  0  0  0  0
  -24.8571  -27.6747   19.4569 C   0  0  0  0  0  0
  -23.6578  -29.8187   20.1550 C   0  0  0  0  0  0
  -25.4126  -36.3040   24.0311 C   0  0  1  0  0  0
  -20.5913  -28.3745   23.1241 C   0  0  2  0  0  0
  -20.6808  -26.9453   22.5400 C   0  0  0  0  0  0
  -19.5792  -26.6402   21.5205 C   0  0  0  0  0  0
  -18.1964  -26.7948   22.1599 C   0  0  0  0  0  0
  -19.1553  -28.8895   23.2840 C   0  0  0  0  0  0
  -18.9466  -30.1490   23.8871 C   0  0  0  0  0  0
  -17.6455  -30.6598   24.0567 C   0  0  0  0  0  0
  -25.9077  -34.9411   23.5069 C   0  0  0  0  0  0
  -16.5352  -29.9091   23.6329 C   0  0  0  0  0  0
  -16.7284  -28.6518   23.0332 C   0  0  0  0  0  0
  -26.4554  -31.6557   25.0729 C   0  0  0  0  0  0
  -25.3771  -31.3693   26.1437 C   0  0  0  0  0  0
  -27.0410  -30.2962   24.6261 C   0  0  0  0  0  0
  -27.6081  -32.4318   25.7525 C   0  0  0  0  0  0
  -27.5572  -37.1793   24.8461 C   0  0  0  0  0  0
  -21.4239  -29.3061   22.3618 N   0  0  0  0  0  0
  -26.4289  -37.3747   23.9394 N   0  0  0  0  0  0
  -24.7107  -31.0395   22.0977 N   0  0  0  0  0  0
  -23.4199  -28.8156   23.3029 O   0  0  0  0  0  0
  -28.2107  -26.1844   20.1465 O   0  0  0  0  0  0
  -26.5625  -34.8900   22.4626 O   0  0  0  0  0  0
  -23.5543  -32.1384   23.7191 O   0  0  0  0  0  0
  -30.2262  -22.8122   18.1876 C   0  0  0  0  0  0
  -29.4985  -23.8144   18.8458 C   0  0  0  0  0  0
  -30.2540  -21.4839   18.6549 C   0  0  0  0  0  0
  -28.7737  -22.1065   20.4523 C   0  0  0  0  0  0
  -28.7504  -23.5270   20.0004 C   0  0  0  0  0  0
  -29.5294  -21.0233   19.7845 C   0  0  0  0  0  0
  -27.9396  -24.7567   20.5926 C   0  0  0  0  0  0
  -29.0327  -18.5226   21.1716 C   0  0  0  0  0  0
  -29.8787  -18.4237   18.9514 C   0  0  0  0  0  0
  -29.6022  -17.0121   21.4276 C   0  0  0  0  0  0
  -30.5670  -17.0263   19.2411 C   0  0  0  0  0  0
  -29.8181  -19.4380   20.1523 C   0  0  0  0  0  0
  -29.9940  -16.1067   20.2790 N   0  0  0  0  0  0
  -27.0290  -24.5315   21.3943 O   0  0  0  0  0  0
  -31.4588  -12.6212   19.1751 H   0  0  0  0  0  0
  -30.3545  -11.5707   20.0137 H   0  0  0  0  0  0
  -29.8049  -11.7213   17.5508 H   0  0  0  0  0  0
  -29.6184  -13.4531   17.6927 H   0  0  0  0  0  0
  -27.9071  -11.2841   18.9432 H   0  0  0  0  0  0
  -27.3770  -12.4916   17.8013 H   0  0  0  0  0  0
  -27.5944  -14.2605   19.4151 H   0  0  0  0  0  0
  -28.7437  -12.3182   21.4741 H   0  0  0  0  0  0
  -28.4038  -14.0177   21.7224 H   0  0  0  0  0  0
  -25.2781   -9.5706   22.4766 H   0  0  0  0  0  0
  -24.0031   -7.4649   22.7463 H   0  0  0  0  0  0
  -21.0865   -8.8798   19.8954 H   0  0  0  0  0  0
  -22.3707  -10.9706   19.6175 H   0  0  0  0  0  0
  -21.2011   -7.6154   23.9714 H   0  0  0  0  0  0
  -21.1484   -6.0524   25.9077 H   0  0  0  0  0  0
  -22.0596   -2.7613   23.2827 H   0  0  0  0  0  0
  -22.4068  -11.9884   22.4829 H   0  0  0  0  0  0
  -21.1074  -13.1230   22.2600 H   0  0  0  0  0  0
  -24.6639  -15.8597   20.5503 H   0  0  0  0  0  0
  -26.2886  -15.6362   20.1380 H   0  0  0  0  0  0
  -26.7272  -32.5322   23.1032 H   0  0  0  0  0  0
  -25.0169  -33.9661   25.0409 H   0  0  0  0  0  0
  -22.7382  -31.3017   21.3979 H   0  0  0  0  0  0
  -23.3751  -35.9611   23.3318 H   0  0  0  0  0  0
  -24.3574  -36.8879   22.2047 H   0  0  0  0  0  0
  -23.7263  -37.6475   23.6668 H   0  0  0  0  0  0
  -26.1419  -31.4859   20.6153 H   0  0  0  0  0  0
  -26.8669  -30.7774   22.0263 H   0  0  0  0  0  0
  -28.1140  -28.8110   21.2494 H   0  0  0  0  0  0
  -25.9144  -25.8913   18.9552 H   0  0  0  0  0  0
  -23.9615  -27.3461   18.9461 H   0  0  0  0  0  0
  -23.7940  -30.6005   19.4073 H   0  0  0  0  0  0
  -22.7693  -29.2687   19.8407 H   0  0  0  0  0  0
  -25.1318  -36.1877   25.0804 H   0  0  0  0  0  0
  -20.9982  -28.3332   24.1372 H   0  0  0  0  0  0
  -20.5751  -26.2337   23.3609 H   0  0  0  0  0  0
  -21.6672  -26.7509   22.1167 H   0  0  0  0  0  0
  -19.6973  -25.6311   21.1250 H   0  0  0  0  0  0
  -19.6748  -27.3197   20.6728 H   0  0  0  0  0  0
  -17.4236  -26.6675   21.4001 H   0  0  0  0  0  0
  -18.0372  -26.0111   22.9017 H   0  0  0  0  0  0
  -19.7945  -30.7319   24.2217 H   0  0  0  0  0  0
  -17.5016  -31.6274   24.5188 H   0  0  0  0  0  0
  -15.5358  -30.2984   23.7705 H   0  0  0  0  0  0
  -15.8676  -28.0859   22.7036 H   0  0  0  0  0  0
  -24.5935  -30.7066   25.7745 H   0  0  0  0  0  0
  -24.8996  -32.2852   26.4923 H   0  0  0  0  0  0
  -25.8101  -30.8811   27.0177 H   0  0  0  0  0  0
  -26.3000  -29.6681   24.1295 H   0  0  0  0  0  0
  -27.4063  -29.7254   25.4808 H   0  0  0  0  0  0
  -27.8904  -30.4214   23.9541 H   0  0  0  0  0  0
  -27.2659  -33.3600   26.2114 H   0  0  0  0  0  0
  -28.3902  -32.6904   25.0375 H   0  0  0  0  0  0
  -28.0750  -31.8444   26.5439 H   0  0  0  0  0  0
  -28.2587  -38.0088   24.7479 H   0  0  0  0  0  0
  -28.1064  -36.2608   24.6331 H   0  0  0  0  0  0
  -27.2278  -37.1488   25.8861 H   0  0  0  0  0  0
  -20.9447  -29.8748   21.6779 H   0  0  0  0  0  0
  -26.0160  -38.2821   24.1384 H   0  0  0  0  0  0
  -30.7933  -23.0698   17.3045 H   0  0  0  0  0  0
  -29.5125  -24.8173   18.4402 H   0  0  0  0  0  0
  -30.9013  -20.8177   18.1090 H   0  0  0  0  0  0
  -28.2144  -21.8506   21.3420 H   0  0  0  0  0  0
  -28.9902  -19.0309   22.1357 H   0  0  0  0  0  0
  -27.9959  -18.4458   20.8434 H   0  0  0  0  0  0
  -28.8746  -18.2617   18.5594 H   0  0  0  0  0  0
  -30.4359  -18.8393   18.1158 H   0  0  0  0  0  0
  -28.8804  -16.4664   22.0360 H   0  0  0  0  0  0
  -30.4908  -17.1020   22.0554 H   0  0  0  0  0  0
  -31.6055  -17.2330   19.5080 H   0  0  0  0  0  0
  -30.6113  -16.4742   18.3004 H   0  0  0  0  0  0
  -30.8323  -19.4942   20.5502 H   0  0  0  0  0  0
  1 25  1  0  0  0
  1 30  2  0  0  0
  1 83  1  0  0  0
  2  3  1  0  0  0
  2 25  1  0  0  0
  2 85  1  0  0  0
  2 86  1  0  0  0
  3  4  1  0  0  0
  3 87  1  0  0  0
  3 88  1  0  0  0
  4  5  1  0  0  0
  4 89  1  0  0  0
  4 90  1  0  0  0
  5  6  1  0  0  0
  5 26  1  0  0  0
  5 91  1  0  0  0
  6 25  1  0  0  0
  6 92  1  0  0  0
  6 93  1  0  0  0
  7  8  2  0  0  0
  7 26  1  0  0  0
  7 29  1  0  0  0
  8  9  1  0  0  0
  8 22  1  0  0  0
  9 10  1  0  0  0
  9 27  2  0  0  0
 10 11  2  0  0  0
 10 15  1  0  0  0
 11 12  1  0  0  0
 11 94  1  0  0  0
 12 13  2  0  0  0
 12 95  1  0  0  0
 13 14  1  0  0  0
 13 31  1  0  0  0
 14 15  2  0  0  0
 14 96  1  0  0  0
 15 97  1  0  0  0
 16 17  2  0  0  0
 16 21  1  0  0  0
 16 31  1  0  0  0
 17 18  1  0  0  0
 17 98  1  0  0  0
 18 19  2  0  0  0
 18 99  1  0  0  0
 19 20  1  0  0  0
 19 24  1  0  0  0
 20 21  2  0  0  0
 20100  1  0  0  0
 21 23  1  0  0  0
 22 28  1  0  0  0
 22 32  2  0  0  0
 26 27  1  0  0  0
 28101  1  0  0  0
 28102  1  0  0  0
 29103  1  0  0  0
 29104  1  0  0  0
 33 34  1  0  0  0
 33 66  1  0  0  0
 33 70  2  0  0  0
 34 36  1  0  0  0
 34 59  1  0  0  0
 34105  1  0  0  0
 35 44  2  0  0  0
 35 45  1  0  0  0
 35 68  1  0  0  0
 36 56  1  0  0  0
 36106  1  0  0  0
 37 39  1  0  0  0
 37 47  1  0  0  0
 37 66  1  0  0  0
 37107  1  0  0  0
 38 43  2  0  0  0
 38 46  1  0  0  0
 38 47  1  0  0  0
 39 64  1  0  0  0
 39 67  2  0  0  0
 40 52  1  0  0  0
 40 53  2  0  0  0
 40 58  1  0  0  0
 41108  1  0  0  0
 41109  1  0  0  0
 41110  1  0  0  0
 41 48  1  0  0  0
 42 43  1  0  0  0
 42 66  1  0  0  0
 42111  1  0  0  0
 42112  1  0  0  0
 43 44  1  0  0  0
 44113  1  0  0  0
 45 46  2  0  0  0
 45114  1  0  0  0
 46115  1  0  0  0
 47116  1  0  0  0
 47117  1  0  0  0
 48 56  1  0  0  0
 48 65  1  0  0  0
 48118  1  0  0  0
 49 50  1  0  0  0
 49 53  1  0  0  0
 49 64  1  0  0  0
 49119  1  0  0  0
 50 51  1  0  0  0
 50120  1  0  0  0
 50121  1  0  0  0
 51 52  1  0  0  0
 51122  1  0  0  0
 51123  1  0  0  0
 52124  1  0  0  0
 52125  1  0  0  0
 53 54  1  0  0  0
 54 55  2  0  0  0
 54126  1  0  0  0
 55 57  1  0  0  0
 55127  1  0  0  0
 56 69  2  0  0  0
 57 58  2  0  0  0
 57128  1  0  0  0
 58129  1  0  0  0
 59 60  1  0  0  0
 59 61  1  0  0  0
 59 62  1  0  0  0
 60130  1  0  0  0
 60131  1  0  0  0
 60132  1  0  0  0
 61133  1  0  0  0
 61134  1  0  0  0
 61135  1  0  0  0
 62136  1  0  0  0
 62137  1  0  0  0
 62138  1  0  0  0
 63 65  1  0  0  0
 63139  1  0  0  0
 63140  1  0  0  0
 63141  1  0  0  0
 64142  1  0  0  0
 65143  1  0  0  0
 68 77  1  0  0  0
 71 72  2  0  0  0
 71 73  1  0  0  0
 71144  1  0  0  0
 72 75  1  0  0  0
 72145  1  0  0  0
 73 76  2  0  0  0
 73146  1  0  0  0
 74 75  2  0  0  0
 74 76  1  0  0  0
 74147  1  0  0  0
 75 77  1  0  0  0
 76 82  1  0  0  0
 77 84  2  0  0  0
 78 80  1  0  0  0
 78 82  1  0  0  0
 78148  1  0  0  0
 78149  1  0  0  0
 79 81  1  0  0  0
 79 82  1  0  0  0
 79150  1  0  0  0
 79151  1  0  0  0
 80 83  1  0  0  0
 80152  1  0  0  0
 80153  1  0  0  0
 81 83  1  0  0  0
 81154  1  0  0  0
 81155  1  0  0  0
 82156  1  0  0  0
M  ISO  4   1 100  68 101  77 101  83 100
M  END
> <chiral flag>
0

> <version>
0

> <s_m_source_file>
/data/baiqing/PycharmProjects/Reinvent-master-3.2/result/LINK_invent/BTK/process_docking_weight1_custom_product_contain_oxygen_bond_distance_aromatic_linkinvent_7_9_3/rearranged_h_0003.sdf

> <i_m_source_file_index>
1

> <r_mmod_Potential_Energy-OPLS-2005>
664.312377929688

> <r_mmod_Stretch_Energy-OPLS-2005>
207.284317016602

> <r_mmod_Bend_Energy-OPLS-2005>
258.129058837891

> <r_mmod_Torsional_Energy-OPLS-2005>
329.285430908203

> <r_mmod_Improper_Torsional_Energy-OPLS-2005>
18.8672122955322

> <r_mmod_Van_der_Waal_Energy-OPLS-2005>
142.991149902344

> <r_mmod_Electrostatic_Energy-OPLS-2005>
-245.031356811523

> <r_mmod_Solvation_Energy-OPLS-2005>
-196.429214477539

> <b_mmod_Minimization_Converged-OPLS-2005>
0

> <r_mmod_RMS_Derivative-OPLS-2005>
2.87351226806641

$$$$
1
                    3D
 Structure written by MMmdl.
171180  0  0  1  0            999 V2000
  -30.7054  -14.4064   20.5855 C   0  0  0  0  0  0
  -30.4188  -12.2782   19.3940 C   0  0  0  0  0  0
  -29.4826  -12.5256   18.1907 C   0  0  0  0  0  0
  -28.0029  -12.4040   18.6026 C   0  0  0  0  0  0
  -27.6686  -13.2018   19.8899 C   0  0  2  0  0  0
  -28.7130  -12.9238   20.9965 C   0  0  0  0  0  0
  -25.2621  -13.8159   20.5677 C   0  0  0  0  0  0
  -24.1863  -13.0466   20.9147 C   0  0  0  0  0  0
  -24.6401  -11.6913   20.8747 C   0  0  0  0  0  0
  -23.9067  -10.4310   21.0426 C   0  0  0  0  0  0
  -24.3626   -9.4216   21.9194 C   0  0  0  0  0  0
  -23.6310   -8.2244   22.0757 C   0  0  0  0  0  0
  -22.4279   -8.0293   21.3551 C   0  0  0  0  0  0
  -21.9918   -9.0265   20.4644 C   0  0  0  0  0  0
  -22.7247  -10.2147   20.3065 C   0  0  0  0  0  0
  -21.6841   -6.0741   22.5285 C   0  0  0  0  0  0
  -21.4005   -6.5641   23.8221 C   0  0  0  0  0  0
  -21.3664   -5.6791   24.9179 C   0  0  0  0  0  0
  -21.6049   -4.3055   24.7226 C   0  0  0  0  0  0
  -21.8820   -3.8151   23.4343 C   0  0  0  0  0  0
  -21.9190   -4.6971   22.3406 C   0  0  0  0  0  0
  -22.7886  -13.5272   21.1824 C   0  0  0  0  0  0
  -22.1660   -4.2158   21.0980 F   0  0  0  0  0  0
  -21.5641   -3.4539   25.7734 F   0  0  0  0  0  0
  -30.0519  -13.2236   20.4566 N   0  0  0  0  0  0
  -26.3066  -12.9314   20.3452 N   0  0  0  0  0  0
  -25.9326  -11.6474   20.5794 N   0  0  0  0  0  0
  -22.0516  -12.8279   22.0376 N   0  0  0  0  0  0
  -25.4463  -15.1877   20.4037 N   0  0  0  0  0  0
  -31.8017  -14.6474   20.0690 O   0  0  0  0  0  0
  -21.6641   -6.8887   21.4244 O   0  0  0  0  0  0
  -22.3585  -14.5584   20.6667 O   0  0  0  0  0  0
  -24.6153  -31.8712   23.2137 C   0  0  0  0  0  0
  -25.9071  -32.4834   23.8405 C   0  0  1  0  0  0
  -27.2176  -27.4495   20.0754 C   0  0  0  0  0  0
  -25.5933  -33.8640   24.2329 N   0  0  0  0  0  0
  -23.3994  -30.5002   21.5560 C   0  0  2  0  0  0
  -24.8405  -28.9724   20.1123 C   0  0  0  0  0  0
  -22.7400  -29.4670   22.4976 C   0  0  0  0  0  0
  -18.0274  -28.1383   22.8538 C   0  0  0  0  0  0
  -24.1483  -36.7317   23.2628 C   0  0  0  0  0  0
  -25.9304  -30.8332   21.3711 C   0  0  0  0  0  0
  -26.0019  -29.4713   20.7150 C   0  0  0  0  0  0
  -27.1948  -28.7153   20.7001 C   0  0  0  0  0  0
  -26.0449  -26.9783   19.4416 C   0  0  0  0  0  0
  -24.8548  -27.7225   19.4749 C   0  0  0  0  0  0
  -23.6045  -29.8384   20.1676 C   0  0  0  0  0  0
  -25.4108  -36.3135   24.0322 C   0  0  1  0  0  0
  -20.5885  -28.3653   23.1341 C   0  0  2  0  0  0
  -20.6744  -26.9381   22.5433 C   0  0  0  0  0  0
  -19.5717  -26.6344   21.5255 C   0  0  0  0  0  0
  -18.1897  -26.7918   22.1687 C   0  0  0  0  0  0
  -19.1538  -28.8819   23.2939 C   0  0  0  0  0  0
  -18.9479  -30.1440   23.8934 C   0  0  0  0  0  0
  -17.6487  -30.6608   24.0586 C   0  0  0  0  0  0
  -25.9028  -34.9492   23.5105 C   0  0  0  0  0  0
  -16.5368  -29.9113   23.6368 C   0  0  0  0  0  0
  -16.7275  -28.6530   23.0382 C   0  0  0  0  0  0
  -26.4489  -31.6628   25.0740 C   0  0  0  0  0  0
  -25.3724  -31.3757   26.1461 C   0  0  0  0  0  0
  -27.0309  -30.3064   24.6124 C   0  0  0  0  0  0
  -27.6078  -32.4340   25.7483 C   0  0  0  0  0  0
  -27.5574  -37.1813   24.8461 C   0  0  0  0  0  0
  -21.4125  -29.3053   22.3766 N   0  0  0  0  0  0
  -26.4298  -37.3814   23.9394 N   0  0  0  0  0  0
  -24.6670  -31.0829   22.1046 N   0  0  0  0  0  0
  -23.4210  -28.8119   23.2902 O   0  0  0  0  0  0
  -28.3628  -26.6856   20.1274 O   0  0  0  0  0  0
  -26.5583  -34.8947   22.4664 O   0  0  0  0  0  0
  -23.5356  -32.1477   23.7528 O   0  0  0  0  0  0
  -24.5056  -20.1741   22.7153 C   0  0  0  0  0  0
  -28.5620  -18.7824   20.8501 C   0  0  0  0  0  0
  -28.7974  -17.8148   18.6250 C   0  0  0  0  0  0
  -29.1249  -17.6198   21.4165 C   0  0  0  0  0  0
  -29.3731  -16.6612   19.1884 C   0  0  0  0  0  0
  -25.1705  -21.4274   22.7861 C   0  0  0  0  0  0
  -24.0883  -20.0010   21.4263 C   0  0  0  0  0  0
  -28.3985  -18.8864   19.4493 C   0  0  0  0  0  0
  -29.5397  -16.5529   20.5912 C   0  0  0  0  0  0
  -25.1613  -21.9798   21.5356 C   0  0  0  0  0  0
  -25.7166  -23.2827   21.1080 C   0  0  0  0  0  0
  -27.7574  -20.1191   18.8326 C   0  0  0  0  0  0
  -24.2168  -21.2577   19.2453 C   0  0  0  0  0  0
  -27.4533  -24.9673   21.6647 C   0  0  0  0  0  0
  -25.5117  -21.1382   18.4175 C   0  0  0  0  0  0
  -28.1692  -25.2745   20.3237 C   0  0  0  0  0  0
  -24.4747  -21.1100   20.6823 N   0  0  0  0  0  0
  -30.0081  -15.3634   21.2109 N   0  0  0  0  0  0
  -26.8505  -23.6388   21.7195 N   0  0  0  0  0  0
  -26.2942  -19.9701   18.8701 N   0  3  0  0  0  0
  -25.1865  -23.9556   20.2244 O   0  0  0  0  0  0
  -31.4606  -12.3814   19.0843 H   0  0  0  0  0  0
  -30.3137  -11.2553   19.7577 H   0  0  0  0  0  0
  -29.7035  -11.8169   17.3913 H   0  0  0  0  0  0
  -29.6610  -13.5182   17.7722 H   0  0  0  0  0  0
  -27.7769  -11.3477   18.7450 H   0  0  0  0  0  0
  -27.3614  -12.7371   17.7846 H   0  0  0  0  0  0
  -27.7286  -14.2590   19.6359 H   0  0  0  0  0  0
  -28.6744  -11.8775   21.2978 H   0  0  0  0  0  0
  -28.4822  -13.4883   21.8994 H   0  0  0  0  0  0
  -25.2786   -9.5681   22.4753 H   0  0  0  0  0  0
  -24.0026   -7.4624   22.7463 H   0  0  0  0  0  0
  -21.0850   -8.8787   19.8942 H   0  0  0  0  0  0
  -22.3731  -10.9684   19.6163 H   0  0  0  0  0  0
  -21.1985   -7.6145   23.9735 H   0  0  0  0  0  0
  -21.1492   -6.0510   25.9087 H   0  0  0  0  0  0
  -22.0598   -2.7610   23.2840 H   0  0  0  0  0  0
  -22.4099  -11.9923   22.4758 H   0  0  0  0  0  0
  -21.1139  -13.1326   22.2564 H   0  0  0  0  0  0
  -24.6983  -15.8613   20.5211 H   0  0  0  0  0  0
  -26.3254  -15.6105   20.1362 H   0  0  0  0  0  0
  -26.7142  -32.5560   23.1176 H   0  0  0  0  0  0
  -25.0131  -33.9810   25.0501 H   0  0  0  0  0  0
  -22.6895  -31.3201   21.4248 H   0  0  0  0  0  0
  -23.3750  -35.9643   23.3302 H   0  0  0  0  0  0
  -24.3583  -36.8915   22.2044 H   0  0  0  0  0  0
  -23.7236  -37.6518   23.6627 H   0  0  0  0  0  0
  -26.0498  -31.5899   20.5952 H   0  0  0  0  0  0
  -26.8214  -30.8865   21.9866 H   0  0  0  0  0  0
  -28.0882  -29.0831   21.1878 H   0  0  0  0  0  0
  -26.0219  -26.0371   18.9172 H   0  0  0  0  0  0
  -23.9656  -27.3388   18.9968 H   0  0  0  0  0  0
  -23.7135  -30.6175   19.4117 H   0  0  0  0  0  0
  -22.7276  -29.2594   19.8691 H   0  0  0  0  0  0
  -25.1294  -36.1986   25.0814 H   0  0  0  0  0  0
  -20.9994  -28.3209   24.1452 H   0  0  0  0  0  0
  -20.5617  -26.2258   23.3618 H   0  0  0  0  0  0
  -21.6635  -26.7385   22.1267 H   0  0  0  0  0  0
  -19.6870  -25.6242   21.1315 H   0  0  0  0  0  0
  -19.6632  -27.3125   20.6756 H   0  0  0  0  0  0
  -17.4143  -26.6695   21.4115 H   0  0  0  0  0  0
  -18.0288  -26.0083   22.9099 H   0  0  0  0  0  0
  -19.7955  -30.7273   24.2265 H   0  0  0  0  0  0
  -17.5064  -31.6311   24.5157 H   0  0  0  0  0  0
  -15.5375  -30.3032   23.7657 H   0  0  0  0  0  0
  -15.8682  -28.0860   22.7053 H   0  0  0  0  0  0
  -24.5878  -30.7145   25.7758 H   0  0  0  0  0  0
  -24.8942  -32.2928   26.4900 H   0  0  0  0  0  0
  -25.8028  -30.8892   27.0222 H   0  0  0  0  0  0
  -26.2846  -29.6845   24.1162 H   0  0  0  0  0  0
  -27.4054  -29.7299   25.4593 H   0  0  0  0  0  0
  -27.8701  -30.4377   23.9292 H   0  0  0  0  0  0
  -27.2702  -33.3622   26.2110 H   0  0  0  0  0  0
  -28.3842  -32.6934   25.0269 H   0  0  0  0  0  0
  -28.0802  -31.8437   26.5343 H   0  0  0  0  0  0
  -28.2617  -38.0095   24.7523 H   0  0  0  0  0  0
  -28.1055  -36.2630   24.6279 H   0  0  0  0  0  0
  -27.2293  -37.1460   25.8869 H   0  0  0  0  0  0
  -20.9217  -29.8937   21.7196 H   0  0  0  0  0  0
  -26.0180  -38.2875   24.1437 H   0  0  0  0  0  0
  -24.3447  -19.4779   23.5282 H   0  0  0  0  0  0
  -28.2360  -19.5808   21.5031 H   0  0  0  0  0  0
  -28.6450  -17.8614   17.5550 H   0  0  0  0  0  0
  -29.2260  -17.5457   22.4911 H   0  0  0  0  0  0
  -29.6450  -15.8518   18.5241 H   0  0  0  0  0  0
  -25.6056  -21.8876   23.6632 H   0  0  0  0  0  0
  -23.5454  -19.1763   20.9787 H   0  0  0  0  0  0
  -28.0974  -20.2591   17.8046 H   0  0  0  0  0  0
  -28.0672  -21.0062   19.3875 H   0  0  0  0  0  0
  -23.5104  -20.4860   18.9361 H   0  0  0  0  0  0
  -23.7112  -22.2049   19.0502 H   0  0  0  0  0  0
  -26.6518  -25.6777   21.8658 H   0  0  0  0  0  0
  -28.1526  -25.0661   22.4943 H   0  0  0  0  0  0
  -26.0960  -22.0519   18.5225 H   0  0  0  0  0  0
  -25.2866  -21.0450   17.3544 H   0  0  0  0  0  0
  -27.6518  -24.8265   19.4760 H   0  0  0  0  0  0
  -29.1458  -24.7914   20.3297 H   0  0  0  0  0  0
  -29.3988  -15.0144   21.9347 H   0  0  0  0  0  0
  -27.2305  -22.9812   22.3862 H   0  0  0  0  0  0
  -26.0355  -19.8130   19.8322 H   0  0  0  0  0  0
  -26.0296  -19.1546   18.3429 H   0  0  0  0  0  0
  1 25  1  0  0  0
  1 30  2  0  0  0
  1 88  1  0  0  0
  2  3  1  0  0  0
  2 25  1  0  0  0
  2 92  1  0  0  0
  2 93  1  0  0  0
  3  4  1  0  0  0
  3 94  1  0  0  0
  3 95  1  0  0  0
  4  5  1  0  0  0
  4 96  1  0  0  0
  4 97  1  0  0  0
  5  6  1  0  0  0
  5 26  1  0  0  0
  5 98  1  0  0  0
  6 25  1  0  0  0
  6 99  1  0  0  0
  6100  1  0  0  0
  7  8  2  0  0  0
  7 26  1  0  0  0
  7 29  1  0  0  0
  8  9  1  0  0  0
  8 22  1  0  0  0
  9 10  1  0  0  0
  9 27  2  0  0  0
 10 11  2  0  0  0
 10 15  1  0  0  0
 11 12  1  0  0  0
 11101  1  0  0  0
 12 13  2  0  0  0
 12102  1  0  0  0
 13 14  1  0  0  0
 13 31  1  0  0  0
 14 15  2  0  0  0
 14103  1  0  0  0
 15104  1  0  0  0
 16 17  2  0  0  0
 16 21  1  0  0  0
 16 31  1  0  0  0
 17 18  1  0  0  0
 17105  1  0  0  0
 18 19  2  0  0  0
 18106  1  0  0  0
 19 20  1  0  0  0
 19 24  1  0  0  0
 20 21  2  0  0  0
 20107  1  0  0  0
 21 23  1  0  0  0
 22 28  1  0  0  0
 22 32  2  0  0  0
 26 27  1  0  0  0
 28108  1  0  0  0
 28109  1  0  0  0
 29110  1  0  0  0
 29111  1  0  0  0
 33 34  1  0  0  0
 33 66  1  0  0  0
 33 70  2  0  0  0
 34 36  1  0  0  0
 34 59  1  0  0  0
 34112  1  0  0  0
 35 44  2  0  0  0
 35 45  1  0  0  0
 35 68  1  0  0  0
 36 56  1  0  0  0
 36113  1  0  0  0
 37 39  1  0  0  0
 37 47  1  0  0  0
 37 66  1  0  0  0
 37114  1  0  0  0
 38 43  2  0  0  0
 38 46  1  0  0  0
 38 47  1  0  0  0
 39 64  1  0  0  0
 39 67  2  0  0  0
 40 52  1  0  0  0
 40 53  2  0  0  0
 40 58  1  0  0  0
 41115  1  0  0  0
 41116  1  0  0  0
 41117  1  0  0  0
 41 48  1  0  0  0
 42 43  1  0  0  0
 42 66  1  0  0  0
 42118  1  0  0  0
 42119  1  0  0  0
 43 44  1  0  0  0
 44120  1  0  0  0
 45 46  2  0  0  0
 45121  1  0  0  0
 46122  1  0  0  0
 47123  1  0  0  0
 47124  1  0  0  0
 48 56  1  0  0  0
 48 65  1  0  0  0
 48125  1  0  0  0
 49 50  1  0  0  0
 49 53  1  0  0  0
 49 64  1  0  0  0
 49126  1  0  0  0
 50 51  1  0  0  0
 50127  1  0  0  0
 50128  1  0  0  0
 51 52  1  0  0  0
 51129  1  0  0  0
 51130  1  0  0  0
 52131  1  0  0  0
 52132  1  0  0  0
 53 54  1  0  0  0
 54 55  2  0  0  0
 54133  1  0  0  0
 55 57  1  0  0  0
 55134  1  0  0  0
 56 69  2  0  0  0
 57 58  2  0  0  0
 57135  1  0  0  0
 58136  1  0  0  0
 59 60  1  0  0  0
 59 61  1  0  0  0
 59 62  1  0  0  0
 60137  1  0  0  0
 60138  1  0  0  0
 60139  1  0  0  0
 61140  1  0  0  0
 61141  1  0  0  0
 61142  1  0  0  0
 62143  1  0  0  0
 62144  1  0  0  0
 62145  1  0  0  0
 63 65  1  0  0  0
 63146  1  0  0  0
 63147  1  0  0  0
 63148  1  0  0  0
 64149  1  0  0  0
 65150  1  0  0  0
 68 86  1  0  0  0
 71 76  1  0  0  0
 71 77  2  0  0  0
 71151  1  0  0  0
 72 74  2  0  0  0
 72 78  1  0  0  0
 72152  1  0  0  0
 73 75  1  0  0  0
 73 78  2  0  0  0
 73153  1  0  0  0
 74 79  1  0  0  0
 74154  1  0  0  0
 75 79  2  0  0  0
 75155  1  0  0  0
 76 80  2  0  0  0
 76156  1  0  0  0
 77 87  1  0  0  0
 77157  1  0  0  0
 78 82  1  0  0  0
 79 88  1  0  0  0
 80 81  1  0  0  0
 80 87  1  0  0  0
 81 89  1  0  0  0
 81 91  2  0  0  0
 82 90  1  0  0  0
 82158  1  0  0  0
 82159  1  0  0  0
 83 85  1  0  0  0
 83 87  1  0  0  0
 83160  1  0  0  0
 83161  1  0  0  0
 84 86  1  0  0  0
 84 89  1  0  0  0
 84162  1  0  0  0
 84163  1  0  0  0
 85 90  1  0  0  0
 85164  1  0  0  0
 85165  1  0  0  0
 86166  1  0  0  0
 86167  1  0  0  0
 88168  1  0  0  0
 89169  1  0  0  0
 90170  1  0  0  0
 90171  1  0  0  0
M  CHG  1  90   1
M  ISO  4   1 100  68 101  86 101  88 100
M  END
> <chiral flag>
0

> <version>
0

> <s_m_source_file>
/data/baiqing/PycharmProjects/Reinvent-master-3.2/result/LINK_invent/BTK/process_docking_weight1_custom_product_contain_oxygen_bond_distance_aromatic_linkinvent_7_9_3/rearranged_h_0003.sdf

> <i_m_source_file_index>
2

> <r_mmod_Potential_Energy-OPLS-2005>
-329.592620849609

> <r_mmod_Stretch_Energy-OPLS-2005>
34.8400230407715

> <r_mmod_Bend_Energy-OPLS-2005>
94.5100631713867

> <r_mmod_Torsional_Energy-OPLS-2005>
273.056243896484

> <r_mmod_Improper_Torsional_Energy-OPLS-2005>
6.60602474212646

> <r_mmod_Van_der_Waal_Energy-OPLS-2005>
145.209701538086

> <r_mmod_Electrostatic_Energy-OPLS-2005>
-401.569885253906

> <r_mmod_Solvation_Energy-OPLS-2005>
-493.563873291016

> <b_mmod_Minimization_Converged-OPLS-2005>
0

> <r_mmod_RMS_Derivative-OPLS-2005>
3.6764874458313

$$$$
2
                    3D
 Structure written by MMmdl.
157166  0  0  1  0            999 V2000
  -30.6430  -14.7439   20.4523 C   0  0  0  0  0  0
  -30.4207  -12.4557   19.4760 C   0  0  0  0  0  0
  -29.5065  -12.5058   18.2346 C   0  0  0  0  0  0
  -28.0340  -12.3322   18.6514 C   0  0  0  0  0  0
  -27.6371  -13.2410   19.8467 C   0  0  2  0  0  0
  -28.6815  -13.2056   20.9817 C   0  0  0  0  0  0
  -25.2496  -13.8223   20.5721 C   0  0  0  0  0  0
  -24.1790  -13.0454   20.9210 C   0  0  0  0  0  0
  -24.6393  -11.6936   20.8748 C   0  0  0  0  0  0
  -23.9073  -10.4300   21.0404 C   0  0  0  0  0  0
  -24.3624   -9.4212   21.9180 C   0  0  0  0  0  0
  -23.6294   -8.2251   22.0754 C   0  0  0  0  0  0
  -22.4274   -8.0291   21.3548 C   0  0  0  0  0  0
  -21.9908   -9.0263   20.4647 C   0  0  0  0  0  0
  -22.7245  -10.2139   20.3051 C   0  0  0  0  0  0
  -21.6859   -6.0733   22.5275 C   0  0  0  0  0  0
  -21.4026   -6.5638   23.8211 C   0  0  0  0  0  0
  -21.3662   -5.6791   24.9173 C   0  0  0  0  0  0
  -21.6045   -4.3054   24.7221 C   0  0  0  0  0  0
  -21.8820   -3.8144   23.4342 C   0  0  0  0  0  0
  -21.9195   -4.6960   22.3396 C   0  0  0  0  0  0
  -22.7807  -13.5221   21.1872 C   0  0  0  0  0  0
  -22.1660   -4.2146   21.0970 F   0  0  0  0  0  0
  -21.5623   -3.4536   25.7735 F   0  0  0  0  0  0
  -29.9772  -13.5397   20.3846 N   0  0  0  0  0  0
  -26.2923  -12.9445   20.3285 N   0  0  0  0  0  0
  -25.9330  -11.6579   20.5757 N   0  0  0  0  0  0
  -22.0457  -12.8207   22.0432 N   0  0  0  0  0  0
  -25.4197  -15.1952   20.4192 N   0  0  0  0  0  0
  -31.8467  -14.7742   20.1765 O   0  0  0  0  0  0
  -21.6644   -6.8882   21.4239 O   0  0  0  0  0  0
  -22.3473  -14.5516   20.6714 O   0  0  0  0  0  0
  -24.6316  -31.8550   23.1980 C   0  0  0  0  0  0
  -25.9139  -32.4754   23.8332 C   0  0  1  0  0  0
  -27.2192  -27.2541   20.1195 C   0  0  0  0  0  0
  -25.5934  -33.8556   24.2257 N   0  0  0  0  0  0
  -23.4282  -30.4789   21.5412 C   0  0  2  0  0  0
  -24.8738  -28.9260   20.1071 C   0  0  0  0  0  0
  -22.7506  -29.4601   22.4897 C   0  0  0  0  0  0
  -18.0299  -28.1380   22.8472 C   0  0  0  0  0  0
  -24.1486  -36.7280   23.2638 C   0  0  0  0  0  0
  -25.9752  -30.7658   21.3781 C   0  0  0  0  0  0
  -26.0460  -29.3881   20.7174 C   0  0  0  0  0  0
  -27.2171  -28.5629   20.7160 C   0  0  0  0  0  0
  -26.0129  -26.8547   19.4983 C   0  0  0  0  0  0
  -24.8626  -27.6673   19.4897 C   0  0  0  0  0  0
  -23.6466  -29.8161   20.1556 C   0  0  0  0  0  0
  -25.4111  -36.3072   24.0328 C   0  0  1  0  0  0
  -20.5899  -28.3693   23.1259 C   0  0  2  0  0  0
  -20.6781  -26.9406   22.5405 C   0  0  0  0  0  0
  -19.5764  -26.6373   21.5201 C   0  0  0  0  0  0
  -18.1944  -26.7922   22.1612 C   0  0  0  0  0  0
  -19.1551  -28.8853   23.2863 C   0  0  0  0  0  0
  -18.9473  -30.1447   23.8895 C   0  0  0  0  0  0
  -17.6471  -30.6574   24.0563 C   0  0  0  0  0  0
  -25.9054  -34.9442   23.5095 C   0  0  0  0  0  0
  -16.5363  -29.9073   23.6327 C   0  0  0  0  0  0
  -16.7284  -28.6491   23.0347 C   0  0  0  0  0  0
  -26.4493  -31.6580   25.0724 C   0  0  0  0  0  0
  -25.3717  -31.3745   26.1450 C   0  0  0  0  0  0
  -27.0328  -30.2996   24.6210 C   0  0  0  0  0  0
  -27.6050  -32.4317   25.7498 C   0  0  0  0  0  0
  -27.5582  -37.1792   24.8456 C   0  0  0  0  0  0
  -21.4211  -29.3037   22.3639 N   0  0  0  0  0  0
  -26.4283  -37.3775   23.9415 N   0  0  0  0  0  0
  -24.6976  -31.0512   22.0954 N   0  0  0  0  0  0
  -23.4204  -28.8141   23.2997 O   0  0  0  0  0  0
  -28.3201  -26.3650   20.2148 O   0  0  0  0  0  0
  -26.5628  -34.8918   22.4667 O   0  0  0  0  0  0
  -23.5465  -32.1373   23.7272 O   0  0  0  0  0  0
  -30.0933  -21.7645   20.8113 C   0  0  0  0  0  0
  -28.0309  -21.1701   19.7721 C   0  0  0  0  0  0
  -29.8040  -23.1612   20.6180 C   0  0  0  0  0  0
  -27.7398  -22.5672   19.5827 C   0  0  0  0  0  0
  -29.2434  -20.7066   20.3609 C   0  0  0  0  0  0
  -28.6261  -23.6225   19.9627 C   0  0  0  0  0  0
  -29.3697  -18.2869   21.6560 C   0  0  0  0  0  0
  -29.3055  -18.2271   19.2473 C   0  0  0  0  0  0
  -30.0489  -16.8418   21.6832 C   0  0  0  0  0  0
  -30.0224  -16.8128   19.2587 C   0  0  0  0  0  0
  -29.7113  -19.1667   20.4156 C   0  0  0  0  0  0
  -28.4384  -25.1127   19.3966 C   0  0  0  0  0  0
  -29.9259  -15.9507   20.4840 N   0  0  0  0  0  0
  -31.4653  -12.5579   19.1769 H   0  0  0  0  0  0
  -30.3474  -11.4877   19.9736 H   0  0  0  0  0  0
  -29.7892  -11.7299   17.5221 H   0  0  0  0  0  0
  -29.6354  -13.4583   17.7179 H   0  0  0  0  0  0
  -27.8947  -11.2853   18.9224 H   0  0  0  0  0  0
  -27.3757  -12.5177   17.8019 H   0  0  0  0  0  0
  -27.6227  -14.2585   19.4550 H   0  0  0  0  0  0
  -28.7159  -12.2244   21.4567 H   0  0  0  0  0  0
  -28.4215  -13.9228   21.7626 H   0  0  0  0  0  0
  -25.2776   -9.5680   22.4746 H   0  0  0  0  0  0
  -24.0011   -7.4633   22.7463 H   0  0  0  0  0  0
  -21.0844   -8.8780   19.8939 H   0  0  0  0  0  0
  -22.3714  -10.9675   19.6147 H   0  0  0  0  0  0
  -21.2030   -7.6150   23.9714 H   0  0  0  0  0  0
  -21.1480   -6.0522   25.9078 H   0  0  0  0  0  0
  -22.0597   -2.7603   23.2847 H   0  0  0  0  0  0
  -22.4091  -11.9888   22.4848 H   0  0  0  0  0  0
  -21.1064  -13.1207   22.2623 H   0  0  0  0  0  0
  -24.6594  -15.8548   20.5447 H   0  0  0  0  0  0
  -26.2856  -15.6375   20.1373 H   0  0  0  0  0  0
  -26.7204  -32.5399   23.1069 H   0  0  0  0  0  0
  -25.0074  -33.9697   25.0398 H   0  0  0  0  0  0
  -22.7246  -31.3014   21.3973 H   0  0  0  0  0  0
  -23.3758  -35.9601   23.3277 H   0  0  0  0  0  0
  -24.3582  -36.8926   22.2057 H   0  0  0  0  0  0
  -23.7223  -37.6467   23.6679 H   0  0  0  0  0  0
  -26.1164  -31.5276   20.6102 H   0  0  0  0  0  0
  -26.8523  -30.8142   22.0118 H   0  0  0  0  0  0
  -28.1130  -28.9102   21.2115 H   0  0  0  0  0  0
  -25.8986  -25.8797   19.0538 H   0  0  0  0  0  0
  -23.9589  -27.3015   19.0218 H   0  0  0  0  0  0
  -23.7769  -30.5958   19.4040 H   0  0  0  0  0  0
  -22.7626  -29.2560   19.8444 H   0  0  0  0  0  0
  -25.1289  -36.1916   25.0821 H   0  0  0  0  0  0
  -21.0002  -28.3278   24.1376 H   0  0  0  0  0  0
  -20.5659  -26.2303   23.3608 H   0  0  0  0  0  0
  -21.6657  -26.7415   22.1219 H   0  0  0  0  0  0
  -19.6923  -25.6282   21.1233 H   0  0  0  0  0  0
  -19.6697  -27.3174   20.6724 H   0  0  0  0  0  0
  -17.4209  -26.6658   21.4021 H   0  0  0  0  0  0
  -18.0349  -26.0066   22.9012 H   0  0  0  0  0  0
  -19.7951  -30.7260   24.2265 H   0  0  0  0  0  0
  -17.5026  -31.6252   24.5167 H   0  0  0  0  0  0
  -15.5365  -30.2969   23.7653 H   0  0  0  0  0  0
  -15.8686  -28.0803   22.7071 H   0  0  0  0  0  0
  -24.5886  -30.7094   25.7790 H   0  0  0  0  0  0
  -24.8913  -32.2918   26.4862 H   0  0  0  0  0  0
  -25.8032  -30.8934   27.0235 H   0  0  0  0  0  0
  -26.2899  -29.6747   24.1235 H   0  0  0  0  0  0
  -27.4005  -29.7256   25.4724 H   0  0  0  0  0  0
  -27.8782  -30.4262   23.9445 H   0  0  0  0  0  0
  -27.2667  -33.3625   26.2058 H   0  0  0  0  0  0
  -28.3870  -32.6860   25.0332 H   0  0  0  0  0  0
  -28.0700  -31.8449   26.5428 H   0  0  0  0  0  0
  -28.2580  -38.0111   24.7546 H   0  0  0  0  0  0
  -28.1104  -36.2649   24.6225 H   0  0  0  0  0  0
  -27.2315  -37.1374   25.8862 H   0  0  0  0  0  0
  -20.9389  -29.8757   21.6848 H   0  0  0  0  0  0
  -26.0158  -38.2843   24.1446 H   0  0  0  0  0  0
  -31.0388  -21.5051   21.2675 H   0  0  0  0  0  0
  -27.3230  -20.4433   19.3979 H   0  0  0  0  0  0
  -30.5487  -23.8870   20.9154 H   0  0  0  0  0  0
  -26.8320  -22.8269   19.0554 H   0  0  0  0  0  0
  -29.6691  -18.8226   22.5573 H   0  0  0  0  0  0
  -28.2873  -18.1764   21.7306 H   0  0  0  0  0  0
  -28.2243  -18.0858   19.2454 H   0  0  0  0  0  0
  -29.5406  -18.7235   18.3051 H   0  0  0  0  0  0
  -29.6664  -16.2948   22.5466 H   0  0  0  0  0  0
  -31.1148  -16.9789   21.8765 H   0  0  0  0  0  0
  -31.0794  -16.9869   19.0474 H   0  0  0  0  0  0
  -29.6533  -16.2334   18.4099 H   0  0  0  0  0  0
  -30.8001  -19.2315   20.3824 H   0  0  0  0  0  0
  -27.7117  -25.0745   18.5896 H   0  0  0  0  0  0
  -29.3651  -25.2800   18.8466 H   0  0  0  0  0  0
  1 25  1  0  0  0
  1 30  2  0  0  0
  1 83  1  0  0  0
  2  3  1  0  0  0
  2 25  1  0  0  0
  2 84  1  0  0  0
  2 85  1  0  0  0
  3  4  1  0  0  0
  3 86  1  0  0  0
  3 87  1  0  0  0
  4  5  1  0  0  0
  4 88  1  0  0  0
  4 89  1  0  0  0
  5  6  1  0  0  0
  5 26  1  0  0  0
  5 90  1  0  0  0
  6 25  1  0  0  0
  6 91  1  0  0  0
  6 92  1  0  0  0
  7  8  2  0  0  0
  7 26  1  0  0  0
  7 29  1  0  0  0
  8  9  1  0  0  0
  8 22  1  0  0  0
  9 10  1  0  0  0
  9 27  2  0  0  0
 10 11  2  0  0  0
 10 15  1  0  0  0
 11 12  1  0  0  0
 11 93  1  0  0  0
 12 13  2  0  0  0
 12 94  1  0  0  0
 13 14  1  0  0  0
 13 31  1  0  0  0
 14 15  2  0  0  0
 14 95  1  0  0  0
 15 96  1  0  0  0
 16 17  2  0  0  0
 16 21  1  0  0  0
 16 31  1  0  0  0
 17 18  1  0  0  0
 17 97  1  0  0  0
 18 19  2  0  0  0
 18 98  1  0  0  0
 19 20  1  0  0  0
 19 24  1  0  0  0
 20 21  2  0  0  0
 20 99  1  0  0  0
 21 23  1  0  0  0
 22 28  1  0  0  0
 22 32  2  0  0  0
 26 27  1  0  0  0
 28100  1  0  0  0
 28101  1  0  0  0
 29102  1  0  0  0
 29103  1  0  0  0
 33 34  1  0  0  0
 33 66  1  0  0  0
 33 70  2  0  0  0
 34 36  1  0  0  0
 34 59  1  0  0  0
 34104  1  0  0  0
 35 44  2  0  0  0
 35 45  1  0  0  0
 35 68  1  0  0  0
 36 56  1  0  0  0
 36105  1  0  0  0
 37 39  1  0  0  0
 37 47  1  0  0  0
 37 66  1  0  0  0
 37106  1  0  0  0
 38 43  2  0  0  0
 38 46  1  0  0  0
 38 47  1  0  0  0
 39 64  1  0  0  0
 39 67  2  0  0  0
 40 52  1  0  0  0
 40 53  2  0  0  0
 40 58  1  0  0  0
 41107  1  0  0  0
 41108  1  0  0  0
 41109  1  0  0  0
 41 48  1  0  0  0
 42 43  1  0  0  0
 42 66  1  0  0  0
 42110  1  0  0  0
 42111  1  0  0  0
 43 44  1  0  0  0
 44112  1  0  0  0
 45 46  2  0  0  0
 45113  1  0  0  0
 46114  1  0  0  0
 47115  1  0  0  0
 47116  1  0  0  0
 48 56  1  0  0  0
 48 65  1  0  0  0
 48117  1  0  0  0
 49 50  1  0  0  0
 49 53  1  0  0  0
 49 64  1  0  0  0
 49118  1  0  0  0
 50 51  1  0  0  0
 50119  1  0  0  0
 50120  1  0  0  0
 51 52  1  0  0  0
 51121  1  0  0  0
 51122  1  0  0  0
 52123  1  0  0  0
 52124  1  0  0  0
 53 54  1  0  0  0
 54 55  2  0  0  0
 54125  1  0  0  0
 55 57  1  0  0  0
 55126  1  0  0  0
 56 69  2  0  0  0
 57 58  2  0  0  0
 57127  1  0  0  0
 58128  1  0  0  0
 59 60  1  0  0  0
 59 61  1  0  0  0
 59 62  1  0  0  0
 60129  1  0  0  0
 60130  1  0  0  0
 60131  1  0  0  0
 61132  1  0  0  0
 61133  1  0  0  0
 61134  1  0  0  0
 62135  1  0  0  0
 62136  1  0  0  0
 62137  1  0  0  0
 63 65  1  0  0  0
 63138  1  0  0  0
 63139  1  0  0  0
 63140  1  0  0  0
 64141  1  0  0  0
 65142  1  0  0  0
 68 82  1  0  0  0
 71 73  2  0  0  0
 71 75  1  0  0  0
 71143  1  0  0  0
 72 74  1  0  0  0
 72 75  2  0  0  0
 72144  1  0  0  0
 73 76  1  0  0  0
 73145  1  0  0  0
 74 76  2  0  0  0
 74146  1  0  0  0
 75 81  1  0  0  0
 76 82  1  0  0  0
 77 79  1  0  0  0
 77 81  1  0  0  0
 77147  1  0  0  0
 77148  1  0  0  0
 78 80  1  0  0  0
 78 81  1  0  0  0
 78149  1  0  0  0
 78150  1  0  0  0
 79 83  1  0  0  0
 79151  1  0  0  0
 79152  1  0  0  0
 80 83  1  0  0  0
 80153  1  0  0  0
 80154  1  0  0  0
 81155  1  0  0  0
 82156  1  0  0  0
 82157  1  0  0  0
M  ISO  4   1 100  68 101  82 101  83 100
M  END
> <chiral flag>
0

> <version>
0

> <s_m_source_file>
/data/baiqing/PycharmProjects/Reinvent-master-3.2/result/LINK_invent/BTK/process_docking_weight1_custom_product_contain_oxygen_bond_distance_aromatic_linkinvent_7_9_3/rearranged_h_0003.sdf

> <i_m_source_file_index>
3

> <r_mmod_Potential_Energy-OPLS-2005>
449.520599365234

> <r_mmod_Stretch_Energy-OPLS-2005>
120.040107727051

> <r_mmod_Bend_Energy-OPLS-2005>
201.958053588867

> <r_mmod_Torsional_Energy-OPLS-2005>
341.868438720703

> <r_mmod_Improper_Torsional_Energy-OPLS-2005>
15.9666175842285

> <r_mmod_Van_der_Waal_Energy-OPLS-2005>
139.468215942383

> <r_mmod_Electrostatic_Energy-OPLS-2005>
-270.755279541016

> <r_mmod_Solvation_Energy-OPLS-2005>
-189.391342163086

> <b_mmod_Minimization_Converged-OPLS-2005>
0

> <r_mmod_RMS_Derivative-OPLS-2005>
1.37633216381073

$$$$
3
                    3D
 Structure written by MMmdl.
151159  0  0  1  0            999 V2000
  -30.6101  -14.6485   20.4966 C   0  0  0  0  0  0
  -30.4378  -12.3974   19.4524 C   0  0  0  0  0  0
  -29.5110  -12.5272   18.2226 C   0  0  0  0  0  0
  -28.0321  -12.3602   18.6315 C   0  0  0  0  0  0
  -27.6546  -13.2185   19.8681 C   0  0  2  0  0  0
  -28.6985  -13.0643   20.9978 C   0  0  0  0  0  0
  -25.2574  -13.8164   20.5698 C   0  0  0  0  0  0
  -24.1825  -13.0439   20.9182 C   0  0  0  0  0  0
  -24.6392  -11.6907   20.8731 C   0  0  0  0  0  0
  -23.9055  -10.4299   21.0405 C   0  0  0  0  0  0
  -24.3613   -9.4213   21.9179 C   0  0  0  0  0  0
  -23.6285   -8.2248   22.0756 C   0  0  0  0  0  0
  -22.4263   -8.0278   21.3553 C   0  0  0  0  0  0
  -21.9898   -9.0254   20.4661 C   0  0  0  0  0  0
  -22.7227  -10.2132   20.3059 C   0  0  0  0  0  0
  -21.6852   -6.0730   22.5286 C   0  0  0  0  0  0
  -21.4013   -6.5637   23.8214 C   0  0  0  0  0  0
  -21.3669   -5.6791   24.9178 C   0  0  0  0  0  0
  -21.6041   -4.3052   24.7227 C   0  0  0  0  0  0
  -21.8819   -3.8145   23.4347 C   0  0  0  0  0  0
  -21.9195   -4.6965   22.3402 C   0  0  0  0  0  0
  -22.7856  -13.5241   21.1833 C   0  0  0  0  0  0
  -22.1668   -4.2155   21.0979 F   0  0  0  0  0  0
  -21.5631   -3.4530   25.7742 F   0  0  0  0  0  0
  -30.0127  -13.4148   20.4353 N   0  0  0  0  0  0
  -26.2993  -12.9343   20.3314 N   0  0  0  0  0  0
  -25.9317  -11.6501   20.5729 N   0  0  0  0  0  0
  -22.0496  -12.8253   22.0398 N   0  0  0  0  0  0
  -25.4292  -15.1887   20.4150 N   0  0  0  0  0  0
  -31.7715  -14.8101   20.1113 O   0  0  0  0  0  0
  -21.6640   -6.8866   21.4239 O   0  0  0  0  0  0
  -22.3555  -14.5555   20.6686 O   0  0  0  0  0  0
  -24.6258  -31.8613   23.2019 C   0  0  0  0  0  0
  -25.9109  -32.4789   23.8353 C   0  0  1  0  0  0
  -27.2264  -27.3173   20.1160 C   0  0  0  0  0  0
  -25.5924  -33.8593   24.2286 N   0  0  0  0  0  0
  -23.4196  -30.4823   21.5460 C   0  0  2  0  0  0
  -24.8647  -28.9345   20.1143 C   0  0  0  0  0  0
  -22.7482  -29.4627   22.4959 C   0  0  0  0  0  0
  -18.0288  -28.1362   22.8483 C   0  0  0  0  0  0
  -24.1486  -36.7295   23.2636 C   0  0  0  0  0  0
  -25.9599  -30.7897   21.3724 C   0  0  0  0  0  0
  -26.0343  -29.4161   20.7152 C   0  0  0  0  0  0
  -27.2170  -28.6187   20.7071 C   0  0  0  0  0  0
  -26.0325  -26.8901   19.4890 C   0  0  0  0  0  0
  -24.8650  -27.6766   19.4940 C   0  0  0  0  0  0
  -23.6320  -29.8137   20.1628 C   0  0  0  0  0  0
  -25.4109  -36.3090   24.0331 C   0  0  1  0  0  0
  -20.5891  -28.3672   23.1282 C   0  0  2  0  0  0
  -20.6787  -26.9400   22.5409 C   0  0  0  0  0  0
  -19.5754  -26.6370   21.5213 C   0  0  0  0  0  0
  -18.1929  -26.7904   22.1624 C   0  0  0  0  0  0
  -19.1546  -28.8838   23.2867 C   0  0  0  0  0  0
  -18.9471  -30.1440   23.8879 C   0  0  0  0  0  0
  -17.6474  -30.6573   24.0549 C   0  0  0  0  0  0
  -25.9044  -34.9461   23.5103 C   0  0  0  0  0  0
  -16.5359  -29.9068   23.6324 C   0  0  0  0  0  0
  -16.7279  -28.6481   23.0354 C   0  0  0  0  0  0
  -26.4484  -31.6604   25.0731 C   0  0  0  0  0  0
  -25.3713  -31.3765   26.1464 C   0  0  0  0  0  0
  -27.0334  -30.3033   24.6183 C   0  0  0  0  0  0
  -27.6037  -32.4345   25.7507 C   0  0  0  0  0  0
  -27.5578  -37.1795   24.8455 C   0  0  0  0  0  0
  -21.4202  -29.3027   22.3689 N   0  0  0  0  0  0
  -26.4278  -37.3792   23.9414 N   0  0  0  0  0  0
  -24.6877  -31.0612   22.0971 N   0  0  0  0  0  0
  -23.4200  -28.8172   23.3046 O   0  0  0  0  0  0
  -28.3485  -26.4726   20.1646 O   0  0  0  0  0  0
  -26.5620  -34.8932   22.4675 O   0  0  0  0  0  0
  -23.5420  -32.1416   23.7336 O   0  0  0  0  0  0
  -30.9280  -19.2579   19.9032 C   0  0  0  0  0  0
  -28.8812  -19.4115   21.1484 C   0  0  0  0  0  0
  -30.9095  -17.8340   19.9975 C   0  0  0  0  0  0
  -28.8594  -17.9822   21.2429 C   0  0  0  0  0  0
  -29.9333  -20.0960   20.4851 C   0  0  0  0  0  0
  -29.8796  -17.1491   20.6961 C   0  0  0  0  0  0
  -30.1386  -21.6289   20.5168 C   0  0  0  0  0  0
  -29.3441  -24.0434   20.4143 C   0  0  0  0  0  0
  -28.1474  -25.0099   20.0155 C   0  0  0  0  0  0
  -29.7935  -15.6915   20.8602 N   0  0  0  0  0  0
  -29.1310  -22.5420   20.3681 N   0  0  0  0  0  0
  -31.2958  -22.0305   20.6566 O   0  0  0  0  0  0
  -31.4830  -12.5178   19.1611 H   0  0  0  0  0  0
  -30.3580  -11.3977   19.8806 H   0  0  0  0  0  0
  -29.7773  -11.7899   17.4623 H   0  0  0  0  0  0
  -29.6531  -13.5057   17.7610 H   0  0  0  0  0  0
  -27.8632  -11.3038   18.8441 H   0  0  0  0  0  0
  -27.3807  -12.6109   17.7942 H   0  0  0  0  0  0
  -27.6748  -14.2565   19.5349 H   0  0  0  0  0  0
  -28.7092  -12.0402   21.3737 H   0  0  0  0  0  0
  -28.4452  -13.6877   21.8567 H   0  0  0  0  0  0
  -25.2758   -9.5691   22.4751 H   0  0  0  0  0  0
  -24.0019   -7.4628   22.7455 H   0  0  0  0  0  0
  -21.0836   -8.8775   19.8950 H   0  0  0  0  0  0
  -22.3694  -10.9676   19.6177 H   0  0  0  0  0  0
  -21.2008   -7.6149   23.9717 H   0  0  0  0  0  0
  -21.1490   -6.0521   25.9080 H   0  0  0  0  0  0
  -22.0588   -2.7604   23.2838 H   0  0  0  0  0  0
  -22.4101  -11.9940   22.4840 H   0  0  0  0  0  0
  -21.1114  -13.1296   22.2570 H   0  0  0  0  0  0
  -24.6578  -15.8386   20.5162 H   0  0  0  0  0  0
  -26.2742  -15.6296   20.0745 H   0  0  0  0  0  0
  -26.7176  -32.5449   23.1099 H   0  0  0  0  0  0
  -25.0076  -33.9752   25.0432 H   0  0  0  0  0  0
  -22.7105  -31.3008   21.4028 H   0  0  0  0  0  0
  -23.3761  -35.9614   23.3289 H   0  0  0  0  0  0
  -24.3567  -36.8932   22.2052 H   0  0  0  0  0  0
  -23.7239  -37.6490   23.6668 H   0  0  0  0  0  0
  -26.0907  -31.5516   20.6029 H   0  0  0  0  0  0
  -26.8405  -30.8389   22.0015 H   0  0  0  0  0  0
  -28.1138  -28.9825   21.1895 H   0  0  0  0  0  0
  -25.9716  -25.9324   18.9970 H   0  0  0  0  0  0
  -23.9674  -27.3005   19.0244 H   0  0  0  0  0  0
  -23.7467  -30.5869   19.4032 H   0  0  0  0  0  0
  -22.7519  -29.2398   19.8657 H   0  0  0  0  0  0
  -25.1286  -36.1938   25.0823 H   0  0  0  0  0  0
  -20.9965  -28.3251   24.1411 H   0  0  0  0  0  0
  -20.5695  -26.2286   23.3612 H   0  0  0  0  0  0
  -21.6657  -26.7432   22.1205 H   0  0  0  0  0  0
  -19.6920  -25.6281   21.1243 H   0  0  0  0  0  0
  -19.6682  -27.3185   20.6744 H   0  0  0  0  0  0
  -17.4209  -26.6656   21.4020 H   0  0  0  0  0  0
  -18.0312  -26.0040   22.9010 H   0  0  0  0  0  0
  -19.7953  -30.7259   24.2236 H   0  0  0  0  0  0
  -17.5033  -31.6256   24.5147 H   0  0  0  0  0  0
  -15.5362  -30.2967   23.7657 H   0  0  0  0  0  0
  -15.8675  -28.0794   22.7080 H   0  0  0  0  0  0
  -24.5847  -30.7155   25.7806 H   0  0  0  0  0  0
  -24.8948  -32.2948   26.4908 H   0  0  0  0  0  0
  -25.8024  -30.8925   27.0238 H   0  0  0  0  0  0
  -26.2923  -29.6791   24.1181 H   0  0  0  0  0  0
  -27.4019  -29.7279   25.4685 H   0  0  0  0  0  0
  -27.8789  -30.4340   23.9429 H   0  0  0  0  0  0
  -27.2634  -33.3635   26.2096 H   0  0  0  0  0  0
  -28.3840  -32.6931   25.0338 H   0  0  0  0  0  0
  -28.0714  -31.8474   26.5419 H   0  0  0  0  0  0
  -28.2580  -38.0105   24.7530 H   0  0  0  0  0  0
  -28.1086  -36.2644   24.6237 H   0  0  0  0  0  0
  -27.2289  -37.1396   25.8851 H   0  0  0  0  0  0
  -20.9385  -29.8742   21.6892 H   0  0  0  0  0  0
  -26.0160  -38.2860   24.1436 H   0  0  0  0  0  0
  -31.7576  -19.7219   19.3875 H   0  0  0  0  0  0
  -28.0976  -19.9795   21.6298 H   0  0  0  0  0  0
  -31.7110  -17.2813   19.5279 H   0  0  0  0  0  0
  -28.0385  -17.5229   21.7782 H   0  0  0  0  0  0
  -29.6618  -24.2967   21.4266 H   0  0  0  0  0  0
  -30.1931  -24.2874   19.7728 H   0  0  0  0  0  0
  -27.2786  -24.7163   20.6069 H   0  0  0  0  0  0
  -27.8994  -24.8077   18.9725 H   0  0  0  0  0  0
  -28.9141  -15.3707   21.2374 H   0  0  0  0  0  0
  -28.1923  -22.1944   20.2317 H   0  0  0  0  0  0
  1 25  1  0  0  0
  1 30  2  0  0  0
  1 80  1  0  0  0
  2  3  1  0  0  0
  2 25  1  0  0  0
  2 83  1  0  0  0
  2 84  1  0  0  0
  3  4  1  0  0  0
  3 85  1  0  0  0
  3 86  1  0  0  0
  4  5  1  0  0  0
  4 87  1  0  0  0
  4 88  1  0  0  0
  5  6  1  0  0  0
  5 26  1  0  0  0
  5 89  1  0  0  0
  6 25  1  0  0  0
  6 90  1  0  0  0
  6 91  1  0  0  0
  7  8  2  0  0  0
  7 26  1  0  0  0
  7 29  1  0  0  0
  8  9  1  0  0  0
  8 22  1  0  0  0
  9 10  1  0  0  0
  9 27  2  0  0  0
 10 11  2  0  0  0
 10 15  1  0  0  0
 11 12  1  0  0  0
 11 92  1  0  0  0
 12 13  2  0  0  0
 12 93  1  0  0  0
 13 14  1  0  0  0
 13 31  1  0  0  0
 14 15  2  0  0  0
 14 94  1  0  0  0
 15 95  1  0  0  0
 16 17  2  0  0  0
 16 21  1  0  0  0
 16 31  1  0  0  0
 17 18  1  0  0  0
 17 96  1  0  0  0
 18 19  2  0  0  0
 18 97  1  0  0  0
 19 20  1  0  0  0
 19 24  1  0  0  0
 20 21  2  0  0  0
 20 98  1  0  0  0
 21 23  1  0  0  0
 22 28  1  0  0  0
 22 32  2  0  0  0
 26 27  1  0  0  0
 28 99  1  0  0  0
 28100  1  0  0  0
 29101  1  0  0  0
 29102  1  0  0  0
 33 34  1  0  0  0
 33 66  1  0  0  0
 33 70  2  0  0  0
 34 36  1  0  0  0
 34 59  1  0  0  0
 34103  1  0  0  0
 35 44  2  0  0  0
 35 45  1  0  0  0
 35 68  1  0  0  0
 36 56  1  0  0  0
 36104  1  0  0  0
 37 39  1  0  0  0
 37 47  1  0  0  0
 37 66  1  0  0  0
 37105  1  0  0  0
 38 43  2  0  0  0
 38 46  1  0  0  0
 38 47  1  0  0  0
 39 64  1  0  0  0
 39 67  2  0  0  0
 40 52  1  0  0  0
 40 53  2  0  0  0
 40 58  1  0  0  0
 41106  1  0  0  0
 41107  1  0  0  0
 41108  1  0  0  0
 41 48  1  0  0  0
 42 43  1  0  0  0
 42 66  1  0  0  0
 42109  1  0  0  0
 42110  1  0  0  0
 43 44  1  0  0  0
 44111  1  0  0  0
 45 46  2  0  0  0
 45112  1  0  0  0
 46113  1  0  0  0
 47114  1  0  0  0
 47115  1  0  0  0
 48 56  1  0  0  0
 48 65  1  0  0  0
 48116  1  0  0  0
 49 50  1  0  0  0
 49 53  1  0  0  0
 49 64  1  0  0  0
 49117  1  0  0  0
 50 51  1  0  0  0
 50118  1  0  0  0
 50119  1  0  0  0
 51 52  1  0  0  0
 51120  1  0  0  0
 51121  1  0  0  0
 52122  1  0  0  0
 52123  1  0  0  0
 53 54  1  0  0  0
 54 55  2  0  0  0
 54124  1  0  0  0
 55 57  1  0  0  0
 55125  1  0  0  0
 56 69  2  0  0  0
 57 58  2  0  0  0
 57126  1  0  0  0
 58127  1  0  0  0
 59 60  1  0  0  0
 59 61  1  0  0  0
 59 62  1  0  0  0
 60128  1  0  0  0
 60129  1  0  0  0
 60130  1  0  0  0
 61131  1  0  0  0
 61132  1  0  0  0
 61133  1  0  0  0
 62134  1  0  0  0
 62135  1  0  0  0
 62136  1  0  0  0
 63 65  1  0  0  0
 63137  1  0  0  0
 63138  1  0  0  0
 63139  1  0  0  0
 64140  1  0  0  0
 65141  1  0  0  0
 68 79  1  0  0  0
 71 73  2  0  0  0
 71 75  1  0  0  0
 71142  1  0  0  0
 72 74  1  0  0  0
 72 75  2  0  0  0
 72143  1  0  0  0
 73 76  1  0  0  0
 73144  1  0  0  0
 74 76  2  0  0  0
 74145  1  0  0  0
 75 77  1  0  0  0
 76 80  1  0  0  0
 77 81  1  0  0  0
 77 82  2  0  0  0
 78 79  1  0  0  0
 78 81  1  0  0  0
 78146  1  0  0  0
 78147  1  0  0  0
 79148  1  0  0  0
 79149  1  0  0  0
 80150  1  0  0  0
 81151  1  0  0  0
M  ISO  4   1 100  68 101  79 101  80 100
M  END
> <chiral flag>
0

> <version>
0

> <s_m_source_file>
/data/baiqing/PycharmProjects/Reinvent-master-3.2/result/LINK_invent/BTK/process_docking_weight1_custom_product_contain_oxygen_bond_distance_aromatic_linkinvent_7_9_3/rearranged_h_0003.sdf

> <i_m_source_file_index>
4

> <r_mmod_Potential_Energy-OPLS-2005>
-20.1527366638184

> <r_mmod_Stretch_Energy-OPLS-2005>
80.7307205200195

> <r_mmod_Bend_Energy-OPLS-2005>
139.29328918457

> <r_mmod_Torsional_Energy-OPLS-2005>
221.9248046875

> <r_mmod_Improper_Torsional_Energy-OPLS-2005>
4.54523420333862

> <r_mmod_Van_der_Waal_Energy-OPLS-2005>
146.996185302734

> <r_mmod_Electrostatic_Energy-OPLS-2005>
-423.341766357422

> <r_mmod_Solvation_Energy-OPLS-2005>
-239.833206176758

> <b_mmod_Minimization_Converged-OPLS-2005>
0

> <r_mmod_RMS_Derivative-OPLS-2005>
2.48203277587891

$$$$
4
                    3D
 Structure written by MMmdl.
157166  0  0  1  0            999 V2000
  -30.6430  -14.7439   20.4523 C   0  0  0  0  0  0
  -30.4207  -12.4557   19.4760 C   0  0  0  0  0  0
  -29.5065  -12.5058   18.2346 C   0  0  0  0  0  0
  -28.0340  -12.3322   18.6514 C   0  0  0  0  0  0
  -27.6371  -13.2410   19.8467 C   0  0  2  0  0  0
  -28.6815  -13.2056   20.9817 C   0  0  0  0  0  0
  -25.2496  -13.8223   20.5721 C   0  0  0  0  0  0
  -24.1790  -13.0454   20.9210 C   0  0  0  0  0  0
  -24.6393  -11.6936   20.8748 C   0  0  0  0  0  0
  -23.9073  -10.4300   21.0404 C   0  0  0  0  0  0
  -24.3624   -9.4212   21.9180 C   0  0  0  0  0  0
  -23.6294   -8.2251   22.0754 C   0  0  0  0  0  0
  -22.4274   -8.0291   21.3548 C   0  0  0  0  0  0
  -21.9908   -9.0263   20.4647 C   0  0  0  0  0  0
  -22.7245  -10.2139   20.3051 C   0  0  0  0  0  0
  -21.6859   -6.0733   22.5275 C   0  0  0  0  0  0
  -21.4026   -6.5638   23.8211 C   0  0  0  0  0  0
  -21.3662   -5.6791   24.9173 C   0  0  0  0  0  0
  -21.6045   -4.3054   24.7221 C   0  0  0  0  0  0
  -21.8820   -3.8144   23.4342 C   0  0  0  0  0  0
  -21.9195   -4.6960   22.3396 C   0  0  0  0  0  0
  -22.7807  -13.5221   21.1872 C   0  0  0  0  0  0
  -22.1660   -4.2146   21.0970 F   0  0  0  0  0  0
  -21.5623   -3.4536   25.7735 F   0  0  0  0  0  0
  -29.9772  -13.5397   20.3846 N   0  0  0  0  0  0
  -26.2923  -12.9445   20.3285 N   0  0  0  0  0  0
  -25.9330  -11.6579   20.5757 N   0  0  0  0  0  0
  -22.0457  -12.8207   22.0432 N   0  0  0  0  0  0
  -25.4197  -15.1952   20.4192 N   0  0  0  0  0  0
  -31.8467  -14.7742   20.1765 O   0  0  0  0  0  0
  -21.6644   -6.8882   21.4239 O   0  0  0  0  0  0
  -22.3473  -14.5516   20.6714 O   0  0  0  0  0  0
  -24.6316  -31.8550   23.1980 C   0  0  0  0  0  0
  -25.9139  -32.4754   23.8332 C   0  0  1  0  0  0
  -27.2192  -27.2541   20.1195 C   0  0  0  0  0  0
  -25.5934  -33.8556   24.2257 N   0  0  0  0  0  0
  -23.4282  -30.4789   21.5412 C   0  0  2  0  0  0
  -24.8738  -28.9260   20.1071 C   0  0  0  0  0  0
  -22.7506  -29.4601   22.4897 C   0  0  0  0  0  0
  -18.0299  -28.1380   22.8472 C   0  0  0  0  0  0
  -24.1486  -36.7280   23.2638 C   0  0  0  0  0  0
  -25.9752  -30.7658   21.3781 C   0  0  0  0  0  0
  -26.0460  -29.3881   20.7174 C   0  0  0  0  0  0
  -27.2171  -28.5629   20.7160 C   0  0  0  0  0  0
  -26.0129  -26.8547   19.4983 C   0  0  0  0  0  0
  -24.8626  -27.6673   19.4897 C   0  0  0  0  0  0
  -23.6466  -29.8161   20.1556 C   0  0  0  0  0  0
  -25.4111  -36.3072   24.0328 C   0  0  1  0  0  0
  -20.5899  -28.3693   23.1259 C   0  0  2  0  0  0
  -20.6781  -26.9406   22.5405 C   0  0  0  0  0  0
  -19.5764  -26.6373   21.5201 C   0  0  0  0  0  0
  -18.1944  -26.7922   22.1612 C   0  0  0  0  0  0
  -19.1551  -28.8853   23.2863 C   0  0  0  0  0  0
  -18.9473  -30.1447   23.8895 C   0  0  0  0  0  0
  -17.6471  -30.6574   24.0563 C   0  0  0  0  0  0
  -25.9054  -34.9442   23.5095 C   0  0  0  0  0  0
  -16.5363  -29.9073   23.6327 C   0  0  0  0  0  0
  -16.7284  -28.6491   23.0347 C   0  0  0  0  0  0
  -26.4493  -31.6580   25.0724 C   0  0  0  0  0  0
  -25.3717  -31.3745   26.1450 C   0  0  0  0  0  0
  -27.0328  -30.2996   24.6210 C   0  0  0  0  0  0
  -27.6050  -32.4317   25.7498 C   0  0  0  0  0  0
  -27.5582  -37.1792   24.8456 C   0  0  0  0  0  0
  -21.4211  -29.3037   22.3639 N   0  0  0  0  0  0
  -26.4283  -37.3775   23.9415 N   0  0  0  0  0  0
  -24.6976  -31.0512   22.0954 N   0  0  0  0  0  0
  -23.4204  -28.8141   23.2997 O   0  0  0  0  0  0
  -28.3201  -26.3650   20.2148 O   0  0  0  0  0  0
  -26.5628  -34.8918   22.4667 O   0  0  0  0  0  0
  -23.5465  -32.1373   23.7272 O   0  0  0  0  0  0
  -30.0933  -21.7645   20.8113 C   0  0  0  0  0  0
  -28.0309  -21.1701   19.7721 C   0  0  0  0  0  0
  -29.8040  -23.1612   20.6180 C   0  0  0  0  0  0
  -27.7398  -22.5672   19.5827 C   0  0  0  0  0  0
  -29.2434  -20.7066   20.3609 C   0  0  0  0  0  0
  -28.6261  -23.6225   19.9627 C   0  0  0  0  0  0
  -29.3697  -18.2869   21.6560 C   0  0  0  0  0  0
  -29.3055  -18.2271   19.2473 C   0  0  0  0  0  0
  -30.0489  -16.8418   21.6832 C   0  0  0  0  0  0
  -30.0224  -16.8128   19.2587 C   0  0  0  0  0  0
  -29.7113  -19.1667   20.4156 C   0  0  0  0  0  0
  -28.4384  -25.1127   19.3966 C   0  0  0  0  0  0
  -29.9259  -15.9507   20.4840 N   0  0  0  0  0  0
  -31.4653  -12.5579   19.1769 H   0  0  0  0  0  0
  -30.3474  -11.4877   19.9736 H   0  0  0  0  0  0
  -29.7892  -11.7299   17.5221 H   0  0  0  0  0  0
  -29.6354  -13.4583   17.7179 H   0  0  0  0  0  0
  -27.8947  -11.2853   18.9224 H   0  0  0  0  0  0
  -27.3757  -12.5177   17.8019 H   0  0  0  0  0  0
  -27.6227  -14.2585   19.4550 H   0  0  0  0  0  0
  -28.7159  -12.2244   21.4567 H   0  0  0  0  0  0
  -28.4215  -13.9228   21.7626 H   0  0  0  0  0  0
  -25.2776   -9.5680   22.4746 H   0  0  0  0  0  0
  -24.0011   -7.4633   22.7463 H   0  0  0  0  0  0
  -21.0844   -8.8780   19.8939 H   0  0  0  0  0  0
  -22.3714  -10.9675   19.6147 H   0  0  0  0  0  0
  -21.2030   -7.6150   23.9714 H   0  0  0  0  0  0
  -21.1480   -6.0522   25.9078 H   0  0  0  0  0  0
  -22.0597   -2.7603   23.2847 H   0  0  0  0  0  0
  -22.4091  -11.9888   22.4848 H   0  0  0  0  0  0
  -21.1064  -13.1207   22.2623 H   0  0  0  0  0  0
  -24.6594  -15.8548   20.5447 H   0  0  0  0  0  0
  -26.2856  -15.6375   20.1373 H   0  0  0  0  0  0
  -26.7204  -32.5399   23.1069 H   0  0  0  0  0  0
  -25.0074  -33.9697   25.0398 H   0  0  0  0  0  0
  -22.7246  -31.3014   21.3973 H   0  0  0  0  0  0
  -23.3758  -35.9601   23.3277 H   0  0  0  0  0  0
  -24.3582  -36.8926   22.2057 H   0  0  0  0  0  0
  -23.7223  -37.6467   23.6679 H   0  0  0  0  0  0
  -26.1164  -31.5276   20.6102 H   0  0  0  0  0  0
  -26.8523  -30.8142   22.0118 H   0  0  0  0  0  0
  -28.1130  -28.9102   21.2115 H   0  0  0  0  0  0
  -25.8986  -25.8797   19.0538 H   0  0  0  0  0  0
  -23.9589  -27.3015   19.0218 H   0  0  0  0  0  0
  -23.7769  -30.5958   19.4040 H   0  0  0  0  0  0
  -22.7626  -29.2560   19.8444 H   0  0  0  0  0  0
  -25.1289  -36.1916   25.0821 H   0  0  0  0  0  0
  -21.0002  -28.3278   24.1376 H   0  0  0  0  0  0
  -20.5659  -26.2303   23.3608 H   0  0  0  0  0  0
  -21.6657  -26.7415   22.1219 H   0  0  0  0  0  0
  -19.6923  -25.6282   21.1233 H   0  0  0  0  0  0
  -19.6697  -27.3174   20.6724 H   0  0  0  0  0  0
  -17.4209  -26.6658   21.4021 H   0  0  0  0  0  0
  -18.0349  -26.0066   22.9012 H   0  0  0  0  0  0
  -19.7951  -30.7260   24.2265 H   0  0  0  0  0  0
  -17.5026  -31.6252   24.5167 H   0  0  0  0  0  0
  -15.5365  -30.2969   23.7653 H   0  0  0  0  0  0
  -15.8686  -28.0803   22.7071 H   0  0  0  0  0  0
  -24.5886  -30.7094   25.7790 H   0  0  0  0  0  0
  -24.8913  -32.2918   26.4862 H   0  0  0  0  0  0
  -25.8032  -30.8934   27.0235 H   0  0  0  0  0  0
  -26.2899  -29.6747   24.1235 H   0  0  0  0  0  0
  -27.4005  -29.7256   25.4724 H   0  0  0  0  0  0
  -27.8782  -30.4262   23.9445 H   0  0  0  0  0  0
  -27.2667  -33.3625   26.2058 H   0  0  0  0  0  0
  -28.3870  -32.6860   25.0332 H   0  0  0  0  0  0
  -28.0700  -31.8449   26.5428 H   0  0  0  0  0  0
  -28.2580  -38.0111   24.7546 H   0  0  0  0  0  0
  -28.1104  -36.2649   24.6225 H   0  0  0  0  0  0
  -27.2315  -37.1374   25.8862 H   0  0  0  0  0  0
  -20.9389  -29.8757   21.6848 H   0  0  0  0  0  0
  -26.0158  -38.2843   24.1446 H   0  0  0  0  0  0
  -31.0388  -21.5051   21.2675 H   0  0  0  0  0  0
  -27.3230  -20.4433   19.3979 H   0  0  0  0  0  0
  -30.5487  -23.8870   20.9154 H   0  0  0  0  0  0
  -26.8320  -22.8269   19.0554 H   0  0  0  0  0  0
  -29.6691  -18.8226   22.5573 H   0  0  0  0  0  0
  -28.2873  -18.1764   21.7306 H   0  0  0  0  0  0
  -28.2243  -18.0858   19.2454 H   0  0  0  0  0  0
  -29.5406  -18.7235   18.3051 H   0  0  0  0  0  0
  -29.6664  -16.2948   22.5466 H   0  0  0  0  0  0
  -31.1148  -16.9789   21.8765 H   0  0  0  0  0  0
  -31.0794  -16.9869   19.0474 H   0  0  0  0  0  0
  -29.6533  -16.2334   18.4099 H   0  0  0  0  0  0
  -30.8001  -19.2315   20.3824 H   0  0  0  0  0  0
  -27.7117  -25.0745   18.5896 H   0  0  0  0  0  0
  -29.3651  -25.2800   18.8466 H   0  0  0  0  0  0
  1 25  1  0  0  0
  1 30  2  0  0  0
  1 83  1  0  0  0
  2  3  1  0  0  0
  2 25  1  0  0  0
  2 84  1  0  0  0
  2 85  1  0  0  0
  3  4  1  0  0  0
  3 86  1  0  0  0
  3 87  1  0  0  0
  4  5  1  0  0  0
  4 88  1  0  0  0
  4 89  1  0  0  0
  5  6  1  0  0  0
  5 26  1  0  0  0
  5 90  1  0  0  0
  6 25  1  0  0  0
  6 91  1  0  0  0
  6 92  1  0  0  0
  7  8  2  0  0  0
  7 26  1  0  0  0
  7 29  1  0  0  0
  8  9  1  0  0  0
  8 22  1  0  0  0
  9 10  1  0  0  0
  9 27  2  0  0  0
 10 11  2  0  0  0
 10 15  1  0  0  0
 11 12  1  0  0  0
 11 93  1  0  0  0
 12 13  2  0  0  0
 12 94  1  0  0  0
 13 14  1  0  0  0
 13 31  1  0  0  0
 14 15  2  0  0  0
 14 95  1  0  0  0
 15 96  1  0  0  0
 16 17  2  0  0  0
 16 21  1  0  0  0
 16 31  1  0  0  0
 17 18  1  0  0  0
 17 97  1  0  0  0
 18 19  2  0  0  0
 18 98  1  0  0  0
 19 20  1  0  0  0
 19 24  1  0  0  0
 20 21  2  0  0  0
 20 99  1  0  0  0
 21 23  1  0  0  0
 22 28  1  0  0  0
 22 32  2  0  0  0
 26 27  1  0  0  0
 28100  1  0  0  0
 28101  1  0  0  0
 29102  1  0  0  0
 29103  1  0  0  0
 33 34  1  0  0  0
 33 66  1  0  0  0
 33 70  2  0  0  0
 34 36  1  0  0  0
 34 59  1  0  0  0
 34104  1  0  0  0
 35 44  2  0  0  0
 35 45  1  0  0  0
 35 68  1  0  0  0
 36 56  1  0  0  0
 36105  1  0  0  0
 37 39  1  0  0  0
 37 47  1  0  0  0
 37 66  1  0  0  0
 37106  1  0  0  0
 38 43  2  0  0  0
 38 46  1  0  0  0
 38 47  1  0  0  0
 39 64  1  0  0  0
 39 67  2  0  0  0
 40 52  1  0  0  0
 40 53  2  0  0  0
 40 58  1  0  0  0
 41107  1  0  0  0
 41108  1  0  0  0
 41109  1  0  0  0
 41 48  1  0  0  0
 42 43  1  0  0  0
 42 66  1  0  0  0
 42110  1  0  0  0
 42111  1  0  0  0
 43 44  1  0  0  0
 44112  1  0  0  0
 45 46  2  0  0  0
 45113  1  0  0  0
 46114  1  0  0  0
 47115  1  0  0  0
 47116  1  0  0  0
 48 56  1  0  0  0
 48 65  1  0  0  0
 48117  1  0  0  0
 49 50  1  0  0  0
 49 53  1  0  0  0
 49 64  1  0  0  0
 49118  1  0  0  0
 50 51  1  0  0  0
 50119  1  0  0  0
 50120  1  0  0  0
 51 52  1  0  0  0
 51121  1  0  0  0
 51122  1  0  0  0
 52123  1  0  0  0
 52124  1  0  0  0
 53 54  1  0  0  0
 54 55  2  0  0  0
 54125  1  0  0  0
 55 57  1  0  0  0
 55126  1  0  0  0
 56 69  2  0  0  0
 57 58  2  0  0  0
 57127  1  0  0  0
 58128  1  0  0  0
 59 60  1  0  0  0
 59 61  1  0  0  0
 59 62  1  0  0  0
 60129  1  0  0  0
 60130  1  0  0  0
 60131  1  0  0  0
 61132  1  0  0  0
 61133  1  0  0  0
 61134  1  0  0  0
 62135  1  0  0  0
 62136  1  0  0  0
 62137  1  0  0  0
 63 65  1  0  0  0
 63138  1  0  0  0
 63139  1  0  0  0
 63140  1  0  0  0
 64141  1  0  0  0
 65142  1  0  0  0
 68 82  1  0  0  0
 71 73  2  0  0  0
 71 75  1  0  0  0
 71143  1  0  0  0
 72 74  1  0  0  0
 72 75  2  0  0  0
 72144  1  0  0  0
 73 76  1  0  0  0
 73145  1  0  0  0
 74 76  2  0  0  0
 74146  1  0  0  0
 75 81  1  0  0  0
 76 82  1  0  0  0
 77 79  1  0  0  0
 77 81  1  0  0  0
 77147  1  0  0  0
 77148  1  0  0  0
 78 80  1  0  0  0
 78 81  1  0  0  0
 78149  1  0  0  0
 78150  1  0  0  0
 79 83  1  0  0  0
 79151  1  0  0  0
 79152  1  0  0  0
 80 83  1  0  0  0
 80153  1  0  0  0
 80154  1  0  0  0
 81155  1  0  0  0
 82156  1  0  0  0
 82157  1  0  0  0
M  ISO  4   1 100  68 101  82 101  83 100
M  END
> <chiral flag>
0

> <version>
0

> <s_m_source_file>
/data/baiqing/PycharmProjects/Reinvent-master-3.2/result/LINK_invent/BTK/process_docking_weight1_custom_product_contain_oxygen_bond_distance_aromatic_linkinvent_7_9_3/rearranged_h_0003.sdf

> <i_m_source_file_index>
5

> <r_mmod_Potential_Energy-OPLS-2005>
449.520599365234

> <r_mmod_Stretch_Energy-OPLS-2005>
120.040107727051

> <r_mmod_Bend_Energy-OPLS-2005>
201.958053588867

> <r_mmod_Torsional_Energy-OPLS-2005>
341.868438720703

> <r_mmod_Improper_Torsional_Energy-OPLS-2005>
15.9666175842285

> <r_mmod_Van_der_Waal_Energy-OPLS-2005>
139.468215942383

> <r_mmod_Electrostatic_Energy-OPLS-2005>
-270.755279541016

> <r_mmod_Solvation_Energy-OPLS-2005>
-189.391342163086

> <b_mmod_Minimization_Converged-OPLS-2005>
0

> <r_mmod_RMS_Derivative-OPLS-2005>
1.37633216381073

$$$$
5
                    3D
 Structure written by MMmdl.
208219  0  0  1  0            999 V2000
  -30.7572  -14.3277   20.7285 C   0  0  0  0  0  0
  -30.4253  -12.2817   19.3862 C   0  0  0  0  0  0
  -29.4869  -12.5473   18.1924 C   0  0  0  0  0  0
  -28.0117  -12.3957   18.6064 C   0  0  0  0  0  0
  -27.6756  -13.1990   19.8901 C   0  0  2  0  0  0
  -28.7091  -12.8980   20.9998 C   0  0  0  0  0  0
  -25.2632  -13.8150   20.5676 C   0  0  0  0  0  0
  -24.1864  -13.0441   20.9151 C   0  0  0  0  0  0
  -24.6399  -11.6904   20.8703 C   0  0  0  0  0  0
  -23.9053  -10.4299   21.0383 C   0  0  0  0  0  0
  -24.3606   -9.4227   21.9176 C   0  0  0  0  0  0
  -23.6286   -8.2259   22.0752 C   0  0  0  0  0  0
  -22.4268   -8.0278   21.3544 C   0  0  0  0  0  0
  -21.9906   -9.0252   20.4645 C   0  0  0  0  0  0
  -22.7221  -10.2135   20.3049 C   0  0  0  0  0  0
  -21.6852   -6.0731   22.5280 C   0  0  0  0  0  0
  -21.4011   -6.5634   23.8211 C   0  0  0  0  0  0
  -21.3661   -5.6780   24.9172 C   0  0  0  0  0  0
  -21.6046   -4.3048   24.7221 C   0  0  0  0  0  0
  -21.8816   -3.8145   23.4344 C   0  0  0  0  0  0
  -21.9192   -4.6961   22.3400 C   0  0  0  0  0  0
  -22.7890  -13.5237   21.1818 C   0  0  0  0  0  0
  -22.1666   -4.2149   21.0982 F   0  0  0  0  0  0
  -21.5627   -3.4534   25.7738 F   0  0  0  0  0  0
  -30.0649  -13.1870   20.4863 N   0  0  0  0  0  0
  -26.3087  -12.9316   20.3402 N   0  0  0  0  0  0
  -25.9324  -11.6476   20.5739 N   0  0  0  0  0  0
  -22.0519  -12.8251   22.0378 N   0  0  0  0  0  0
  -25.4380  -15.1870   20.4114 N   0  0  0  0  0  0
  -31.6795  -14.7284   20.0151 O   0  0  0  0  0  0
  -21.6632   -6.8881   21.4241 O   0  0  0  0  0  0
  -22.3589  -14.5561   20.6674 O   0  0  0  0  0  0
  -24.6036  -31.8750   23.2108 C   0  0  0  0  0  0
  -25.8947  -32.4878   23.8416 C   0  0  1  0  0  0
  -27.2672  -27.4906   20.1261 C   0  0  0  0  0  0
  -25.5812  -33.8660   24.2362 N   0  0  0  0  0  0
  -23.3929  -30.4907   21.5491 C   0  0  2  0  0  0
  -24.8490  -28.9582   20.1201 C   0  0  0  0  0  0
  -22.7390  -29.4659   22.5022 C   0  0  0  0  0  0
  -18.0264  -28.1369   22.8504 C   0  0  0  0  0  0
  -24.1485  -36.7338   23.2639 C   0  0  0  0  0  0
  -25.9055  -30.8655   21.3475 C   0  0  0  0  0  0
  -25.9950  -29.4932   20.7190 C   0  0  0  0  0  0
  -27.1997  -28.7695   20.7259 C   0  0  0  0  0  0
  -26.1110  -26.9693   19.5053 C   0  0  0  0  0  0
  -24.8985  -27.6897   19.5112 C   0  0  0  0  0  0
  -23.6029  -29.8133   20.1659 C   0  0  0  0  0  0
  -25.4095  -36.3140   24.0348 C   0  0  1  0  0  0
  -20.5847  -28.3625   23.1368 C   0  0  2  0  0  0
  -20.6751  -26.9376   22.5435 C   0  0  0  0  0  0
  -19.5733  -26.6391   21.5222 C   0  0  0  0  0  0
  -18.1906  -26.7921   22.1622 C   0  0  0  0  0  0
  -19.1512  -28.8810   23.2928 C   0  0  0  0  0  0
  -18.9442  -30.1426   23.8938 C   0  0  0  0  0  0
  -17.6441  -30.6583   24.0569 C   0  0  0  0  0  0
  -25.8998  -34.9498   23.5157 C   0  0  0  0  0  0
  -16.5337  -29.9093   23.6315 C   0  0  0  0  0  0
  -16.7251  -28.6504   23.0348 C   0  0  0  0  0  0
  -26.4408  -31.6623   25.0706 C   0  0  0  0  0  0
  -25.3691  -31.3668   26.1470 C   0  0  0  0  0  0
  -27.0203  -30.3098   24.5946 C   0  0  0  0  0  0
  -27.6051  -32.4286   25.7444 C   0  0  0  0  0  0
  -27.5580  -37.1818   24.8463 C   0  0  0  0  0  0
  -21.4114  -29.3000   22.3785 N   0  0  0  0  0  0
  -26.4301  -37.3812   23.9394 N   0  0  0  0  0  0
  -24.6520  -31.0895   22.0982 N   0  0  0  0  0  0
  -23.4214  -28.8218   23.3032 O   0  0  0  0  0  0
  -28.4183  -26.7342   20.0960 O   0  0  0  0  0  0
  -26.5600  -34.8945   22.4742 O   0  0  0  0  0  0
  -23.5244  -32.1462   23.7534 O   0  0  0  0  0  0
  -32.8435  -24.3340   22.3915 C   0  0  0  0  0  0
  -31.2314  -22.6220   23.0042 C   0  0  0  0  0  0
  -32.3012  -25.1998   23.3592 C   0  0  0  0  0  0
  -30.7068  -23.4750   23.9961 C   0  0  0  0  0  0
  -32.2884  -23.0524   22.1659 C   0  0  0  0  0  0
  -31.2102  -24.7814   24.1449 C   0  0  0  0  0  0
  -33.0740  -17.6972   20.3782 C   0  0  0  0  0  0
  -28.5956  -19.6568   17.5060 C   0  0  0  0  0  0
  -28.9315  -20.1184   18.9296 C   0  0  0  0  0  0
  -29.8407  -19.1086   16.7974 C   0  0  0  0  0  0
  -33.0388  -15.8663   23.5900 C   0  0  0  0  0  0
  -33.4602  -22.1364   18.5557 C   0  0  0  0  0  0
  -32.9003  -22.9885   19.7000 C   0  0  0  0  0  0
  -29.5314  -18.9686   19.7645 C   0  0  0  0  0  0
  -30.4665  -17.9506   17.5898 C   0  0  0  0  0  0
  -31.9598  -16.9172   23.7905 C   0  0  0  0  0  0
  -33.6622  -16.2567   22.2556 C   0  0  0  0  0  0
  -32.6330  -20.8607   18.3737 C   0  0  0  0  0  0
  -32.0605  -20.8586   20.7842 C   0  0  0  0  0  0
  -32.8388  -22.1844   21.0219 C   0  0  2  0  0  0
  -30.7324  -18.2412   19.0966 C   0  0  0  0  0  0
  -31.4786  -17.2561   22.3710 C   0  0  2  0  0  0
  -30.5637  -25.7483   25.1208 C   0  0  0  0  0  0
  -30.2207  -16.4075   22.0207 C   0  0  0  0  0  0
  -29.7947  -26.9008   24.4342 C   0  0  0  0  0  0
  -28.6704  -25.8596   22.3742 C   0  0  0  0  0  0
  -29.2566  -26.7586   21.2621 C   0  0  0  0  0  0
  -32.2006  -18.6435   19.5009 C   0  0  1  0  0  0
  -32.6760  -17.0719   21.5240 N   0  0  0  0  0  0
  -30.3719  -14.9648   21.8423 N   0  0  0  0  0  0
  -32.6103  -20.0782   19.6367 N   0  3  1  0  0  0
  -28.5564  -26.4889   23.7209 N   0  3  0  0  0  0
  -34.2397  -17.5525   19.9882 O   0  0  0  0  0  0
  -31.4694  -12.3952   19.0844 H   0  0  0  0  0  0
  -30.3257  -11.2479   19.7218 H   0  0  0  0  0  0
  -29.7161  -11.8604   17.3760 H   0  0  0  0  0  0
  -29.6603  -13.5522   17.8014 H   0  0  0  0  0  0
  -27.8167  -11.3352   18.7719 H   0  0  0  0  0  0
  -27.3589  -12.7021   17.7882 H   0  0  0  0  0  0
  -27.7473  -14.2595   19.6445 H   0  0  0  0  0  0
  -28.6573  -11.8444   21.2798 H   0  0  0  0  0  0
  -28.4438  -13.4463   21.9044 H   0  0  0  0  0  0
  -25.2750   -9.5696   22.4743 H   0  0  0  0  0  0
  -23.9984   -7.4661   22.7484 H   0  0  0  0  0  0
  -21.0828   -8.8761   19.8968 H   0  0  0  0  0  0
  -22.3670  -10.9662   19.6148 H   0  0  0  0  0  0
  -21.2000   -7.6141   23.9714 H   0  0  0  0  0  0
  -21.1489   -6.0515   25.9072 H   0  0  0  0  0  0
  -22.0595   -2.7608   23.2841 H   0  0  0  0  0  0
  -22.4103  -11.9886   22.4743 H   0  0  0  0  0  0
  -21.1139  -13.1313   22.2582 H   0  0  0  0  0  0
  -24.6748  -15.8450   20.5197 H   0  0  0  0  0  0
  -26.2977  -15.6258   20.1095 H   0  0  0  0  0  0
  -26.7050  -32.5658   23.1231 H   0  0  0  0  0  0
  -24.9892  -33.9836   25.0457 H   0  0  0  0  0  0
  -22.6763  -31.3027   21.4077 H   0  0  0  0  0  0
  -23.3750  -35.9674   23.3304 H   0  0  0  0  0  0
  -24.3588  -36.8948   22.2058 H   0  0  0  0  0  0
  -23.7247  -37.6541   23.6657 H   0  0  0  0  0  0
  -25.9783  -31.6204   20.5626 H   0  0  0  0  0  0
  -26.8051  -30.9560   21.9427 H   0  0  0  0  0  0
  -28.0655  -29.2283   21.1783 H   0  0  0  0  0  0
  -26.1550  -26.0001   19.0255 H   0  0  0  0  0  0
  -24.0183  -27.2735   19.0402 H   0  0  0  0  0  0
  -23.7027  -30.5867   19.4032 H   0  0  0  0  0  0
  -22.7335  -29.2229   19.8732 H   0  0  0  0  0  0
  -25.1276  -36.2009   25.0850 H   0  0  0  0  0  0
  -20.9926  -28.3180   24.1492 H   0  0  0  0  0  0
  -20.5668  -26.2226   23.3601 H   0  0  0  0  0  0
  -21.6621  -26.7454   22.1215 H   0  0  0  0  0  0
  -19.6906  -25.6322   21.1211 H   0  0  0  0  0  0
  -19.6678  -27.3241   20.6787 H   0  0  0  0  0  0
  -17.4181  -26.6683   21.4021 H   0  0  0  0  0  0
  -18.0270  -26.0075   22.9020 H   0  0  0  0  0  0
  -19.7924  -30.7209   24.2356 H   0  0  0  0  0  0
  -17.5008  -31.6278   24.5144 H   0  0  0  0  0  0
  -15.5338  -30.2999   23.7629 H   0  0  0  0  0  0
  -15.8650  -28.0836   22.7046 H   0  0  0  0  0  0
  -24.5883  -30.6991   25.7786 H   0  0  0  0  0  0
  -24.8827  -32.2791   26.4951 H   0  0  0  0  0  0
  -25.8052  -30.8826   27.0221 H   0  0  0  0  0  0
  -26.2671  -29.6918   24.1041 H   0  0  0  0  0  0
  -27.4069  -29.7287   25.4320 H   0  0  0  0  0  0
  -27.8476  -30.4479   23.8978 H   0  0  0  0  0  0
  -27.2757  -33.3634   26.2005 H   0  0  0  0  0  0
  -28.3872  -32.6752   25.0240 H   0  0  0  0  0  0
  -28.0685  -31.8372   26.5358 H   0  0  0  0  0  0
  -28.2606  -38.0111   24.7515 H   0  0  0  0  0  0
  -28.1073  -36.2643   24.6284 H   0  0  0  0  0  0
  -27.2298  -37.1463   25.8870 H   0  0  0  0  0  0
  -20.9257  -29.8730   21.7026 H   0  0  0  0  0  0
  -26.0202  -38.2900   24.1395 H   0  0  0  0  0  0
  -33.6815  -24.6826   21.8054 H   0  0  0  0  0  0
  -30.7826  -21.6455   22.9022 H   0  0  0  0  0  0
  -32.7174  -26.1920   23.4762 H   0  0  0  0  0  0
  -29.8812  -23.1356   24.6064 H   0  0  0  0  0  0
  -28.1729  -20.4835   16.9346 H   0  0  0  0  0  0
  -27.8255  -18.8836   17.5451 H   0  0  0  0  0  0
  -28.0213  -20.4770   19.4149 H   0  0  0  0  0  0
  -29.5960  -20.9784   18.8868 H   0  0  0  0  0  0
  -30.5677  -19.8999   16.6269 H   0  0  0  0  0  0
  -29.5618  -18.7552   15.8034 H   0  0  0  0  0  0
  -32.5930  -14.8730   23.5146 H   0  0  0  0  0  0
  -33.7657  -15.8411   24.4027 H   0  0  0  0  0  0
  -34.5023  -21.8829   18.7570 H   0  0  0  0  0  0
  -33.4567  -22.7105   17.6289 H   0  0  0  0  0  0
  -31.9029  -23.3445   19.4382 H   0  0  0  0  0  0
  -33.5234  -23.8771   19.7960 H   0  0  0  0  0  0
  -28.7197  -18.2511   19.8899 H   0  0  0  0  0  0
  -29.7673  -19.2953   20.7761 H   0  0  0  0  0  0
  -31.3586  -17.5836   17.0793 H   0  0  0  0  0  0
  -29.7621  -17.1186   17.5314 H   0  0  0  0  0  0
  -32.4047  -17.8052   24.2444 H   0  0  0  0  0  0
  -31.1692  -16.5791   24.4614 H   0  0  0  0  0  0
  -33.9489  -15.3755   21.6794 H   0  0  0  0  0  0
  -34.5670  -16.8411   22.4377 H   0  0  0  0  0  0
  -33.0606  -20.2817   17.5539 H   0  0  0  0  0  0
  -31.6230  -21.1325   18.0761 H   0  0  0  0  0  0
  -31.0186  -21.1089   20.5940 H   0  0  0  0  0  0
  -32.0954  -20.2512   21.6877 H   0  0  0  0  0  0
  -33.8588  -21.9233   21.3099 H   0  0  0  0  0  0
  -30.6958  -17.2212   19.4643 H   0  0  0  0  0  0
  -31.1797  -18.3025   22.3683 H   0  0  0  0  0  0
  -31.3543  -26.1664   25.7463 H   0  0  0  0  0  0
  -29.9036  -25.2117   25.8045 H   0  0  0  0  0  0
  -29.6676  -16.7863   21.1764 H   0  0  0  0  0  0
  -29.5037  -16.5335   22.8334 H   0  0  0  0  0  0
  -30.4516  -27.4787   23.7856 H   0  0  0  0  0  0
  -29.4828  -27.5966   25.2148 H   0  0  0  0  0  0
  -29.2268  -24.9292   22.4112 H   0  0  0  0  0  0
  -27.6623  -25.5605   22.0904 H   0  0  0  0  0  0
  -30.2305  -26.3627   20.9681 H   0  0  0  0  0  0
  -29.4696  -27.7640   21.6187 H   0  0  0  0  0  0
  -32.7004  -18.4010   18.5637 H   0  0  0  0  0  0
  -29.7580  -14.4121   22.4227 H   0  0  0  0  0  0
  -33.5910  -19.9664   19.8596 H   0  0  0  0  0  0
  -27.9783  -27.3090   23.6290 H   0  0  0  0  0  0
  -28.0460  -25.8612   24.3218 H   0  0  0  0  0  0
  1 25  1  0  0  0
  1 30  2  0  0  0
  1100  1  0  0  0
  2  3  1  0  0  0
  2 25  1  0  0  0
  2104  1  0  0  0
  2105  1  0  0  0
  3  4  1  0  0  0
  3106  1  0  0  0
  3107  1  0  0  0
  4  5  1  0  0  0
  4108  1  0  0  0
  4109  1  0  0  0
  5  6  1  0  0  0
  5 26  1  0  0  0
  5110  1  0  0  0
  6 25  1  0  0  0
  6111  1  0  0  0
  6112  1  0  0  0
  7  8  2  0  0  0
  7 26  1  0  0  0
  7 29  1  0  0  0
  8  9  1  0  0  0
  8 22  1  0  0  0
  9 10  1  0  0  0
  9 27  2  0  0  0
 10 11  2  0  0  0
 10 15  1  0  0  0
 11 12  1  0  0  0
 11113  1  0  0  0
 12 13  2  0  0  0
 12114  1  0  0  0
 13 14  1  0  0  0
 13 31  1  0  0  0
 14 15  2  0  0  0
 14115  1  0  0  0
 15116  1  0  0  0
 16 17  2  0  0  0
 16 21  1  0  0  0
 16 31  1  0  0  0
 17 18  1  0  0  0
 17117  1  0  0  0
 18 19  2  0  0  0
 18118  1  0  0  0
 19 20  1  0  0  0
 19 24  1  0  0  0
 20 21  2  0  0  0
 20119  1  0  0  0
 21 23  1  0  0  0
 22 28  1  0  0  0
 22 32  2  0  0  0
 26 27  1  0  0  0
 28120  1  0  0  0
 28121  1  0  0  0
 29122  1  0  0  0
 29123  1  0  0  0
 33 34  1  0  0  0
 33 66  1  0  0  0
 33 70  2  0  0  0
 34 36  1  0  0  0
 34 59  1  0  0  0
 34124  1  0  0  0
 35 44  2  0  0  0
 35 45  1  0  0  0
 35 68  1  0  0  0
 36 56  1  0  0  0
 36125  1  0  0  0
 37 39  1  0  0  0
 37 47  1  0  0  0
 37 66  1  0  0  0
 37126  1  0  0  0
 38 43  2  0  0  0
 38 46  1  0  0  0
 38 47  1  0  0  0
 39 64  1  0  0  0
 39 67  2  0  0  0
 40 52  1  0  0  0
 40 53  2  0  0  0
 40 58  1  0  0  0
 41127  1  0  0  0
 41128  1  0  0  0
 41129  1  0  0  0
 41 48  1  0  0  0
 42 43  1  0  0  0
 42 66  1  0  0  0
 42130  1  0  0  0
 42131  1  0  0  0
 43 44  1  0  0  0
 44132  1  0  0  0
 45 46  2  0  0  0
 45133  1  0  0  0
 46134  1  0  0  0
 47135  1  0  0  0
 47136  1  0  0  0
 48 56  1  0  0  0
 48 65  1  0  0  0
 48137  1  0  0  0
 49 50  1  0  0  0
 49 53  1  0  0  0
 49 64  1  0  0  0
 49138  1  0  0  0
 50 51  1  0  0  0
 50139  1  0  0  0
 50140  1  0  0  0
 51 52  1  0  0  0
 51141  1  0  0  0
 51142  1  0  0  0
 52143  1  0  0  0
 52144  1  0  0  0
 53 54  1  0  0  0
 54 55  2  0  0  0
 54145  1  0  0  0
 55 57  1  0  0  0
 55146  1  0  0  0
 56 69  2  0  0  0
 57 58  2  0  0  0
 57147  1  0  0  0
 58148  1  0  0  0
 59 60  1  0  0  0
 59 61  1  0  0  0
 59 62  1  0  0  0
 60149  1  0  0  0
 60150  1  0  0  0
 60151  1  0  0  0
 61152  1  0  0  0
 61153  1  0  0  0
 61154  1  0  0  0
 62155  1  0  0  0
 62156  1  0  0  0
 62157  1  0  0  0
 63 65  1  0  0  0
 63158  1  0  0  0
 63159  1  0  0  0
 63160  1  0  0  0
 64161  1  0  0  0
 65162  1  0  0  0
 68 97  1  0  0  0
 71 73  2  0  0  0
 71 75  1  0  0  0
 71163  1  0  0  0
 72 74  1  0  0  0
 72 75  2  0  0  0
 72164  1  0  0  0
 73 76  1  0  0  0
 73165  1  0  0  0
 74 76  2  0  0  0
 74166  1  0  0  0
 75 90  1  0  0  0
 76 93  1  0  0  0
 77 99  1  0  0  0
 77103  2  0  0  0
 77 98  1  0  0  0
 78 79  1  0  0  0
 78 80  1  0  0  0
 78167  1  0  0  0
 78168  1  0  0  0
 79 84  1  0  0  0
 79169  1  0  0  0
 79170  1  0  0  0
 80 85  1  0  0  0
 80171  1  0  0  0
 80172  1  0  0  0
 81 86  1  0  0  0
 81 87  1  0  0  0
 81173  1  0  0  0
 81174  1  0  0  0
 82 83  1  0  0  0
 82 88  1  0  0  0
 82175  1  0  0  0
 82176  1  0  0  0
 83 90  1  0  0  0
 83177  1  0  0  0
 83178  1  0  0  0
 84179  1  0  0  0
 84180  1  0  0  0
 84 91  1  0  0  0
 85 91  1  0  0  0
 85181  1  0  0  0
 85182  1  0  0  0
 86 92  1  0  0  0
 86183  1  0  0  0
 86184  1  0  0  0
 87 99  1  0  0  0
 87185  1  0  0  0
 87186  1  0  0  0
 88187  1  0  0  0
 88188  1  0  0  0
 88101  1  0  0  0
 89 90  1  0  0  0
 89101  1  0  0  0
 89189  1  0  0  0
 89190  1  0  0  0
 90191  1  0  0  0
 91 98  1  0  0  0
 91192  1  0  0  0
 92 94  1  0  0  0
 92 99  1  0  0  0
 92193  1  0  0  0
 93 95  1  0  0  0
 93194  1  0  0  0
 93195  1  0  0  0
 94100  1  0  0  0
 94196  1  0  0  0
 94197  1  0  0  0
 95102  1  0  0  0
 95198  1  0  0  0
 95199  1  0  0  0
 96 97  1  0  0  0
 96102  1  0  0  0
 96200  1  0  0  0
 96201  1  0  0  0
 97202  1  0  0  0
 97203  1  0  0  0
 98101  1  0  0  0
 98204  1  0  0  0
100205  1  0  0  0
101206  1  0  0  0
102207  1  0  0  0
102208  1  0  0  0
M  CHG  2 101   1 102   1
M  ISO  4   1 100  68 101  97 101 100 100
M  END
> <chiral flag>
0

> <version>
0

> <s_m_source_file>
/data/baiqing/PycharmProjects/Reinvent-master-3.2/result/LINK_invent/BTK/process_docking_weight1_custom_product_contain_oxygen_bond_distance_aromatic_linkinvent_7_9_3/rearranged_h_0003.sdf

> <i_m_source_file_index>
6

> <r_mmod_Potential_Energy-OPLS-2005>
5.78323173522949

> <r_mmod_Stretch_Energy-OPLS-2005>
49.3309555053711

> <r_mmod_Bend_Energy-OPLS-2005>
233.586120605469

> <r_mmod_Torsional_Energy-OPLS-2005>
439.822082519531

> <r_mmod_Improper_Torsional_Energy-OPLS-2005>
4.73593235015869

> <r_mmod_Van_der_Waal_Energy-OPLS-2005>
150.35871887207

> <r_mmod_Electrostatic_Energy-OPLS-2005>
-77.8820037841797

> <r_mmod_Solvation_Energy-OPLS-2005>
-802.588256835938

> <b_mmod_Minimization_Converged-OPLS-2005>
0

> <r_mmod_RMS_Derivative-OPLS-2005>
3.06483888626099

$$$$
6
                    3D
 Structure written by MMmdl.
157166  0  0  1  0            999 V2000
  -30.6251  -14.8603   20.4383 C   0  0  0  0  0  0
  -30.4223  -12.5397   19.4791 C   0  0  0  0  0  0
  -29.5037  -12.5111   18.2400 C   0  0  0  0  0  0
  -28.0391  -12.3054   18.6667 C   0  0  0  0  0  0
  -27.6242  -13.2385   19.8341 C   0  0  2  0  0  0
  -28.6729  -13.2749   20.9659 C   0  0  0  0  0  0
  -25.2446  -13.8190   20.5722 C   0  0  0  0  0  0
  -24.1759  -13.0425   20.9237 C   0  0  0  0  0  0
  -24.6372  -11.6909   20.8775 C   0  0  0  0  0  0
  -23.9061  -10.4285   21.0424 C   0  0  0  0  0  0
  -24.3614   -9.4197   21.9195 C   0  0  0  0  0  0
  -23.6290   -8.2233   22.0756 C   0  0  0  0  0  0
  -22.4273   -8.0276   21.3544 C   0  0  0  0  0  0
  -21.9912   -9.0249   20.4647 C   0  0  0  0  0  0
  -22.7239  -10.2128   20.3064 C   0  0  0  0  0  0
  -21.6850   -6.0734   22.5278 C   0  0  0  0  0  0
  -21.4011   -6.5637   23.8211 C   0  0  0  0  0  0
  -21.3657   -5.6792   24.9174 C   0  0  0  0  0  0
  -21.6045   -4.3054   24.7225 C   0  0  0  0  0  0
  -21.8819   -3.8145   23.4346 C   0  0  0  0  0  0
  -21.9190   -4.6963   22.3402 C   0  0  0  0  0  0
  -22.7783  -13.5205   21.1887 C   0  0  0  0  0  0
  -22.1660   -4.2149   21.0980 F   0  0  0  0  0  0
  -21.5629   -3.4539   25.7737 F   0  0  0  0  0  0
  -29.9538  -13.6478   20.3545 N   0  0  0  0  0  0
  -26.2862  -12.9405   20.3270 N   0  0  0  0  0  0
  -25.9302  -11.6545   20.5777 N   0  0  0  0  0  0
  -22.0431  -12.8194   22.0443 N   0  0  0  0  0  0
  -25.4106  -15.1912   20.4126 N   0  0  0  0  0  0
  -31.8394  -14.8489   20.2108 O   0  0  0  0  0  0
  -21.6635   -6.8875   21.4240 O   0  0  0  0  0  0
  -22.3472  -14.5510   20.6729 O   0  0  0  0  0  0
  -24.6387  -31.8489   23.1937 C   0  0  0  0  0  0
  -25.9182  -32.4720   23.8305 C   0  0  1  0  0  0
  -27.2105  -27.1862   20.1474 C   0  0  0  0  0  0
  -25.5952  -33.8525   24.2226 N   0  0  0  0  0  0
  -23.4394  -30.4708   21.5380 C   0  0  2  0  0  0
  -24.8874  -28.9072   20.1119 C   0  0  0  0  0  0
  -22.7540  -29.4569   22.4877 C   0  0  0  0  0  0
  -18.0301  -28.1390   22.8478 C   0  0  0  0  0  0
  -24.1489  -36.7259   23.2642 C   0  0  0  0  0  0
  -25.9923  -30.7382   21.3864 C   0  0  0  0  0  0
  -26.0634  -29.3541   20.7293 C   0  0  0  0  0  0
  -27.2301  -28.5088   20.7309 C   0  0  0  0  0  0
  -26.0164  -26.8354   19.4822 C   0  0  0  0  0  0
  -24.8736  -27.6591   19.4736 C   0  0  0  0  0  0
  -23.6632  -29.8049   20.1554 C   0  0  0  0  0  0
  -25.4118  -36.3046   24.0323 C   0  0  1  0  0  0
  -20.5910  -28.3709   23.1246 C   0  0  2  0  0  0
  -20.6788  -26.9418   22.5401 C   0  0  0  0  0  0
  -19.5762  -26.6381   21.5207 C   0  0  0  0  0  0
  -18.1942  -26.7931   22.1619 C   0  0  0  0  0  0
  -19.1557  -28.8865   23.2858 C   0  0  0  0  0  0
  -18.9477  -30.1465   23.8877 C   0  0  0  0  0  0
  -17.6475  -30.6590   24.0558 C   0  0  0  0  0  0
  -25.9066  -34.9421   23.5078 C   0  0  0  0  0  0
  -16.5366  -29.9084   23.6338 C   0  0  0  0  0  0
  -16.7287  -28.6504   23.0355 C   0  0  0  0  0  0
  -26.4527  -31.6569   25.0723 C   0  0  0  0  0  0
  -25.3728  -31.3735   26.1426 C   0  0  0  0  0  0
  -27.0395  -30.2977   24.6265 C   0  0  0  0  0  0
  -27.6066  -32.4331   25.7502 C   0  0  0  0  0  0
  -27.5574  -37.1785   24.8469 C   0  0  0  0  0  0
  -21.4237  -29.3050   22.3625 N   0  0  0  0  0  0
  -26.4285  -37.3754   23.9413 N   0  0  0  0  0  0
  -24.7094  -31.0393   22.0948 N   0  0  0  0  0  0
  -23.4206  -28.8104   23.2999 O   0  0  0  0  0  0
  -28.2662  -26.2224   20.1767 O   0  0  0  0  0  0
  -26.5639  -34.8909   22.4648 O   0  0  0  0  0  0
  -23.5519  -32.1339   23.7188 O   0  0  0  0  0  0
  -30.5497  -22.5299   18.6505 C   0  0  0  0  0  0
  -30.3513  -21.2150   19.1323 C   0  0  0  0  0  0
  -29.8008  -23.6313   19.1240 C   0  0  0  0  0  0
  -28.6304  -22.0849   20.5933 C   0  0  0  0  0  0
  -29.3931  -20.9132   20.1248 C   0  0  0  0  0  0
  -28.8097  -23.4703   20.1106 C   0  0  0  0  0  0
  -28.8665  -18.2697   19.5459 C   0  0  0  0  0  0
  -30.6082  -18.6866   21.1277 C   0  0  0  0  0  0
  -28.8242  -16.7125   19.9659 C   0  0  0  0  0  0
  -30.5655  -17.1565   21.5967 C   0  0  0  0  0  0
  -29.2833  -19.3565   20.6119 C   0  0  0  0  0  0
  -27.9452  -24.7679   20.5596 C   0  0  0  0  0  0
  -29.9833  -16.1011   20.6981 N   0  0  0  0  0  0
  -31.4594  -12.6657   19.1642 H   0  0  0  0  0  0
  -30.3871  -11.5883   20.0121 H   0  0  0  0  0  0
  -29.8104  -11.7169   17.5578 H   0  0  0  0  0  0
  -29.5990  -13.4468   17.6865 H   0  0  0  0  0  0
  -27.9315  -11.2642   18.9730 H   0  0  0  0  0  0
  -27.3716  -12.4421   17.8146 H   0  0  0  0  0  0
  -27.5774  -14.2330   19.3979 H   0  0  0  0  0  0
  -28.7460  -12.3099   21.4691 H   0  0  0  0  0  0
  -28.3874  -14.0038   21.7264 H   0  0  0  0  0  0
  -25.2758   -9.5672   22.4775 H   0  0  0  0  0  0
  -23.9996   -7.4623   22.7475 H   0  0  0  0  0  0
  -21.0844   -8.8771   19.8951 H   0  0  0  0  0  0
  -22.3702  -10.9671   19.6176 H   0  0  0  0  0  0
  -21.2003   -7.6146   23.9715 H   0  0  0  0  0  0
  -21.1480   -6.0522   25.9076 H   0  0  0  0  0  0
  -22.0600   -2.7609   23.2846 H   0  0  0  0  0  0
  -22.4049  -11.9856   22.4829 H   0  0  0  0  0  0
  -21.1049  -13.1221   22.2653 H   0  0  0  0  0  0
  -24.6427  -15.8437   20.5271 H   0  0  0  0  0  0
  -26.2608  -15.6322   20.0886 H   0  0  0  0  0  0
  -26.7242  -32.5344   23.1033 H   0  0  0  0  0  0
  -25.0114  -33.9652   25.0383 H   0  0  0  0  0  0
  -22.7399  -31.2955   21.3877 H   0  0  0  0  0  0
  -23.3759  -35.9583   23.3301 H   0  0  0  0  0  0
  -24.3577  -36.8885   22.2057 H   0  0  0  0  0  0
  -23.7234  -37.6452   23.6676 H   0  0  0  0  0  0
  -26.1434  -31.4952   20.6154 H   0  0  0  0  0  0
  -26.8651  -30.7867   22.0259 H   0  0  0  0  0  0
  -28.1289  -28.8451   21.2287 H   0  0  0  0  0  0
  -25.9451  -25.8903   18.9639 H   0  0  0  0  0  0
  -23.9793  -27.3173   18.9711 H   0  0  0  0  0  0
  -23.7984  -30.5816   19.4017 H   0  0  0  0  0  0
  -22.7789  -29.2461   19.8438 H   0  0  0  0  0  0
  -25.1305  -36.1880   25.0815 H   0  0  0  0  0  0
  -21.0009  -28.3294   24.1365 H   0  0  0  0  0  0
  -20.5683  -26.2319   23.3613 H   0  0  0  0  0  0
  -21.6655  -26.7425   22.1196 H   0  0  0  0  0  0
  -19.6925  -25.6286   21.1249 H   0  0  0  0  0  0
  -19.6704  -27.3182   20.6729 H   0  0  0  0  0  0
  -17.4211  -26.6673   21.4025 H   0  0  0  0  0  0
  -18.0345  -26.0075   22.9017 H   0  0  0  0  0  0
  -19.7951  -30.7286   24.2238 H   0  0  0  0  0  0
  -17.5030  -31.6268   24.5163 H   0  0  0  0  0  0
  -15.5367  -30.2981   23.7674 H   0  0  0  0  0  0
  -15.8686  -28.0820   22.7081 H   0  0  0  0  0  0
  -24.5926  -30.7059   25.7754 H   0  0  0  0  0  0
  -24.8897  -32.2907   26.4808 H   0  0  0  0  0  0
  -25.8031  -30.8947   27.0232 H   0  0  0  0  0  0
  -26.3003  -29.6696   24.1280 H   0  0  0  0  0  0
  -27.4044  -29.7274   25.4819 H   0  0  0  0  0  0
  -27.8895  -30.4240   23.9555 H   0  0  0  0  0  0
  -27.2671  -33.3659   26.2021 H   0  0  0  0  0  0
  -28.3908  -32.6841   25.0346 H   0  0  0  0  0  0
  -28.0698  -31.8489   26.5463 H   0  0  0  0  0  0
  -28.2586  -38.0088   24.7520 H   0  0  0  0  0  0
  -28.1077  -36.2618   24.6295 H   0  0  0  0  0  0
  -27.2293  -37.1430   25.8872 H   0  0  0  0  0  0
  -20.9436  -29.8775   21.6821 H   0  0  0  0  0  0
  -26.0155  -38.2821   24.1425 H   0  0  0  0  0  0
  -31.2986  -22.6985   17.8887 H   0  0  0  0  0  0
  -30.9600  -20.4206   18.7229 H   0  0  0  0  0  0
  -29.9849  -24.6144   18.7128 H   0  0  0  0  0  0
  -27.8746  -21.9177   21.3481 H   0  0  0  0  0  0
  -27.8881  -18.5417   19.1482 H   0  0  0  0  0  0
  -29.5464  -18.3558   18.6971 H   0  0  0  0  0  0
  -31.3669  -18.7662   20.3484 H   0  0  0  0  0  0
  -30.9909  -19.2856   21.9549 H   0  0  0  0  0  0
  -28.6529  -16.1357   19.0569 H   0  0  0  0  0  0
  -27.9491  -16.5540   20.5958 H   0  0  0  0  0  0
  -29.9905  -17.1103   22.5222 H   0  0  0  0  0  0
  -31.5769  -16.8637   21.8836 H   0  0  0  0  0  0
  -28.5533  -19.3360   21.4223 H   0  0  0  0  0  0
  -27.9390  -24.7527   21.6496 H   0  0  0  0  0  0
  -26.9207  -24.5235   20.2877 H   0  0  0  0  0  0
  1 25  1  0  0  0
  1 30  2  0  0  0
  1 83  1  0  0  0
  2  3  1  0  0  0
  2 25  1  0  0  0
  2 84  1  0  0  0
  2 85  1  0  0  0
  3  4  1  0  0  0
  3 86  1  0  0  0
  3 87  1  0  0  0
  4  5  1  0  0  0
  4 88  1  0  0  0
  4 89  1  0  0  0
  5  6  1  0  0  0
  5 26  1  0  0  0
  5 90  1  0  0  0
  6 25  1  0  0  0
  6 91  1  0  0  0
  6 92  1  0  0  0
  7  8  2  0  0  0
  7 26  1  0  0  0
  7 29  1  0  0  0
  8  9  1  0  0  0
  8 22  1  0  0  0
  9 10  1  0  0  0
  9 27  2  0  0  0
 10 11  2  0  0  0
 10 15  1  0  0  0
 11 12  1  0  0  0
 11 93  1  0  0  0
 12 13  2  0  0  0
 12 94  1  0  0  0
 13 14  1  0  0  0
 13 31  1  0  0  0
 14 15  2  0  0  0
 14 95  1  0  0  0
 15 96  1  0  0  0
 16 17  2  0  0  0
 16 21  1  0  0  0
 16 31  1  0  0  0
 17 18  1  0  0  0
 17 97  1  0  0  0
 18 19  2  0  0  0
 18 98  1  0  0  0
 19 20  1  0  0  0
 19 24  1  0  0  0
 20 21  2  0  0  0
 20 99  1  0  0  0
 21 23  1  0  0  0
 22 28  1  0  0  0
 22 32  2  0  0  0
 26 27  1  0  0  0
 28100  1  0  0  0
 28101  1  0  0  0
 29102  1  0  0  0
 29103  1  0  0  0
 33 34  1  0  0  0
 33 66  1  0  0  0
 33 70  2  0  0  0
 34 36  1  0  0  0
 34 59  1  0  0  0
 34104  1  0  0  0
 35 44  2  0  0  0
 35 45  1  0  0  0
 35 68  1  0  0  0
 36 56  1  0  0  0
 36105  1  0  0  0
 37 39  1  0  0  0
 37 47  1  0  0  0
 37 66  1  0  0  0
 37106  1  0  0  0
 38 43  2  0  0  0
 38 46  1  0  0  0
 38 47  1  0  0  0
 39 64  1  0  0  0
 39 67  2  0  0  0
 40 52  1  0  0  0
 40 53  2  0  0  0
 40 58  1  0  0  0
 41107  1  0  0  0
 41108  1  0  0  0
 41109  1  0  0  0
 41 48  1  0  0  0
 42 43  1  0  0  0
 42 66  1  0  0  0
 42110  1  0  0  0
 42111  1  0  0  0
 43 44  1  0  0  0
 44112  1  0  0  0
 45 46  2  0  0  0
 45113  1  0  0  0
 46114  1  0  0  0
 47115  1  0  0  0
 47116  1  0  0  0
 48 56  1  0  0  0
 48 65  1  0  0  0
 48117  1  0  0  0
 49 50  1  0  0  0
 49 53  1  0  0  0
 49 64  1  0  0  0
 49118  1  0  0  0
 50 51  1  0  0  0
 50119  1  0  0  0
 50120  1  0  0  0
 51 52  1  0  0  0
 51121  1  0  0  0
 51122  1  0  0  0
 52123  1  0  0  0
 52124  1  0  0  0
 53 54  1  0  0  0
 54 55  2  0  0  0
 54125  1  0  0  0
 55 57  1  0  0  0
 55126  1  0  0  0
 56 69  2  0  0  0
 57 58  2  0  0  0
 57127  1  0  0  0
 58128  1  0  0  0
 59 60  1  0  0  0
 59 61  1  0  0  0
 59 62  1  0  0  0
 60129  1  0  0  0
 60130  1  0  0  0
 60131  1  0  0  0
 61132  1  0  0  0
 61133  1  0  0  0
 61134  1  0  0  0
 62135  1  0  0  0
 62136  1  0  0  0
 62137  1  0  0  0
 63 65  1  0  0  0
 63138  1  0  0  0
 63139  1  0  0  0
 63140  1  0  0  0
 64141  1  0  0  0
 65142  1  0  0  0
 68 82  1  0  0  0
 71 72  2  0  0  0
 71 73  1  0  0  0
 71143  1  0  0  0
 72 75  1  0  0  0
 72144  1  0  0  0
 73 76  2  0  0  0
 73145  1  0  0  0
 74 75  2  0  0  0
 74 76  1  0  0  0
 74146  1  0  0  0
 75 81  1  0  0  0
 76 82  1  0  0  0
 77 79  1  0  0  0
 77 81  1  0  0  0
 77147  1  0  0  0
 77148  1  0  0  0
 78 80  1  0  0  0
 78 81  1  0  0  0
 78149  1  0  0  0
 78150  1  0  0  0
 79 83  1  0  0  0
 79151  1  0  0  0
 79152  1  0  0  0
 80 83  1  0  0  0
 80153  1  0  0  0
 80154  1  0  0  0
 81155  1  0  0  0
 82156  1  0  0  0
 82157  1  0  0  0
M  ISO  4   1 100  68 101  82 101  83 100
M  END
> <chiral flag>
0

> <version>
0

> <s_m_source_file>
/data/baiqing/PycharmProjects/Reinvent-master-3.2/result/LINK_invent/BTK/process_docking_weight1_custom_product_contain_oxygen_bond_distance_aromatic_linkinvent_7_9_3/rearranged_h_0003.sdf

> <i_m_source_file_index>
7

> <r_mmod_Potential_Energy-OPLS-2005>
554.944641113281

> <r_mmod_Stretch_Energy-OPLS-2005>
177.343124389648

> <r_mmod_Bend_Energy-OPLS-2005>
217.416442871094

> <r_mmod_Torsional_Energy-OPLS-2005>
343.445617675781

> <r_mmod_Improper_Torsional_Energy-OPLS-2005>
2.19480967521667

> <r_mmod_Van_der_Waal_Energy-OPLS-2005>
132.541778564453

> <r_mmod_Electrostatic_Energy-OPLS-2005>
-267.993469238281

> <r_mmod_Solvation_Energy-OPLS-2005>
-195.901062011719

> <b_mmod_Minimization_Converged-OPLS-2005>
0

> <r_mmod_RMS_Derivative-OPLS-2005>
0.53320986032486

$$$$
7
                    3D
 Structure written by MMmdl.
167177  0  0  1  0            999 V2000
  -30.6852  -14.6018   20.3958 C   0  0  0  0  0  0
  -30.4137  -12.3344   19.4415 C   0  0  0  0  0  0
  -29.4720  -12.3732   18.2137 C   0  0  0  0  0  0
  -27.9882  -12.3039   18.6409 C   0  0  0  0  0  0
  -27.6311  -13.1999   19.8647 C   0  0  2  0  0  0
  -28.7050  -13.1106   20.9693 C   0  0  0  0  0  0
  -25.2467  -13.8131   20.5674 C   0  0  0  0  0  0
  -24.1699  -13.0413   20.9192 C   0  0  0  0  0  0
  -24.6266  -11.6912   20.8822 C   0  0  0  0  0  0
  -23.8972  -10.4302   21.0473 C   0  0  0  0  0  0
  -24.3561   -9.4255   21.9247 C   0  0  0  0  0  0
  -23.6274   -8.2277   22.0800 C   0  0  0  0  0  0
  -22.4253   -8.0318   21.3607 C   0  0  0  0  0  0
  -21.9868   -9.0268   20.4685 C   0  0  0  0  0  0
  -22.7159  -10.2156   20.3113 C   0  0  0  0  0  0
  -21.6825   -6.0773   22.5283 C   0  0  0  0  0  0
  -21.3957   -6.5656   23.8205 C   0  0  0  0  0  0
  -21.3586   -5.6805   24.9157 C   0  0  0  0  0  0
  -21.6047   -4.3073   24.7178 C   0  0  0  0  0  0
  -21.8851   -3.8170   23.4296 C   0  0  0  0  0  0
  -21.9218   -4.7007   22.3366 C   0  0  0  0  0  0
  -22.7754  -13.5313   21.1825 C   0  0  0  0  0  0
  -22.1741   -4.2230   21.0946 F   0  0  0  0  0  0
  -21.5607   -3.4588   25.7707 F   0  0  0  0  0  0
  -29.9989  -13.4184   20.3467 N   0  0  0  0  0  0
  -26.2897  -12.9270   20.3558 N   0  0  0  0  0  0
  -25.9233  -11.6462   20.6070 N   0  0  0  0  0  0
  -22.0259  -12.8400   22.0325 N   0  0  0  0  0  0
  -25.4079  -15.1844   20.3932 N   0  0  0  0  0  0
  -31.9102  -14.6433   20.2979 O   0  0  0  0  0  0
  -21.6629   -6.8921   21.4257 O   0  0  0  0  0  0
  -22.3531  -14.5664   20.6723 O   0  0  0  0  0  0
  -24.6137  -31.8674   23.2134 C   0  0  0  0  0  0
  -25.9043  -32.4812   23.8409 C   0  0  1  0  0  0
  -27.2510  -27.4145   20.1608 C   0  0  0  0  0  0
  -25.5915  -33.8605   24.2372 N   0  0  0  0  0  0
  -23.4042  -30.4882   21.5455 C   0  0  2  0  0  0
  -24.8655  -28.9497   20.1142 C   0  0  0  0  0  0
  -22.7418  -29.4634   22.4953 C   0  0  0  0  0  0
  -18.0294  -28.1325   22.8457 C   0  0  0  0  0  0
  -24.1469  -36.7276   23.2631 C   0  0  0  0  0  0
  -25.9312  -30.8343   21.3694 C   0  0  0  0  0  0
  -26.0211  -29.4662   20.7174 C   0  0  0  0  0  0
  -27.2170  -28.7073   20.7368 C   0  0  0  0  0  0
  -26.0883  -26.9197   19.5369 C   0  0  0  0  0  0
  -24.8959  -27.6749   19.5153 C   0  0  0  0  0  0
  -23.6241  -29.8178   20.1589 C   0  0  0  0  0  0
  -25.4085  -36.3099   24.0349 C   0  0  1  0  0  0
  -20.5891  -28.3615   23.1306 C   0  0  2  0  0  0
  -20.6813  -26.9364   22.5381 C   0  0  0  0  0  0
  -19.5785  -26.6313   21.5190 C   0  0  0  0  0  0
  -18.1944  -26.7867   22.1563 C   0  0  0  0  0  0
  -19.1546  -28.8772   23.2889 C   0  0  0  0  0  0
  -18.9490  -30.1364   23.8938 C   0  0  0  0  0  0
  -17.6505  -30.6519   24.0582 C   0  0  0  0  0  0
  -25.9018  -34.9465   23.5158 C   0  0  0  0  0  0
  -16.5392  -29.9050   23.6288 C   0  0  0  0  0  0
  -16.7289  -28.6456   23.0307 C   0  0  0  0  0  0
  -26.4477  -31.6597   25.0745 C   0  0  0  0  0  0
  -25.3728  -31.3751   26.1506 C   0  0  0  0  0  0
  -27.0348  -30.3026   24.6166 C   0  0  0  0  0  0
  -27.6057  -32.4315   25.7483 C   0  0  0  0  0  0
  -27.5565  -37.1793   24.8472 C   0  0  0  0  0  0
  -21.4147  -29.3033   22.3734 N   0  0  0  0  0  0
  -26.4276  -37.3775   23.9419 N   0  0  0  0  0  0
  -24.6641  -31.0763   22.1015 N   0  0  0  0  0  0
  -23.4170  -28.8183   23.3002 O   0  0  0  0  0  0
  -28.3663  -26.6011   20.2464 O   0  0  0  0  0  0
  -26.5550  -34.8919   22.4701 O   0  0  0  0  0  0
  -23.5327  -32.1457   23.7512 O   0  0  0  0  0  0
  -29.3473  -18.6012   18.1326 C   0  0  0  0  0  0
  -30.7074  -16.3871   17.7554 C   0  0  0  0  0  0
  -30.0366  -16.9209   21.0502 C   0  0  0  0  0  0
  -28.9086  -20.3728   19.8935 C   0  0  0  0  0  0
  -30.4592  -19.5529   21.4341 C   0  0  0  0  0  0
  -29.3867  -17.1309   17.7837 C   0  0  1  0  0  0
  -29.0766  -18.8604   19.6045 C   0  0  2  0  0  0
  -30.2495  -18.3617   20.4593 C   0  0  2  0  0  0
  -29.6194  -15.9137   18.6918 C   0  0  2  0  0  0
  -29.2993  -23.2831   20.7306 C   0  0  0  0  0  0
  -29.4545  -24.6381   21.5002 C   0  0  0  0  0  0
  -30.0463  -22.0739   21.4083 C   0  0  0  0  0  0
  -28.3025  -25.6893   21.3726 C   0  0  0  0  0  0
  -29.9879  -15.7542   20.1011 N   0  0  0  0  0  0
  -30.1047  -20.7738   20.6529 N   0  3  2  0  0  0
  -31.4556  -12.4295   19.1301 H   0  0  0  0  0  0
  -30.3418  -11.3717   19.9491 H   0  0  0  0  0  0
  -29.6893  -11.5434   17.5403 H   0  0  0  0  0  0
  -29.6589  -13.2564   17.6094 H   0  0  0  0  0  0
  -27.7631  -11.2596   18.8754 H   0  0  0  0  0  0
  -27.3389  -12.5587   17.8016 H   0  0  0  0  0  0
  -27.6046  -14.2249   19.5127 H   0  0  0  0  0  0
  -28.7206  -12.1094   21.4086 H   0  0  0  0  0  0
  -28.4918  -13.8113   21.7775 H   0  0  0  0  0  0
  -25.2669   -9.5805   22.4860 H   0  0  0  0  0  0
  -24.0017   -7.4666   22.7490 H   0  0  0  0  0  0
  -21.0833   -8.8751   19.8961 H   0  0  0  0  0  0
  -22.3600  -10.9734   19.6254 H   0  0  0  0  0  0
  -21.1925   -7.6157   23.9723 H   0  0  0  0  0  0
  -21.1318   -6.0503   25.9057 H   0  0  0  0  0  0
  -22.0675   -2.7640   23.2729 H   0  0  0  0  0  0
  -22.3858  -12.0239   22.5000 H   0  0  0  0  0  0
  -21.0851  -13.1474   22.2337 H   0  0  0  0  0  0
  -24.6063  -15.8051   20.4163 H   0  0  0  0  0  0
  -26.2660  -15.6468   20.1191 H   0  0  0  0  0  0
  -26.7117  -32.5535   23.1167 H   0  0  0  0  0  0
  -25.0181  -33.9764   25.0605 H   0  0  0  0  0  0
  -22.6914  -31.3042   21.3976 H   0  0  0  0  0  0
  -23.3739  -35.9596   23.3313 H   0  0  0  0  0  0
  -24.3605  -36.8877   22.2052 H   0  0  0  0  0  0
  -23.7220  -37.6482   23.6632 H   0  0  0  0  0  0
  -26.0524  -31.6058   20.6097 H   0  0  0  0  0  0
  -26.8101  -30.8867   21.9999 H   0  0  0  0  0  0
  -28.0998  -29.0906   21.2281 H   0  0  0  0  0  0
  -26.1057  -25.9298   19.0994 H   0  0  0  0  0  0
  -24.0117  -27.2630   19.0517 H   0  0  0  0  0  0
  -23.7418  -30.5964   19.4043 H   0  0  0  0  0  0
  -22.7497  -29.2437   19.8516 H   0  0  0  0  0  0
  -25.1256  -36.1954   25.0836 H   0  0  0  0  0  0
  -20.9980  -28.3170   24.1428 H   0  0  0  0  0  0
  -20.5798  -26.2196   23.3542 H   0  0  0  0  0  0
  -21.6672  -26.7485   22.1110 H   0  0  0  0  0  0
  -19.6972  -25.6195   21.1326 H   0  0  0  0  0  0
  -19.6752  -27.3021   20.6662 H   0  0  0  0  0  0
  -17.4250  -26.6636   21.3919 H   0  0  0  0  0  0
  -18.0311  -25.9979   22.8904 H   0  0  0  0  0  0
  -19.8001  -30.7099   24.2363 H   0  0  0  0  0  0
  -17.5083  -31.6161   24.5250 H   0  0  0  0  0  0
  -15.5389  -30.2944   23.7628 H   0  0  0  0  0  0
  -15.8681  -28.0802   22.7018 H   0  0  0  0  0  0
  -24.5869  -30.7108   25.7887 H   0  0  0  0  0  0
  -24.8925  -32.2919   26.4918 H   0  0  0  0  0  0
  -25.8070  -30.8965   27.0287 H   0  0  0  0  0  0
  -26.2966  -29.6748   24.1137 H   0  0  0  0  0  0
  -27.4060  -29.7310   25.4688 H   0  0  0  0  0  0
  -27.8809  -30.4378   23.9419 H   0  0  0  0  0  0
  -27.2696  -33.3614   26.2064 H   0  0  0  0  0  0
  -28.3828  -32.6856   25.0267 H   0  0  0  0  0  0
  -28.0717  -31.8409   26.5385 H   0  0  0  0  0  0
  -28.2584  -38.0079   24.7479 H   0  0  0  0  0  0
  -28.1061  -36.2621   24.6311 H   0  0  0  0  0  0
  -27.2299  -37.1447   25.8879 H   0  0  0  0  0  0
  -20.9268  -29.8902   21.7129 H   0  0  0  0  0  0
  -26.0173  -38.2848   24.1436 H   0  0  0  0  0  0
  -28.5487  -19.0537   17.5440 H   0  0  0  0  0  0
  -30.2584  -19.0955   17.7924 H   0  0  0  0  0  0
  -31.5805  -16.8490   18.2090 H   0  0  0  0  0  0
  -30.9289  -15.7582   16.8946 H   0  0  0  0  0  0
  -29.1285  -16.9062   21.6581 H   0  0  0  0  0  0
  -30.8410  -16.7486   21.7668 H   0  0  0  0  0  0
  -28.0215  -20.5301   20.5071 H   0  0  0  0  0  0
  -28.7918  -20.9730   18.9904 H   0  0  0  0  0  0
  -31.4778  -19.5948   21.8233 H   0  0  0  0  0  0
  -29.7829  -19.4624   22.2866 H   0  0  0  0  0  0
  -28.7523  -16.9254   16.9190 H   0  0  0  0  0  0
  -28.1556  -18.3499   19.8947 H   0  0  0  0  0  0
  -31.1624  -18.3331   19.8625 H   0  0  0  0  0  0
  -29.0282  -15.0985   18.3039 H   0  0  0  0  0  0
  -29.6469  -23.4270   19.7061 H   0  0  0  0  0  0
  -28.2363  -23.0375   20.6613 H   0  0  0  0  0  0
  -30.4155  -25.1029   21.2715 H   0  0  0  0  0  0
  -29.5173  -24.3927   22.5636 H   0  0  0  0  0  0
  -29.5973  -21.8968   22.3823 H   0  0  0  0  0  0
  -31.0809  -22.3627   21.6104 H   0  0  0  0  0  0
  -28.3288  -26.3012   22.2792 H   0  0  0  0  0  0
  -27.3373  -25.1766   21.4104 H   0  0  0  0  0  0
  -30.8345  -20.8778   19.9618 H   0  0  0  0  0  0
  1 25  1  0  0  0
  1 30  2  0  0  0
  1 84  1  0  0  0
  2  3  1  0  0  0
  2 25  1  0  0  0
  2 86  1  0  0  0
  2 87  1  0  0  0
  3  4  1  0  0  0
  3 88  1  0  0  0
  3 89  1  0  0  0
  4  5  1  0  0  0
  4 90  1  0  0  0
  4 91  1  0  0  0
  5  6  1  0  0  0
  5 26  1  0  0  0
  5 92  1  0  0  0
  6 25  1  0  0  0
  6 93  1  0  0  0
  6 94  1  0  0  0
  7  8  2  0  0  0
  7 26  1  0  0  0
  7 29  1  0  0  0
  8  9  1  0  0  0
  8 22  1  0  0  0
  9 10  1  0  0  0
  9 27  2  0  0  0
 10 11  2  0  0  0
 10 15  1  0  0  0
 11 12  1  0  0  0
 11 95  1  0  0  0
 12 13  2  0  0  0
 12 96  1  0  0  0
 13 14  1  0  0  0
 13 31  1  0  0  0
 14 15  2  0  0  0
 14 97  1  0  0  0
 15 98  1  0  0  0
 16 17  2  0  0  0
 16 21  1  0  0  0
 16 31  1  0  0  0
 17 18  1  0  0  0
 17 99  1  0  0  0
 18 19  2  0  0  0
 18100  1  0  0  0
 19 20  1  0  0  0
 19 24  1  0  0  0
 20 21  2  0  0  0
 20101  1  0  0  0
 21 23  1  0  0  0
 22 28  1  0  0  0
 22 32  2  0  0  0
 26 27  1  0  0  0
 28102  1  0  0  0
 28103  1  0  0  0
 29104  1  0  0  0
 29105  1  0  0  0
 33 34  1  0  0  0
 33 66  1  0  0  0
 33 70  2  0  0  0
 34 36  1  0  0  0
 34 59  1  0  0  0
 34106  1  0  0  0
 35 44  2  0  0  0
 35 45  1  0  0  0
 35 68  1  0  0  0
 36 56  1  0  0  0
 36107  1  0  0  0
 37 39  1  0  0  0
 37 47  1  0  0  0
 37 66  1  0  0  0
 37108  1  0  0  0
 38 43  2  0  0  0
 38 46  1  0  0  0
 38 47  1  0  0  0
 39 64  1  0  0  0
 39 67  2  0  0  0
 40 52  1  0  0  0
 40 53  2  0  0  0
 40 58  1  0  0  0
 41109  1  0  0  0
 41110  1  0  0  0
 41111  1  0  0  0
 41 48  1  0  0  0
 42 43  1  0  0  0
 42 66  1  0  0  0
 42112  1  0  0  0
 42113  1  0  0  0
 43 44  1  0  0  0
 44114  1  0  0  0
 45 46  2  0  0  0
 45115  1  0  0  0
 46116  1  0  0  0
 47117  1  0  0  0
 47118  1  0  0  0
 48 56  1  0  0  0
 48 65  1  0  0  0
 48119  1  0  0  0
 49 50  1  0  0  0
 49 53  1  0  0  0
 49 64  1  0  0  0
 49120  1  0  0  0
 50 51  1  0  0  0
 50121  1  0  0  0
 50122  1  0  0  0
 51 52  1  0  0  0
 51123  1  0  0  0
 51124  1  0  0  0
 52125  1  0  0  0
 52126  1  0  0  0
 53 54  1  0  0  0
 54 55  2  0  0  0
 54127  1  0  0  0
 55 57  1  0  0  0
 55128  1  0  0  0
 56 69  2  0  0  0
 57 58  2  0  0  0
 57129  1  0  0  0
 58130  1  0  0  0
 59 60  1  0  0  0
 59 61  1  0  0  0
 59 62  1  0  0  0
 60131  1  0  0  0
 60132  1  0  0  0
 60133  1  0  0  0
 61134  1  0  0  0
 61135  1  0  0  0
 61136  1  0  0  0
 62137  1  0  0  0
 62138  1  0  0  0
 62139  1  0  0  0
 63 65  1  0  0  0
 63140  1  0  0  0
 63141  1  0  0  0
 63142  1  0  0  0
 64143  1  0  0  0
 65144  1  0  0  0
 68 83  1  0  0  0
 71145  1  0  0  0
 71146  1  0  0  0
 71 76  1  0  0  0
 71 77  1  0  0  0
 72 76  1  0  0  0
 72147  1  0  0  0
 72148  1  0  0  0
 72 79  1  0  0  0
 73 84  1  0  0  0
 73149  1  0  0  0
 73150  1  0  0  0
 73 78  1  0  0  0
 74 77  1  0  0  0
 74 85  1  0  0  0
 74151  1  0  0  0
 74152  1  0  0  0
 75 78  1  0  0  0
 75 85  1  0  0  0
 75153  1  0  0  0
 75154  1  0  0  0
 76 79  1  0  0  0
 76155  1  0  0  0
 77 78  1  0  0  0
 77156  1  0  0  0
 78157  1  0  0  0
 79 84  1  0  0  0
 79158  1  0  0  0
 80 81  1  0  0  0
 80 82  1  0  0  0
 80159  1  0  0  0
 80160  1  0  0  0
 81 83  1  0  0  0
 81161  1  0  0  0
 81162  1  0  0  0
 82163  1  0  0  0
 82164  1  0  0  0
 82 85  1  0  0  0
 83165  1  0  0  0
 83166  1  0  0  0
 85167  1  0  0  0
M  CHG  1  85   1
M  ISO  4   1 100  68 101  83 101  84 100
M  END
> <chiral flag>
0

> <version>
0

> <s_m_source_file>
/data/baiqing/PycharmProjects/Reinvent-master-3.2/result/LINK_invent/BTK/process_docking_weight1_custom_product_contain_oxygen_bond_distance_aromatic_linkinvent_7_9_3/rearranged_h_0003.sdf

> <i_m_source_file_index>
8

> <r_mmod_Potential_Energy-OPLS-2005>
391.064361572266

> <r_mmod_Stretch_Energy-OPLS-2005>
57.0877494812012

> <r_mmod_Bend_Energy-OPLS-2005>
190.020263671875

> <r_mmod_Torsional_Energy-OPLS-2005>
550.728271484375

> <r_mmod_Improper_Torsional_Energy-OPLS-2005>
13.6506214141846

> <r_mmod_Van_der_Waal_Energy-OPLS-2005>
121.394424438477

> <r_mmod_Electrostatic_Energy-OPLS-2005>
-170.149017333984

> <r_mmod_Solvation_Energy-OPLS-2005>
-422.006072998047

> <b_mmod_Minimization_Converged-OPLS-2005>
0

> <r_mmod_RMS_Derivative-OPLS-2005>
6.49031209945679

$$$$
8
                    3D
 Structure written by MMmdl.
165174  0  0  1  0            999 V2000
  -30.5949  -14.4463   20.5778 C   0  0  0  0  0  0
  -30.4572  -12.3020   19.3832 C   0  0  0  0  0  0
  -29.4928  -12.4924   18.1913 C   0  0  0  0  0  0
  -28.0155  -12.3321   18.6132 C   0  0  0  0  0  0
  -27.6699  -13.1668   19.8747 C   0  0  2  0  0  0
  -28.7036  -12.8400   20.9737 C   0  0  0  0  0  0
  -25.2635  -13.8090   20.5630 C   0  0  0  0  0  0
  -24.1834  -13.0386   20.9201 C   0  0  0  0  0  0
  -24.6338  -11.6877   20.8735 C   0  0  0  0  0  0
  -23.8970  -10.4274   21.0440 C   0  0  0  0  0  0
  -24.3529   -9.4202   21.9218 C   0  0  0  0  0  0
  -23.6244   -8.2212   22.0766 C   0  0  0  0  0  0
  -22.4219   -8.0244   21.3565 C   0  0  0  0  0  0
  -21.9849   -9.0199   20.4647 C   0  0  0  0  0  0
  -22.7147  -10.2108   20.3077 C   0  0  0  0  0  0
  -21.6836   -6.0690   22.5288 C   0  0  0  0  0  0
  -21.3988   -6.5616   23.8212 C   0  0  0  0  0  0
  -21.3691   -5.6792   24.9189 C   0  0  0  0  0  0
  -21.6050   -4.3049   24.7239 C   0  0  0  0  0  0
  -21.8810   -3.8123   23.4366 C   0  0  0  0  0  0
  -21.9189   -4.6923   22.3415 C   0  0  0  0  0  0
  -22.7871  -13.5265   21.1835 C   0  0  0  0  0  0
  -22.1643   -4.2109   21.0991 F   0  0  0  0  0  0
  -21.5684   -3.4526   25.7759 F   0  0  0  0  0  0
  -30.0320  -13.2170   20.4514 N   0  0  0  0  0  0
  -26.3028  -12.9174   20.3307 N   0  0  0  0  0  0
  -25.9261  -11.6393   20.5755 N   0  0  0  0  0  0
  -22.0474  -12.8234   22.0392 N   0  0  0  0  0  0
  -25.4409  -15.1774   20.4062 N   0  0  0  0  0  0
  -31.6685  -14.7718   20.0589 O   0  0  0  0  0  0
  -21.6616   -6.8813   21.4247 O   0  0  0  0  0  0
  -22.3570  -14.5583   20.6716 O   0  0  0  0  0  0
  -24.6087  -31.8712   23.2147 C   0  0  0  0  0  0
  -25.8983  -32.4807   23.8491 C   0  0  1  0  0  0
  -27.2417  -27.4298   20.1574 C   0  0  0  0  0  0
  -25.5907  -33.8627   24.2396 N   0  0  0  0  0  0
  -23.4003  -30.4946   21.5502 C   0  0  2  0  0  0
  -24.8555  -28.9679   20.1151 C   0  0  0  0  0  0
  -22.7400  -29.4627   22.4938 C   0  0  0  0  0  0
  -18.0192  -28.1424   22.8738 C   0  0  0  0  0  0
  -24.1495  -36.7297   23.2643 C   0  0  0  0  0  0
  -25.9306  -30.8354   21.3820 C   0  0  0  0  0  0
  -26.0061  -29.4731   20.7286 C   0  0  0  0  0  0
  -27.1986  -28.7127   20.7478 C   0  0  0  0  0  0
  -26.0728  -26.9542   19.5104 C   0  0  0  0  0  0
  -24.8863  -27.7058   19.5010 C   0  0  0  0  0  0
  -23.6198  -29.8361   20.1583 C   0  0  0  0  0  0
  -25.4119  -36.3092   24.0326 C   0  0  1  0  0  0
  -20.5842  -28.3636   23.1272 C   0  0  2  0  0  0
  -20.6584  -26.9419   22.5358 C   0  0  0  0  0  0
  -19.5435  -26.6650   21.5225 C   0  0  0  0  0  0
  -18.1806  -26.7841   22.2108 C   0  0  0  0  0  0
  -19.1502  -28.8912   23.2853 C   0  0  0  0  0  0
  -18.9539  -30.1600   23.8671 C   0  0  0  0  0  0
  -17.6586  -30.6807   24.0398 C   0  0  0  0  0  0
  -25.9022  -34.9431   23.5145 C   0  0  0  0  0  0
  -16.5364  -29.9242   23.6499 C   0  0  0  0  0  0
  -16.7206  -28.6530   23.0729 C   0  0  0  0  0  0
  -26.4438  -31.6574   25.0812 C   0  0  0  0  0  0
  -25.3733  -31.3691   26.1589 C   0  0  0  0  0  0
  -27.0294  -30.3000   24.6215 C   0  0  0  0  0  0
  -27.5988  -32.4318   25.7571 C   0  0  0  0  0  0
  -27.5583  -37.1809   24.8465 C   0  0  0  0  0  0
  -21.4135  -29.2922   22.3625 N   0  0  0  0  0  0
  -26.4317  -37.3766   23.9375 N   0  0  0  0  0  0
  -24.6643  -31.0832   22.1052 N   0  0  0  0  0  0
  -23.4156  -28.8267   23.3073 O   0  0  0  0  0  0
  -28.4263  -26.7120   20.2264 O   0  0  0  0  0  0
  -26.5584  -34.8868   22.4718 O   0  0  0  0  0  0
  -23.5258  -32.1463   23.7533 O   0  0  0  0  0  0
  -29.1714  -18.8005   22.2883 C   0  0  0  0  0  0
  -29.6947  -18.7924   19.9113 C   0  0  0  0  0  0
  -29.2809  -17.3989   22.3151 C   0  0  0  0  0  0
  -29.8328  -17.3891   19.9448 C   0  0  0  0  0  0
  -29.3851  -19.5109   21.0853 C   0  0  0  0  0  0
  -29.6699  -16.6885   21.1632 C   0  0  0  0  0  0
  -27.0575  -22.2941   20.4825 C   0  0  0  0  0  0
  -28.8913  -24.6407   21.5663 C   0  0  0  0  0  0
  -27.3792  -22.0625   23.8167 C   0  0  0  0  0  0
  -26.2201  -22.4417   22.9269 C   0  0  0  0  0  0
  -28.4118  -23.1882   23.5900 C   0  0  0  0  0  0
  -26.8765  -23.1707   21.7472 C   0  0  1  0  0  0
  -29.2628  -21.0280   21.0258 C   0  0  0  0  0  0
  -28.3736  -25.2673   20.2344 C   0  0  0  0  0  0
  -28.1197  -23.7543   22.2537 N   0  0  0  0  0  0
  -29.8320  -15.2880   21.2930 N   0  0  0  0  0  0
  -28.0857  -21.4494   20.2611 N   0  0  0  0  0  0
  -26.2466  -22.4648   19.5737 O   0  0  0  0  0  0
  -30.0248  -24.9346   21.9657 O   0  0  0  0  0  0
  -31.4817  -12.4997   19.0577 H   0  0  0  0  0  0
  -30.4494  -11.2693   19.7413 H   0  0  0  0  0  0
  -29.7318  -11.7877   17.3908 H   0  0  0  0  0  0
  -29.6396  -13.4886   17.7735 H   0  0  0  0  0  0
  -27.8493  -11.2730   18.8259 H   0  0  0  0  0  0
  -27.3511  -12.5829   17.7825 H   0  0  0  0  0  0
  -27.7458  -14.2198   19.6052 H   0  0  0  0  0  0
  -28.6866  -11.7670   21.1841 H   0  0  0  0  0  0
  -28.4452  -13.3112   21.9217 H   0  0  0  0  0  0
  -25.2656   -9.5717   22.4758 H   0  0  0  0  0  0
  -23.9980   -7.4602   22.7445 H   0  0  0  0  0  0
  -21.0802   -8.8639   19.8927 H   0  0  0  0  0  0
  -22.3563  -10.9586   19.6144 H   0  0  0  0  0  0
  -21.1924   -7.6108   23.9703 H   0  0  0  0  0  0
  -21.1562   -6.0518   25.9110 H   0  0  0  0  0  0
  -22.0563   -2.7570   23.2866 H   0  0  0  0  0  0
  -22.4021  -11.9901   22.4811 H   0  0  0  0  0  0
  -21.1112  -13.1292   22.2545 H   0  0  0  0  0  0
  -24.7045  -15.8544   20.5556 H   0  0  0  0  0  0
  -26.3160  -15.5987   20.1156 H   0  0  0  0  0  0
  -26.7062  -32.5508   23.1272 H   0  0  0  0  0  0
  -25.0143  -33.9829   25.0584 H   0  0  0  0  0  0
  -22.6931  -31.3160   21.4131 H   0  0  0  0  0  0
  -23.3740  -35.9658   23.3328 H   0  0  0  0  0  0
  -24.3585  -36.8891   22.2062 H   0  0  0  0  0  0
  -23.7279  -37.6509   23.6655 H   0  0  0  0  0  0
  -26.0751  -31.6130   20.6289 H   0  0  0  0  0  0
  -26.8022  -30.8644   22.0219 H   0  0  0  0  0  0
  -28.0781  -29.1012   21.2433 H   0  0  0  0  0  0
  -26.0471  -26.0089   18.9908 H   0  0  0  0  0  0
  -24.0085  -27.3042   19.0152 H   0  0  0  0  0  0
  -23.7349  -30.6163   19.4059 H   0  0  0  0  0  0
  -22.7445  -29.2562   19.8526 H   0  0  0  0  0  0
  -25.1309  -36.1990   25.0821 H   0  0  0  0  0  0
  -20.9876  -28.3205   24.1406 H   0  0  0  0  0  0
  -20.5479  -26.2258   23.3513 H   0  0  0  0  0  0
  -21.6315  -26.7257   22.0978 H   0  0  0  0  0  0
  -19.6660  -25.6778   21.0776 H   0  0  0  0  0  0
  -19.6040  -27.3828   20.7055 H   0  0  0  0  0  0
  -17.3715  -26.6121   21.5031 H   0  0  0  0  0  0
  -18.0813  -26.0197   22.9771 H   0  0  0  0  0  0
  -19.8053  -30.7480   24.1759 H   0  0  0  0  0  0
  -17.5385  -31.6640   24.4724 H   0  0  0  0  0  0
  -15.5431  -30.3245   23.7960 H   0  0  0  0  0  0
  -15.8606  -28.0716   22.7758 H   0  0  0  0  0  0
  -24.5870  -30.7048   25.7970 H   0  0  0  0  0  0
  -24.8970  -32.2852   26.5083 H   0  0  0  0  0  0
  -25.8129  -30.8864   27.0330 H   0  0  0  0  0  0
  -26.2872  -29.6739   24.1232 H   0  0  0  0  0  0
  -27.4004  -29.7235   25.4699 H   0  0  0  0  0  0
  -27.8737  -30.4280   23.9437 H   0  0  0  0  0  0
  -27.2550  -33.3575   26.2212 H   0  0  0  0  0  0
  -28.3781  -32.6955   25.0401 H   0  0  0  0  0  0
  -28.0690  -31.8432   26.5465 H   0  0  0  0  0  0
  -28.2608  -38.0093   24.7480 H   0  0  0  0  0  0
  -28.1065  -36.2615   24.6347 H   0  0  0  0  0  0
  -27.2279  -37.1525   25.8862 H   0  0  0  0  0  0
  -20.9284  -29.8418   21.6661 H   0  0  0  0  0  0
  -26.0194  -38.2845   24.1361 H   0  0  0  0  0  0
  -28.9253  -19.3071   23.2081 H   0  0  0  0  0  0
  -29.8362  -19.3247   18.9812 H   0  0  0  0  0  0
  -29.0990  -16.8681   23.2427 H   0  0  0  0  0  0
  -30.0612  -16.8772   19.0239 H   0  0  0  0  0  0
  -27.7496  -21.1075   23.4537 H   0  0  0  0  0  0
  -27.1164  -21.9022   24.8616 H   0  0  0  0  0  0
  -25.5675  -23.1240   23.4713 H   0  0  0  0  0  0
  -25.5945  -21.5966   22.6361 H   0  0  0  0  0  0
  -29.4284  -22.8166   23.7328 H   0  0  0  0  0  0
  -28.2648  -23.9720   24.3338 H   0  0  0  0  0  0
  -26.1992  -23.9942   21.5078 H   0  0  0  0  0  0
  -30.1367  -21.4107   20.4939 H   0  0  0  0  0  0
  -29.3637  -21.4324   22.0242 H   0  0  0  0  0  0
  -27.3934  -24.8825   20.0030 H   0  0  0  0  0  0
  -28.9806  -24.9053   19.4019 H   0  0  0  0  0  0
  -29.1495  -14.8227   21.8732 H   0  0  0  0  0  0
  -28.0386  -21.0122   19.3514 H   0  0  0  0  0  0
  1 25  1  0  0  0
  1 30  2  0  0  0
  1 86  1  0  0  0
  2  3  1  0  0  0
  2 25  1  0  0  0
  2 90  1  0  0  0
  2 91  1  0  0  0
  3  4  1  0  0  0
  3 92  1  0  0  0
  3 93  1  0  0  0
  4  5  1  0  0  0
  4 94  1  0  0  0
  4 95  1  0  0  0
  5  6  1  0  0  0
  5 26  1  0  0  0
  5 96  1  0  0  0
  6 25  1  0  0  0
  6 97  1  0  0  0
  6 98  1  0  0  0
  7  8  2  0  0  0
  7 26  1  0  0  0
  7 29  1  0  0  0
  8  9  1  0  0  0
  8 22  1  0  0  0
  9 10  1  0  0  0
  9 27  2  0  0  0
 10 11  2  0  0  0
 10 15  1  0  0  0
 11 12  1  0  0  0
 11 99  1  0  0  0
 12 13  2  0  0  0
 12100  1  0  0  0
 13 14  1  0  0  0
 13 31  1  0  0  0
 14 15  2  0  0  0
 14101  1  0  0  0
 15102  1  0  0  0
 16 17  2  0  0  0
 16 21  1  0  0  0
 16 31  1  0  0  0
 17 18  1  0  0  0
 17103  1  0  0  0
 18 19  2  0  0  0
 18104  1  0  0  0
 19 20  1  0  0  0
 19 24  1  0  0  0
 20 21  2  0  0  0
 20105  1  0  0  0
 21 23  1  0  0  0
 22 28  1  0  0  0
 22 32  2  0  0  0
 26 27  1  0  0  0
 28106  1  0  0  0
 28107  1  0  0  0
 29108  1  0  0  0
 29109  1  0  0  0
 33 34  1  0  0  0
 33 66  1  0  0  0
 33 70  2  0  0  0
 34 36  1  0  0  0
 34 59  1  0  0  0
 34110  1  0  0  0
 35 44  2  0  0  0
 35 45  1  0  0  0
 35 68  1  0  0  0
 36 56  1  0  0  0
 36111  1  0  0  0
 37 39  1  0  0  0
 37 47  1  0  0  0
 37 66  1  0  0  0
 37112  1  0  0  0
 38 43  2  0  0  0
 38 46  1  0  0  0
 38 47  1  0  0  0
 39 64  1  0  0  0
 39 67  2  0  0  0
 40 52  1  0  0  0
 40 53  2  0  0  0
 40 58  1  0  0  0
 41113  1  0  0  0
 41114  1  0  0  0
 41115  1  0  0  0
 41 48  1  0  0  0
 42 43  1  0  0  0
 42 66  1  0  0  0
 42116  1  0  0  0
 42117  1  0  0  0
 43 44  1  0  0  0
 44118  1  0  0  0
 45 46  2  0  0  0
 45119  1  0  0  0
 46120  1  0  0  0
 47121  1  0  0  0
 47122  1  0  0  0
 48 56  1  0  0  0
 48 65  1  0  0  0
 48123  1  0  0  0
 49 50  1  0  0  0
 49 53  1  0  0  0
 49 64  1  0  0  0
 49124  1  0  0  0
 50 51  1  0  0  0
 50125  1  0  0  0
 50126  1  0  0  0
 51 52  1  0  0  0
 51127  1  0  0  0
 51128  1  0  0  0
 52129  1  0  0  0
 52130  1  0  0  0
 53 54  1  0  0  0
 54 55  2  0  0  0
 54131  1  0  0  0
 55 57  1  0  0  0
 55132  1  0  0  0
 56 69  2  0  0  0
 57 58  2  0  0  0
 57133  1  0  0  0
 58134  1  0  0  0
 59 60  1  0  0  0
 59 61  1  0  0  0
 59 62  1  0  0  0
 60135  1  0  0  0
 60136  1  0  0  0
 60137  1  0  0  0
 61138  1  0  0  0
 61139  1  0  0  0
 61140  1  0  0  0
 62141  1  0  0  0
 62142  1  0  0  0
 62143  1  0  0  0
 63 65  1  0  0  0
 63144  1  0  0  0
 63145  1  0  0  0
 63146  1  0  0  0
 64147  1  0  0  0
 65148  1  0  0  0
 68 84  1  0  0  0
 71 73  2  0  0  0
 71 75  1  0  0  0
 71149  1  0  0  0
 72 74  1  0  0  0
 72 75  2  0  0  0
 72150  1  0  0  0
 73 76  1  0  0  0
 73151  1  0  0  0
 74 76  2  0  0  0
 74152  1  0  0  0
 75 83  1  0  0  0
 76 86  1  0  0  0
 77 87  1  0  0  0
 77 88  2  0  0  0
 77 82  1  0  0  0
 78 84  1  0  0  0
 78 85  1  0  0  0
 78 89  2  0  0  0
 79 80  1  0  0  0
 79 81  1  0  0  0
 79153  1  0  0  0
 79154  1  0  0  0
 80 82  1  0  0  0
 80155  1  0  0  0
 80156  1  0  0  0
 81 85  1  0  0  0
 81157  1  0  0  0
 81158  1  0  0  0
 82 85  1  0  0  0
 82159  1  0  0  0
 83 87  1  0  0  0
 83160  1  0  0  0
 83161  1  0  0  0
 84162  1  0  0  0
 84163  1  0  0  0
 86164  1  0  0  0
 87165  1  0  0  0
M  ISO  4   1 100  68 101  84 101  86 100
M  END
> <chiral flag>
0

> <version>
0

> <s_m_source_file>
/data/baiqing/PycharmProjects/Reinvent-master-3.2/result/LINK_invent/BTK/process_docking_weight1_custom_product_contain_oxygen_bond_distance_aromatic_linkinvent_7_9_3/rearranged_h_0003.sdf

> <i_m_source_file_index>
9

> <r_mmod_Potential_Energy-OPLS-2005>
-32.7047576904297

> <r_mmod_Stretch_Energy-OPLS-2005>
42.2891235351562

> <r_mmod_Bend_Energy-OPLS-2005>
159.463790893555

> <r_mmod_Torsional_Energy-OPLS-2005>
259.016845703125

> <r_mmod_Improper_Torsional_Energy-OPLS-2005>
3.98363471031189

> <r_mmod_Van_der_Waal_Energy-OPLS-2005>
165.337951660156

> <r_mmod_Electrostatic_Energy-OPLS-2005>
-435.664093017578

> <r_mmod_Solvation_Energy-OPLS-2005>
-249.080184936523

> <b_mmod_Minimization_Converged-OPLS-2005>
0

> <r_mmod_RMS_Derivative-OPLS-2005>
10.8611125946045

$$$$
9
                    3D
 Structure written by MMmdl.
169178  0  0  1  0            999 V2000
  -30.7234  -14.4245   20.5099 C   0  0  0  0  0  0
  -30.4224  -12.2388   19.4407 C   0  0  0  0  0  0
  -29.4903  -12.3742   18.2169 C   0  0  0  0  0  0
  -28.0062  -12.3073   18.6356 C   0  0  0  0  0  0
  -27.6608  -13.1816   19.8711 C   0  0  2  0  0  0
  -28.7074  -13.0098   20.9959 C   0  0  0  0  0  0
  -25.2636  -13.8115   20.5728 C   0  0  0  0  0  0
  -24.1850  -13.0437   20.9173 C   0  0  0  0  0  0
  -24.6358  -11.6892   20.8778 C   0  0  0  0  0  0
  -23.9036  -10.4280   21.0426 C   0  0  0  0  0  0
  -24.3589   -9.4192   21.9205 C   0  0  0  0  0  0
  -23.6276   -8.2226   22.0754 C   0  0  0  0  0  0
  -22.4266   -8.0263   21.3538 C   0  0  0  0  0  0
  -21.9892   -9.0242   20.4640 C   0  0  0  0  0  0
  -22.7206  -10.2128   20.3067 C   0  0  0  0  0  0
  -21.6843   -6.0728   22.5273 C   0  0  0  0  0  0
  -21.4017   -6.5635   23.8204 C   0  0  0  0  0  0
  -21.3654   -5.6787   24.9166 C   0  0  0  0  0  0
  -21.6051   -4.3053   24.7223 C   0  0  0  0  0  0
  -21.8820   -3.8138   23.4344 C   0  0  0  0  0  0
  -21.9199   -4.6958   22.3396 C   0  0  0  0  0  0
  -22.7871  -13.5247   21.1852 C   0  0  0  0  0  0
  -22.1664   -4.2142   21.0978 F   0  0  0  0  0  0
  -21.5625   -3.4536   25.7737 F   0  0  0  0  0  0
  -30.0357  -13.2607   20.4198 N   0  0  0  0  0  0
  -26.3037  -12.9227   20.3427 N   0  0  0  0  0  0
  -25.9279  -11.6428   20.5873 N   0  0  0  0  0  0
  -22.0531  -12.8240   22.0402 N   0  0  0  0  0  0
  -25.4447  -15.1826   20.4131 N   0  0  0  0  0  0
  -31.9269  -14.5336   20.2529 O   0  0  0  0  0  0
  -21.6632   -6.8870   21.4231 O   0  0  0  0  0  0
  -22.3565  -14.5573   20.6705 O   0  0  0  0  0  0
  -24.6109  -31.8782   23.2180 C   0  0  0  0  0  0
  -25.9040  -32.4862   23.8425 C   0  0  1  0  0  0
  -27.2122  -27.4607   20.0882 C   0  0  0  0  0  0
  -25.5957  -33.8648   24.2373 N   0  0  0  0  0  0
  -23.3926  -30.5057   21.5607 C   0  0  2  0  0  0
  -24.8266  -28.9802   20.1273 C   0  0  0  0  0  0
  -22.7394  -29.4737   22.5075 C   0  0  0  0  0  0
  -18.0253  -28.1423   22.8436 C   0  0  0  0  0  0
  -24.1495  -36.7322   23.2619 C   0  0  0  0  0  0
  -25.9209  -30.8508   21.3670 C   0  0  0  0  0  0
  -25.9919  -29.4870   20.7176 C   0  0  0  0  0  0
  -27.1869  -28.7334   20.6947 C   0  0  0  0  0  0
  -26.0197  -26.9721   19.5043 C   0  0  0  0  0  0
  -24.8323  -27.7167   19.5284 C   0  0  0  0  0  0
  -23.5918  -29.8469   20.1712 C   0  0  0  0  0  0
  -25.4125  -36.3126   24.0317 C   0  0  1  0  0  0
  -20.5836  -28.3715   23.1313 C   0  0  2  0  0  0
  -20.6806  -26.9484   22.5409 C   0  0  0  0  0  0
  -19.5802  -26.6437   21.5199 C   0  0  0  0  0  0
  -18.1957  -26.7955   22.1574 C   0  0  0  0  0  0
  -19.1507  -28.8888   23.2839 C   0  0  0  0  0  0
  -18.9436  -30.1479   23.8881 C   0  0  0  0  0  0
  -17.6455  -30.6626   24.0565 C   0  0  0  0  0  0
  -25.9066  -34.9496   23.5131 C   0  0  0  0  0  0
  -16.5333  -29.9150   23.6332 C   0  0  0  0  0  0
  -16.7247  -28.6567   23.0330 C   0  0  0  0  0  0
  -26.4485  -31.6595   25.0724 C   0  0  0  0  0  0
  -25.3740  -31.3702   26.1458 C   0  0  0  0  0  0
  -27.0319  -30.3031   24.6106 C   0  0  0  0  0  0
  -27.6076  -32.4294   25.7483 C   0  0  0  0  0  0
  -27.5590  -37.1816   24.8459 C   0  0  0  0  0  0
  -21.4135  -29.3082   22.3780 N   0  0  0  0  0  0
  -26.4309  -37.3810   23.9383 N   0  0  0  0  0  0
  -24.6599  -31.0923   22.1077 N   0  0  0  0  0  0
  -23.4163  -28.8271   23.3103 O   0  0  0  0  0  0
  -28.4040  -26.7668   20.0583 O   0  0  0  0  0  0
  -26.5591  -34.8957   22.4674 O   0  0  0  0  0  0
  -23.5317  -32.1545   23.7633 O   0  0  0  0  0  0
  -27.6489  -19.4978   17.8630 C   0  0  0  0  0  0
  -26.6881  -19.5425   20.1049 C   0  0  0  0  0  0
  -26.7265  -20.4573   17.4327 C   0  0  0  0  0  0
  -25.7686  -20.5202   19.6796 C   0  0  0  0  0  0
  -27.6535  -19.0460   19.2011 C   0  0  0  0  0  0
  -25.8219  -21.0095   18.3546 C   0  0  0  0  0  0
  -28.7801  -17.5956   21.0909 C   0  0  0  0  0  0
  -28.7396  -16.8470   18.6898 C   0  0  0  0  0  0
  -29.9418  -16.5909   21.3376 C   0  0  0  0  0  0
  -29.9965  -16.0466   18.9790 C   0  0  0  0  0  0
  -28.7443  -18.0685   19.6117 C   0  0  0  0  0  0
  -25.0839  -22.2733   17.9693 C   0  0  0  0  0  0
  -28.0108  -24.5878   18.9639 C   0  0  0  0  0  0
  -26.7951  -23.6507   19.1520 C   0  0  0  0  0  0
  -28.3521  -25.3568   20.2573 C   0  0  0  0  0  0
  -29.9398  -15.5065   20.3425 N   0  0  0  0  0  0
  -26.0607  -23.3799   17.8896 N   0  3  0  0  0  0
  -31.4649  -12.3278   19.1302 H   0  0  0  0  0  0
  -30.3276  -11.2476   19.8895 H   0  0  0  0  0  0
  -29.6972  -11.5641   17.5158 H   0  0  0  0  0  0
  -29.6823  -13.2892   17.6646 H   0  0  0  0  0  0
  -27.7889  -11.2607   18.8613 H   0  0  0  0  0  0
  -27.3622  -12.5721   17.7958 H   0  0  0  0  0  0
  -27.6934  -14.2131   19.5388 H   0  0  0  0  0  0
  -28.6687  -12.0030   21.4121 H   0  0  0  0  0  0
  -28.5021  -13.6913   21.8226 H   0  0  0  0  0  0
  -25.2736   -9.5672   22.4772 H   0  0  0  0  0  0
  -23.9990   -7.4613   22.7456 H   0  0  0  0  0  0
  -21.0831   -8.8753   19.8932 H   0  0  0  0  0  0
  -22.3671  -10.9673   19.6167 H   0  0  0  0  0  0
  -21.2010   -7.6144   23.9707 H   0  0  0  0  0  0
  -21.1474   -6.0520   25.9074 H   0  0  0  0  0  0
  -22.0612   -2.7606   23.2845 H   0  0  0  0  0  0
  -22.4146  -11.9860   22.4724 H   0  0  0  0  0  0
  -21.1158  -13.1269   22.2660 H   0  0  0  0  0  0
  -24.6921  -15.8517   20.5356 H   0  0  0  0  0  0
  -26.3190  -15.6132   20.1412 H   0  0  0  0  0  0
  -26.7116  -32.5536   23.1173 H   0  0  0  0  0  0
  -25.0069  -33.9788   25.0501 H   0  0  0  0  0  0
  -22.6754  -31.3203   21.4338 H   0  0  0  0  0  0
  -23.3749  -35.9650   23.3309 H   0  0  0  0  0  0
  -24.3586  -36.8928   22.2021 H   0  0  0  0  0  0
  -23.7274  -37.6546   23.6633 H   0  0  0  0  0  0
  -26.0347  -31.6192   20.5998 H   0  0  0  0  0  0
  -26.8095  -30.8876   21.9865 H   0  0  0  0  0  0
  -28.0867  -29.1309   21.1401 H   0  0  0  0  0  0
  -25.9557  -26.0430   18.9824 H   0  0  0  0  0  0
  -23.9366  -27.3261   19.0629 H   0  0  0  0  0  0
  -23.7014  -30.6259   19.4157 H   0  0  0  0  0  0
  -22.7111  -29.2740   19.8694 H   0  0  0  0  0  0
  -25.1313  -36.1961   25.0810 H   0  0  0  0  0  0
  -20.9831  -28.3303   24.1453 H   0  0  0  0  0  0
  -20.5787  -26.2347   23.3592 H   0  0  0  0  0  0
  -21.6684  -26.7645   22.1173 H   0  0  0  0  0  0
  -19.7017  -25.6351   21.1258 H   0  0  0  0  0  0
  -19.6742  -27.3223   20.6710 H   0  0  0  0  0  0
  -17.4246  -26.6623   21.3971 H   0  0  0  0  0  0
  -18.0369  -26.0120   22.8993 H   0  0  0  0  0  0
  -19.7924  -30.7270   24.2276 H   0  0  0  0  0  0
  -17.5036  -31.6288   24.5195 H   0  0  0  0  0  0
  -15.5351  -30.3065   23.7721 H   0  0  0  0  0  0
  -15.8607  -28.0917   22.7085 H   0  0  0  0  0  0
  -24.5896  -30.7095   25.7780 H   0  0  0  0  0  0
  -24.8941  -32.2851   26.4914 H   0  0  0  0  0  0
  -25.8037  -30.8838   27.0208 H   0  0  0  0  0  0
  -26.2879  -29.6774   24.1171 H   0  0  0  0  0  0
  -27.4110  -29.7288   25.4566 H   0  0  0  0  0  0
  -27.8706  -30.4357   23.9272 H   0  0  0  0  0  0
  -27.2710  -33.3568   26.2111 H   0  0  0  0  0  0
  -28.3835  -32.6879   25.0275 H   0  0  0  0  0  0
  -28.0787  -31.8371   26.5329 H   0  0  0  0  0  0
  -28.2626  -38.0109   24.7525 H   0  0  0  0  0  0
  -28.1078  -36.2630   24.6271 H   0  0  0  0  0  0
  -27.2295  -37.1478   25.8867 H   0  0  0  0  0  0
  -20.9392  -29.8670   21.6839 H   0  0  0  0  0  0
  -26.0195  -38.2880   24.1376 H   0  0  0  0  0  0
  -28.3869  -19.1467   17.1552 H   0  0  0  0  0  0
  -26.6774  -19.2283   21.1400 H   0  0  0  0  0  0
  -26.7855  -20.8264   16.4176 H   0  0  0  0  0  0
  -25.0866  -20.9592   20.3969 H   0  0  0  0  0  0
  -28.9043  -18.4539   21.7546 H   0  0  0  0  0  0
  -27.8309  -17.1281   21.3606 H   0  0  0  0  0  0
  -27.8310  -16.2663   18.8411 H   0  0  0  0  0  0
  -28.7588  -17.1117   17.6346 H   0  0  0  0  0  0
  -29.8697  -16.1839   22.3458 H   0  0  0  0  0  0
  -30.9002  -17.1118   21.2907 H   0  0  0  0  0  0
  -30.8857  -16.6727   18.8631 H   0  0  0  0  0  0
  -30.0943  -15.2697   18.2245 H   0  0  0  0  0  0
  -29.6747  -18.6129   19.4373 H   0  0  0  0  0  0
  -24.2908  -22.5039   18.6865 H   0  0  0  0  0  0
  -24.6096  -22.1306   16.9977 H   0  0  0  0  0  0
  -27.8515  -25.2911   18.1439 H   0  0  0  0  0  0
  -28.8739  -23.9959   18.6580 H   0  0  0  0  0  0
  -26.0733  -24.0456   19.8666 H   0  0  0  0  0  0
  -27.1806  -22.7433   19.6119 H   0  0  0  0  0  0
  -27.6559  -25.1274   21.0611 H   0  0  0  0  0  0
  -29.3282  -25.0362   20.6277 H   0  0  0  0  0  0
  -25.5514  -24.2016   17.6119 H   0  0  0  0  0  0
  -26.7150  -23.1640   17.1548 H   0  0  0  0  0  0
  1 25  1  0  0  0
  1 30  2  0  0  0
  1 86  1  0  0  0
  2  3  1  0  0  0
  2 25  1  0  0  0
  2 88  1  0  0  0
  2 89  1  0  0  0
  3  4  1  0  0  0
  3 90  1  0  0  0
  3 91  1  0  0  0
  4  5  1  0  0  0
  4 92  1  0  0  0
  4 93  1  0  0  0
  5  6  1  0  0  0
  5 26  1  0  0  0
  5 94  1  0  0  0
  6 25  1  0  0  0
  6 95  1  0  0  0
  6 96  1  0  0  0
  7  8  2  0  0  0
  7 26  1  0  0  0
  7 29  1  0  0  0
  8  9  1  0  0  0
  8 22  1  0  0  0
  9 10  1  0  0  0
  9 27  2  0  0  0
 10 11  2  0  0  0
 10 15  1  0  0  0
 11 12  1  0  0  0
 11 97  1  0  0  0
 12 13  2  0  0  0
 12 98  1  0  0  0
 13 14  1  0  0  0
 13 31  1  0  0  0
 14 15  2  0  0  0
 14 99  1  0  0  0
 15100  1  0  0  0
 16 17  2  0  0  0
 16 21  1  0  0  0
 16 31  1  0  0  0
 17 18  1  0  0  0
 17101  1  0  0  0
 18 19  2  0  0  0
 18102  1  0  0  0
 19 20  1  0  0  0
 19 24  1  0  0  0
 20 21  2  0  0  0
 20103  1  0  0  0
 21 23  1  0  0  0
 22 28  1  0  0  0
 22 32  2  0  0  0
 26 27  1  0  0  0
 28104  1  0  0  0
 28105  1  0  0  0
 29106  1  0  0  0
 29107  1  0  0  0
 33 34  1  0  0  0
 33 66  1  0  0  0
 33 70  2  0  0  0
 34 36  1  0  0  0
 34 59  1  0  0  0
 34108  1  0  0  0
 35 44  2  0  0  0
 35 45  1  0  0  0
 35 68  1  0  0  0
 36 56  1  0  0  0
 36109  1  0  0  0
 37 39  1  0  0  0
 37 47  1  0  0  0
 37 66  1  0  0  0
 37110  1  0  0  0
 38 43  2  0  0  0
 38 46  1  0  0  0
 38 47  1  0  0  0
 39 64  1  0  0  0
 39 67  2  0  0  0
 40 52  1  0  0  0
 40 53  2  0  0  0
 40 58  1  0  0  0
 41111  1  0  0  0
 41112  1  0  0  0
 41113  1  0  0  0
 41 48  1  0  0  0
 42 43  1  0  0  0
 42 66  1  0  0  0
 42114  1  0  0  0
 42115  1  0  0  0
 43 44  1  0  0  0
 44116  1  0  0  0
 45 46  2  0  0  0
 45117  1  0  0  0
 46118  1  0  0  0
 47119  1  0  0  0
 47120  1  0  0  0
 48 56  1  0  0  0
 48 65  1  0  0  0
 48121  1  0  0  0
 49 50  1  0  0  0
 49 53  1  0  0  0
 49 64  1  0  0  0
 49122  1  0  0  0
 50 51  1  0  0  0
 50123  1  0  0  0
 50124  1  0  0  0
 51 52  1  0  0  0
 51125  1  0  0  0
 51126  1  0  0  0
 52127  1  0  0  0
 52128  1  0  0  0
 53 54  1  0  0  0
 54 55  2  0  0  0
 54129  1  0  0  0
 55 57  1  0  0  0
 55130  1  0  0  0
 56 69  2  0  0  0
 57 58  2  0  0  0
 57131  1  0  0  0
 58132  1  0  0  0
 59 60  1  0  0  0
 59 61  1  0  0  0
 59 62  1  0  0  0
 60133  1  0  0  0
 60134  1  0  0  0
 60135  1  0  0  0
 61136  1  0  0  0
 61137  1  0  0  0
 61138  1  0  0  0
 62139  1  0  0  0
 62140  1  0  0  0
 62141  1  0  0  0
 63 65  1  0  0  0
 63142  1  0  0  0
 63143  1  0  0  0
 63144  1  0  0  0
 64145  1  0  0  0
 65146  1  0  0  0
 68 85  1  0  0  0
 71 73  2  0  0  0
 71 75  1  0  0  0
 71147  1  0  0  0
 72 74  1  0  0  0
 72 75  2  0  0  0
 72148  1  0  0  0
 73 76  1  0  0  0
 73149  1  0  0  0
 74 76  2  0  0  0
 74150  1  0  0  0
 75 81  1  0  0  0
 76 82  1  0  0  0
 77 79  1  0  0  0
 77 81  1  0  0  0
 77151  1  0  0  0
 77152  1  0  0  0
 78 80  1  0  0  0
 78 81  1  0  0  0
 78153  1  0  0  0
 78154  1  0  0  0
 79 86  1  0  0  0
 79155  1  0  0  0
 79156  1  0  0  0
 80 86  1  0  0  0
 80157  1  0  0  0
 80158  1  0  0  0
 81159  1  0  0  0
 82 87  1  0  0  0
 82160  1  0  0  0
 82161  1  0  0  0
 83 84  1  0  0  0
 83 85  1  0  0  0
 83162  1  0  0  0
 83163  1  0  0  0
 84 87  1  0  0  0
 84164  1  0  0  0
 84165  1  0  0  0
 85166  1  0  0  0
 85167  1  0  0  0
 87168  1  0  0  0
 87169  1  0  0  0
M  CHG  1  87   1
M  ISO  4   1 100  68 101  85 101  86 100
M  END
> <chiral flag>
0

> <version>
0

> <s_m_source_file>
/data/baiqing/PycharmProjects/Reinvent-master-3.2/result/LINK_invent/BTK/process_docking_weight1_custom_product_contain_oxygen_bond_distance_aromatic_linkinvent_7_9_3/rearranged_h_0003.sdf

> <i_m_source_file_index>
10

> <r_mmod_Potential_Energy-OPLS-2005>
37.6296272277832

> <r_mmod_Stretch_Energy-OPLS-2005>
33.8997764587402

> <r_mmod_Bend_Energy-OPLS-2005>
110.853561401367

> <r_mmod_Torsional_Energy-OPLS-2005>
348.036315917969

> <r_mmod_Improper_Torsional_Energy-OPLS-2005>
22.9168758392334

> <r_mmod_Van_der_Waal_Energy-OPLS-2005>
173.679916381836

> <r_mmod_Electrostatic_Energy-OPLS-2005>
-221.598892211914

> <r_mmod_Solvation_Energy-OPLS-2005>
-453.249603271484

> <b_mmod_Minimization_Converged-OPLS-2005>
0

> <r_mmod_RMS_Derivative-OPLS-2005>
5.10623073577881

$$$$
10
                    3D
 Structure written by MMmdl.
189198  0  0  1  0            999 V2000
  -30.7902  -14.3288   20.6924 C   0  0  0  0  0  0
  -30.4082  -12.2730   19.3927 C   0  0  0  0  0  0
  -29.4824  -12.5246   18.1891 C   0  0  0  0  0  0
  -28.0056  -12.3866   18.6048 C   0  0  0  0  0  0
  -27.6659  -13.2035   19.8795 C   0  0  2  0  0  0
  -28.7025  -12.9447   20.9958 C   0  0  0  0  0  0
  -25.2587  -13.8164   20.5657 C   0  0  0  0  0  0
  -24.1832  -13.0455   20.9160 C   0  0  0  0  0  0
  -24.6373  -11.6915   20.8724 C   0  0  0  0  0  0
  -23.9039  -10.4307   21.0405 C   0  0  0  0  0  0
  -24.3592   -9.4229   21.9194 C   0  0  0  0  0  0
  -23.6274   -8.2259   22.0765 C   0  0  0  0  0  0
  -22.4263   -8.0282   21.3547 C   0  0  0  0  0  0
  -21.9896   -9.0253   20.4649 C   0  0  0  0  0  0
  -22.7207  -10.2145   20.3064 C   0  0  0  0  0  0
  -21.6849   -6.0730   22.5281 C   0  0  0  0  0  0
  -21.4012   -6.5632   23.8216 C   0  0  0  0  0  0
  -21.3661   -5.6784   24.9179 C   0  0  0  0  0  0
  -21.6045   -4.3046   24.7227 C   0  0  0  0  0  0
  -21.8812   -3.8136   23.4345 C   0  0  0  0  0  0
  -21.9188   -4.6956   22.3401 C   0  0  0  0  0  0
  -22.7861  -13.5267   21.1824 C   0  0  0  0  0  0
  -22.1651   -4.2148   21.0977 F   0  0  0  0  0  0
  -21.5632   -3.4536   25.7743 F   0  0  0  0  0  0
  -30.0487  -13.2183   20.4592 N   0  0  0  0  0  0
  -26.3035  -12.9335   20.3374 N   0  0  0  0  0  0
  -25.9300  -11.6494   20.5754 N   0  0  0  0  0  0
  -22.0464  -12.8295   22.0370 N   0  0  0  0  0  0
  -25.4326  -15.1887   20.4069 N   0  0  0  0  0  0
  -31.7999  -14.6168   20.0447 O   0  0  0  0  0  0
  -21.6634   -6.8869   21.4237 O   0  0  0  0  0  0
  -22.3583  -14.5583   20.6654 O   0  0  0  0  0  0
  -24.6066  -31.8713   23.2131 C   0  0  0  0  0  0
  -25.8987  -32.4858   23.8390 C   0  0  1  0  0  0
  -27.2610  -27.4978   20.0929 C   0  0  0  0  0  0
  -25.5857  -33.8650   24.2317 N   0  0  0  0  0  0
  -23.3927  -30.4910   21.5533 C   0  0  2  0  0  0
  -24.8434  -28.9600   20.1219 C   0  0  0  0  0  0
  -22.7381  -29.4648   22.5045 C   0  0  0  0  0  0
  -18.0271  -28.1365   22.8510 C   0  0  0  0  0  0
  -24.1493  -36.7332   23.2640 C   0  0  0  0  0  0
  -25.9099  -30.8609   21.3514 C   0  0  0  0  0  0
  -25.9952  -29.4955   20.7091 C   0  0  0  0  0  0
  -27.2050  -28.7778   20.6912 C   0  0  0  0  0  0
  -26.0943  -26.9685   19.5043 C   0  0  0  0  0  0
  -24.8841  -27.6901   19.5179 C   0  0  0  0  0  0
  -23.5974  -29.8138   20.1700 C   0  0  0  0  0  0
  -25.4110  -36.3123   24.0339 C   0  0  1  0  0  0
  -20.5861  -28.3634   23.1363 C   0  0  2  0  0  0
  -20.6760  -26.9380   22.5439 C   0  0  0  0  0  0
  -19.5747  -26.6382   21.5222 C   0  0  0  0  0  0
  -18.1919  -26.7924   22.1618 C   0  0  0  0  0  0
  -19.1521  -28.8813   23.2940 C   0  0  0  0  0  0
  -18.9450  -30.1435   23.8923 C   0  0  0  0  0  0
  -17.6449  -30.6576   24.0575 C   0  0  0  0  0  0
  -25.9035  -34.9495   23.5125 C   0  0  0  0  0  0
  -16.5344  -29.9080   23.6320 C   0  0  0  0  0  0
  -16.7262  -28.6499   23.0344 C   0  0  0  0  0  0
  -26.4443  -31.6667   25.0715 C   0  0  0  0  0  0
  -25.3717  -31.3920   26.1489 C   0  0  0  0  0  0
  -27.0222  -30.3081   24.6104 C   0  0  0  0  0  0
  -27.6058  -32.4371   25.7424 C   0  0  0  0  0  0
  -27.5593  -37.1813   24.8465 C   0  0  0  0  0  0
  -21.4117  -29.3009   22.3782 N   0  0  0  0  0  0
  -26.4301  -37.3809   23.9415 N   0  0  0  0  0  0
  -24.6548  -31.0868   22.0999 N   0  0  0  0  0  0
  -23.4185  -28.8167   23.3053 O   0  0  0  0  0  0
  -28.4053  -26.7382   20.0132 O   0  0  0  0  0  0
  -26.5600  -34.8946   22.4689 O   0  0  0  0  0  0
  -23.5282  -32.1405   23.7588 O   0  0  0  0  0  0
  -30.4890  -22.5919   22.4708 C   0  0  0  0  0  0
  -28.8234  -21.6720   20.9437 C   0  0  0  0  0  0
  -31.3984  -21.5888   22.0859 C   0  0  0  0  0  0
  -29.7436  -20.6829   20.5431 C   0  0  0  0  0  0
  -29.2033  -22.6412   21.8944 C   0  0  0  0  0  0
  -31.0409  -20.6414   21.1010 C   0  0  0  0  0  0
  -28.2668  -23.6901   22.2880 C   0  0  0  0  0  0
  -24.7012  -27.2720   28.5688 C   0  0  0  0  0  0
  -25.8415  -27.9811   27.8495 C   0  0  0  0  0  0
  -24.1866  -26.3130   27.4969 C   0  0  0  0  0  0
  -26.4359  -26.9067   26.9332 C   0  0  0  0  0  0
  -26.2822  -24.7116   24.7139 C   0  0  0  0  0  0
  -31.1162  -16.2445   22.2247 C   0  0  0  0  0  0
  -31.0414  -17.4211   21.2354 C   0  0  0  0  0  0
  -29.7765  -25.5599   21.5486 C   0  0  0  0  0  0
  -25.9935  -24.2248   23.2826 C   0  0  0  0  0  0
  -25.1126  -25.4965   25.3375 C   0  0  0  0  0  0
  -29.4432  -26.9366   20.9746 C   0  0  0  0  0  0
  -32.0087  -19.5468   20.6612 C   0  0  1  0  0  0
  -33.4640  -20.0284   20.4155 C   0  0  0  0  0  0
  -28.5681  -24.9867   22.1651 N   0  0  0  0  0  0
  -30.3958  -15.0795   21.7272 N   0  0  0  0  0  0
  -32.0141  -18.4344   21.6112 N   0  0  0  0  0  0
  -27.0724  -23.3492   22.7865 N   0  3  0  0  0  0
  -25.3846  -25.8747   26.7465 N   0  3  0  0  0  0
  -33.4817  -21.1021   19.6256 F   0  0  0  0  0  0
  -34.0977  -20.3112   21.5552 F   0  0  0  0  0  0
  -34.1369  -19.0485   19.8095 F   0  0  0  0  0  0
  -31.4532  -12.3587   19.0903 H   0  0  0  0  0  0
  -30.2911  -11.2506   19.7542 H   0  0  0  0  0  0
  -29.7144  -11.8244   17.3857 H   0  0  0  0  0  0
  -29.6614  -13.5215   17.7853 H   0  0  0  0  0  0
  -27.8063  -11.3285   18.7769 H   0  0  0  0  0  0
  -27.3546  -12.6871   17.7828 H   0  0  0  0  0  0
  -27.7247  -14.2580   19.6092 H   0  0  0  0  0  0
  -28.6580  -11.9047   21.3228 H   0  0  0  0  0  0
  -28.4540  -13.5341   21.8784 H   0  0  0  0  0  0
  -25.2731   -9.5719   22.4773 H   0  0  0  0  0  0
  -23.9987   -7.4663   22.7500 H   0  0  0  0  0  0
  -21.0829   -8.8758   19.8964 H   0  0  0  0  0  0
  -22.3649  -10.9679   19.6172 H   0  0  0  0  0  0
  -21.2011   -7.6141   23.9719 H   0  0  0  0  0  0
  -21.1481   -6.0515   25.9084 H   0  0  0  0  0  0
  -22.0587   -2.7600   23.2845 H   0  0  0  0  0  0
  -22.4030  -11.9964   22.4811 H   0  0  0  0  0  0
  -21.1079  -13.1365   22.2504 H   0  0  0  0  0  0
  -24.6730  -15.8496   20.5267 H   0  0  0  0  0  0
  -26.2944  -15.6266   20.1055 H   0  0  0  0  0  0
  -26.7073  -32.5610   23.1182 H   0  0  0  0  0  0
  -25.0023  -33.9832   25.0468 H   0  0  0  0  0  0
  -22.6764  -31.3031   21.4119 H   0  0  0  0  0  0
  -23.3765  -35.9653   23.3265 H   0  0  0  0  0  0
  -24.3603  -36.8992   22.2062 H   0  0  0  0  0  0
  -23.7234  -37.6517   23.6691 H   0  0  0  0  0  0
  -26.0002  -31.6246   20.5782 H   0  0  0  0  0  0
  -26.8050  -30.9292   21.9582 H   0  0  0  0  0  0
  -28.0854  -29.2410   21.1125 H   0  0  0  0  0  0
  -26.1281  -25.9955   19.0356 H   0  0  0  0  0  0
  -23.9995  -27.2692   19.0597 H   0  0  0  0  0  0
  -23.6890  -30.5820   19.4015 H   0  0  0  0  0  0
  -22.7264  -29.2193   19.8873 H   0  0  0  0  0  0
  -25.1286  -36.1982   25.0833 H   0  0  0  0  0  0
  -20.9962  -28.3193   24.1482 H   0  0  0  0  0  0
  -20.5669  -26.2230   23.3617 H   0  0  0  0  0  0
  -21.6638  -26.7420   22.1242 H   0  0  0  0  0  0
  -19.6910  -25.6300   21.1239 H   0  0  0  0  0  0
  -19.6704  -27.3205   20.6768 H   0  0  0  0  0  0
  -17.4203  -26.6709   21.4001 H   0  0  0  0  0  0
  -18.0285  -26.0039   22.8984 H   0  0  0  0  0  0
  -19.7918  -30.7262   24.2302 H   0  0  0  0  0  0
  -17.4993  -31.6259   24.5173 H   0  0  0  0  0  0
  -15.5349  -30.2994   23.7613 H   0  0  0  0  0  0
  -15.8668  -28.0836   22.7027 H   0  0  0  0  0  0
  -24.6186  -30.6790   25.8108 H   0  0  0  0  0  0
  -24.8514  -32.3043   26.4403 H   0  0  0  0  0  0
  -25.8188  -30.9862   27.0558 H   0  0  0  0  0  0
  -26.2693  -29.6787   24.1337 H   0  0  0  0  0  0
  -27.4175  -29.7424   25.4548 H   0  0  0  0  0  0
  -27.8463  -30.4373   23.9082 H   0  0  0  0  0  0
  -27.2728  -33.3709   26.1961 H   0  0  0  0  0  0
  -28.3863  -32.6850   25.0222 H   0  0  0  0  0  0
  -28.0710  -31.8509   26.5356 H   0  0  0  0  0  0
  -28.2576  -38.0145   24.7562 H   0  0  0  0  0  0
  -28.1129  -36.2678   24.6230 H   0  0  0  0  0  0
  -27.2316  -37.1394   25.8870 H   0  0  0  0  0  0
  -20.9253  -29.8748   21.7034 H   0  0  0  0  0  0
  -26.0185  -38.2880   24.1441 H   0  0  0  0  0  0
  -30.7776  -23.3155   23.2216 H   0  0  0  0  0  0
  -27.8349  -21.6960   20.5040 H   0  0  0  0  0  0
  -32.3686  -21.5581   22.5581 H   0  0  0  0  0  0
  -29.4465  -19.9508   19.8052 H   0  0  0  0  0  0
  -23.9326  -27.9571   28.9276 H   0  0  0  0  0  0
  -25.0827  -26.7132   29.4246 H   0  0  0  0  0  0
  -26.5750  -28.4222   28.5257 H   0  0  0  0  0  0
  -25.4282  -28.7784   27.2347 H   0  0  0  0  0  0
  -23.5075  -26.8489   26.8309 H   0  0  0  0  0  0
  -23.6407  -25.4671   27.9173 H   0  0  0  0  0  0
  -27.3049  -26.4400   27.3989 H   0  0  0  0  0  0
  -26.7708  -27.3459   25.9920 H   0  0  0  0  0  0
  -27.1754  -25.3366   24.7031 H   0  0  0  0  0  0
  -26.5203  -23.8524   25.3417 H   0  0  0  0  0  0
  -30.6931  -16.5363   23.1867 H   0  0  0  0  0  0
  -32.1524  -15.9572   22.4157 H   0  0  0  0  0  0
  -30.0328  -17.8372   21.2219 H   0  0  0  0  0  0
  -31.2644  -17.0849   20.2219 H   0  0  0  0  0  0
  -30.5728  -25.6398   22.2909 H   0  0  0  0  0  0
  -30.1460  -24.9182   20.7471 H   0  0  0  0  0  0
  -25.8416  -25.0690   22.6066 H   0  0  0  0  0  0
  -25.0627  -23.6553   23.2686 H   0  0  0  0  0  0
  -24.2170  -24.8728   25.3116 H   0  0  0  0  0  0
  -24.8855  -26.3874   24.7489 H   0  0  0  0  0  0
  -30.3140  -27.3718   20.4844 H   0  0  0  0  0  0
  -29.1821  -27.5869   21.8083 H   0  0  0  0  0  0
  -31.6630  -19.1937   19.6882 H   0  0  0  0  0  0
  -27.8646  -25.6666   22.3985 H   0  0  0  0  0  0
  -29.5782  -14.7758   22.2348 H   0  0  0  0  0  0
  -32.9582  -18.0600   21.5987 H   0  0  0  0  0  0
  -26.9239  -22.3526   22.8972 H   0  0  0  0  0  0
  -25.7137  -25.0462   27.2213 H   0  0  0  0  0  0
  1 25  1  0  0  0
  1 30  2  0  0  0
  1 92  1  0  0  0
  2  3  1  0  0  0
  2 25  1  0  0  0
  2 99  1  0  0  0
  2100  1  0  0  0
  3  4  1  0  0  0
  3101  1  0  0  0
  3102  1  0  0  0
  4  5  1  0  0  0
  4103  1  0  0  0
  4104  1  0  0  0
  5  6  1  0  0  0
  5 26  1  0  0  0
  5105  1  0  0  0
  6 25  1  0  0  0
  6106  1  0  0  0
  6107  1  0  0  0
  7  8  2  0  0  0
  7 26  1  0  0  0
  7 29  1  0  0  0
  8  9  1  0  0  0
  8 22  1  0  0  0
  9 10  1  0  0  0
  9 27  2  0  0  0
 10 11  2  0  0  0
 10 15  1  0  0  0
 11 12  1  0  0  0
 11108  1  0  0  0
 12 13  2  0  0  0
 12109  1  0  0  0
 13 14  1  0  0  0
 13 31  1  0  0  0
 14 15  2  0  0  0
 14110  1  0  0  0
 15111  1  0  0  0
 16 17  2  0  0  0
 16 21  1  0  0  0
 16 31  1  0  0  0
 17 18  1  0  0  0
 17112  1  0  0  0
 18 19  2  0  0  0
 18113  1  0  0  0
 19 20  1  0  0  0
 19 24  1  0  0  0
 20 21  2  0  0  0
 20114  1  0  0  0
 21 23  1  0  0  0
 22 28  1  0  0  0
 22 32  2  0  0  0
 26 27  1  0  0  0
 28115  1  0  0  0
 28116  1  0  0  0
 29117  1  0  0  0
 29118  1  0  0  0
 33 34  1  0  0  0
 33 66  1  0  0  0
 33 70  2  0  0  0
 34 36  1  0  0  0
 34 59  1  0  0  0
 34119  1  0  0  0
 35 44  2  0  0  0
 35 45  1  0  0  0
 35 68  1  0  0  0
 36 56  1  0  0  0
 36120  1  0  0  0
 37 39  1  0  0  0
 37 47  1  0  0  0
 37 66  1  0  0  0
 37121  1  0  0  0
 38 43  2  0  0  0
 38 46  1  0  0  0
 38 47  1  0  0  0
 39 64  1  0  0  0
 39 67  2  0  0  0
 40 52  1  0  0  0
 40 53  2  0  0  0
 40 58  1  0  0  0
 41122  1  0  0  0
 41123  1  0  0  0
 41124  1  0  0  0
 41 48  1  0  0  0
 42 43  1  0  0  0
 42 66  1  0  0  0
 42125  1  0  0  0
 42126  1  0  0  0
 43 44  1  0  0  0
 44127  1  0  0  0
 45 46  2  0  0  0
 45128  1  0  0  0
 46129  1  0  0  0
 47130  1  0  0  0
 47131  1  0  0  0
 48 56  1  0  0  0
 48 65  1  0  0  0
 48132  1  0  0  0
 49 50  1  0  0  0
 49 53  1  0  0  0
 49 64  1  0  0  0
 49133  1  0  0  0
 50 51  1  0  0  0
 50134  1  0  0  0
 50135  1  0  0  0
 51 52  1  0  0  0
 51136  1  0  0  0
 51137  1  0  0  0
 52138  1  0  0  0
 52139  1  0  0  0
 53 54  1  0  0  0
 54 55  2  0  0  0
 54140  1  0  0  0
 55 57  1  0  0  0
 55141  1  0  0  0
 56 69  2  0  0  0
 57 58  2  0  0  0
 57142  1  0  0  0
 58143  1  0  0  0
 59 60  1  0  0  0
 59 61  1  0  0  0
 59 62  1  0  0  0
 60144  1  0  0  0
 60145  1  0  0  0
 60146  1  0  0  0
 61147  1  0  0  0
 61148  1  0  0  0
 61149  1  0  0  0
 62150  1  0  0  0
 62151  1  0  0  0
 62152  1  0  0  0
 63 65  1  0  0  0
 63153  1  0  0  0
 63154  1  0  0  0
 63155  1  0  0  0
 64156  1  0  0  0
 65157  1  0  0  0
 68 88  1  0  0  0
 71 73  2  0  0  0
 71 75  1  0  0  0
 71158  1  0  0  0
 72 74  1  0  0  0
 72 75  2  0  0  0
 72159  1  0  0  0
 73 76  1  0  0  0
 73160  1  0  0  0
 74 76  2  0  0  0
 74161  1  0  0  0
 75 77  1  0  0  0
 76 89  1  0  0  0
 77 91  1  0  0  0
 77 94  2  0  0  0
 78 79  1  0  0  0
 78 80  1  0  0  0
 78162  1  0  0  0
 78163  1  0  0  0
 79 81  1  0  0  0
 79164  1  0  0  0
 79165  1  0  0  0
 80 95  1  0  0  0
 80166  1  0  0  0
 80167  1  0  0  0
 81 95  1  0  0  0
 81168  1  0  0  0
 81169  1  0  0  0
 82 86  1  0  0  0
 82 87  1  0  0  0
 82170  1  0  0  0
 82171  1  0  0  0
 83 84  1  0  0  0
 83 92  1  0  0  0
 83172  1  0  0  0
 83173  1  0  0  0
 84 93  1  0  0  0
 84174  1  0  0  0
 84175  1  0  0  0
 85 88  1  0  0  0
 85 91  1  0  0  0
 85176  1  0  0  0
 85177  1  0  0  0
 86 94  1  0  0  0
 86178  1  0  0  0
 86179  1  0  0  0
 87180  1  0  0  0
 87181  1  0  0  0
 87 95  1  0  0  0
 88182  1  0  0  0
 88183  1  0  0  0
 89 90  1  0  0  0
 89 93  1  0  0  0
 89184  1  0  0  0
 90 96  1  0  0  0
 90 97  1  0  0  0
 90 98  1  0  0  0
 91185  1  0  0  0
 92186  1  0  0  0
 93187  1  0  0  0
 94188  1  0  0  0
 95189  1  0  0  0
M  CHG  2  94   1  95   1
M  ISO  4   1 100  68 101  88 101  92 100
M  END
> <chiral flag>
0

> <version>
0

> <s_m_source_file>
/data/baiqing/PycharmProjects/Reinvent-master-3.2/result/LINK_invent/BTK/process_docking_weight1_custom_product_contain_oxygen_bond_distance_aromatic_linkinvent_7_9_3/rearranged_h_0003.sdf

> <i_m_source_file_index>
11

> <r_mmod_Potential_Energy-OPLS-2005>
-231.422378540039

> <r_mmod_Stretch_Energy-OPLS-2005>
32.9404754638672

> <r_mmod_Bend_Energy-OPLS-2005>
127.382385253906

> <r_mmod_Torsional_Energy-OPLS-2005>
298.551177978516

> <r_mmod_Improper_Torsional_Energy-OPLS-2005>
2.21563839912415

> <r_mmod_Van_der_Waal_Energy-OPLS-2005>
146.919921875

> <r_mmod_Electrostatic_Energy-OPLS-2005>
-39.1649360656738

> <r_mmod_Solvation_Energy-OPLS-2005>
-806.437316894531

> <b_mmod_Minimization_Converged-OPLS-2005>
0

> <r_mmod_RMS_Derivative-OPLS-2005>
1.70895767211914

$$$$
11
                    3D
 Structure written by MMmdl.
161171  0  0  1  0            999 V2000
  -30.7702  -14.5295   20.5330 C   0  0  0  0  0  0
  -30.3956  -12.3465   19.4388 C   0  0  0  0  0  0
  -29.4810  -12.5029   18.2093 C   0  0  0  0  0  0
  -28.0044  -12.3616   18.6232 C   0  0  0  0  0  0
  -27.6474  -13.2198   19.8663 C   0  0  2  0  0  0
  -28.6993  -13.0580   20.9868 C   0  0  0  0  0  0
  -25.2521  -13.8180   20.5703 C   0  0  0  0  0  0
  -24.1802  -13.0436   20.9209 C   0  0  0  0  0  0
  -24.6384  -11.6912   20.8769 C   0  0  0  0  0  0
  -23.9056  -10.4296   21.0425 C   0  0  0  0  0  0
  -24.3607   -9.4206   21.9197 C   0  0  0  0  0  0
  -23.6286   -8.2239   22.0755 C   0  0  0  0  0  0
  -22.4273   -8.0276   21.3540 C   0  0  0  0  0  0
  -21.9910   -9.0254   20.4647 C   0  0  0  0  0  0
  -22.7234  -10.2138   20.3066 C   0  0  0  0  0  0
  -21.6849   -6.0730   22.5280 C   0  0  0  0  0  0
  -21.4016   -6.5638   23.8213 C   0  0  0  0  0  0
  -21.3664   -5.6793   24.9175 C   0  0  0  0  0  0
  -21.6046   -4.3057   24.7229 C   0  0  0  0  0  0
  -21.8819   -3.8146   23.4352 C   0  0  0  0  0  0
  -21.9190   -4.6957   22.3404 C   0  0  0  0  0  0
  -22.7825  -13.5227   21.1858 C   0  0  0  0  0  0
  -22.1660   -4.2147   21.0981 F   0  0  0  0  0  0
  -21.5625   -3.4542   25.7740 F   0  0  0  0  0  0
  -30.0078  -13.3948   20.4103 N   0  0  0  0  0  0
  -26.2961  -12.9378   20.3382 N   0  0  0  0  0  0
  -25.9318  -11.6529   20.5822 N   0  0  0  0  0  0
  -22.0468  -12.8217   22.0415 N   0  0  0  0  0  0
  -25.4188  -15.1894   20.4047 N   0  0  0  0  0  0
  -31.9367  -14.5074   20.1316 O   0  0  0  0  0  0
  -21.6633   -6.8876   21.4242 O   0  0  0  0  0  0
  -22.3513  -14.5533   20.6699 O   0  0  0  0  0  0
  -24.6169  -31.8670   23.2063 C   0  0  0  0  0  0
  -25.9055  -32.4813   23.8362 C   0  0  1  0  0  0
  -27.2357  -27.4005   20.0950 C   0  0  0  0  0  0
  -25.5908  -33.8608   24.2309 N   0  0  0  0  0  0
  -23.4061  -30.4882   21.5493 C   0  0  2  0  0  0
  -24.8504  -28.9472   20.1148 C   0  0  0  0  0  0
  -22.7418  -29.4663   22.5001 C   0  0  0  0  0  0
  -18.0278  -28.1355   22.8466 C   0  0  0  0  0  0
  -24.1483  -36.7306   23.2637 C   0  0  0  0  0  0
  -25.9368  -30.8197   21.3633 C   0  0  0  0  0  0
  -26.0110  -29.4495   20.7140 C   0  0  0  0  0  0
  -27.2008  -28.6813   20.7052 C   0  0  0  0  0  0
  -26.0468  -26.9138   19.5048 C   0  0  0  0  0  0
  -24.8646  -27.6784   19.5095 C   0  0  0  0  0  0
  -23.6132  -29.8162   20.1652 C   0  0  0  0  0  0
  -25.4104  -36.3109   24.0341 C   0  0  1  0  0  0
  -20.5860  -28.3655   23.1262 C   0  0  2  0  0  0
  -20.6795  -26.9431   22.5257 C   0  0  0  0  0  0
  -19.5716  -26.6378   21.5123 C   0  0  0  0  0  0
  -18.1925  -26.7904   22.1599 C   0  0  0  0  0  0
  -19.1514  -28.8820   23.2873 C   0  0  0  0  0  0
  -18.9440  -30.1421   23.8892 C   0  0  0  0  0  0
  -17.6443  -30.6557   24.0564 C   0  0  0  0  0  0
  -25.9043  -34.9475   23.5123 C   0  0  0  0  0  0
  -16.5339  -29.9056   23.6314 C   0  0  0  0  0  0
  -16.7268  -28.6481   23.0321 C   0  0  0  0  0  0
  -26.4467  -31.6600   25.0706 C   0  0  0  0  0  0
  -25.3722  -31.3710   26.1449 C   0  0  0  0  0  0
  -27.0290  -30.3038   24.6094 C   0  0  0  0  0  0
  -27.6052  -32.4306   25.7476 C   0  0  0  0  0  0
  -27.5579  -37.1807   24.8471 C   0  0  0  0  0  0
  -21.4135  -29.3093   22.3762 N   0  0  0  0  0  0
  -26.4286  -37.3797   23.9418 N   0  0  0  0  0  0
  -24.6723  -31.0738   22.0980 N   0  0  0  0  0  0
  -23.4189  -28.8174   23.3026 O   0  0  0  0  0  0
  -28.4150  -26.6694   20.1276 O   0  0  0  0  0  0
  -26.5605  -34.8940   22.4690 O   0  0  0  0  0  0
  -23.5361  -32.1439   23.7455 O   0  0  0  0  0  0
  -28.7915  -21.6828   19.5617 C   0  0  0  0  0  0
  -29.0508  -22.6247   21.7769 C   0  0  0  0  0  0
  -28.6207  -22.9919   19.0411 C   0  0  0  0  0  0
  -28.8847  -23.9328   21.2558 C   0  0  0  0  0  0
  -29.0237  -21.4794   20.9403 C   0  0  0  0  0  0
  -28.6755  -24.1359   19.8741 C   0  0  0  0  0  0
  -30.7003  -19.5064   21.2329 C   0  0  0  0  0  0
  -28.3951  -18.8828   21.2041 C   0  0  0  0  0  0
  -31.0717  -16.9792   20.6393 C   0  0  0  0  0  0
  -28.9585  -16.2316   21.3957 C   0  0  0  0  0  0
  -29.3119  -20.0848   21.5447 C   0  0  2  0  0  0
  -30.6104  -18.0215   21.6604 C   0  0  2  0  0  0
  -29.1453  -17.6994   21.8764 C   0  0  1  0  0  0
  -28.6245  -25.5447   19.2428 C   0  0  0  0  0  0
  -30.2442  -15.7675   20.8338 N   0  0  0  0  0  0
  -31.4408  -12.3967   19.1290 H   0  0  0  0  0  0
  -30.2780  -11.3546   19.8794 H   0  0  0  0  0  0
  -29.7315  -11.7596   17.4510 H   0  0  0  0  0  0
  -29.6436  -13.4782   17.7479 H   0  0  0  0  0  0
  -27.8210  -11.3074   18.8329 H   0  0  0  0  0  0
  -27.3530  -12.6220   17.7883 H   0  0  0  0  0  0
  -27.6680  -14.2562   19.5323 H   0  0  0  0  0  0
  -28.7054  -12.0261   21.3424 H   0  0  0  0  0  0
  -28.4529  -13.6395   21.8678 H   0  0  0  0  0  0
  -25.2749   -9.5680   22.4773 H   0  0  0  0  0  0
  -23.9996   -7.4629   22.7470 H   0  0  0  0  0  0
  -21.0843   -8.8773   19.8948 H   0  0  0  0  0  0
  -22.3695  -10.9674   19.6177 H   0  0  0  0  0  0
  -21.2010   -7.6149   23.9718 H   0  0  0  0  0  0
  -21.1486   -6.0524   25.9079 H   0  0  0  0  0  0
  -22.0592   -2.7609   23.2852 H   0  0  0  0  0  0
  -22.4084  -11.9885   22.4806 H   0  0  0  0  0  0
  -21.1093  -13.1251   22.2630 H   0  0  0  0  0  0
  -24.6487  -15.8412   20.5064 H   0  0  0  0  0  0
  -26.2674  -15.6262   20.0709 H   0  0  0  0  0  0
  -26.7126  -32.5512   23.1121 H   0  0  0  0  0  0
  -25.0049  -33.9754   25.0450 H   0  0  0  0  0  0
  -22.6964  -31.3063   21.4080 H   0  0  0  0  0  0
  -23.3753  -35.9632   23.3303 H   0  0  0  0  0  0
  -24.3573  -36.8913   22.2052 H   0  0  0  0  0  0
  -23.7231  -37.6510   23.6641 H   0  0  0  0  0  0
  -26.0509  -31.5814   20.5901 H   0  0  0  0  0  0
  -26.8248  -30.8756   21.9819 H   0  0  0  0  0  0
  -28.0969  -29.0676   21.1712 H   0  0  0  0  0  0
  -26.0003  -25.9316   19.0594 H   0  0  0  0  0  0
  -23.9689  -27.2788   19.0539 H   0  0  0  0  0  0
  -23.7179  -30.5875   19.4014 H   0  0  0  0  0  0
  -22.7368  -29.2321   19.8757 H   0  0  0  0  0  0
  -25.1281  -36.1967   25.0832 H   0  0  0  0  0  0
  -20.9941  -28.3121   24.1382 H   0  0  0  0  0  0
  -20.5861  -26.2218   23.3387 H   0  0  0  0  0  0
  -21.6634  -26.7600   22.0907 H   0  0  0  0  0  0
  -19.6869  -25.6274   21.1166 H   0  0  0  0  0  0
  -19.6583  -27.3162   20.6619 H   0  0  0  0  0  0
  -17.4156  -26.6617   21.4041 H   0  0  0  0  0  0
  -18.0395  -26.0047   22.9008 H   0  0  0  0  0  0
  -19.7907  -30.7241   24.2272 H   0  0  0  0  0  0
  -17.4983  -31.6234   24.5171 H   0  0  0  0  0  0
  -15.5329  -30.2952   23.7635 H   0  0  0  0  0  0
  -15.8674  -28.0795   22.7041 H   0  0  0  0  0  0
  -24.5920  -30.7028   25.7785 H   0  0  0  0  0  0
  -24.8878  -32.2861   26.4866 H   0  0  0  0  0  0
  -25.8070  -30.8908   27.0227 H   0  0  0  0  0  0
  -26.2837  -29.6820   24.1122 H   0  0  0  0  0  0
  -27.4026  -29.7255   25.4557 H   0  0  0  0  0  0
  -27.8686  -30.4350   23.9266 H   0  0  0  0  0  0
  -27.2690  -33.3615   26.2053 H   0  0  0  0  0  0
  -28.3864  -32.6846   25.0298 H   0  0  0  0  0  0
  -28.0709  -31.8418   26.5388 H   0  0  0  0  0  0
  -28.2610  -38.0094   24.7522 H   0  0  0  0  0  0
  -28.1063  -36.2629   24.6293 H   0  0  0  0  0  0
  -27.2296  -37.1460   25.8874 H   0  0  0  0  0  0
  -20.9294  -29.8931   21.7094 H   0  0  0  0  0  0
  -26.0180  -38.2876   24.1419 H   0  0  0  0  0  0
  -28.7710  -20.8378   18.8880 H   0  0  0  0  0  0
  -29.2338  -22.5088   22.8379 H   0  0  0  0  0  0
  -28.4779  -23.1174   17.9761 H   0  0  0  0  0  0
  -28.9496  -24.7830   21.9186 H   0  0  0  0  0  0
  -31.4943  -20.0429   21.7539 H   0  0  0  0  0  0
  -30.9053  -19.5851   20.1644 H   0  0  0  0  0  0
  -28.3342  -18.7350   20.1243 H   0  0  0  0  0  0
  -27.3821  -19.0080   21.5872 H   0  0  0  0  0  0
  -32.1459  -16.8159   20.7537 H   0  0  0  0  0  0
  -30.9089  -17.3266   19.6182 H   0  0  0  0  0  0
  -28.6874  -15.6410   22.2674 H   0  0  0  0  0  0
  -28.1587  -16.1574   20.6619 H   0  0  0  0  0  0
  -29.2568  -20.2105   22.6286 H   0  0  0  0  0  0
  -31.1483  -17.8661   22.5967 H   0  0  0  0  0  0
  -28.9364  -17.7468   22.9479 H   0  0  0  0  0  0
  -27.9682  -25.5485   18.3741 H   0  0  0  0  0  0
  -29.6141  -25.7052   18.8151 H   0  0  0  0  0  0
  1 25  1  0  0  0
  1 30  2  0  0  0
  1 85  1  0  0  0
  2  3  1  0  0  0
  2 25  1  0  0  0
  2 86  1  0  0  0
  2 87  1  0  0  0
  3  4  1  0  0  0
  3 88  1  0  0  0
  3 89  1  0  0  0
  4  5  1  0  0  0
  4 90  1  0  0  0
  4 91  1  0  0  0
  5  6  1  0  0  0
  5 26  1  0  0  0
  5 92  1  0  0  0
  6 25  1  0  0  0
  6 93  1  0  0  0
  6 94  1  0  0  0
  7  8  2  0  0  0
  7 26  1  0  0  0
  7 29  1  0  0  0
  8  9  1  0  0  0
  8 22  1  0  0  0
  9 10  1  0  0  0
  9 27  2  0  0  0
 10 11  2  0  0  0
 10 15  1  0  0  0
 11 12  1  0  0  0
 11 95  1  0  0  0
 12 13  2  0  0  0
 12 96  1  0  0  0
 13 14  1  0  0  0
 13 31  1  0  0  0
 14 15  2  0  0  0
 14 97  1  0  0  0
 15 98  1  0  0  0
 16 17  2  0  0  0
 16 21  1  0  0  0
 16 31  1  0  0  0
 17 18  1  0  0  0
 17 99  1  0  0  0
 18 19  2  0  0  0
 18100  1  0  0  0
 19 20  1  0  0  0
 19 24  1  0  0  0
 20 21  2  0  0  0
 20101  1  0  0  0
 21 23  1  0  0  0
 22 28  1  0  0  0
 22 32  2  0  0  0
 26 27  1  0  0  0
 28102  1  0  0  0
 28103  1  0  0  0
 29104  1  0  0  0
 29105  1  0  0  0
 33 34  1  0  0  0
 33 66  1  0  0  0
 33 70  2  0  0  0
 34 36  1  0  0  0
 34 59  1  0  0  0
 34106  1  0  0  0
 35 44  2  0  0  0
 35 45  1  0  0  0
 35 68  1  0  0  0
 36 56  1  0  0  0
 36107  1  0  0  0
 37 39  1  0  0  0
 37 47  1  0  0  0
 37 66  1  0  0  0
 37108  1  0  0  0
 38 43  2  0  0  0
 38 46  1  0  0  0
 38 47  1  0  0  0
 39 64  1  0  0  0
 39 67  2  0  0  0
 40 52  1  0  0  0
 40 53  2  0  0  0
 40 58  1  0  0  0
 41109  1  0  0  0
 41110  1  0  0  0
 41111  1  0  0  0
 41 48  1  0  0  0
 42 43  1  0  0  0
 42 66  1  0  0  0
 42112  1  0  0  0
 42113  1  0  0  0
 43 44  1  0  0  0
 44114  1  0  0  0
 45 46  2  0  0  0
 45115  1  0  0  0
 46116  1  0  0  0
 47117  1  0  0  0
 47118  1  0  0  0
 48 56  1  0  0  0
 48 65  1  0  0  0
 48119  1  0  0  0
 49 50  1  0  0  0
 49 53  1  0  0  0
 49 64  1  0  0  0
 49120  1  0  0  0
 50 51  1  0  0  0
 50121  1  0  0  0
 50122  1  0  0  0
 51 52  1  0  0  0
 51123  1  0  0  0
 51124  1  0  0  0
 52125  1  0  0  0
 52126  1  0  0  0
 53 54  1  0  0  0
 54 55  2  0  0  0
 54127  1  0  0  0
 55 57  1  0  0  0
 55128  1  0  0  0
 56 69  2  0  0  0
 57 58  2  0  0  0
 57129  1  0  0  0
 58130  1  0  0  0
 59 60  1  0  0  0
 59 61  1  0  0  0
 59 62  1  0  0  0
 60131  1  0  0  0
 60132  1  0  0  0
 60133  1  0  0  0
 61134  1  0  0  0
 61135  1  0  0  0
 61136  1  0  0  0
 62137  1  0  0  0
 62138  1  0  0  0
 62139  1  0  0  0
 63 65  1  0  0  0
 63140  1  0  0  0
 63141  1  0  0  0
 63142  1  0  0  0
 64143  1  0  0  0
 65144  1  0  0  0
 68 84  1  0  0  0
 71 73  2  0  0  0
 71 75  1  0  0  0
 71145  1  0  0  0
 72 74  1  0  0  0
 72 75  2  0  0  0
 72146  1  0  0  0
 73 76  1  0  0  0
 73147  1  0  0  0
 74 76  2  0  0  0
 74148  1  0  0  0
 75 81  1  0  0  0
 76 84  1  0  0  0
 77 81  1  0  0  0
 77149  1  0  0  0
 77150  1  0  0  0
 77 82  1  0  0  0
 78 81  1  0  0  0
 78151  1  0  0  0
 78152  1  0  0  0
 78 83  1  0  0  0
 79 82  1  0  0  0
 79 85  1  0  0  0
 79153  1  0  0  0
 79154  1  0  0  0
 80 83  1  0  0  0
 80 85  1  0  0  0
 80155  1  0  0  0
 80156  1  0  0  0
 81157  1  0  0  0
 82 83  1  0  0  0
 82158  1  0  0  0
 83159  1  0  0  0
 84160  1  0  0  0
 84161  1  0  0  0
M  ISO  4   1 100  68 101  84 101  85 100
M  END
> <chiral flag>
0

> <version>
0

> <s_m_source_file>
/data/baiqing/PycharmProjects/Reinvent-master-3.2/result/LINK_invent/BTK/process_docking_weight1_custom_product_contain_oxygen_bond_distance_aromatic_linkinvent_7_9_3/rearranged_h_0003.sdf

> <i_m_source_file_index>
12

> <r_mmod_Potential_Energy-OPLS-2005>
319.526702880859

> <r_mmod_Stretch_Energy-OPLS-2005>
50.2755889892578

> <r_mmod_Bend_Energy-OPLS-2005>
204.3408203125

> <r_mmod_Torsional_Energy-OPLS-2005>
363.960266113281

> <r_mmod_Improper_Torsional_Energy-OPLS-2005>
6.32545900344849

> <r_mmod_Van_der_Waal_Energy-OPLS-2005>
150.335571289062

> <r_mmod_Electrostatic_Energy-OPLS-2005>
-288.785247802734

> <r_mmod_Solvation_Energy-OPLS-2005>
-194.390426635742

> <b_mmod_Minimization_Converged-OPLS-2005>
0

> <r_mmod_RMS_Derivative-OPLS-2005>
2.053058385849

$$$$
12
                    3D
 Structure written by MMmdl.
156164  0  0  1  0            999 V2000
  -30.5869  -14.8196   20.4322 C   0  0  0  0  0  0
  -30.4404  -12.4990   19.4773 C   0  0  0  0  0  0
  -29.5149  -12.5098   18.2396 C   0  0  0  0  0  0
  -28.0421  -12.3294   18.6529 C   0  0  0  0  0  0
  -27.6407  -13.2400   19.8431 C   0  0  2  0  0  0
  -28.6886  -13.2013   20.9781 C   0  0  0  0  0  0
  -25.2504  -13.8214   20.5705 C   0  0  0  0  0  0
  -24.1813  -13.0447   20.9264 C   0  0  0  0  0  0
  -24.6418  -11.6928   20.8779 C   0  0  0  0  0  0
  -23.9100  -10.4295   21.0416 C   0  0  0  0  0  0
  -24.3636   -9.4203   21.9199 C   0  0  0  0  0  0
  -23.6303   -8.2240   22.0750 C   0  0  0  0  0  0
  -22.4295   -8.0291   21.3532 C   0  0  0  0  0  0
  -21.9945   -9.0276   20.4645 C   0  0  0  0  0  0
  -22.7272  -10.2154   20.3056 C   0  0  0  0  0  0
  -21.6845   -6.0768   22.5285 C   0  0  0  0  0  0
  -21.4019   -6.5659   23.8234 C   0  0  0  0  0  0
  -21.3653   -5.6799   24.9187 C   0  0  0  0  0  0
  -21.6038   -4.3064   24.7231 C   0  0  0  0  0  0
  -21.8809   -3.8170   23.4344 C   0  0  0  0  0  0
  -21.9202   -4.6994   22.3409 C   0  0  0  0  0  0
  -22.7831  -13.5228   21.1914 C   0  0  0  0  0  0
  -22.1665   -4.2193   21.0979 F   0  0  0  0  0  0
  -21.5628   -3.4533   25.7729 F   0  0  0  0  0  0
  -29.9815  -13.5767   20.3901 N   0  0  0  0  0  0
  -26.2940  -12.9440   20.3263 N   0  0  0  0  0  0
  -25.9347  -11.6578   20.5757 N   0  0  0  0  0  0
  -22.0448  -12.8207   22.0438 N   0  0  0  0  0  0
  -25.4204  -15.1918   20.4063 N   0  0  0  0  0  0
  -31.7776  -14.9159   20.1243 O   0  0  0  0  0  0
  -21.6635   -6.8898   21.4246 O   0  0  0  0  0  0
  -22.3533  -14.5558   20.6790 O   0  0  0  0  0  0
  -24.6389  -31.8481   23.1927 C   0  0  0  0  0  0
  -25.9170  -32.4731   23.8325 C   0  0  1  0  0  0
  -27.2228  -27.1967   20.1442 C   0  0  0  0  0  0
  -25.5934  -33.8532   24.2245 N   0  0  0  0  0  0
  -23.4406  -30.4701   21.5359 C   0  0  2  0  0  0
  -24.8923  -28.9098   20.1109 C   0  0  0  0  0  0
  -22.7561  -29.4525   22.4839 C   0  0  0  0  0  0
  -18.0304  -28.1389   22.8472 C   0  0  0  0  0  0
  -24.1492  -36.7260   23.2643 C   0  0  0  0  0  0
  -25.9923  -30.7444   21.3832 C   0  0  0  0  0  0
  -26.0662  -29.3597   20.7282 C   0  0  0  0  0  0
  -27.2347  -28.5158   20.7337 C   0  0  0  0  0  0
  -26.0317  -26.8433   19.4756 C   0  0  0  0  0  0
  -24.8839  -27.6620   19.4704 C   0  0  0  0  0  0
  -23.6680  -29.8053   20.1549 C   0  0  0  0  0  0
  -25.4118  -36.3042   24.0329 C   0  0  1  0  0  0
  -20.5918  -28.3692   23.1275 C   0  0  2  0  0  0
  -20.6788  -26.9396   22.5418 C   0  0  0  0  0  0
  -19.5765  -26.6378   21.5219 C   0  0  0  0  0  0
  -18.1944  -26.7926   22.1618 C   0  0  0  0  0  0
  -19.1573  -28.8851   23.2862 C   0  0  0  0  0  0
  -18.9477  -30.1447   23.8880 C   0  0  0  0  0  0
  -17.6478  -30.6577   24.0564 C   0  0  0  0  0  0
  -25.9087  -34.9418   23.5104 C   0  0  0  0  0  0
  -16.5365  -29.9073   23.6323 C   0  0  0  0  0  0
  -16.7298  -28.6496   23.0348 C   0  0  0  0  0  0
  -26.4507  -31.6590   25.0736 C   0  0  0  0  0  0
  -25.3688  -31.3752   26.1444 C   0  0  0  0  0  0
  -27.0380  -30.3025   24.6222 C   0  0  0  0  0  0
  -27.6068  -32.4323   25.7487 C   0  0  0  0  0  0
  -27.5573  -37.1801   24.8461 C   0  0  0  0  0  0
  -21.4252  -29.3030   22.3614 N   0  0  0  0  0  0
  -26.4276  -37.3765   23.9408 N   0  0  0  0  0  0
  -24.7105  -31.0394   22.0938 N   0  0  0  0  0  0
  -23.4223  -28.8051   23.2955 O   0  0  0  0  0  0
  -28.2886  -26.2438   20.1839 O   0  0  0  0  0  0
  -26.5662  -34.8900   22.4673 O   0  0  0  0  0  0
  -23.5527  -32.1303   23.7187 O   0  0  0  0  0  0
  -29.0742  -18.2201   19.3964 C   0  0  0  0  0  0
  -29.9380  -18.3773   21.7093 C   0  0  0  0  0  0
  -29.0957  -19.8274   19.2988 C   0  0  0  0  0  0
  -29.9654  -19.9757   21.5559 C   0  0  0  0  0  0
  -30.0544  -17.4901   20.4087 C   0  0  1  0  0  0
  -28.8986  -23.4244   20.2231 C   0  0  0  0  0  0
  -28.3342  -21.9772   20.7712 C   0  0  0  0  0  0
  -27.9840  -24.7777   20.5237 C   0  0  0  0  0  0
  -29.7987  -15.9637   20.6087 N   0  0  0  0  0  0
  -28.9303  -20.5249   20.6155 N   0  3  1  0  0  0
  -31.4786  -12.6352   19.1680 H   0  0  0  0  0  0
  -30.4016  -11.5308   19.9758 H   0  0  0  0  0  0
  -29.8023  -11.7185   17.5472 H   0  0  0  0  0  0
  -29.6366  -13.4511   17.6966 H   0  0  0  0  0  0
  -27.9060  -11.2850   18.9309 H   0  0  0  0  0  0
  -27.3849  -12.5039   17.8007 H   0  0  0  0  0  0
  -27.6272  -14.2553   19.4459 H   0  0  0  0  0  0
  -28.7414  -12.2057   21.4193 H   0  0  0  0  0  0
  -28.4138  -13.8812   21.7861 H   0  0  0  0  0  0
  -25.2764   -9.5698   22.4802 H   0  0  0  0  0  0
  -24.0019   -7.4626   22.7453 H   0  0  0  0  0  0
  -21.0892   -8.8801   19.8941 H   0  0  0  0  0  0
  -22.3726  -10.9710   19.6182 H   0  0  0  0  0  0
  -21.1990   -7.6162   23.9758 H   0  0  0  0  0  0
  -21.1487   -6.0521   25.9099 H   0  0  0  0  0  0
  -22.0592   -2.7635   23.2825 H   0  0  0  0  0  0
  -22.4036  -11.9843   22.4804 H   0  0  0  0  0  0
  -21.1059  -13.1242   22.2633 H   0  0  0  0  0  0
  -24.6457  -15.8394   20.4956 H   0  0  0  0  0  0
  -26.2427  -15.6136   19.9953 H   0  0  0  0  0  0
  -26.7241  -32.5338   23.1074 H   0  0  0  0  0  0
  -25.0004  -33.9672   25.0338 H   0  0  0  0  0  0
  -22.7441  -31.2974   21.3855 H   0  0  0  0  0  0
  -23.3740  -35.9608   23.3299 H   0  0  0  0  0  0
  -24.3549  -36.8872   22.2045 H   0  0  0  0  0  0
  -23.7285  -37.6476   23.6679 H   0  0  0  0  0  0
  -26.1370  -31.4996   20.6099 H   0  0  0  0  0  0
  -26.8653  -30.7932   22.0213 H   0  0  0  0  0  0
  -28.1298  -28.8483   21.2394 H   0  0  0  0  0  0
  -25.9654  -25.9040   18.9483 H   0  0  0  0  0  0
  -23.9914  -27.3204   18.9646 H   0  0  0  0  0  0
  -23.8151  -30.5862   19.4079 H   0  0  0  0  0  0
  -22.7839  -29.2490   19.8346 H   0  0  0  0  0  0
  -25.1312  -36.1872   25.0830 H   0  0  0  0  0  0
  -21.0035  -28.3261   24.1401 H   0  0  0  0  0  0
  -20.5706  -26.2263   23.3613 H   0  0  0  0  0  0
  -21.6645  -26.7403   22.1191 H   0  0  0  0  0  0
  -19.6926  -25.6294   21.1235 H   0  0  0  0  0  0
  -19.6730  -27.3173   20.6750 H   0  0  0  0  0  0
  -17.4223  -26.6684   21.4011 H   0  0  0  0  0  0
  -18.0319  -26.0087   22.9036 H   0  0  0  0  0  0
  -19.7964  -30.7267   24.2245 H   0  0  0  0  0  0
  -17.5048  -31.6266   24.5146 H   0  0  0  0  0  0
  -15.5366  -30.2994   23.7661 H   0  0  0  0  0  0
  -15.8696  -28.0834   22.7067 H   0  0  0  0  0  0
  -24.5888  -30.7074   25.7776 H   0  0  0  0  0  0
  -24.8825  -32.2900   26.4857 H   0  0  0  0  0  0
  -25.7973  -30.8961   27.0255 H   0  0  0  0  0  0
  -26.2963  -29.6800   24.1205 H   0  0  0  0  0  0
  -27.3995  -29.7283   25.4758 H   0  0  0  0  0  0
  -27.8864  -30.4297   23.9486 H   0  0  0  0  0  0
  -27.2714  -33.3641   26.2038 H   0  0  0  0  0  0
  -28.3872  -32.6835   25.0300 H   0  0  0  0  0  0
  -28.0744  -31.8461   26.5419 H   0  0  0  0  0  0
  -28.2583  -38.0120   24.7534 H   0  0  0  0  0  0
  -28.1095  -36.2644   24.6252 H   0  0  0  0  0  0
  -27.2291  -37.1364   25.8875 H   0  0  0  0  0  0
  -20.9457  -29.8810   21.6858 H   0  0  0  0  0  0
  -26.0146  -38.2823   24.1477 H   0  0  0  0  0  0
  -29.2580  -17.8223   18.3980 H   0  0  0  0  0  0
  -28.0553  -17.9176   19.6296 H   0  0  0  0  0  0
  -29.0132  -18.1108   22.2234 H   0  0  0  0  0  0
  -30.7377  -18.0858   22.3932 H   0  0  0  0  0  0
  -28.3110  -20.1625   18.6187 H   0  0  0  0  0  0
  -30.0354  -20.1558   18.8556 H   0  0  0  0  0  0
  -30.9493  -20.3013   21.2164 H   0  0  0  0  0  0
  -29.8203  -20.4261   22.5387 H   0  0  0  0  0  0
  -31.0686  -17.5999   20.0196 H   0  0  0  0  0  0
  -29.0411  -23.3443   19.1446 H   0  0  0  0  0  0
  -29.8917  -23.5779   20.6435 H   0  0  0  0  0  0
  -27.3196  -21.8939   20.3803 H   0  0  0  0  0  0
  -28.1909  -22.0998   21.8473 H   0  0  0  0  0  0
  -27.8468  -24.7947   21.6072 H   0  0  0  0  0  0
  -26.9937  -24.5285   20.1529 H   0  0  0  0  0  0
  -28.8445  -15.7335   20.8470 H   0  0  0  0  0  0
  -28.1171  -20.0396   20.9671 H   0  0  0  0  0  0
  1 25  1  0  0  0
  1 30  2  0  0  0
  1 79  1  0  0  0
  2  3  1  0  0  0
  2 25  1  0  0  0
  2 81  1  0  0  0
  2 82  1  0  0  0
  3  4  1  0  0  0
  3 83  1  0  0  0
  3 84  1  0  0  0
  4  5  1  0  0  0
  4 85  1  0  0  0
  4 86  1  0  0  0
  5  6  1  0  0  0
  5 26  1  0  0  0
  5 87  1  0  0  0
  6 25  1  0  0  0
  6 88  1  0  0  0
  6 89  1  0  0  0
  7  8  2  0  0  0
  7 26  1  0  0  0
  7 29  1  0  0  0
  8  9  1  0  0  0
  8 22  1  0  0  0
  9 10  1  0  0  0
  9 27  2  0  0  0
 10 11  2  0  0  0
 10 15  1  0  0  0
 11 12  1  0  0  0
 11 90  1  0  0  0
 12 13  2  0  0  0
 12 91  1  0  0  0
 13 14  1  0  0  0
 13 31  1  0  0  0
 14 15  2  0  0  0
 14 92  1  0  0  0
 15 93  1  0  0  0
 16 17  2  0  0  0
 16 21  1  0  0  0
 16 31  1  0  0  0
 17 18  1  0  0  0
 17 94  1  0  0  0
 18 19  2  0  0  0
 18 95  1  0  0  0
 19 20  1  0  0  0
 19 24  1  0  0  0
 20 21  2  0  0  0
 20 96  1  0  0  0
 21 23  1  0  0  0
 22 28  1  0  0  0
 22 32  2  0  0  0
 26 27  1  0  0  0
 28 97  1  0  0  0
 28 98  1  0  0  0
 29 99  1  0  0  0
 29100  1  0  0  0
 33 34  1  0  0  0
 33 66  1  0  0  0
 33 70  2  0  0  0
 34 36  1  0  0  0
 34 59  1  0  0  0
 34101  1  0  0  0
 35 44  2  0  0  0
 35 45  1  0  0  0
 35 68  1  0  0  0
 36 56  1  0  0  0
 36102  1  0  0  0
 37 39  1  0  0  0
 37 47  1  0  0  0
 37 66  1  0  0  0
 37103  1  0  0  0
 38 43  2  0  0  0
 38 46  1  0  0  0
 38 47  1  0  0  0
 39 64  1  0  0  0
 39 67  2  0  0  0
 40 52  1  0  0  0
 40 53  2  0  0  0
 40 58  1  0  0  0
 41104  1  0  0  0
 41105  1  0  0  0
 41106  1  0  0  0
 41 48  1  0  0  0
 42 43  1  0  0  0
 42 66  1  0  0  0
 42107  1  0  0  0
 42108  1  0  0  0
 43 44  1  0  0  0
 44109  1  0  0  0
 45 46  2  0  0  0
 45110  1  0  0  0
 46111  1  0  0  0
 47112  1  0  0  0
 47113  1  0  0  0
 48 56  1  0  0  0
 48 65  1  0  0  0
 48114  1  0  0  0
 49 50  1  0  0  0
 49 53  1  0  0  0
 49 64  1  0  0  0
 49115  1  0  0  0
 50 51  1  0  0  0
 50116  1  0  0  0
 50117  1  0  0  0
 51 52  1  0  0  0
 51118  1  0  0  0
 51119  1  0  0  0
 52120  1  0  0  0
 52121  1  0  0  0
 53 54  1  0  0  0
 54 55  2  0  0  0
 54122  1  0  0  0
 55 57  1  0  0  0
 55123  1  0  0  0
 56 69  2  0  0  0
 57 58  2  0  0  0
 57124  1  0  0  0
 58125  1  0  0  0
 59 60  1  0  0  0
 59 61  1  0  0  0
 59 62  1  0  0  0
 60126  1  0  0  0
 60127  1  0  0  0
 60128  1  0  0  0
 61129  1  0  0  0
 61130  1  0  0  0
 61131  1  0  0  0
 62132  1  0  0  0
 62133  1  0  0  0
 62134  1  0  0  0
 63 65  1  0  0  0
 63135  1  0  0  0
 63136  1  0  0  0
 63137  1  0  0  0
 64138  1  0  0  0
 65139  1  0  0  0
 68 78  1  0  0  0
 71 73  1  0  0  0
 71 75  1  0  0  0
 71140  1  0  0  0
 71141  1  0  0  0
 72 74  1  0  0  0
 72 75  1  0  0  0
 72142  1  0  0  0
 72143  1  0  0  0
 73 80  1  0  0  0
 73144  1  0  0  0
 73145  1  0  0  0
 74 80  1  0  0  0
 74146  1  0  0  0
 74147  1  0  0  0
 75 79  1  0  0  0
 75148  1  0  0  0
 76 77  1  0  0  0
 76 78  1  0  0  0
 76149  1  0  0  0
 76150  1  0  0  0
 77151  1  0  0  0
 77152  1  0  0  0
 77 80  1  0  0  0
 78153  1  0  0  0
 78154  1  0  0  0
 79155  1  0  0  0
 80156  1  0  0  0
M  CHG  1  80   1
M  ISO  4   1 100  68 101  78 101  79 100
M  END
> <chiral flag>
0

> <version>
0

> <s_m_source_file>
/data/baiqing/PycharmProjects/Reinvent-master-3.2/result/LINK_invent/BTK/process_docking_weight1_custom_product_contain_oxygen_bond_distance_aromatic_linkinvent_7_9_3/rearranged_h_0003.sdf

> <i_m_source_file_index>
13

> <r_mmod_Potential_Energy-OPLS-2005>
242.261611938477

> <r_mmod_Stretch_Energy-OPLS-2005>
174.867767333984

> <r_mmod_Bend_Energy-OPLS-2005>
252.315017700195

> <r_mmod_Torsional_Energy-OPLS-2005>
252.606552124023

> <r_mmod_Improper_Torsional_Energy-OPLS-2005>
5.0801100730896

> <r_mmod_Van_der_Waal_Energy-OPLS-2005>
116.349830627441

> <r_mmod_Electrostatic_Energy-OPLS-2005>
-217.824096679688

> <r_mmod_Solvation_Energy-OPLS-2005>
-467.074554443359

> <b_mmod_Minimization_Converged-OPLS-2005>
0

> <r_mmod_RMS_Derivative-OPLS-2005>
4.51100063323975

$$$$
13
                    3D
 Structure written by MMmdl.
166175  0  0  1  0            999 V2000
  -30.7545  -14.3766   20.6736 C   0  0  0  0  0  0
  -30.4188  -12.2943   19.3900 C   0  0  0  0  0  0
  -29.4804  -12.5165   18.1892 C   0  0  0  0  0  0
  -28.0071  -12.3704   18.6127 C   0  0  0  0  0  0
  -27.6659  -13.1979   19.8781 C   0  0  2  0  0  0
  -28.7047  -12.9443   20.9915 C   0  0  0  0  0  0
  -25.2620  -13.8137   20.5680 C   0  0  0  0  0  0
  -24.1860  -13.0445   20.9194 C   0  0  0  0  0  0
  -24.6392  -11.6901   20.8750 C   0  0  0  0  0  0
  -23.9049  -10.4298   21.0422 C   0  0  0  0  0  0
  -24.3612   -9.4213   21.9190 C   0  0  0  0  0  0
  -23.6292   -8.2247   22.0751 C   0  0  0  0  0  0
  -22.4270   -8.0286   21.3540 C   0  0  0  0  0  0
  -21.9908   -9.0255   20.4638 C   0  0  0  0  0  0
  -22.7228  -10.2139   20.3055 C   0  0  0  0  0  0
  -21.6861   -6.0740   22.5280 C   0  0  0  0  0  0
  -21.4014   -6.5641   23.8212 C   0  0  0  0  0  0
  -21.3655   -5.6791   24.9172 C   0  0  0  0  0  0
  -21.6047   -4.3051   24.7223 C   0  0  0  0  0  0
  -21.8818   -3.8144   23.4342 C   0  0  0  0  0  0
  -21.9194   -4.6965   22.3402 C   0  0  0  0  0  0
  -22.7886  -13.5255   21.1849 C   0  0  0  0  0  0
  -22.1663   -4.2149   21.0980 F   0  0  0  0  0  0
  -21.5634   -3.4535   25.7738 F   0  0  0  0  0  0
  -30.0458  -13.2394   20.4531 N   0  0  0  0  0  0
  -26.3045  -12.9290   20.3369 N   0  0  0  0  0  0
  -25.9311  -11.6461   20.5770 N   0  0  0  0  0  0
  -22.0514  -12.8243   22.0390 N   0  0  0  0  0  0
  -25.4383  -15.1840   20.4024 N   0  0  0  0  0  0
  -31.7746  -14.6810   20.0520 O   0  0  0  0  0  0
  -21.6634   -6.8879   21.4237 O   0  0  0  0  0  0
  -22.3585  -14.5569   20.6695 O   0  0  0  0  0  0
  -24.6310  -31.8761   23.2156 C   0  0  0  0  0  0
  -25.9159  -32.4890   23.8460 C   0  0  1  0  0  0
  -27.2443  -27.4508   20.0763 C   0  0  0  0  0  0
  -25.5978  -33.8670   24.2392 N   0  0  0  0  0  0
  -23.4327  -30.5009   21.5681 C   0  0  2  0  0  0
  -24.8524  -28.9580   20.1240 C   0  0  0  0  0  0
  -22.7749  -29.4854   22.5246 C   0  0  0  0  0  0
  -17.9928  -28.1214   22.8680 C   0  0  0  0  0  0
  -24.1483  -36.7329   23.2630 C   0  0  0  0  0  0
  -25.9460  -30.8406   21.3620 C   0  0  0  0  0  0
  -26.0129  -29.4726   20.7124 C   0  0  0  0  0  0
  -27.2064  -28.7220   20.6908 C   0  0  0  0  0  0
  -26.0581  -26.9375   19.4997 C   0  0  0  0  0  0
  -24.8668  -27.6885   19.5195 C   0  0  0  0  0  0
  -23.6184  -29.8275   20.1809 C   0  0  0  0  0  0
  -25.4104  -36.3141   24.0338 C   0  0  1  0  0  0
  -20.4772  -28.4604   22.7814 C   0  0  2  0  0  0
  -20.6880  -26.9618   22.5372 C   0  0  0  0  0  0
  -19.5554  -26.4561   21.6188 C   0  0  0  0  0  0
  -18.1549  -26.7548   22.1991 C   0  0  0  0  0  0
  -19.1126  -28.8991   23.2500 C   0  0  0  0  0  0
  -18.9315  -30.1476   23.8787 C   0  0  0  0  0  0
  -17.6327  -30.6476   24.0841 C   0  0  0  0  0  0
  -25.9048  -34.9510   23.5143 C   0  0  0  0  0  0
  -16.5169  -29.8933   23.6752 C   0  0  0  0  0  0
  -16.6974  -28.6291   23.0841 C   0  0  0  0  0  0
  -26.4511  -31.6629   25.0778 C   0  0  0  0  0  0
  -25.3740  -31.3715   26.1489 C   0  0  0  0  0  0
  -27.0313  -30.3075   24.6124 C   0  0  0  0  0  0
  -27.6098  -32.4296   25.7558 C   0  0  0  0  0  0
  -27.5585  -37.1829   24.8472 C   0  0  0  0  0  0
  -21.4537  -29.4491   22.4037 N   0  0  0  0  0  0
  -26.4297  -37.3821   23.9412 N   0  0  0  0  0  0
  -24.6913  -31.0867   22.1077 N   0  0  0  0  0  0
  -23.4263  -28.7632   23.2800 O   0  0  0  0  0  0
  -28.4538  -26.7862   20.0639 O   0  0  0  0  0  0
  -26.5582  -34.8939   22.4689 O   0  0  0  0  0  0
  -23.5475  -32.1498   23.7525 O   0  0  0  0  0  0
  -27.3581  -23.2731   22.2582 C   0  0  0  0  0  0
  -27.8648  -21.8809   20.3309 C   0  0  0  0  0  0
  -27.7277  -24.4236   21.5346 C   0  0  0  0  0  0
  -28.2306  -23.0332   19.6060 C   0  0  0  0  0  0
  -27.4123  -21.9923   21.6645 C   0  0  0  0  0  0
  -28.1599  -24.3120   20.1970 C   0  0  0  0  0  0
  -26.3043  -19.6242   21.6664 C   0  0  0  0  0  0
  -27.9617  -20.3057   23.5369 C   0  0  0  0  0  0
  -27.2619  -18.4562   21.3401 C   0  0  0  0  0  0
  -28.8418  -19.1289   23.0728 C   0  0  0  0  0  0
  -26.9367  -20.7872   22.4796 C   0  0  1  0  0  0
  -28.5869  -25.5334   19.3880 C   0  0  0  0  0  0
  -29.7020  -16.4525   21.4764 C   0  0  0  0  0  0
  -28.6033  -16.6839   22.5384 C   0  0  0  0  0  0
  -30.3192  -15.1377   21.6828 N   0  0  0  0  0  0
  -27.9823  -18.0359   22.5629 N   0  3  1  0  0  0
  -31.4595  -12.4068   19.0804 H   0  0  0  0  0  0
  -30.3304  -11.2720   19.7624 H   0  0  0  0  0  0
  -29.7108  -11.8041   17.3957 H   0  0  0  0  0  0
  -29.6458  -13.5097   17.7674 H   0  0  0  0  0  0
  -27.8216  -11.3131   18.8038 H   0  0  0  0  0  0
  -27.3482  -12.6498   17.7899 H   0  0  0  0  0  0
  -27.7241  -14.2514   19.6042 H   0  0  0  0  0  0
  -28.6676  -11.9013   21.3094 H   0  0  0  0  0  0
  -28.4560  -13.5245   21.8795 H   0  0  0  0  0  0
  -25.2759   -9.5692   22.4756 H   0  0  0  0  0  0
  -24.0005   -7.4630   22.7466 H   0  0  0  0  0  0
  -21.0842   -8.8770   19.8944 H   0  0  0  0  0  0
  -22.3681  -10.9681   19.6162 H   0  0  0  0  0  0
  -21.2004   -7.6145   23.9715 H   0  0  0  0  0  0
  -21.1477   -6.0521   25.9078 H   0  0  0  0  0  0
  -22.0602   -2.7609   23.2845 H   0  0  0  0  0  0
  -22.4109  -11.9887   22.4756 H   0  0  0  0  0  0
  -21.1131  -13.1260   22.2599 H   0  0  0  0  0  0
  -24.6358  -15.8035   20.4004 H   0  0  0  0  0  0
  -26.2273  -15.5580   19.8936 H   0  0  0  0  0  0
  -26.7260  -32.5596   23.1248 H   0  0  0  0  0  0
  -25.0147  -33.9821   25.0555 H   0  0  0  0  0  0
  -22.7309  -31.3264   21.4243 H   0  0  0  0  0  0
  -23.3750  -35.9663   23.3309 H   0  0  0  0  0  0
  -24.3589  -36.8916   22.2044 H   0  0  0  0  0  0
  -23.7221  -37.6533   23.6629 H   0  0  0  0  0  0
  -26.0501  -31.6054   20.5894 H   0  0  0  0  0  0
  -26.8391  -30.9001   21.9730 H   0  0  0  0  0  0
  -28.1065  -29.1210   21.1384 H   0  0  0  0  0  0
  -26.0317  -25.9640   19.0332 H   0  0  0  0  0  0
  -23.9699  -27.2849   19.0686 H   0  0  0  0  0  0
  -23.7187  -30.5978   19.4153 H   0  0  0  0  0  0
  -22.7378  -29.2478   19.8984 H   0  0  0  0  0  0
  -25.1271  -36.2013   25.0833 H   0  0  0  0  0  0
  -20.1666  -28.6784   21.7587 H   0  0  0  0  0  0
  -20.6657  -26.4309   23.4896 H   0  0  0  0  0  0
  -21.6607  -26.7616   22.0873 H   0  0  0  0  0  0
  -19.6594  -25.3849   21.4461 H   0  0  0  0  0  0
  -19.6451  -26.9142   20.6333 H   0  0  0  0  0  0
  -17.4041  -26.6402   21.4166 H   0  0  0  0  0  0
  -17.9203  -26.0036   22.9534 H   0  0  0  0  0  0
  -19.7870  -30.7492   24.1555 H   0  0  0  0  0  0
  -17.4917  -31.6148   24.5467 H   0  0  0  0  0  0
  -15.5181  -30.2795   23.8282 H   0  0  0  0  0  0
  -15.8324  -28.0526   22.7853 H   0  0  0  0  0  0
  -24.5940  -30.7046   25.7797 H   0  0  0  0  0  0
  -24.8899  -32.2853   26.4944 H   0  0  0  0  0  0
  -25.8062  -30.8876   27.0256 H   0  0  0  0  0  0
  -26.2852  -29.6863   24.1155 H   0  0  0  0  0  0
  -27.4061  -29.7282   25.4571 H   0  0  0  0  0  0
  -27.8702  -30.4400   23.9290 H   0  0  0  0  0  0
  -27.2768  -33.3601   26.2170 H   0  0  0  0  0  0
  -28.3919  -32.6831   25.0389 H   0  0  0  0  0  0
  -28.0757  -31.8377   26.5443 H   0  0  0  0  0  0
  -28.2609  -38.0121   24.7522 H   0  0  0  0  0  0
  -28.1070  -36.2651   24.6297 H   0  0  0  0  0  0
  -27.2312  -37.1480   25.8878 H   0  0  0  0  0  0
  -21.0746  -30.1722   21.8073 H   0  0  0  0  0  0
  -26.0192  -38.2905   24.1403 H   0  0  0  0  0  0
  -27.0189  -23.3834   23.2800 H   0  0  0  0  0  0
  -27.9210  -20.9208   19.8411 H   0  0  0  0  0  0
  -27.6735  -25.3910   22.0139 H   0  0  0  0  0  0
  -28.5665  -22.9324   18.5826 H   0  0  0  0  0  0
  -25.4915  -19.2081   22.2637 H   0  0  0  0  0  0
  -25.8158  -19.9968   20.7652 H   0  0  0  0  0  0
  -28.5823  -21.1318   23.8848 H   0  0  0  0  0  0
  -27.4095  -19.9710   24.4178 H   0  0  0  0  0  0
  -27.9744  -18.7379   20.5640 H   0  0  0  0  0  0
  -26.6840  -17.6230   20.9423 H   0  0  0  0  0  0
  -29.4435  -18.7784   23.9130 H   0  0  0  0  0  0
  -29.5409  -19.4534   22.3000 H   0  0  0  0  0  0
  -26.1040  -21.2008   23.0522 H   0  0  0  0  0  0
  -29.6464  -25.4091   19.1651 H   0  0  0  0  0  0
  -28.0947  -25.5443   18.4158 H   0  0  0  0  0  0
  -29.2763  -16.5201   20.4729 H   0  0  0  0  0  0
  -30.4766  -17.2171   21.5425 H   0  0  0  0  0  0
  -29.0064  -16.4807   23.5318 H   0  0  0  0  0  0
  -27.8087  -15.9512   22.3920 H   0  0  0  0  0  0
  -31.0139  -15.1787   22.4164 H   0  0  0  0  0  0
  -27.2632  -17.9288   23.2633 H   0  0  0  0  0  0
  1 25  1  0  0  0
  1 30  2  0  0  0
  1 85  1  0  0  0
  2  3  1  0  0  0
  2 25  1  0  0  0
  2 87  1  0  0  0
  2 88  1  0  0  0
  3  4  1  0  0  0
  3 89  1  0  0  0
  3 90  1  0  0  0
  4  5  1  0  0  0
  4 91  1  0  0  0
  4 92  1  0  0  0
  5  6  1  0  0  0
  5 26  1  0  0  0
  5 93  1  0  0  0
  6 25  1  0  0  0
  6 94  1  0  0  0
  6 95  1  0  0  0
  7  8  2  0  0  0
  7 26  1  0  0  0
  7 29  1  0  0  0
  8  9  1  0  0  0
  8 22  1  0  0  0
  9 10  1  0  0  0
  9 27  2  0  0  0
 10 11  2  0  0  0
 10 15  1  0  0  0
 11 12  1  0  0  0
 11 96  1  0  0  0
 12 13  2  0  0  0
 12 97  1  0  0  0
 13 14  1  0  0  0
 13 31  1  0  0  0
 14 15  2  0  0  0
 14 98  1  0  0  0
 15 99  1  0  0  0
 16 17  2  0  0  0
 16 21  1  0  0  0
 16 31  1  0  0  0
 17 18  1  0  0  0
 17100  1  0  0  0
 18 19  2  0  0  0
 18101  1  0  0  0
 19 20  1  0  0  0
 19 24  1  0  0  0
 20 21  2  0  0  0
 20102  1  0  0  0
 21 23  1  0  0  0
 22 28  1  0  0  0
 22 32  2  0  0  0
 26 27  1  0  0  0
 28103  1  0  0  0
 28104  1  0  0  0
 29105  1  0  0  0
 29106  1  0  0  0
 33 34  1  0  0  0
 33 66  1  0  0  0
 33 70  2  0  0  0
 34 36  1  0  0  0
 34 59  1  0  0  0
 34107  1  0  0  0
 35 44  2  0  0  0
 35 45  1  0  0  0
 35 68  1  0  0  0
 36 56  1  0  0  0
 36108  1  0  0  0
 37 39  1  0  0  0
 37 47  1  0  0  0
 37 66  1  0  0  0
 37109  1  0  0  0
 38 43  2  0  0  0
 38 46  1  0  0  0
 38 47  1  0  0  0
 39 64  1  0  0  0
 39 67  2  0  0  0
 40 52  1  0  0  0
 40 53  2  0  0  0
 40 58  1  0  0  0
 41110  1  0  0  0
 41111  1  0  0  0
 41112  1  0  0  0
 41 48  1  0  0  0
 42 43  1  0  0  0
 42 66  1  0  0  0
 42113  1  0  0  0
 42114  1  0  0  0
 43 44  1  0  0  0
 44115  1  0  0  0
 45 46  2  0  0  0
 45116  1  0  0  0
 46117  1  0  0  0
 47118  1  0  0  0
 47119  1  0  0  0
 48 56  1  0  0  0
 48 65  1  0  0  0
 48120  1  0  0  0
 49 50  1  0  0  0
 49 53  1  0  0  0
 49 64  1  0  0  0
 49121  1  0  0  0
 50 51  1  0  0  0
 50122  1  0  0  0
 50123  1  0  0  0
 51 52  1  0  0  0
 51124  1  0  0  0
 51125  1  0  0  0
 52126  1  0  0  0
 52127  1  0  0  0
 53 54  1  0  0  0
 54 55  2  0  0  0
 54128  1  0  0  0
 55 57  1  0  0  0
 55129  1  0  0  0
 56 69  2  0  0  0
 57 58  2  0  0  0
 57130  1  0  0  0
 58131  1  0  0  0
 59 60  1  0  0  0
 59 61  1  0  0  0
 59 62  1  0  0  0
 60132  1  0  0  0
 60133  1  0  0  0
 60134  1  0  0  0
 61135  1  0  0  0
 61136  1  0  0  0
 61137  1  0  0  0
 62138  1  0  0  0
 62139  1  0  0  0
 62140  1  0  0  0
 63 65  1  0  0  0
 63141  1  0  0  0
 63142  1  0  0  0
 63143  1  0  0  0
 64144  1  0  0  0
 65145  1  0  0  0
 68 82  1  0  0  0
 71 73  2  0  0  0
 71 75  1  0  0  0
 71146  1  0  0  0
 72 74  1  0  0  0
 72 75  2  0  0  0
 72147  1  0  0  0
 73 76  1  0  0  0
 73148  1  0  0  0
 74 76  2  0  0  0
 74149  1  0  0  0
 75 81  1  0  0  0
 76 82  1  0  0  0
 77 79  1  0  0  0
 77 81  1  0  0  0
 77150  1  0  0  0
 77151  1  0  0  0
 78 80  1  0  0  0
 78 81  1  0  0  0
 78152  1  0  0  0
 78153  1  0  0  0
 79 86  1  0  0  0
 79154  1  0  0  0
 79155  1  0  0  0
 80 86  1  0  0  0
 80156  1  0  0  0
 80157  1  0  0  0
 81158  1  0  0  0
 82159  1  0  0  0
 82160  1  0  0  0
 83 84  1  0  0  0
 83 85  1  0  0  0
 83161  1  0  0  0
 83162  1  0  0  0
 84163  1  0  0  0
 84164  1  0  0  0
 84 86  1  0  0  0
 85165  1  0  0  0
 86166  1  0  0  0
M  CHG  1  86   1
M  ISO  4   1 100  68 101  82 101  85 100
M  END
> <chiral flag>
0

> <version>
0

> <s_m_source_file>
/data/baiqing/PycharmProjects/Reinvent-master-3.2/result/LINK_invent/BTK/process_docking_weight1_custom_product_contain_oxygen_bond_distance_aromatic_linkinvent_7_9_3/rearranged_h_0003.sdf

> <i_m_source_file_index>
14

> <r_mmod_Potential_Energy-OPLS-2005>
39.5245094299316

> <r_mmod_Stretch_Energy-OPLS-2005>
31.9581489562988

> <r_mmod_Bend_Energy-OPLS-2005>
219.662979125977

> <r_mmod_Torsional_Energy-OPLS-2005>
323.302215576172

> <r_mmod_Improper_Torsional_Energy-OPLS-2005>
9.60589122772217

> <r_mmod_Van_der_Waal_Energy-OPLS-2005>
154.806076049805

> <r_mmod_Electrostatic_Energy-OPLS-2005>
-268.291412353516

> <r_mmod_Solvation_Energy-OPLS-2005>
-459.526977539062

> <b_mmod_Minimization_Converged-OPLS-2005>
0

> <r_mmod_RMS_Derivative-OPLS-2005>
2.10161590576172

$$$$
14
                    3D
 Structure written by MMmdl.
153161  0  0  1  0            999 V2000
  -30.3653  -15.3662   20.3628 C   0  0  0  0  0  0
  -30.4282  -12.8991   19.5139 C   0  0  0  0  0  0
  -29.5288  -12.5583   18.2989 C   0  0  0  0  0  0
  -28.1052  -12.2198   18.7666 C   0  0  0  0  0  0
  -27.5927  -13.2501   19.8038 C   0  0  2  0  0  0
  -28.6087  -13.4978   20.9312 C   0  0  0  0  0  0
  -25.2387  -13.8112   20.5769 C   0  0  0  0  0  0
  -24.1667  -13.0341   20.9220 C   0  0  0  0  0  0
  -24.6312  -11.6828   20.8747 C   0  0  0  0  0  0
  -23.8975  -10.4217   21.0417 C   0  0  0  0  0  0
  -24.3554   -9.4135   21.9182 C   0  0  0  0  0  0
  -23.6223   -8.2164   22.0750 C   0  0  0  0  0  0
  -22.4209   -8.0234   21.3523 C   0  0  0  0  0  0
  -21.9846   -9.0199   20.4616 C   0  0  0  0  0  0
  -22.7163  -10.2083   20.3037 C   0  0  0  0  0  0
  -21.6808   -6.0692   22.5274 C   0  0  0  0  0  0
  -21.3991   -6.5617   23.8205 C   0  0  0  0  0  0
  -21.3684   -5.6785   24.9169 C   0  0  0  0  0  0
  -21.6034   -4.3041   24.7232 C   0  0  0  0  0  0
  -21.8806   -3.8123   23.4356 C   0  0  0  0  0  0
  -21.9173   -4.6925   22.3397 C   0  0  0  0  0  0
  -22.7719  -13.5169   21.1886 C   0  0  0  0  0  0
  -22.1632   -4.2128   21.0971 F   0  0  0  0  0  0
  -21.5645   -3.4521   25.7747 F   0  0  0  0  0  0
  -29.8130  -14.0478   20.2811 N   0  0  0  0  0  0
  -26.2706  -12.9313   20.3138 N   0  0  0  0  0  0
  -25.9223  -11.6440   20.5670 N   0  0  0  0  0  0
  -22.0330  -12.8200   22.0466 N   0  0  0  0  0  0
  -25.4152  -15.1829   20.4276 N   0  0  0  0  0  0
  -31.6055  -15.3204   20.2728 O   0  0  0  0  0  0
  -21.6575   -6.8842   21.4238 O   0  0  0  0  0  0
  -22.3397  -14.5484   20.6820 O   0  0  0  0  0  0
  -24.6731  -31.8151   23.1615 C   0  0  0  0  0  0
  -25.9370  -32.4549   23.8119 C   0  0  1  0  0  0
  -27.1768  -26.8421   20.1754 C   0  0  0  0  0  0
  -25.5987  -33.8344   24.1981 N   0  0  0  0  0  0
  -23.4859  -30.4270   21.5153 C   0  0  2  0  0  0
  -24.9269  -28.8024   20.1061 C   0  0  0  0  0  0
  -22.7692  -29.4431   22.4788 C   0  0  0  0  0  0
  -18.0301  -28.1413   22.8453 C   0  0  0  0  0  0
  -24.1487  -36.7187   23.2654 C   0  0  0  0  0  0
  -26.0597  -30.5932   21.4001 C   0  0  0  0  0  0
  -26.1159  -29.1763   20.7451 C   0  0  0  0  0  0
  -27.2318  -28.2161   20.7546 C   0  0  0  0  0  0
  -25.9712  -26.6451   19.4695 C   0  0  0  0  0  0
  -24.8876  -27.5628   19.4429 C   0  0  0  0  0  0
  -23.7218  -29.7429   20.1399 C   0  0  0  0  0  0
  -25.4149  -36.2934   24.0281 C   0  0  1  0  0  0
  -20.5924  -28.3758   23.1189 C   0  0  2  0  0  0
  -20.6774  -26.9429   22.5424 C   0  0  0  0  0  0
  -19.5776  -26.6357   21.5213 C   0  0  0  0  0  0
  -18.1954  -26.7934   22.1620 C   0  0  0  0  0  0
  -19.1568  -28.8919   23.2780 C   0  0  0  0  0  0
  -18.9485  -30.1508   23.8835 C   0  0  0  0  0  0
  -17.6489  -30.6601   24.0539 C   0  0  0  0  0  0
  -25.9134  -34.9329   23.4976 C   0  0  0  0  0  0
  -16.5360  -29.9110   23.6321 C   0  0  0  0  0  0
  -16.7293  -28.6508   23.0357 C   0  0  0  0  0  0
  -26.4562  -31.6523   25.0672 C   0  0  0  0  0  0
  -25.3656  -31.3822   26.1313 C   0  0  0  0  0  0
  -27.0445  -30.2872   24.6472 C   0  0  0  0  0  0
  -27.6049  -32.4356   25.7474 C   0  0  0  0  0  0
  -27.5540  -37.1790   24.8495 C   0  0  0  0  0  0
  -21.4342  -29.3044   22.3548 N   0  0  0  0  0  0
  -26.4305  -37.3673   23.9387 N   0  0  0  0  0  0
  -24.7634  -30.9744   22.0797 N   0  0  0  0  0  0
  -23.4196  -28.8006   23.3059 O   0  0  0  0  0  0
  -28.1306  -25.6760   20.2785 O   0  0  0  0  0  0
  -26.5747  -34.8894   22.4564 O   0  0  0  0  0  0
  -23.5788  -32.1193   23.6676 O   0  0  0  0  0  0
  -27.4829  -18.2766   20.2259 C   0  0  0  0  0  0
  -28.5539  -17.2544   19.5355 C   0  0  0  0  0  0
  -30.0592  -18.1156   21.0854 C   0  0  0  0  0  0
  -27.4180  -19.9157   20.1479 C   0  0  0  0  0  0
  -29.9017  -19.8067   20.6020 C   0  0  0  0  0  0
  -28.6679  -22.4559   20.6068 C   0  0  0  0  0  0
  -27.9339  -24.0235   19.9635 C   0  0  0  0  0  0
  -29.6489  -16.7048   20.4260 N   0  0  0  0  0  0
  -28.6809  -20.7848   20.1983 N   0  3  2  0  0  0
  -31.4238  -13.1543   19.1438 H   0  0  0  0  0  0
  -30.5606  -12.0263   20.1576 H   0  0  0  0  0  0
  -29.9497  -11.7175   17.7445 H   0  0  0  0  0  0
  -29.5026  -13.4083   17.6140 H   0  0  0  0  0  0
  -28.1417  -11.2339   19.2362 H   0  0  0  0  0  0
  -27.4283  -12.1296   17.9157 H   0  0  0  0  0  0
  -27.4889  -14.1859   19.2507 H   0  0  0  0  0  0
  -28.8074  -12.5854   21.4955 H   0  0  0  0  0  0
  -28.2103  -14.2261   21.6403 H   0  0  0  0  0  0
  -25.2648   -9.5648   22.4786 H   0  0  0  0  0  0
  -23.9908   -7.4566   22.7524 H   0  0  0  0  0  0
  -21.0726   -8.8728   19.8942 H   0  0  0  0  0  0
  -22.3564  -10.9667   19.6178 H   0  0  0  0  0  0
  -21.1987   -7.6129   23.9725 H   0  0  0  0  0  0
  -21.1518   -6.0492   25.9078 H   0  0  0  0  0  0
  -22.0569   -2.7589   23.2866 H   0  0  0  0  0  0
  -22.3855  -11.9824   22.4865 H   0  0  0  0  0  0
  -21.0963  -13.1327   22.2665 H   0  0  0  0  0  0
  -24.6734  -15.8573   20.5834 H   0  0  0  0  0  0
  -26.2919  -15.6138   20.1604 H   0  0  0  0  0  0
  -26.7450  -32.5046   23.0828 H   0  0  0  0  0  0
  -25.0019  -33.9402   25.0067 H   0  0  0  0  0  0
  -22.8003  -31.2582   21.3420 H   0  0  0  0  0  0
  -23.3716  -35.9558   23.3394 H   0  0  0  0  0  0
  -24.3520  -36.8758   22.2046 H   0  0  0  0  0  0
  -23.7313  -37.6439   23.6657 H   0  0  0  0  0  0
  -26.2509  -31.3322   20.6186 H   0  0  0  0  0  0
  -26.9158  -30.6488   22.0622 H   0  0  0  0  0  0
  -28.1314  -28.4930   21.2909 H   0  0  0  0  0  0
  -25.8239  -25.7012   18.9651 H   0  0  0  0  0  0
  -23.9889  -27.2718   18.9159 H   0  0  0  0  0  0
  -23.8861  -30.5107   19.3807 H   0  0  0  0  0  0
  -22.8260  -29.2023   19.8243 H   0  0  0  0  0  0
  -25.1356  -36.1727   25.0784 H   0  0  0  0  0  0
  -20.9983  -28.3391   24.1321 H   0  0  0  0  0  0
  -20.5628  -26.2405   23.3681 H   0  0  0  0  0  0
  -21.6662  -26.7413   22.1270 H   0  0  0  0  0  0
  -19.6927  -25.6248   21.1301 H   0  0  0  0  0  0
  -19.6710  -27.3114   20.6697 H   0  0  0  0  0  0
  -17.4212  -26.6641   21.4024 H   0  0  0  0  0  0
  -18.0364  -26.0103   22.9059 H   0  0  0  0  0  0
  -19.7982  -30.7298   24.2179 H   0  0  0  0  0  0
  -17.5059  -31.6276   24.5160 H   0  0  0  0  0  0
  -15.5378  -30.2996   23.7700 H   0  0  0  0  0  0
  -15.8659  -28.0812   22.7136 H   0  0  0  0  0  0
  -24.5852  -30.7130   25.7635 H   0  0  0  0  0  0
  -24.8826  -32.3040   26.4571 H   0  0  0  0  0  0
  -25.7878  -30.9124   27.0208 H   0  0  0  0  0  0
  -26.3114  -29.6539   24.1455 H   0  0  0  0  0  0
  -27.3876  -29.7254   25.5167 H   0  0  0  0  0  0
  -27.9099  -30.3979   23.9937 H   0  0  0  0  0  0
  -27.2566  -33.3694   26.1915 H   0  0  0  0  0  0
  -28.3910  -32.6875   25.0327 H   0  0  0  0  0  0
  -28.0643  -31.8579   26.5508 H   0  0  0  0  0  0
  -28.2676  -37.9962   24.7346 H   0  0  0  0  0  0
  -28.0903  -36.2480   24.6567 H   0  0  0  0  0  0
  -27.2221  -37.1746   25.8897 H   0  0  0  0  0  0
  -20.9653  -29.8719   21.6635 H   0  0  0  0  0  0
  -26.0125  -38.2768   24.1282 H   0  0  0  0  0  0
  -27.3545  -17.9813   21.2730 H   0  0  0  0  0  0
  -26.5110  -17.9706   19.8122 H   0  0  0  0  0  0
  -29.0439  -17.7332   18.6761 H   0  0  0  0  0  0
  -28.0083  -16.4090   19.1027 H   0  0  0  0  0  0
  -29.6447  -18.0579   22.0953 H   0  0  0  0  0  0
  -31.1315  -18.0120   21.2702 H   0  0  0  0  0  0
  -26.7457  -20.2269   20.9543 H   0  0  0  0  0  0
  -26.8761  -20.1831   19.2363 H   0  0  0  0  0  0
  -30.6514  -19.9559   19.8218 H   0  0  0  0  0  0
  -30.3112  -20.3472   21.4588 H   0  0  0  0  0  0
  -28.4561  -22.4730   21.6739 H   0  0  0  0  0  0
  -29.7330  -22.6838   20.5537 H   0  0  0  0  0  0
  -26.8562  -23.8606   19.9866 H   0  0  0  0  0  0
  -28.1583  -23.9804   18.8973 H   0  0  0  0  0  0
  -28.8562  -20.8568   19.2066 H   0  0  0  0  0  0
  1 25  1  0  0  0
  1 30  2  0  0  0
  1 78  1  0  0  0
  2  3  1  0  0  0
  2 25  1  0  0  0
  2 80  1  0  0  0
  2 81  1  0  0  0
  3  4  1  0  0  0
  3 82  1  0  0  0
  3 83  1  0  0  0
  4  5  1  0  0  0
  4 84  1  0  0  0
  4 85  1  0  0  0
  5  6  1  0  0  0
  5 26  1  0  0  0
  5 86  1  0  0  0
  6 25  1  0  0  0
  6 87  1  0  0  0
  6 88  1  0  0  0
  7  8  2  0  0  0
  7 26  1  0  0  0
  7 29  1  0  0  0
  8  9  1  0  0  0
  8 22  1  0  0  0
  9 10  1  0  0  0
  9 27  2  0  0  0
 10 11  2  0  0  0
 10 15  1  0  0  0
 11 12  1  0  0  0
 11 89  1  0  0  0
 12 13  2  0  0  0
 12 90  1  0  0  0
 13 14  1  0  0  0
 13 31  1  0  0  0
 14 15  2  0  0  0
 14 91  1  0  0  0
 15 92  1  0  0  0
 16 17  2  0  0  0
 16 21  1  0  0  0
 16 31  1  0  0  0
 17 18  1  0  0  0
 17 93  1  0  0  0
 18 19  2  0  0  0
 18 94  1  0  0  0
 19 20  1  0  0  0
 19 24  1  0  0  0
 20 21  2  0  0  0
 20 95  1  0  0  0
 21 23  1  0  0  0
 22 28  1  0  0  0
 22 32  2  0  0  0
 26 27  1  0  0  0
 28 96  1  0  0  0
 28 97  1  0  0  0
 29 98  1  0  0  0
 29 99  1  0  0  0
 33 34  1  0  0  0
 33 66  1  0  0  0
 33 70  2  0  0  0
 34 36  1  0  0  0
 34 59  1  0  0  0
 34100  1  0  0  0
 35 44  2  0  0  0
 35 45  1  0  0  0
 35 68  1  0  0  0
 36 56  1  0  0  0
 36101  1  0  0  0
 37 39  1  0  0  0
 37 47  1  0  0  0
 37 66  1  0  0  0
 37102  1  0  0  0
 38 43  2  0  0  0
 38 46  1  0  0  0
 38 47  1  0  0  0
 39 64  1  0  0  0
 39 67  2  0  0  0
 40 52  1  0  0  0
 40 53  2  0  0  0
 40 58  1  0  0  0
 41103  1  0  0  0
 41104  1  0  0  0
 41105  1  0  0  0
 41 48  1  0  0  0
 42 43  1  0  0  0
 42 66  1  0  0  0
 42106  1  0  0  0
 42107  1  0  0  0
 43 44  1  0  0  0
 44108  1  0  0  0
 45 46  2  0  0  0
 45109  1  0  0  0
 46110  1  0  0  0
 47111  1  0  0  0
 47112  1  0  0  0
 48 56  1  0  0  0
 48 65  1  0  0  0
 48113  1  0  0  0
 49 50  1  0  0  0
 49 53  1  0  0  0
 49 64  1  0  0  0
 49114  1  0  0  0
 50 51  1  0  0  0
 50115  1  0  0  0
 50116  1  0  0  0
 51 52  1  0  0  0
 51117  1  0  0  0
 51118  1  0  0  0
 52119  1  0  0  0
 52120  1  0  0  0
 53 54  1  0  0  0
 54 55  2  0  0  0
 54121  1  0  0  0
 55 57  1  0  0  0
 55122  1  0  0  0
 56 69  2  0  0  0
 57 58  2  0  0  0
 57123  1  0  0  0
 58124  1  0  0  0
 59 60  1  0  0  0
 59 61  1  0  0  0
 59 62  1  0  0  0
 60125  1  0  0  0
 60126  1  0  0  0
 60127  1  0  0  0
 61128  1  0  0  0
 61129  1  0  0  0
 61130  1  0  0  0
 62131  1  0  0  0
 62132  1  0  0  0
 62133  1  0  0  0
 63 65  1  0  0  0
 63134  1  0  0  0
 63135  1  0  0  0
 63136  1  0  0  0
 64137  1  0  0  0
 65138  1  0  0  0
 68 77  1  0  0  0
 71 72  1  0  0  0
 71 74  1  0  0  0
 71139  1  0  0  0
 71140  1  0  0  0
 72 78  1  0  0  0
 72141  1  0  0  0
 72142  1  0  0  0
 73 75  1  0  0  0
 73 78  1  0  0  0
 73143  1  0  0  0
 73144  1  0  0  0
 74 79  1  0  0  0
 74145  1  0  0  0
 74146  1  0  0  0
 75 79  1  0  0  0
 75147  1  0  0  0
 75148  1  0  0  0
 76 77  1  0  0  0
 76149  1  0  0  0
 76150  1  0  0  0
 76 79  1  0  0  0
 77151  1  0  0  0
 77152  1  0  0  0
 79153  1  0  0  0
M  CHG  1  79   1
M  ISO  4   1 100  68 101  77 101  78 100
M  END
> <chiral flag>
0

> <version>
0

> <s_m_source_file>
/data/baiqing/PycharmProjects/Reinvent-master-3.2/result/LINK_invent/BTK/process_docking_weight1_custom_product_contain_oxygen_bond_distance_aromatic_linkinvent_7_9_3/rearranged_h_0003.sdf

> <i_m_source_file_index>
15

> <r_mmod_Potential_Energy-OPLS-2005>
1797.88806152344

> <r_mmod_Stretch_Energy-OPLS-2005>
687.443664550781

> <r_mmod_Bend_Energy-OPLS-2005>
607.202758789062

> <r_mmod_Torsional_Energy-OPLS-2005>
387.102569580078

> <r_mmod_Improper_Torsional_Energy-OPLS-2005>
3.40060496330261

> <r_mmod_Van_der_Waal_Energy-OPLS-2005>
113.290077209473

> <r_mmod_Electrostatic_Energy-OPLS-2005>
-157.959091186523

> <r_mmod_Solvation_Energy-OPLS-2005>
-441.354675292969

> <b_mmod_Minimization_Converged-OPLS-2005>
0

> <r_mmod_RMS_Derivative-OPLS-2005>
9.47777938842773

$$$$
15
                    3D
 Structure written by MMmdl.
154163  0  0  1  0            999 V2000
  -30.4298  -15.1958   20.3788 C   0  0  0  0  0  0
  -30.4489  -12.7576   19.5139 C   0  0  0  0  0  0
  -29.5354  -12.5647   18.2770 C   0  0  0  0  0  0
  -28.0787  -12.3017   18.7028 C   0  0  0  0  0  0
  -27.6176  -13.2639   19.8262 C   0  0  2  0  0  0
  -28.6561  -13.3906   20.9603 C   0  0  0  0  0  0
  -25.2411  -13.8225   20.5729 C   0  0  0  0  0  0
  -24.1755  -13.0428   20.9252 C   0  0  0  0  0  0
  -24.6397  -11.6922   20.8760 C   0  0  0  0  0  0
  -23.9088  -10.4287   21.0409 C   0  0  0  0  0  0
  -24.3632   -9.4200   21.9186 C   0  0  0  0  0  0
  -23.6300   -8.2239   22.0755 C   0  0  0  0  0  0
  -22.4281   -8.0283   21.3546 C   0  0  0  0  0  0
  -21.9923   -9.0256   20.4647 C   0  0  0  0  0  0
  -22.7259  -10.2130   20.3057 C   0  0  0  0  0  0
  -21.6854   -6.0737   22.5280 C   0  0  0  0  0  0
  -21.4015   -6.5640   23.8214 C   0  0  0  0  0  0
  -21.3660   -5.6792   24.9175 C   0  0  0  0  0  0
  -21.6044   -4.3055   24.7225 C   0  0  0  0  0  0
  -21.8818   -3.8148   23.4346 C   0  0  0  0  0  0
  -21.9192   -4.6965   22.3403 C   0  0  0  0  0  0
  -22.7772  -13.5189   21.1901 C   0  0  0  0  0  0
  -22.1660   -4.2150   21.0980 F   0  0  0  0  0  0
  -21.5628   -3.4539   25.7738 F   0  0  0  0  0  0
  -29.8966  -13.8838   20.3417 N   0  0  0  0  0  0
  -26.2838  -12.9483   20.3212 N   0  0  0  0  0  0
  -25.9332  -11.6598   20.5717 N   0  0  0  0  0  0
  -22.0427  -12.8176   22.0456 N   0  0  0  0  0  0
  -25.4025  -15.1962   20.4150 N   0  0  0  0  0  0
  -31.6508  -15.2511   20.1735 O   0  0  0  0  0  0
  -21.6641   -6.8882   21.4243 O   0  0  0  0  0  0
  -22.3455  -14.5490   20.6740 O   0  0  0  0  0  0
  -24.6585  -31.8279   23.1734 C   0  0  0  0  0  0
  -25.9285  -32.4610   23.8185 C   0  0  1  0  0  0
  -27.2209  -26.9723   20.1820 C   0  0  0  0  0  0
  -25.5969  -33.8422   24.2094 N   0  0  0  0  0  0
  -23.4709  -30.4402   21.5221 C   0  0  2  0  0  0
  -24.9234  -28.8324   20.1152 C   0  0  0  0  0  0
  -22.7643  -29.4463   22.4801 C   0  0  0  0  0  0
  -18.0318  -28.1406   22.8467 C   0  0  0  0  0  0
  -24.1493  -36.7218   23.2646 C   0  0  0  0  0  0
  -26.0372  -30.6498   21.3957 C   0  0  0  0  0  0
  -26.1064  -29.2430   20.7420 C   0  0  0  0  0  0
  -27.2522  -28.3344   20.7477 C   0  0  0  0  0  0
  -26.0071  -26.6993   19.5137 C   0  0  0  0  0  0
  -24.8961  -27.5797   19.4816 C   0  0  0  0  0  0
  -23.7081  -29.7560   20.1481 C   0  0  0  0  0  0
  -25.4132  -36.2980   24.0302 C   0  0  1  0  0  0
  -20.5939  -28.3747   23.1199 C   0  0  2  0  0  0
  -20.6797  -26.9433   22.5402 C   0  0  0  0  0  0
  -19.5771  -26.6378   21.5213 C   0  0  0  0  0  0
  -18.1953  -26.7939   22.1622 C   0  0  0  0  0  0
  -19.1578  -28.8896   23.2821 C   0  0  0  0  0  0
  -18.9490  -30.1487   23.8855 C   0  0  0  0  0  0
  -17.6484  -30.6596   24.0557 C   0  0  0  0  0  0
  -25.9094  -34.9362   23.5018 C   0  0  0  0  0  0
  -16.5375  -29.9085   23.6342 C   0  0  0  0  0  0
  -16.7300  -28.6505   23.0360 C   0  0  0  0  0  0
  -26.4552  -31.6540   25.0697 C   0  0  0  0  0  0
  -25.3689  -31.3779   26.1361 C   0  0  0  0  0  0
  -27.0444  -30.2913   24.6400 C   0  0  0  0  0  0
  -27.6047  -32.4345   25.7500 C   0  0  0  0  0  0
  -27.5571  -37.1766   24.8465 C   0  0  0  0  0  0
  -21.4317  -29.3044   22.3550 N   0  0  0  0  0  0
  -26.4281  -37.3711   23.9407 N   0  0  0  0  0  0
  -24.7432  -30.9984   22.0845 N   0  0  0  0  0  0
  -23.4210  -28.8034   23.3028 O   0  0  0  0  0  0
  -28.2536  -25.9115   20.2310 O   0  0  0  0  0  0
  -26.5702  -34.8891   22.4612 O   0  0  0  0  0  0
  -23.5666  -32.1229   23.6854 O   0  0  0  0  0  0
  -29.8636  -20.4381   21.2794 C   0  0  0  0  0  0
  -30.0635  -18.9655   21.3061 C   0  0  0  0  0  0
  -28.7944  -18.7957   19.3987 C   0  0  0  0  0  0
  -29.1362  -21.2482   20.2994 C   0  0  0  0  0  0
  -29.5628  -17.9936   20.3490 C   0  0  0  0  0  0
  -28.6130  -20.2723   19.3521 C   0  0  0  0  0  0
  -30.9479  -24.1909   19.5205 C   0  0  0  0  0  0
  -30.5464  -23.4715   20.8047 C   0  0  0  0  0  0
  -30.0282  -23.2066   18.8047 C   0  0  0  0  0  0
  -29.2406  -22.9862   20.1201 C   0  0  0  0  0  0
  -28.0428  -24.2875   20.2616 C   0  0  0  0  0  0
  -29.5687  -16.3866   20.4248 N   0  0  0  0  0  0
  -27.9120  -20.7637   18.3023 F   0  0  0  0  0  0
  -31.4675  -12.9690   19.1852 H   0  0  0  0  0  0
  -30.5113  -11.8388   20.0995 H   0  0  0  0  0  0
  -29.9003  -11.7441   17.6581 H   0  0  0  0  0  0
  -29.5762  -13.4595   17.6537 H   0  0  0  0  0  0
  -28.0211  -11.2722   19.0583 H   0  0  0  0  0  0
  -27.4108  -12.3661   17.8431 H   0  0  0  0  0  0
  -27.5460  -14.2413   19.3481 H   0  0  0  0  0  0
  -28.8069  -12.4386   21.4713 H   0  0  0  0  0  0
  -28.3110  -14.0973   21.7169 H   0  0  0  0  0  0
  -25.2775   -9.5674   22.4766 H   0  0  0  0  0  0
  -24.0004   -7.4631   22.7476 H   0  0  0  0  0  0
  -21.0853   -8.8781   19.8952 H   0  0  0  0  0  0
  -22.3720  -10.9672   19.6169 H   0  0  0  0  0  0
  -21.2010   -7.6148   23.9717 H   0  0  0  0  0  0
  -21.1483   -6.0523   25.9078 H   0  0  0  0  0  0
  -22.0596   -2.7610   23.2845 H   0  0  0  0  0  0
  -22.4054  -11.9847   22.4854 H   0  0  0  0  0  0
  -21.1039  -13.1189   22.2655 H   0  0  0  0  0  0
  -24.6249  -15.8382   20.5250 H   0  0  0  0  0  0
  -26.2292  -15.6419   20.0420 H   0  0  0  0  0  0
  -26.7354  -32.5164   23.0905 H   0  0  0  0  0  0
  -25.0066  -33.9506   25.0209 H   0  0  0  0  0  0
  -22.7819  -31.2704   21.3533 H   0  0  0  0  0  0
  -23.3765  -35.9539   23.3280 H   0  0  0  0  0  0
  -24.3572  -36.8891   22.2067 H   0  0  0  0  0  0
  -23.7242  -37.6396   23.6719 H   0  0  0  0  0  0
  -26.2106  -31.3930   20.6163 H   0  0  0  0  0  0
  -26.8999  -30.7068   22.0477 H   0  0  0  0  0  0
  -28.1526  -28.6498   21.2558 H   0  0  0  0  0  0
  -25.8875  -25.7450   19.0231 H   0  0  0  0  0  0
  -23.9963  -27.2595   18.9744 H   0  0  0  0  0  0
  -23.8606  -30.5241   19.3891 H   0  0  0  0  0  0
  -22.8186  -29.2078   19.8325 H   0  0  0  0  0  0
  -25.1329  -36.1782   25.0793 H   0  0  0  0  0  0
  -21.0028  -28.3351   24.1322 H   0  0  0  0  0  0
  -20.5679  -26.2364   23.3637 H   0  0  0  0  0  0
  -21.6661  -26.7414   22.1209 H   0  0  0  0  0  0
  -19.6931  -25.6277   21.1270 H   0  0  0  0  0  0
  -19.6709  -27.3164   20.6723 H   0  0  0  0  0  0
  -17.4220  -26.6679   21.4028 H   0  0  0  0  0  0
  -18.0350  -26.0092   22.9030 H   0  0  0  0  0  0
  -19.7965  -30.7314   24.2207 H   0  0  0  0  0  0
  -17.5036  -31.6272   24.5166 H   0  0  0  0  0  0
  -15.5374  -30.2974   23.7689 H   0  0  0  0  0  0
  -15.8701  -28.0810   22.7101 H   0  0  0  0  0  0
  -24.5881  -30.7119   25.7672 H   0  0  0  0  0  0
  -24.8868  -32.2978   26.4679 H   0  0  0  0  0  0
  -25.7929  -30.9018   27.0210 H   0  0  0  0  0  0
  -26.3103  -29.6594   24.1390 H   0  0  0  0  0  0
  -27.3976  -29.7269   25.5040 H   0  0  0  0  0  0
  -27.9042  -30.4105   23.9804 H   0  0  0  0  0  0
  -27.2614  -33.3682   26.1967 H   0  0  0  0  0  0
  -28.3917  -32.6848   25.0373 H   0  0  0  0  0  0
  -28.0651  -31.8546   26.5510 H   0  0  0  0  0  0
  -28.2570  -38.0079   24.7512 H   0  0  0  0  0  0
  -28.1085  -36.2605   24.6293 H   0  0  0  0  0  0
  -27.2287  -37.1409   25.8867 H   0  0  0  0  0  0
  -20.9563  -29.8734   21.6685 H   0  0  0  0  0  0
  -26.0132  -38.2770   24.1415 H   0  0  0  0  0  0
  -30.3511  -20.9758   22.0793 H   0  0  0  0  0  0
  -30.6267  -18.5738   22.1418 H   0  0  0  0  0  0
  -28.2958  -18.2471   18.6133 H   0  0  0  0  0  0
  -32.0031  -24.1034   19.2588 H   0  0  0  0  0  0
  -30.6049  -25.2250   19.4713 H   0  0  0  0  0  0
  -30.3928  -24.1307   21.6599 H   0  0  0  0  0  0
  -31.2683  -22.6898   21.0403 H   0  0  0  0  0  0
  -30.5721  -22.3235   18.4632 H   0  0  0  0  0  0
  -29.4432  -23.6391   17.9922 H   0  0  0  0  0  0
  -27.5134  -24.1190   21.1994 H   0  0  0  0  0  0
  -27.2905  -24.0855   19.5005 H   0  0  0  0  0  0
  -28.6204  -16.0440   20.4412 H   0  0  0  0  0  0
  1 25  1  0  0  0
  1 30  2  0  0  0
  1 82  1  0  0  0
  2  3  1  0  0  0
  2 25  1  0  0  0
  2 84  1  0  0  0
  2 85  1  0  0  0
  3  4  1  0  0  0
  3 86  1  0  0  0
  3 87  1  0  0  0
  4  5  1  0  0  0
  4 88  1  0  0  0
  4 89  1  0  0  0
  5  6  1  0  0  0
  5 26  1  0  0  0
  5 90  1  0  0  0
  6 25  1  0  0  0
  6 91  1  0  0  0
  6 92  1  0  0  0
  7  8  2  0  0  0
  7 26  1  0  0  0
  7 29  1  0  0  0
  8  9  1  0  0  0
  8 22  1  0  0  0
  9 10  1  0  0  0
  9 27  2  0  0  0
 10 11  2  0  0  0
 10 15  1  0  0  0
 11 12  1  0  0  0
 11 93  1  0  0  0
 12 13  2  0  0  0
 12 94  1  0  0  0
 13 14  1  0  0  0
 13 31  1  0  0  0
 14 15  2  0  0  0
 14 95  1  0  0  0
 15 96  1  0  0  0
 16 17  2  0  0  0
 16 21  1  0  0  0
 16 31  1  0  0  0
 17 18  1  0  0  0
 17 97  1  0  0  0
 18 19  2  0  0  0
 18 98  1  0  0  0
 19 20  1  0  0  0
 19 24  1  0  0  0
 20 21  2  0  0  0
 20 99  1  0  0  0
 21 23  1  0  0  0
 22 28  1  0  0  0
 22 32  2  0  0  0
 26 27  1  0  0  0
 28100  1  0  0  0
 28101  1  0  0  0
 29102  1  0  0  0
 29103  1  0  0  0
 33 34  1  0  0  0
 33 66  1  0  0  0
 33 70  2  0  0  0
 34 36  1  0  0  0
 34 59  1  0  0  0
 34104  1  0  0  0
 35 44  2  0  0  0
 35 45  1  0  0  0
 35 68  1  0  0  0
 36 56  1  0  0  0
 36105  1  0  0  0
 37 39  1  0  0  0
 37 47  1  0  0  0
 37 66  1  0  0  0
 37106  1  0  0  0
 38 43  2  0  0  0
 38 46  1  0  0  0
 38 47  1  0  0  0
 39 64  1  0  0  0
 39 67  2  0  0  0
 40 52  1  0  0  0
 40 53  2  0  0  0
 40 58  1  0  0  0
 41107  1  0  0  0
 41108  1  0  0  0
 41109  1  0  0  0
 41 48  1  0  0  0
 42 43  1  0  0  0
 42 66  1  0  0  0
 42110  1  0  0  0
 42111  1  0  0  0
 43 44  1  0  0  0
 44112  1  0  0  0
 45 46  2  0  0  0
 45113  1  0  0  0
 46114  1  0  0  0
 47115  1  0  0  0
 47116  1  0  0  0
 48 56  1  0  0  0
 48 65  1  0  0  0
 48117  1  0  0  0
 49 50  1  0  0  0
 49 53  1  0  0  0
 49 64  1  0  0  0
 49118  1  0  0  0
 50 51  1  0  0  0
 50119  1  0  0  0
 50120  1  0  0  0
 51 52  1  0  0  0
 51121  1  0  0  0
 51122  1  0  0  0
 52123  1  0  0  0
 52124  1  0  0  0
 53 54  1  0  0  0
 54 55  2  0  0  0
 54125  1  0  0  0
 55 57  1  0  0  0
 55126  1  0  0  0
 56 69  2  0  0  0
 57 58  2  0  0  0
 57127  1  0  0  0
 58128  1  0  0  0
 59 60  1  0  0  0
 59 61  1  0  0  0
 59 62  1  0  0  0
 60129  1  0  0  0
 60130  1  0  0  0
 60131  1  0  0  0
 61132  1  0  0  0
 61133  1  0  0  0
 61134  1  0  0  0
 62135  1  0  0  0
 62136  1  0  0  0
 62137  1  0  0  0
 63 65  1  0  0  0
 63138  1  0  0  0
 63139  1  0  0  0
 63140  1  0  0  0
 64141  1  0  0  0
 65142  1  0  0  0
 68 81  1  0  0  0
 71 72  2  0  0  0
 71 74  1  0  0  0
 71143  1  0  0  0
 72 75  1  0  0  0
 72144  1  0  0  0
 73 75  2  0  0  0
 73 76  1  0  0  0
 73145  1  0  0  0
 74 76  2  0  0  0
 74 80  1  0  0  0
 75 82  1  0  0  0
 76 83  1  0  0  0
 77 78  1  0  0  0
 77 79  1  0  0  0
 77146  1  0  0  0
 77147  1  0  0  0
 78 80  1  0  0  0
 78148  1  0  0  0
 78149  1  0  0  0
 79 80  1  0  0  0
 79150  1  0  0  0
 79151  1  0  0  0
 80 81  1  0  0  0
 81152  1  0  0  0
 81153  1  0  0  0
 82154  1  0  0  0
M  ISO  4   1 100  68 101  81 101  82 100
M  END
> <chiral flag>
0

> <version>
0

> <s_m_source_file>
/data/baiqing/PycharmProjects/Reinvent-master-3.2/result/LINK_invent/BTK/process_docking_weight1_custom_product_contain_oxygen_bond_distance_aromatic_linkinvent_7_9_3/rearranged_h_0003.sdf

> <i_m_source_file_index>
16

> <r_mmod_Potential_Energy-OPLS-2005>
1170.81860351562

> <r_mmod_Stretch_Energy-OPLS-2005>
473.835845947266

> <r_mmod_Bend_Energy-OPLS-2005>
426.232421875

> <r_mmod_Torsional_Energy-OPLS-2005>
280.963195800781

> <r_mmod_Improper_Torsional_Energy-OPLS-2005>
9.46085739135742

> <r_mmod_Van_der_Waal_Energy-OPLS-2005>
130.431747436523

> <r_mmod_Electrostatic_Energy-OPLS-2005>
-334.860778808594

> <r_mmod_Solvation_Energy-OPLS-2005>
-204.311157226562

> <b_mmod_Minimization_Converged-OPLS-2005>
0

> <r_mmod_RMS_Derivative-OPLS-2005>
0.284148395061493

$$$$
16
                    3D
 Structure written by MMmdl.
163172  0  0  1  0            999 V2000
  -30.7055  -14.4513   20.5750 C   0  0  0  0  0  0
  -30.4190  -12.2917   19.4252 C   0  0  0  0  0  0
  -29.4952  -12.5072   18.2088 C   0  0  0  0  0  0
  -28.0151  -12.3699   18.6177 C   0  0  0  0  0  0
  -27.6629  -13.2056   19.8780 C   0  0  2  0  0  0
  -28.7014  -12.9757   20.9993 C   0  0  0  0  0  0
  -25.2591  -13.8158   20.5683 C   0  0  0  0  0  0
  -24.1835  -13.0438   20.9164 C   0  0  0  0  0  0
  -24.6385  -11.6904   20.8726 C   0  0  0  0  0  0
  -23.9053  -10.4290   21.0398 C   0  0  0  0  0  0
  -24.3609   -9.4210   21.9179 C   0  0  0  0  0  0
  -23.6288   -8.2243   22.0754 C   0  0  0  0  0  0
  -22.4270   -8.0278   21.3545 C   0  0  0  0  0  0
  -21.9903   -9.0246   20.4643 C   0  0  0  0  0  0
  -22.7228  -10.2125   20.3046 C   0  0  0  0  0  0
  -21.6852   -6.0733   22.5280 C   0  0  0  0  0  0
  -21.4012   -6.5639   23.8214 C   0  0  0  0  0  0
  -21.3659   -5.6790   24.9175 C   0  0  0  0  0  0
  -21.6044   -4.3052   24.7226 C   0  0  0  0  0  0
  -21.8819   -3.8145   23.4344 C   0  0  0  0  0  0
  -21.9194   -4.6962   22.3400 C   0  0  0  0  0  0
  -22.7858  -13.5239   21.1832 C   0  0  0  0  0  0
  -22.1661   -4.2148   21.0977 F   0  0  0  0  0  0
  -21.5630   -3.4533   25.7735 F   0  0  0  0  0  0
  -30.0376  -13.2726   20.4534 N   0  0  0  0  0  0
  -26.3025  -12.9326   20.3372 N   0  0  0  0  0  0
  -25.9313  -11.6485   20.5761 N   0  0  0  0  0  0
  -22.0494  -12.8222   22.0374 N   0  0  0  0  0  0
  -25.4329  -15.1876   20.4110 N   0  0  0  0  0  0
  -31.8316  -14.6223   20.0991 O   0  0  0  0  0  0
  -21.6638   -6.8873   21.4240 O   0  0  0  0  0  0
  -22.3553  -14.5559   20.6700 O   0  0  0  0  0  0
  -24.6109  -31.8698   23.2117 C   0  0  0  0  0  0
  -25.9012  -32.4836   23.8407 C   0  0  1  0  0  0
  -27.2470  -27.4515   20.1057 C   0  0  0  0  0  0
  -25.5876  -33.8633   24.2342 N   0  0  0  0  0  0
  -23.3998  -30.4910   21.5502 C   0  0  2  0  0  0
  -24.8515  -28.9559   20.1186 C   0  0  0  0  0  0
  -22.7396  -29.4663   22.5000 C   0  0  0  0  0  0
  -18.0264  -28.1378   22.8494 C   0  0  0  0  0  0
  -24.1481  -36.7316   23.2628 C   0  0  0  0  0  0
  -25.9243  -30.8404   21.3629 C   0  0  0  0  0  0
  -26.0055  -29.4714   20.7216 C   0  0  0  0  0  0
  -27.2046  -28.7256   20.7229 C   0  0  0  0  0  0
  -26.0820  -26.9551   19.4877 C   0  0  0  0  0  0
  -24.8826  -27.6932   19.5006 C   0  0  0  0  0  0
  -23.6102  -29.8185   20.1660 C   0  0  0  0  0  0
  -25.4093  -36.3118   24.0345 C   0  0  1  0  0  0
  -20.5853  -28.3656   23.1329 C   0  0  2  0  0  0
  -20.6755  -26.9398   22.5423 C   0  0  0  0  0  0
  -19.5739  -26.6395   21.5213 C   0  0  0  0  0  0
  -18.1915  -26.7929   22.1620 C   0  0  0  0  0  0
  -19.1514  -28.8834   23.2911 C   0  0  0  0  0  0
  -18.9446  -30.1441   23.8919 C   0  0  0  0  0  0
  -17.6449  -30.6585   24.0572 C   0  0  0  0  0  0
  -25.9029  -34.9486   23.5145 C   0  0  0  0  0  0
  -16.5338  -29.9090   23.6328 C   0  0  0  0  0  0
  -16.7254  -28.6509   23.0343 C   0  0  0  0  0  0
  -26.4457  -31.6598   25.0717 C   0  0  0  0  0  0
  -25.3740  -31.3686   26.1476 C   0  0  0  0  0  0
  -27.0287  -30.3051   24.6056 C   0  0  0  0  0  0
  -27.6043  -32.4306   25.7473 C   0  0  0  0  0  0
  -27.5597  -37.1788   24.8435 C   0  0  0  0  0  0
  -21.4126  -29.3027   22.3740 N   0  0  0  0  0  0
  -26.4270  -37.3814   23.9442 N   0  0  0  0  0  0
  -24.6628  -31.0812   22.1009 N   0  0  0  0  0  0
  -23.4181  -28.8211   23.3035 O   0  0  0  0  0  0
  -28.3762  -26.6642   20.0453 O   0  0  0  0  0  0
  -26.5599  -34.8934   22.4711 O   0  0  0  0  0  0
  -23.5308  -32.1436   23.7526 O   0  0  0  0  0  0
  -31.0996  -18.8866   20.0095 C   0  0  0  0  0  0
  -29.4333  -19.1031   21.7596 C   0  0  0  0  0  0
  -31.0284  -17.4829   20.1081 C   0  0  0  0  0  0
  -29.3628  -17.6944   21.8609 C   0  0  0  0  0  0
  -30.3058  -19.7137   20.8317 C   0  0  0  0  0  0
  -30.1623  -16.8624   21.0431 C   0  0  0  0  0  0
  -29.1379  -21.9605   20.3004 C   0  0  0  0  0  0
  -30.9500  -21.8961   21.9978 C   0  0  0  0  0  0
  -29.3905  -23.4762   20.0898 C   0  0  0  0  0  0
  -31.2087  -23.3986   21.7679 C   0  0  0  0  0  0
  -30.4319  -21.2367   20.7139 C   0  0  1  0  0  0
  -30.3302  -25.5813   21.0470 C   0  0  0  0  0  0
  -29.1562  -26.5684   21.2355 C   0  0  0  0  0  0
  -30.0132  -15.4429   21.1722 N   0  0  0  0  0  0
  -30.0071  -24.1374   21.2787 N   0  3  1  0  0  0
  -31.4658  -12.3787   19.1286 H   0  0  0  0  0  0
  -30.3063  -11.2791   19.8157 H   0  0  0  0  0  0
  -29.7343  -11.7905   17.4220 H   0  0  0  0  0  0
  -29.6687  -13.4976   17.7838 H   0  0  0  0  0  0
  -27.8220  -11.3134   18.8085 H   0  0  0  0  0  0
  -27.3664  -12.6497   17.7868 H   0  0  0  0  0  0
  -27.7109  -14.2554   19.5876 H   0  0  0  0  0  0
  -28.6693  -11.9382   21.3353 H   0  0  0  0  0  0
  -28.4613  -13.5696   21.8818 H   0  0  0  0  0  0
  -25.2755   -9.5688   22.4749 H   0  0  0  0  0  0
  -24.0002   -7.4635   22.7471 H   0  0  0  0  0  0
  -21.0837   -8.8755   19.8947 H   0  0  0  0  0  0
  -22.3689  -10.9655   19.6147 H   0  0  0  0  0  0
  -21.2000   -7.6148   23.9718 H   0  0  0  0  0  0
  -21.1481   -6.0518   25.9079 H   0  0  0  0  0  0
  -22.0597   -2.7607   23.2841 H   0  0  0  0  0  0
  -22.4099  -11.9866   22.4736 H   0  0  0  0  0  0
  -21.1107  -13.1241   22.2569 H   0  0  0  0  0  0
  -24.6693  -15.8459   20.5202 H   0  0  0  0  0  0
  -26.2934  -15.6262   20.1069 H   0  0  0  0  0  0
  -26.7086  -32.5570   23.1183 H   0  0  0  0  0  0
  -25.0015  -33.9796   25.0480 H   0  0  0  0  0  0
  -22.6876  -31.3065   21.4088 H   0  0  0  0  0  0
  -23.3760  -35.9628   23.3250 H   0  0  0  0  0  0
  -24.3598  -36.8965   22.2052 H   0  0  0  0  0  0
  -23.7202  -37.6501   23.6656 H   0  0  0  0  0  0
  -26.0276  -31.6012   20.5878 H   0  0  0  0  0  0
  -26.8151  -30.9042   21.9755 H   0  0  0  0  0  0
  -28.0870  -29.1476   21.1819 H   0  0  0  0  0  0
  -26.1030  -25.9885   19.0042 H   0  0  0  0  0  0
  -23.9974  -27.2902   19.0279 H   0  0  0  0  0  0
  -23.7148  -30.5897   19.4022 H   0  0  0  0  0  0
  -22.7366  -29.2329   19.8733 H   0  0  0  0  0  0
  -25.1257  -36.1973   25.0833 H   0  0  0  0  0  0
  -20.9942  -28.3216   24.1451 H   0  0  0  0  0  0
  -20.5653  -26.2265   23.3608 H   0  0  0  0  0  0
  -21.6629  -26.7447   22.1216 H   0  0  0  0  0  0
  -19.6903  -25.6316   21.1218 H   0  0  0  0  0  0
  -19.6682  -27.3229   20.6763 H   0  0  0  0  0  0
  -17.4192  -26.6684   21.4016 H   0  0  0  0  0  0
  -18.0312  -26.0062   22.9006 H   0  0  0  0  0  0
  -19.7923  -30.7246   24.2301 H   0  0  0  0  0  0
  -17.5009  -31.6266   24.5173 H   0  0  0  0  0  0
  -15.5342  -30.3001   23.7648 H   0  0  0  0  0  0
  -15.8653  -28.0843   22.7039 H   0  0  0  0  0  0
  -24.5899  -30.7048   25.7812 H   0  0  0  0  0  0
  -24.8944  -32.2835   26.4965 H   0  0  0  0  0  0
  -25.8106  -30.8824   27.0208 H   0  0  0  0  0  0
  -26.2821  -29.6821   24.1113 H   0  0  0  0  0  0
  -27.4083  -29.7268   25.4489 H   0  0  0  0  0  0
  -27.8642  -30.4396   23.9183 H   0  0  0  0  0  0
  -27.2673  -33.3600   26.2075 H   0  0  0  0  0  0
  -28.3837  -32.6871   25.0285 H   0  0  0  0  0  0
  -28.0723  -31.8408   26.5365 H   0  0  0  0  0  0
  -28.2517  -38.0182   24.7635 H   0  0  0  0  0  0
  -28.1194  -36.2731   24.6052 H   0  0  0  0  0  0
  -27.2357  -37.1170   25.8838 H   0  0  0  0  0  0
  -20.9283  -29.8751   21.6966 H   0  0  0  0  0  0
  -26.0157  -38.2873   24.1531 H   0  0  0  0  0  0
  -31.7775  -19.3230   19.2892 H   0  0  0  0  0  0
  -28.8144  -19.7125   22.4033 H   0  0  0  0  0  0
  -31.6499  -16.9090   19.4379 H   0  0  0  0  0  0
  -28.6827  -17.2576   22.5791 H   0  0  0  0  0  0
  -28.7542  -21.5290   19.3751 H   0  0  0  0  0  0
  -28.3619  -21.8118   21.0521 H   0  0  0  0  0  0
  -30.2424  -21.7558   22.8160 H   0  0  0  0  0  0
  -31.8791  -21.4178   22.3102 H   0  0  0  0  0  0
  -28.4505  -23.9701   19.8417 H   0  0  0  0  0  0
  -30.0441  -23.6106   19.2262 H   0  0  0  0  0  0
  -32.0202  -23.5194   21.0480 H   0  0  0  0  0  0
  -31.5575  -23.8414   22.7020 H   0  0  0  0  0  0
  -31.1698  -21.4263   19.9318 H   0  0  0  0  0  0
  -31.0806  -25.8782   21.7811 H   0  0  0  0  0  0
  -30.8059  -25.7273   20.0765 H   0  0  0  0  0  0
  -29.5810  -27.5475   21.4582 H   0  0  0  0  0  0
  -28.5377  -26.2880   22.0897 H   0  0  0  0  0  0
  -29.1779  -15.1347   21.6464 H   0  0  0  0  0  0
  -29.3291  -24.0985   22.0270 H   0  0  0  0  0  0
  1 25  1  0  0  0
  1 30  2  0  0  0
  1 84  1  0  0  0
  2  3  1  0  0  0
  2 25  1  0  0  0
  2 86  1  0  0  0
  2 87  1  0  0  0
  3  4  1  0  0  0
  3 88  1  0  0  0
  3 89  1  0  0  0
  4  5  1  0  0  0
  4 90  1  0  0  0
  4 91  1  0  0  0
  5  6  1  0  0  0
  5 26  1  0  0  0
  5 92  1  0  0  0
  6 25  1  0  0  0
  6 93  1  0  0  0
  6 94  1  0  0  0
  7  8  2  0  0  0
  7 26  1  0  0  0
  7 29  1  0  0  0
  8  9  1  0  0  0
  8 22  1  0  0  0
  9 10  1  0  0  0
  9 27  2  0  0  0
 10 11  2  0  0  0
 10 15  1  0  0  0
 11 12  1  0  0  0
 11 95  1  0  0  0
 12 13  2  0  0  0
 12 96  1  0  0  0
 13 14  1  0  0  0
 13 31  1  0  0  0
 14 15  2  0  0  0
 14 97  1  0  0  0
 15 98  1  0  0  0
 16 17  2  0  0  0
 16 21  1  0  0  0
 16 31  1  0  0  0
 17 18  1  0  0  0
 17 99  1  0  0  0
 18 19  2  0  0  0
 18100  1  0  0  0
 19 20  1  0  0  0
 19 24  1  0  0  0
 20 21  2  0  0  0
 20101  1  0  0  0
 21 23  1  0  0  0
 22 28  1  0  0  0
 22 32  2  0  0  0
 26 27  1  0  0  0
 28102  1  0  0  0
 28103  1  0  0  0
 29104  1  0  0  0
 29105  1  0  0  0
 33 34  1  0  0  0
 33 66  1  0  0  0
 33 70  2  0  0  0
 34 36  1  0  0  0
 34 59  1  0  0  0
 34106  1  0  0  0
 35 44  2  0  0  0
 35 45  1  0  0  0
 35 68  1  0  0  0
 36 56  1  0  0  0
 36107  1  0  0  0
 37 39  1  0  0  0
 37 47  1  0  0  0
 37 66  1  0  0  0
 37108  1  0  0  0
 38 43  2  0  0  0
 38 46  1  0  0  0
 38 47  1  0  0  0
 39 64  1  0  0  0
 39 67  2  0  0  0
 40 52  1  0  0  0
 40 53  2  0  0  0
 40 58  1  0  0  0
 41109  1  0  0  0
 41110  1  0  0  0
 41111  1  0  0  0
 41 48  1  0  0  0
 42 43  1  0  0  0
 42 66  1  0  0  0
 42112  1  0  0  0
 42113  1  0  0  0
 43 44  1  0  0  0
 44114  1  0  0  0
 45 46  2  0  0  0
 45115  1  0  0  0
 46116  1  0  0  0
 47117  1  0  0  0
 47118  1  0  0  0
 48 56  1  0  0  0
 48 65  1  0  0  0
 48119  1  0  0  0
 49 50  1  0  0  0
 49 53  1  0  0  0
 49 64  1  0  0  0
 49120  1  0  0  0
 50 51  1  0  0  0
 50121  1  0  0  0
 50122  1  0  0  0
 51 52  1  0  0  0
 51123  1  0  0  0
 51124  1  0  0  0
 52125  1  0  0  0
 52126  1  0  0  0
 53 54  1  0  0  0
 54 55  2  0  0  0
 54127  1  0  0  0
 55 57  1  0  0  0
 55128  1  0  0  0
 56 69  2  0  0  0
 57 58  2  0  0  0
 57129  1  0  0  0
 58130  1  0  0  0
 59 60  1  0  0  0
 59 61  1  0  0  0
 59 62  1  0  0  0
 60131  1  0  0  0
 60132  1  0  0  0
 60133  1  0  0  0
 61134  1  0  0  0
 61135  1  0  0  0
 61136  1  0  0  0
 62137  1  0  0  0
 62138  1  0  0  0
 62139  1  0  0  0
 63 65  1  0  0  0
 63140  1  0  0  0
 63141  1  0  0  0
 63142  1  0  0  0
 64143  1  0  0  0
 65144  1  0  0  0
 68 83  1  0  0  0
 71 73  2  0  0  0
 71 75  1  0  0  0
 71145  1  0  0  0
 72 74  1  0  0  0
 72 75  2  0  0  0
 72146  1  0  0  0
 73 76  1  0  0  0
 73147  1  0  0  0
 74 76  2  0  0  0
 74148  1  0  0  0
 75 81  1  0  0  0
 76 84  1  0  0  0
 77 79  1  0  0  0
 77 81  1  0  0  0
 77149  1  0  0  0
 77150  1  0  0  0
 78 80  1  0  0  0
 78 81  1  0  0  0
 78151  1  0  0  0
 78152  1  0  0  0
 79 85  1  0  0  0
 79153  1  0  0  0
 79154  1  0  0  0
 80 85  1  0  0  0
 80155  1  0  0  0
 80156  1  0  0  0
 81157  1  0  0  0
 82 83  1  0  0  0
 82158  1  0  0  0
 82159  1  0  0  0
 82 85  1  0  0  0
 83160  1  0  0  0
 83161  1  0  0  0
 84162  1  0  0  0
 85163  1  0  0  0
M  CHG  1  85   1
M  ISO  4   1 100  68 101  83 101  84 100
M  END
> <chiral flag>
0

> <version>
0

> <s_m_source_file>
/data/baiqing/PycharmProjects/Reinvent-master-3.2/result/LINK_invent/BTK/process_docking_weight1_custom_product_contain_oxygen_bond_distance_aromatic_linkinvent_7_9_3/rearranged_h_0003.sdf

> <i_m_source_file_index>
17

> <r_mmod_Potential_Energy-OPLS-2005>
-116.643402099609

> <r_mmod_Stretch_Energy-OPLS-2005>
37.8896369934082

> <r_mmod_Bend_Energy-OPLS-2005>
104.207641601562

> <r_mmod_Torsional_Energy-OPLS-2005>
257.503295898438

> <r_mmod_Improper_Torsional_Energy-OPLS-2005>
2.8865077495575

> <r_mmod_Van_der_Waal_Energy-OPLS-2005>
159.701919555664

> <r_mmod_Electrostatic_Energy-OPLS-2005>
-267.300842285156

> <r_mmod_Solvation_Energy-OPLS-2005>
-421.754913330078

> <b_mmod_Minimization_Converged-OPLS-2005>
0

> <r_mmod_RMS_Derivative-OPLS-2005>
0.618270814418793

$$$$
17
                    3D
 Structure written by MMmdl.
157165  0  0  1  0            999 V2000
  -30.6497  -14.4642   20.5771 C   0  0  0  0  0  0
  -30.4390  -12.2933   19.4439 C   0  0  0  0  0  0
  -29.5155  -12.5261   18.2277 C   0  0  0  0  0  0
  -28.0347  -12.3623   18.6246 C   0  0  0  0  0  0
  -27.6699  -13.1873   19.8885 C   0  0  2  0  0  0
  -28.7018  -12.9354   21.0149 C   0  0  0  0  0  0
  -25.2634  -13.8104   20.5667 C   0  0  0  0  0  0
  -24.1850  -13.0402   20.9154 C   0  0  0  0  0  0
  -24.6370  -11.6865   20.8695 C   0  0  0  0  0  0
  -23.8997  -10.4279   21.0381 C   0  0  0  0  0  0
  -24.3565   -9.4222   21.9167 C   0  0  0  0  0  0
  -23.6279   -8.2249   22.0754 C   0  0  0  0  0  0
  -22.4255   -8.0263   21.3552 C   0  0  0  0  0  0
  -21.9866   -9.0223   20.4645 C   0  0  0  0  0  0
  -22.7159  -10.2113   20.3047 C   0  0  0  0  0  0
  -21.6864   -6.0715   22.5277 C   0  0  0  0  0  0
  -21.4016   -6.5632   23.8210 C   0  0  0  0  0  0
  -21.3662   -5.6788   24.9172 C   0  0  0  0  0  0
  -21.6044   -4.3054   24.7232 C   0  0  0  0  0  0
  -21.8818   -3.8133   23.4359 C   0  0  0  0  0  0
  -21.9201   -4.6953   22.3408 C   0  0  0  0  0  0
  -22.7891  -13.5254   21.1818 C   0  0  0  0  0  0
  -22.1676   -4.2128   21.0991 F   0  0  0  0  0  0
  -21.5611   -3.4546   25.7750 F   0  0  0  0  0  0
  -30.0442  -13.2489   20.4896 N   0  0  0  0  0  0
  -26.3050  -12.9237   20.3374 N   0  0  0  0  0  0
  -25.9288  -11.6409   20.5713 N   0  0  0  0  0  0
  -22.0509  -12.8297   22.0391 N   0  0  0  0  0  0
  -25.4361  -15.1821   20.4081 N   0  0  0  0  0  0
  -31.7401  -14.7223   20.0604 O   0  0  0  0  0  0
  -21.6642   -6.8860   21.4238 O   0  0  0  0  0  0
  -22.3605  -14.5563   20.6644 O   0  0  0  0  0  0
  -24.6133  -31.8719   23.2103 C   0  0  0  0  0  0
  -25.9039  -32.4822   23.8412 C   0  0  1  0  0  0
  -27.2451  -27.4592   20.0763 C   0  0  0  0  0  0
  -25.5889  -33.8615   24.2386 N   0  0  0  0  0  0
  -23.3973  -30.4898   21.5561 C   0  0  2  0  0  0
  -24.8402  -28.9499   20.1254 C   0  0  0  0  0  0
  -22.7362  -29.4708   22.5090 C   0  0  0  0  0  0
  -18.0249  -28.1371   22.8546 C   0  0  0  0  0  0
  -24.1412  -36.7237   23.2656 C   0  0  0  0  0  0
  -25.9209  -30.8431   21.3542 C   0  0  0  0  0  0
  -26.0011  -29.4763   20.7038 C   0  0  0  0  0  0
  -27.2051  -28.7391   20.6716 C   0  0  0  0  0  0
  -26.0615  -26.9399   19.4994 C   0  0  0  0  0  0
  -24.8643  -27.6797   19.5243 C   0  0  0  0  0  0
  -23.5954  -29.8068   20.1768 C   0  0  0  0  0  0
  -25.4051  -36.3103   24.0370 C   0  0  1  0  0  0
  -20.5839  -28.3642   23.1339 C   0  0  2  0  0  0
  -20.6704  -26.9396   22.5429 C   0  0  0  0  0  0
  -19.5690  -26.6415   21.5209 C   0  0  0  0  0  0
  -18.1883  -26.7929   22.1653 C   0  0  0  0  0  0
  -19.1506  -28.8828   23.2926 C   0  0  0  0  0  0
  -18.9460  -30.1442   23.8933 C   0  0  0  0  0  0
  -17.6461  -30.6599   24.0569 C   0  0  0  0  0  0
  -25.9022  -34.9470   23.5190 C   0  0  0  0  0  0
  -16.5347  -29.9114   23.6341 C   0  0  0  0  0  0
  -16.7240  -28.6502   23.0415 C   0  0  0  0  0  0
  -26.4457  -31.6558   25.0720 C   0  0  0  0  0  0
  -25.3699  -31.3628   26.1440 C   0  0  0  0  0  0
  -27.0268  -30.3000   24.6072 C   0  0  0  0  0  0
  -27.6065  -32.4225   25.7469 C   0  0  0  0  0  0
  -27.5528  -37.1762   24.8515 C   0  0  0  0  0  0
  -21.4113  -29.2972   22.3711 N   0  0  0  0  0  0
  -26.4242  -37.3792   23.9461 N   0  0  0  0  0  0
  -24.6632  -31.0808   22.0999 N   0  0  0  0  0  0
  -23.4126  -28.8337   23.3201 O   0  0  0  0  0  0
  -28.4404  -26.7718   20.0748 O   0  0  0  0  0  0
  -26.5592  -34.8930   22.4762 O   0  0  0  0  0  0
  -23.5334  -32.1504   23.7490 O   0  0  0  0  0  0
  -31.6344  -19.4176   19.4782 C   0  0  0  0  0  0
  -31.0509  -20.4577   20.2270 C   0  0  0  0  0  0
  -31.0852  -18.1232   19.5187 C   0  0  0  0  0  0
  -29.3686  -18.9066   21.0672 C   0  0  0  0  0  0
  -29.9131  -20.2133   21.0254 C   0  0  0  0  0  0
  -29.9491  -17.8609   20.3093 C   0  0  0  0  0  0
  -29.3180  -21.3326   21.8818 C   0  0  0  0  0  0
  -29.2986  -16.4866   20.2445 C   0  0  0  0  0  0
  -28.8052  -22.5912   21.1360 C   0  0  0  0  0  0
  -28.3868  -25.3450   20.0410 C   0  0  0  0  0  0
  -29.7254  -24.7588   20.5450 C   0  0  0  0  0  0
  -29.8617  -15.4255   21.0880 N   0  0  0  0  0  0
  -29.8350  -23.3291   20.4743 O   0  0  0  0  0  0
  -31.4862  -12.4112   19.1577 H   0  0  0  0  0  0
  -30.3436  -11.2697   19.8130 H   0  0  0  0  0  0
  -29.7704  -11.8381   17.4216 H   0  0  0  0  0  0
  -29.6815  -13.5305   17.8335 H   0  0  0  0  0  0
  -27.8588  -11.3037   18.8160 H   0  0  0  0  0  0
  -27.3873  -12.6337   17.7900 H   0  0  0  0  0  0
  -27.7196  -14.2359   19.6012 H   0  0  0  0  0  0
  -28.6755  -11.8881   21.3187 H   0  0  0  0  0  0
  -28.4520  -13.4977   21.9161 H   0  0  0  0  0  0
  -25.2693   -9.5757   22.4753 H   0  0  0  0  0  0
  -23.9991   -7.4675   22.7513 H   0  0  0  0  0  0
  -21.0768   -8.8720   19.9008 H   0  0  0  0  0  0
  -22.3561  -10.9645   19.6188 H   0  0  0  0  0  0
  -21.2022   -7.6136   23.9713 H   0  0  0  0  0  0
  -21.1480   -6.0519   25.9078 H   0  0  0  0  0  0
  -22.0603   -2.7599   23.2867 H   0  0  0  0  0  0
  -22.4053  -11.9917   22.4745 H   0  0  0  0  0  0
  -21.1165  -13.1430   22.2590 H   0  0  0  0  0  0
  -24.6575  -15.8286   20.4758 H   0  0  0  0  0  0
  -26.2815  -15.6209   20.0685 H   0  0  0  0  0  0
  -26.7114  -32.5545   23.1185 H   0  0  0  0  0  0
  -24.9920  -33.9762   25.0448 H   0  0  0  0  0  0
  -22.6870  -31.3062   21.4128 H   0  0  0  0  0  0
  -23.3712  -35.9540   23.3395 H   0  0  0  0  0  0
  -24.3504  -36.8778   22.2063 H   0  0  0  0  0  0
  -23.7097  -37.6437   23.6609 H   0  0  0  0  0  0
  -26.0175  -31.6104   20.5842 H   0  0  0  0  0  0
  -26.8143  -30.9090   21.9632 H   0  0  0  0  0  0
  -28.1019  -29.1488   21.1155 H   0  0  0  0  0  0
  -26.0502  -25.9707   19.0219 H   0  0  0  0  0  0
  -23.9686  -27.2654   19.0829 H   0  0  0  0  0  0
  -23.6724  -30.5698   19.4016 H   0  0  0  0  0  0
  -22.7254  -29.2056   19.9068 H   0  0  0  0  0  0
  -25.1200  -36.1986   25.0854 H   0  0  0  0  0  0
  -20.9937  -28.3227   24.1456 H   0  0  0  0  0  0
  -20.5568  -26.2287   23.3621 H   0  0  0  0  0  0
  -21.6584  -26.7413   22.1264 H   0  0  0  0  0  0
  -19.6862  -25.6347   21.1198 H   0  0  0  0  0  0
  -19.6614  -27.3247   20.6752 H   0  0  0  0  0  0
  -17.4144  -26.6708   21.4057 H   0  0  0  0  0  0
  -18.0312  -26.0029   22.9005 H   0  0  0  0  0  0
  -19.7936  -30.7228   24.2345 H   0  0  0  0  0  0
  -17.5033  -31.6300   24.5136 H   0  0  0  0  0  0
  -15.5355  -30.3036   23.7636 H   0  0  0  0  0  0
  -15.8634  -28.0790   22.7197 H   0  0  0  0  0  0
  -24.5924  -30.6927   25.7746 H   0  0  0  0  0  0
  -24.8793  -32.2732   26.4880 H   0  0  0  0  0  0
  -25.8038  -30.8798   27.0198 H   0  0  0  0  0  0
  -26.2795  -29.6743   24.1174 H   0  0  0  0  0  0
  -27.4104  -29.7268   25.4523 H   0  0  0  0  0  0
  -27.8594  -30.4312   23.9166 H   0  0  0  0  0  0
  -27.2770  -33.3538   26.2075 H   0  0  0  0  0  0
  -28.3848  -32.6770   25.0258 H   0  0  0  0  0  0
  -28.0735  -31.8293   26.5343 H   0  0  0  0  0  0
  -28.2639  -37.9970   24.7513 H   0  0  0  0  0  0
  -28.0927  -36.2526   24.6391 H   0  0  0  0  0  0
  -27.2273  -37.1474   25.8931 H   0  0  0  0  0  0
  -20.9350  -29.8469   21.6696 H   0  0  0  0  0  0
  -26.0147  -38.2867   24.1510 H   0  0  0  0  0  0
  -32.5031  -19.6116   18.8636 H   0  0  0  0  0  0
  -31.4880  -21.4446   20.1932 H   0  0  0  0  0  0
  -31.5198  -17.3388   18.9159 H   0  0  0  0  0  0
  -28.4910  -18.7117   21.6725 H   0  0  0  0  0  0
  -30.0664  -21.6206   22.6212 H   0  0  0  0  0  0
  -28.4846  -20.9266   22.4558 H   0  0  0  0  0  0
  -28.2468  -16.5981   20.5086 H   0  0  0  0  0  0
  -29.2955  -16.1591   19.2015 H   0  0  0  0  0  0
  -28.3106  -23.2217   21.8780 H   0  0  0  0  0  0
  -28.0473  -22.3201   20.3997 H   0  0  0  0  0  0
  -28.1867  -25.0084   19.0261 H   0  0  0  0  0  0
  -27.5689  -25.0016   20.6752 H   0  0  0  0  0  0
  -29.9040  -25.0746   21.5732 H   0  0  0  0  0  0
  -30.5430  -25.1818   19.9584 H   0  0  0  0  0  0
  -29.1901  -15.0631   21.7467 H   0  0  0  0  0  0
  1 25  1  0  0  0
  1 30  2  0  0  0
  1 82  1  0  0  0
  2  3  1  0  0  0
  2 25  1  0  0  0
  2 84  1  0  0  0
  2 85  1  0  0  0
  3  4  1  0  0  0
  3 86  1  0  0  0
  3 87  1  0  0  0
  4  5  1  0  0  0
  4 88  1  0  0  0
  4 89  1  0  0  0
  5  6  1  0  0  0
  5 26  1  0  0  0
  5 90  1  0  0  0
  6 25  1  0  0  0
  6 91  1  0  0  0
  6 92  1  0  0  0
  7  8  2  0  0  0
  7 26  1  0  0  0
  7 29  1  0  0  0
  8  9  1  0  0  0
  8 22  1  0  0  0
  9 10  1  0  0  0
  9 27  2  0  0  0
 10 11  2  0  0  0
 10 15  1  0  0  0
 11 12  1  0  0  0
 11 93  1  0  0  0
 12 13  2  0  0  0
 12 94  1  0  0  0
 13 14  1  0  0  0
 13 31  1  0  0  0
 14 15  2  0  0  0
 14 95  1  0  0  0
 15 96  1  0  0  0
 16 17  2  0  0  0
 16 21  1  0  0  0
 16 31  1  0  0  0
 17 18  1  0  0  0
 17 97  1  0  0  0
 18 19  2  0  0  0
 18 98  1  0  0  0
 19 20  1  0  0  0
 19 24  1  0  0  0
 20 21  2  0  0  0
 20 99  1  0  0  0
 21 23  1  0  0  0
 22 28  1  0  0  0
 22 32  2  0  0  0
 26 27  1  0  0  0
 28100  1  0  0  0
 28101  1  0  0  0
 29102  1  0  0  0
 29103  1  0  0  0
 33 34  1  0  0  0
 33 66  1  0  0  0
 33 70  2  0  0  0
 34 36  1  0  0  0
 34 59  1  0  0  0
 34104  1  0  0  0
 35 44  2  0  0  0
 35 45  1  0  0  0
 35 68  1  0  0  0
 36 56  1  0  0  0
 36105  1  0  0  0
 37 39  1  0  0  0
 37 47  1  0  0  0
 37 66  1  0  0  0
 37106  1  0  0  0
 38 43  2  0  0  0
 38 46  1  0  0  0
 38 47  1  0  0  0
 39 64  1  0  0  0
 39 67  2  0  0  0
 40 52  1  0  0  0
 40 53  2  0  0  0
 40 58  1  0  0  0
 41107  1  0  0  0
 41108  1  0  0  0
 41109  1  0  0  0
 41 48  1  0  0  0
 42 43  1  0  0  0
 42 66  1  0  0  0
 42110  1  0  0  0
 42111  1  0  0  0
 43 44  1  0  0  0
 44112  1  0  0  0
 45 46  2  0  0  0
 45113  1  0  0  0
 46114  1  0  0  0
 47115  1  0  0  0
 47116  1  0  0  0
 48 56  1  0  0  0
 48 65  1  0  0  0
 48117  1  0  0  0
 49 50  1  0  0  0
 49 53  1  0  0  0
 49 64  1  0  0  0
 49118  1  0  0  0
 50 51  1  0  0  0
 50119  1  0  0  0
 50120  1  0  0  0
 51 52  1  0  0  0
 51121  1  0  0  0
 51122  1  0  0  0
 52123  1  0  0  0
 52124  1  0  0  0
 53 54  1  0  0  0
 54 55  2  0  0  0
 54125  1  0  0  0
 55 57  1  0  0  0
 55126  1  0  0  0
 56 69  2  0  0  0
 57 58  2  0  0  0
 57127  1  0  0  0
 58128  1  0  0  0
 59 60  1  0  0  0
 59 61  1  0  0  0
 59 62  1  0  0  0
 60129  1  0  0  0
 60130  1  0  0  0
 60131  1  0  0  0
 61132  1  0  0  0
 61133  1  0  0  0
 61134  1  0  0  0
 62135  1  0  0  0
 62136  1  0  0  0
 62137  1  0  0  0
 63 65  1  0  0  0
 63138  1  0  0  0
 63139  1  0  0  0
 63140  1  0  0  0
 64141  1  0  0  0
 65142  1  0  0  0
 68 80  1  0  0  0
 71 72  2  0  0  0
 71 73  1  0  0  0
 71143  1  0  0  0
 72 75  1  0  0  0
 72144  1  0  0  0
 73 76  2  0  0  0
 73145  1  0  0  0
 74 75  2  0  0  0
 74 76  1  0  0  0
 74146  1  0  0  0
 75 77  1  0  0  0
 76 78  1  0  0  0
 77 79  1  0  0  0
 77147  1  0  0  0
 77148  1  0  0  0
 78 82  1  0  0  0
 78149  1  0  0  0
 78150  1  0  0  0
 79 83  1  0  0  0
 79151  1  0  0  0
 79152  1  0  0  0
 80 81  1  0  0  0
 80153  1  0  0  0
 80154  1  0  0  0
 81 83  1  0  0  0
 81155  1  0  0  0
 81156  1  0  0  0
 82157  1  0  0  0
M  ISO  4   1 100  68 101  80 101  82 100
M  END
> <chiral flag>
0

> <version>
0

> <s_m_source_file>
/data/baiqing/PycharmProjects/Reinvent-master-3.2/result/LINK_invent/BTK/process_docking_weight1_custom_product_contain_oxygen_bond_distance_aromatic_linkinvent_7_9_3/rearranged_h_0003.sdf

> <i_m_source_file_index>
18

> <r_mmod_Potential_Energy-OPLS-2005>
-45.1180877685547

> <r_mmod_Stretch_Energy-OPLS-2005>
35.2127342224121

> <r_mmod_Bend_Energy-OPLS-2005>
99.1090316772461

> <r_mmod_Torsional_Energy-OPLS-2005>
244.072341918945

> <r_mmod_Improper_Torsional_Energy-OPLS-2005>
9.67032051086426

> <r_mmod_Van_der_Waal_Energy-OPLS-2005>
152.013687133789

> <r_mmod_Electrostatic_Energy-OPLS-2005>
-373.701812744141

> <r_mmod_Solvation_Energy-OPLS-2005>
-224.03108215332

> <b_mmod_Minimization_Converged-OPLS-2005>
0

> <r_mmod_RMS_Derivative-OPLS-2005>
3.93604350090027

$$$$
18
                    3D
 Structure written by MMmdl.
157166  0  0  1  0            999 V2000
  -30.6251  -14.8603   20.4383 C   0  0  0  0  0  0
  -30.4223  -12.5397   19.4791 C   0  0  0  0  0  0
  -29.5037  -12.5111   18.2400 C   0  0  0  0  0  0
  -28.0391  -12.3054   18.6667 C   0  0  0  0  0  0
  -27.6242  -13.2385   19.8341 C   0  0  2  0  0  0
  -28.6729  -13.2749   20.9659 C   0  0  0  0  0  0
  -25.2446  -13.8190   20.5722 C   0  0  0  0  0  0
  -24.1759  -13.0425   20.9237 C   0  0  0  0  0  0
  -24.6372  -11.6909   20.8775 C   0  0  0  0  0  0
  -23.9061  -10.4285   21.0424 C   0  0  0  0  0  0
  -24.3614   -9.4197   21.9195 C   0  0  0  0  0  0
  -23.6290   -8.2233   22.0756 C   0  0  0  0  0  0
  -22.4273   -8.0276   21.3544 C   0  0  0  0  0  0
  -21.9912   -9.0249   20.4647 C   0  0  0  0  0  0
  -22.7239  -10.2128   20.3064 C   0  0  0  0  0  0
  -21.6850   -6.0734   22.5278 C   0  0  0  0  0  0
  -21.4011   -6.5637   23.8211 C   0  0  0  0  0  0
  -21.3657   -5.6792   24.9174 C   0  0  0  0  0  0
  -21.6045   -4.3054   24.7225 C   0  0  0  0  0  0
  -21.8819   -3.8145   23.4346 C   0  0  0  0  0  0
  -21.9190   -4.6963   22.3402 C   0  0  0  0  0  0
  -22.7783  -13.5205   21.1887 C   0  0  0  0  0  0
  -22.1660   -4.2149   21.0980 F   0  0  0  0  0  0
  -21.5629   -3.4539   25.7737 F   0  0  0  0  0  0
  -29.9538  -13.6478   20.3545 N   0  0  0  0  0  0
  -26.2862  -12.9405   20.3270 N   0  0  0  0  0  0
  -25.9302  -11.6545   20.5777 N   0  0  0  0  0  0
  -22.0431  -12.8194   22.0443 N   0  0  0  0  0  0
  -25.4106  -15.1912   20.4126 N   0  0  0  0  0  0
  -31.8394  -14.8489   20.2108 O   0  0  0  0  0  0
  -21.6635   -6.8875   21.4240 O   0  0  0  0  0  0
  -22.3472  -14.5510   20.6729 O   0  0  0  0  0  0
  -24.6387  -31.8489   23.1937 C   0  0  0  0  0  0
  -25.9182  -32.4720   23.8305 C   0  0  1  0  0  0
  -27.2105  -27.1862   20.1474 C   0  0  0  0  0  0
  -25.5952  -33.8525   24.2226 N   0  0  0  0  0  0
  -23.4394  -30.4708   21.5380 C   0  0  2  0  0  0
  -24.8874  -28.9072   20.1119 C   0  0  0  0  0  0
  -22.7540  -29.4569   22.4877 C   0  0  0  0  0  0
  -18.0301  -28.1390   22.8478 C   0  0  0  0  0  0
  -24.1489  -36.7259   23.2642 C   0  0  0  0  0  0
  -25.9923  -30.7382   21.3864 C   0  0  0  0  0  0
  -26.0634  -29.3541   20.7293 C   0  0  0  0  0  0
  -27.2301  -28.5088   20.7309 C   0  0  0  0  0  0
  -26.0164  -26.8354   19.4822 C   0  0  0  0  0  0
  -24.8736  -27.6591   19.4736 C   0  0  0  0  0  0
  -23.6632  -29.8049   20.1554 C   0  0  0  0  0  0
  -25.4118  -36.3046   24.0323 C   0  0  1  0  0  0
  -20.5910  -28.3709   23.1246 C   0  0  2  0  0  0
  -20.6788  -26.9418   22.5401 C   0  0  0  0  0  0
  -19.5762  -26.6381   21.5207 C   0  0  0  0  0  0
  -18.1942  -26.7931   22.1619 C   0  0  0  0  0  0
  -19.1557  -28.8865   23.2858 C   0  0  0  0  0  0
  -18.9477  -30.1465   23.8877 C   0  0  0  0  0  0
  -17.6475  -30.6590   24.0558 C   0  0  0  0  0  0
  -25.9066  -34.9421   23.5078 C   0  0  0  0  0  0
  -16.5366  -29.9084   23.6338 C   0  0  0  0  0  0
  -16.7287  -28.6504   23.0355 C   0  0  0  0  0  0
  -26.4527  -31.6569   25.0723 C   0  0  0  0  0  0
  -25.3728  -31.3735   26.1426 C   0  0  0  0  0  0
  -27.0395  -30.2977   24.6265 C   0  0  0  0  0  0
  -27.6066  -32.4331   25.7502 C   0  0  0  0  0  0
  -27.5574  -37.1785   24.8469 C   0  0  0  0  0  0
  -21.4237  -29.3050   22.3625 N   0  0  0  0  0  0
  -26.4285  -37.3754   23.9413 N   0  0  0  0  0  0
  -24.7094  -31.0393   22.0948 N   0  0  0  0  0  0
  -23.4206  -28.8104   23.2999 O   0  0  0  0  0  0
  -28.2662  -26.2224   20.1767 O   0  0  0  0  0  0
  -26.5639  -34.8909   22.4648 O   0  0  0  0  0  0
  -23.5519  -32.1339   23.7188 O   0  0  0  0  0  0
  -30.5497  -22.5299   18.6505 C   0  0  0  0  0  0
  -30.3513  -21.2150   19.1323 C   0  0  0  0  0  0
  -29.8008  -23.6313   19.1240 C   0  0  0  0  0  0
  -28.6304  -22.0849   20.5933 C   0  0  0  0  0  0
  -29.3931  -20.9132   20.1248 C   0  0  0  0  0  0
  -28.8097  -23.4703   20.1106 C   0  0  0  0  0  0
  -28.8665  -18.2697   19.5459 C   0  0  0  0  0  0
  -30.6082  -18.6866   21.1277 C   0  0  0  0  0  0
  -28.8242  -16.7125   19.9659 C   0  0  0  0  0  0
  -30.5655  -17.1565   21.5967 C   0  0  0  0  0  0
  -29.2833  -19.3565   20.6119 C   0  0  0  0  0  0
  -27.9452  -24.7679   20.5596 C   0  0  0  0  0  0
  -29.9833  -16.1011   20.6981 N   0  0  0  0  0  0
  -31.4594  -12.6657   19.1642 H   0  0  0  0  0  0
  -30.3871  -11.5883   20.0121 H   0  0  0  0  0  0
  -29.8104  -11.7169   17.5578 H   0  0  0  0  0  0
  -29.5990  -13.4468   17.6865 H   0  0  0  0  0  0
  -27.9315  -11.2642   18.9730 H   0  0  0  0  0  0
  -27.3716  -12.4421   17.8146 H   0  0  0  0  0  0
  -27.5774  -14.2330   19.3979 H   0  0  0  0  0  0
  -28.7460  -12.3099   21.4691 H   0  0  0  0  0  0
  -28.3874  -14.0038   21.7264 H   0  0  0  0  0  0
  -25.2758   -9.5672   22.4775 H   0  0  0  0  0  0
  -23.9996   -7.4623   22.7475 H   0  0  0  0  0  0
  -21.0844   -8.8771   19.8951 H   0  0  0  0  0  0
  -22.3702  -10.9671   19.6176 H   0  0  0  0  0  0
  -21.2003   -7.6146   23.9715 H   0  0  0  0  0  0
  -21.1480   -6.0522   25.9076 H   0  0  0  0  0  0
  -22.0600   -2.7609   23.2846 H   0  0  0  0  0  0
  -22.4049  -11.9856   22.4829 H   0  0  0  0  0  0
  -21.1049  -13.1221   22.2653 H   0  0  0  0  0  0
  -24.6427  -15.8437   20.5271 H   0  0  0  0  0  0
  -26.2608  -15.6322   20.0886 H   0  0  0  0  0  0
  -26.7242  -32.5344   23.1033 H   0  0  0  0  0  0
  -25.0114  -33.9652   25.0383 H   0  0  0  0  0  0
  -22.7399  -31.2955   21.3877 H   0  0  0  0  0  0
  -23.3759  -35.9583   23.3301 H   0  0  0  0  0  0
  -24.3577  -36.8885   22.2057 H   0  0  0  0  0  0
  -23.7234  -37.6452   23.6676 H   0  0  0  0  0  0
  -26.1434  -31.4952   20.6154 H   0  0  0  0  0  0
  -26.8651  -30.7867   22.0259 H   0  0  0  0  0  0
  -28.1289  -28.8451   21.2287 H   0  0  0  0  0  0
  -25.9451  -25.8903   18.9639 H   0  0  0  0  0  0
  -23.9793  -27.3173   18.9711 H   0  0  0  0  0  0
  -23.7984  -30.5816   19.4017 H   0  0  0  0  0  0
  -22.7789  -29.2461   19.8438 H   0  0  0  0  0  0
  -25.1305  -36.1880   25.0815 H   0  0  0  0  0  0
  -21.0009  -28.3294   24.1365 H   0  0  0  0  0  0
  -20.5683  -26.2319   23.3613 H   0  0  0  0  0  0
  -21.6655  -26.7425   22.1196 H   0  0  0  0  0  0
  -19.6925  -25.6286   21.1249 H   0  0  0  0  0  0
  -19.6704  -27.3182   20.6729 H   0  0  0  0  0  0
  -17.4211  -26.6673   21.4025 H   0  0  0  0  0  0
  -18.0345  -26.0075   22.9017 H   0  0  0  0  0  0
  -19.7951  -30.7286   24.2238 H   0  0  0  0  0  0
  -17.5030  -31.6268   24.5163 H   0  0  0  0  0  0
  -15.5367  -30.2981   23.7674 H   0  0  0  0  0  0
  -15.8686  -28.0820   22.7081 H   0  0  0  0  0  0
  -24.5926  -30.7059   25.7754 H   0  0  0  0  0  0
  -24.8897  -32.2907   26.4808 H   0  0  0  0  0  0
  -25.8031  -30.8947   27.0232 H   0  0  0  0  0  0
  -26.3003  -29.6696   24.1280 H   0  0  0  0  0  0
  -27.4044  -29.7274   25.4819 H   0  0  0  0  0  0
  -27.8895  -30.4240   23.9555 H   0  0  0  0  0  0
  -27.2671  -33.3659   26.2021 H   0  0  0  0  0  0
  -28.3908  -32.6841   25.0346 H   0  0  0  0  0  0
  -28.0698  -31.8489   26.5463 H   0  0  0  0  0  0
  -28.2586  -38.0088   24.7520 H   0  0  0  0  0  0
  -28.1077  -36.2618   24.6295 H   0  0  0  0  0  0
  -27.2293  -37.1430   25.8872 H   0  0  0  0  0  0
  -20.9436  -29.8775   21.6821 H   0  0  0  0  0  0
  -26.0155  -38.2821   24.1425 H   0  0  0  0  0  0
  -31.2986  -22.6985   17.8887 H   0  0  0  0  0  0
  -30.9600  -20.4206   18.7229 H   0  0  0  0  0  0
  -29.9849  -24.6144   18.7128 H   0  0  0  0  0  0
  -27.8746  -21.9177   21.3481 H   0  0  0  0  0  0
  -27.8881  -18.5417   19.1482 H   0  0  0  0  0  0
  -29.5464  -18.3558   18.6971 H   0  0  0  0  0  0
  -31.3669  -18.7662   20.3484 H   0  0  0  0  0  0
  -30.9909  -19.2856   21.9549 H   0  0  0  0  0  0
  -28.6529  -16.1357   19.0569 H   0  0  0  0  0  0
  -27.9491  -16.5540   20.5958 H   0  0  0  0  0  0
  -29.9905  -17.1103   22.5222 H   0  0  0  0  0  0
  -31.5769  -16.8637   21.8836 H   0  0  0  0  0  0
  -28.5533  -19.3360   21.4223 H   0  0  0  0  0  0
  -27.9390  -24.7527   21.6496 H   0  0  0  0  0  0
  -26.9207  -24.5235   20.2877 H   0  0  0  0  0  0
  1 25  1  0  0  0
  1 30  2  0  0  0
  1 83  1  0  0  0
  2  3  1  0  0  0
  2 25  1  0  0  0
  2 84  1  0  0  0
  2 85  1  0  0  0
  3  4  1  0  0  0
  3 86  1  0  0  0
  3 87  1  0  0  0
  4  5  1  0  0  0
  4 88  1  0  0  0
  4 89  1  0  0  0
  5  6  1  0  0  0
  5 26  1  0  0  0
  5 90  1  0  0  0
  6 25  1  0  0  0
  6 91  1  0  0  0
  6 92  1  0  0  0
  7  8  2  0  0  0
  7 26  1  0  0  0
  7 29  1  0  0  0
  8  9  1  0  0  0
  8 22  1  0  0  0
  9 10  1  0  0  0
  9 27  2  0  0  0
 10 11  2  0  0  0
 10 15  1  0  0  0
 11 12  1  0  0  0
 11 93  1  0  0  0
 12 13  2  0  0  0
 12 94  1  0  0  0
 13 14  1  0  0  0
 13 31  1  0  0  0
 14 15  2  0  0  0
 14 95  1  0  0  0
 15 96  1  0  0  0
 16 17  2  0  0  0
 16 21  1  0  0  0
 16 31  1  0  0  0
 17 18  1  0  0  0
 17 97  1  0  0  0
 18 19  2  0  0  0
 18 98  1  0  0  0
 19 20  1  0  0  0
 19 24  1  0  0  0
 20 21  2  0  0  0
 20 99  1  0  0  0
 21 23  1  0  0  0
 22 28  1  0  0  0
 22 32  2  0  0  0
 26 27  1  0  0  0
 28100  1  0  0  0
 28101  1  0  0  0
 29102  1  0  0  0
 29103  1  0  0  0
 33 34  1  0  0  0
 33 66  1  0  0  0
 33 70  2  0  0  0
 34 36  1  0  0  0
 34 59  1  0  0  0
 34104  1  0  0  0
 35 44  2  0  0  0
 35 45  1  0  0  0
 35 68  1  0  0  0
 36 56  1  0  0  0
 36105  1  0  0  0
 37 39  1  0  0  0
 37 47  1  0  0  0
 37 66  1  0  0  0
 37106  1  0  0  0
 38 43  2  0  0  0
 38 46  1  0  0  0
 38 47  1  0  0  0
 39 64  1  0  0  0
 39 67  2  0  0  0
 40 52  1  0  0  0
 40 53  2  0  0  0
 40 58  1  0  0  0
 41107  1  0  0  0
 41108  1  0  0  0
 41109  1  0  0  0
 41 48  1  0  0  0
 42 43  1  0  0  0
 42 66  1  0  0  0
 42110  1  0  0  0
 42111  1  0  0  0
 43 44  1  0  0  0
 44112  1  0  0  0
 45 46  2  0  0  0
 45113  1  0  0  0
 46114  1  0  0  0
 47115  1  0  0  0
 47116  1  0  0  0
 48 56  1  0  0  0
 48 65  1  0  0  0
 48117  1  0  0  0
 49 50  1  0  0  0
 49 53  1  0  0  0
 49 64  1  0  0  0
 49118  1  0  0  0
 50 51  1  0  0  0
 50119  1  0  0  0
 50120  1  0  0  0
 51 52  1  0  0  0
 51121  1  0  0  0
 51122  1  0  0  0
 52123  1  0  0  0
 52124  1  0  0  0
 53 54  1  0  0  0
 54 55  2  0  0  0
 54125  1  0  0  0
 55 57  1  0  0  0
 55126  1  0  0  0
 56 69  2  0  0  0
 57 58  2  0  0  0
 57127  1  0  0  0
 58128  1  0  0  0
 59 60  1  0  0  0
 59 61  1  0  0  0
 59 62  1  0  0  0
 60129  1  0  0  0
 60130  1  0  0  0
 60131  1  0  0  0
 61132  1  0  0  0
 61133  1  0  0  0
 61134  1  0  0  0
 62135  1  0  0  0
 62136  1  0  0  0
 62137  1  0  0  0
 63 65  1  0  0  0
 63138  1  0  0  0
 63139  1  0  0  0
 63140  1  0  0  0
 64141  1  0  0  0
 65142  1  0  0  0
 68 82  1  0  0  0
 71 72  2  0  0  0
 71 73  1  0  0  0
 71143  1  0  0  0
 72 75  1  0  0  0
 72144  1  0  0  0
 73 76  2  0  0  0
 73145  1  0  0  0
 74 75  2  0  0  0
 74 76  1  0  0  0
 74146  1  0  0  0
 75 81  1  0  0  0
 76 82  1  0  0  0
 77 79  1  0  0  0
 77 81  1  0  0  0
 77147  1  0  0  0
 77148  1  0  0  0
 78 80  1  0  0  0
 78 81  1  0  0  0
 78149  1  0  0  0
 78150  1  0  0  0
 79 83  1  0  0  0
 79151  1  0  0  0
 79152  1  0  0  0
 80 83  1  0  0  0
 80153  1  0  0  0
 80154  1  0  0  0
 81155  1  0  0  0
 82156  1  0  0  0
 82157  1  0  0  0
M  ISO  4   1 100  68 101  82 101  83 100
M  END
> <chiral flag>
0

> <version>
0

> <s_m_source_file>
/data/baiqing/PycharmProjects/Reinvent-master-3.2/result/LINK_invent/BTK/process_docking_weight1_custom_product_contain_oxygen_bond_distance_aromatic_linkinvent_7_9_3/rearranged_h_0003.sdf

> <i_m_source_file_index>
19

> <r_mmod_Potential_Energy-OPLS-2005>
554.944641113281

> <r_mmod_Stretch_Energy-OPLS-2005>
177.343124389648

> <r_mmod_Bend_Energy-OPLS-2005>
217.416442871094

> <r_mmod_Torsional_Energy-OPLS-2005>
343.445617675781

> <r_mmod_Improper_Torsional_Energy-OPLS-2005>
2.19480967521667

> <r_mmod_Van_der_Waal_Energy-OPLS-2005>
132.541778564453

> <r_mmod_Electrostatic_Energy-OPLS-2005>
-267.993469238281

> <r_mmod_Solvation_Energy-OPLS-2005>
-195.901062011719

> <b_mmod_Minimization_Converged-OPLS-2005>
0

> <r_mmod_RMS_Derivative-OPLS-2005>
0.53320986032486

$$$$
19
                    3D
 Structure written by MMmdl.
150158  0  0  1  0            999 V2000
  -30.5241  -14.8610   20.4425 C   0  0  0  0  0  0
  -30.4537  -12.5282   19.4801 C   0  0  0  0  0  0
  -29.5219  -12.5225   18.2443 C   0  0  0  0  0  0
  -28.0501  -12.3211   18.6589 C   0  0  0  0  0  0
  -27.6403  -13.2292   19.8472 C   0  0  2  0  0  0
  -28.6860  -13.1830   20.9829 C   0  0  0  0  0  0
  -25.2507  -13.8169   20.5674 C   0  0  0  0  0  0
  -24.1807  -13.0425   20.9223 C   0  0  0  0  0  0
  -24.6396  -11.6902   20.8758 C   0  0  0  0  0  0
  -23.9069  -10.4284   21.0416 C   0  0  0  0  0  0
  -24.3620   -9.4197   21.9191 C   0  0  0  0  0  0
  -23.6292   -8.2235   22.0757 C   0  0  0  0  0  0
  -22.4275   -8.0277   21.3544 C   0  0  0  0  0  0
  -21.9911   -9.0254   20.4648 C   0  0  0  0  0  0
  -22.7242  -10.2132   20.3061 C   0  0  0  0  0  0
  -21.6852   -6.0733   22.5278 C   0  0  0  0  0  0
  -21.4013   -6.5639   23.8210 C   0  0  0  0  0  0
  -21.3657   -5.6793   24.9173 C   0  0  0  0  0  0
  -21.6044   -4.3055   24.7225 C   0  0  0  0  0  0
  -21.8820   -3.8145   23.4347 C   0  0  0  0  0  0
  -21.9192   -4.6961   22.3402 C   0  0  0  0  0  0
  -22.7828  -13.5214   21.1876 C   0  0  0  0  0  0
  -22.1661   -4.2146   21.0980 F   0  0  0  0  0  0
  -21.5627   -3.4540   25.7738 F   0  0  0  0  0  0
  -29.9752  -13.5882   20.4026 N   0  0  0  0  0  0
  -26.2928  -12.9369   20.3250 N   0  0  0  0  0  0
  -25.9324  -11.6519   20.5747 N   0  0  0  0  0  0
  -22.0471  -12.8210   22.0433 N   0  0  0  0  0  0
  -25.4175  -15.1887   20.4021 N   0  0  0  0  0  0
  -31.7146  -15.0101   20.1446 O   0  0  0  0  0  0
  -21.6637   -6.8876   21.4240 O   0  0  0  0  0  0
  -22.3516  -14.5517   20.6714 O   0  0  0  0  0  0
  -24.6378  -31.8485   23.1915 C   0  0  0  0  0  0
  -25.9171  -32.4720   23.8290 C   0  0  1  0  0  0
  -27.2248  -27.1922   20.1520 C   0  0  0  0  0  0
  -25.5937  -33.8524   24.2211 N   0  0  0  0  0  0
  -23.4393  -30.4671   21.5363 C   0  0  2  0  0  0
  -24.8897  -28.8975   20.1155 C   0  0  0  0  0  0
  -22.7539  -29.4566   22.4888 C   0  0  0  0  0  0
  -18.0299  -28.1391   22.8481 C   0  0  0  0  0  0
  -24.1490  -36.7269   23.2642 C   0  0  0  0  0  0
  -25.9902  -30.7405   21.3811 C   0  0  0  0  0  0
  -26.0646  -29.3547   20.7271 C   0  0  0  0  0  0
  -27.2367  -28.5186   20.7256 C   0  0  0  0  0  0
  -26.0265  -26.8175   19.5092 C   0  0  0  0  0  0
  -24.8796  -27.6395   19.4922 C   0  0  0  0  0  0
  -23.6634  -29.7938   20.1563 C   0  0  0  0  0  0
  -25.4120  -36.3048   24.0320 C   0  0  1  0  0  0
  -20.5908  -28.3710   23.1253 C   0  0  2  0  0  0
  -20.6784  -26.9419   22.5408 C   0  0  0  0  0  0
  -19.5759  -26.6381   21.5214 C   0  0  0  0  0  0
  -18.1940  -26.7930   22.1626 C   0  0  0  0  0  0
  -19.1555  -28.8868   23.2860 C   0  0  0  0  0  0
  -18.9473  -30.1467   23.8882 C   0  0  0  0  0  0
  -17.6470  -30.6589   24.0560 C   0  0  0  0  0  0
  -25.9065  -34.9421   23.5073 C   0  0  0  0  0  0
  -16.5361  -29.9084   23.6334 C   0  0  0  0  0  0
  -16.7285  -28.6502   23.0355 C   0  0  0  0  0  0
  -26.4513  -31.6573   25.0712 C   0  0  0  0  0  0
  -25.3711  -31.3747   26.1417 C   0  0  0  0  0  0
  -27.0374  -30.2979   24.6253 C   0  0  0  0  0  0
  -27.6046  -32.4334   25.7496 C   0  0  0  0  0  0
  -27.5577  -37.1790   24.8465 C   0  0  0  0  0  0
  -21.4238  -29.3043   22.3632 N   0  0  0  0  0  0
  -26.4288  -37.3756   23.9409 N   0  0  0  0  0  0
  -24.7085  -31.0387   22.0922 N   0  0  0  0  0  0
  -23.4203  -28.8119   23.3026 O   0  0  0  0  0  0
  -28.3050  -26.2569   20.1589 O   0  0  0  0  0  0
  -26.5650  -34.8911   22.4651 O   0  0  0  0  0  0
  -23.5510  -32.1337   23.7167 O   0  0  0  0  0  0
  -28.0834  -19.5044   20.4295 C   0  0  0  0  0  0
  -30.4111  -19.8482   20.6615 C   0  0  0  0  0  0
  -28.3028  -18.0796   20.4110 C   0  0  0  0  0  0
  -30.6363  -18.4072   20.6255 C   0  0  0  0  0  0
  -29.1173  -20.4762   20.5849 C   0  0  0  0  0  0
  -29.5786  -17.4415   20.5295 C   0  0  0  0  0  0
  -28.7696  -22.0299   20.9688 C   0  0  0  0  0  0
  -28.8053  -23.4165   20.0623 C   0  0  0  0  0  0
  -28.0939  -24.8114   20.6316 C   0  0  0  0  0  0
  -29.6284  -15.9281   20.6255 N   0  0  0  0  0  0
  -31.4858  -12.6996   19.1698 H   0  0  0  0  0  0
  -30.4466  -11.5569   19.9772 H   0  0  0  0  0  0
  -29.8241  -11.7400   17.5468 H   0  0  0  0  0  0
  -29.6229  -13.4667   17.7067 H   0  0  0  0  0  0
  -27.9275  -11.2742   18.9384 H   0  0  0  0  0  0
  -27.3894  -12.4879   17.8072 H   0  0  0  0  0  0
  -27.6240  -14.2443   19.4511 H   0  0  0  0  0  0
  -28.7521  -12.1814   21.4105 H   0  0  0  0  0  0
  -28.3995  -13.8438   21.8026 H   0  0  0  0  0  0
  -25.2767   -9.5670   22.4765 H   0  0  0  0  0  0
  -23.9997   -7.4626   22.7478 H   0  0  0  0  0  0
  -21.0839   -8.8778   19.8957 H   0  0  0  0  0  0
  -22.3703  -10.9675   19.6171 H   0  0  0  0  0  0
  -21.2007   -7.6148   23.9712 H   0  0  0  0  0  0
  -21.1478   -6.0524   25.9076 H   0  0  0  0  0  0
  -22.0601   -2.7607   23.2849 H   0  0  0  0  0  0
  -22.4089  -11.9875   22.4828 H   0  0  0  0  0  0
  -21.1089  -13.1237   22.2638 H   0  0  0  0  0  0
  -24.6356  -15.8296   20.4840 H   0  0  0  0  0  0
  -26.2279  -15.6097   19.9694 H   0  0  0  0  0  0
  -26.7239  -32.5350   23.1027 H   0  0  0  0  0  0
  -25.0059  -33.9647   25.0339 H   0  0  0  0  0  0
  -22.7391  -31.2908   21.3829 H   0  0  0  0  0  0
  -23.3753  -35.9599   23.3298 H   0  0  0  0  0  0
  -24.3574  -36.8903   22.2058 H   0  0  0  0  0  0
  -23.7242  -37.6464   23.6678 H   0  0  0  0  0  0
  -26.1367  -31.4961   20.6081 H   0  0  0  0  0  0
  -26.8641  -30.7929   22.0190 H   0  0  0  0  0  0
  -28.1379  -28.8680   21.2097 H   0  0  0  0  0  0
  -25.9665  -25.8543   19.0226 H   0  0  0  0  0  0
  -23.9828  -27.2847   19.0028 H   0  0  0  0  0  0
  -23.7954  -30.5668   19.3984 H   0  0  0  0  0  0
  -22.7802  -29.2311   19.8487 H   0  0  0  0  0  0
  -25.1307  -36.1883   25.0813 H   0  0  0  0  0  0
  -20.9999  -28.3295   24.1375 H   0  0  0  0  0  0
  -20.5681  -26.2322   23.3621 H   0  0  0  0  0  0
  -21.6651  -26.7432   22.1205 H   0  0  0  0  0  0
  -19.6920  -25.6288   21.1253 H   0  0  0  0  0  0
  -19.6696  -27.3184   20.6738 H   0  0  0  0  0  0
  -17.4209  -26.6674   21.4031 H   0  0  0  0  0  0
  -18.0342  -26.0076   22.9028 H   0  0  0  0  0  0
  -19.7948  -30.7286   24.2245 H   0  0  0  0  0  0
  -17.5023  -31.6268   24.5164 H   0  0  0  0  0  0
  -15.5361  -30.2981   23.7665 H   0  0  0  0  0  0
  -15.8686  -28.0815   22.7079 H   0  0  0  0  0  0
  -24.5893  -30.7091   25.7740 H   0  0  0  0  0  0
  -24.8897  -32.2925   26.4803 H   0  0  0  0  0  0
  -25.8007  -30.8948   27.0219 H   0  0  0  0  0  0
  -26.2981  -29.6709   24.1257 H   0  0  0  0  0  0
  -27.4008  -29.7266   25.4805 H   0  0  0  0  0  0
  -27.8876  -30.4235   23.9545 H   0  0  0  0  0  0
  -27.2636  -33.3643   26.2039 H   0  0  0  0  0  0
  -28.3875  -32.6884   25.0341 H   0  0  0  0  0  0
  -28.0696  -31.8486   26.5443 H   0  0  0  0  0  0
  -28.2589  -38.0091   24.7512 H   0  0  0  0  0  0
  -28.1077  -36.2621   24.6291 H   0  0  0  0  0  0
  -27.2294  -37.1435   25.8868 H   0  0  0  0  0  0
  -20.9440  -29.8754   21.6815 H   0  0  0  0  0  0
  -26.0159  -38.2826   24.1411 H   0  0  0  0  0  0
  -27.0593  -19.8503   20.3967 H   0  0  0  0  0  0
  -31.2716  -20.4835   20.8201 H   0  0  0  0  0  0
  -27.4240  -17.4551   20.3399 H   0  0  0  0  0  0
  -31.6504  -18.0476   20.7323 H   0  0  0  0  0  0
  -29.3775  -22.2376   21.8499 H   0  0  0  0  0  0
  -27.7553  -21.9834   21.3665 H   0  0  0  0  0  0
  -28.3490  -23.1968   19.0972 H   0  0  0  0  0  0
  -29.8501  -23.6344   19.8413 H   0  0  0  0  0  0
  -28.3683  -24.8583   21.6856 H   0  0  0  0  0  0
  -27.0224  -24.6144   20.6591 H   0  0  0  0  0  0
  -28.7147  -15.5401   20.8004 H   0  0  0  0  0  0
  1 25  1  0  0  0
  1 30  2  0  0  0
  1 80  1  0  0  0
  2  3  1  0  0  0
  2 25  1  0  0  0
  2 81  1  0  0  0
  2 82  1  0  0  0
  3  4  1  0  0  0
  3 83  1  0  0  0
  3 84  1  0  0  0
  4  5  1  0  0  0
  4 85  1  0  0  0
  4 86  1  0  0  0
  5  6  1  0  0  0
  5 26  1  0  0  0
  5 87  1  0  0  0
  6 25  1  0  0  0
  6 88  1  0  0  0
  6 89  1  0  0  0
  7  8  2  0  0  0
  7 26  1  0  0  0
  7 29  1  0  0  0
  8  9  1  0  0  0
  8 22  1  0  0  0
  9 10  1  0  0  0
  9 27  2  0  0  0
 10 11  2  0  0  0
 10 15  1  0  0  0
 11 12  1  0  0  0
 11 90  1  0  0  0
 12 13  2  0  0  0
 12 91  1  0  0  0
 13 14  1  0  0  0
 13 31  1  0  0  0
 14 15  2  0  0  0
 14 92  1  0  0  0
 15 93  1  0  0  0
 16 17  2  0  0  0
 16 21  1  0  0  0
 16 31  1  0  0  0
 17 18  1  0  0  0
 17 94  1  0  0  0
 18 19  2  0  0  0
 18 95  1  0  0  0
 19 20  1  0  0  0
 19 24  1  0  0  0
 20 21  2  0  0  0
 20 96  1  0  0  0
 21 23  1  0  0  0
 22 28  1  0  0  0
 22 32  2  0  0  0
 26 27  1  0  0  0
 28 97  1  0  0  0
 28 98  1  0  0  0
 29 99  1  0  0  0
 29100  1  0  0  0
 33 34  1  0  0  0
 33 66  1  0  0  0
 33 70  2  0  0  0
 34 36  1  0  0  0
 34 59  1  0  0  0
 34101  1  0  0  0
 35 44  2  0  0  0
 35 45  1  0  0  0
 35 68  1  0  0  0
 36 56  1  0  0  0
 36102  1  0  0  0
 37 39  1  0  0  0
 37 47  1  0  0  0
 37 66  1  0  0  0
 37103  1  0  0  0
 38 43  2  0  0  0
 38 46  1  0  0  0
 38 47  1  0  0  0
 39 64  1  0  0  0
 39 67  2  0  0  0
 40 52  1  0  0  0
 40 53  2  0  0  0
 40 58  1  0  0  0
 41104  1  0  0  0
 41105  1  0  0  0
 41106  1  0  0  0
 41 48  1  0  0  0
 42 43  1  0  0  0
 42 66  1  0  0  0
 42107  1  0  0  0
 42108  1  0  0  0
 43 44  1  0  0  0
 44109  1  0  0  0
 45 46  2  0  0  0
 45110  1  0  0  0
 46111  1  0  0  0
 47112  1  0  0  0
 47113  1  0  0  0
 48 56  1  0  0  0
 48 65  1  0  0  0
 48114  1  0  0  0
 49 50  1  0  0  0
 49 53  1  0  0  0
 49 64  1  0  0  0
 49115  1  0  0  0
 50 51  1  0  0  0
 50116  1  0  0  0
 50117  1  0  0  0
 51 52  1  0  0  0
 51118  1  0  0  0
 51119  1  0  0  0
 52120  1  0  0  0
 52121  1  0  0  0
 53 54  1  0  0  0
 54 55  2  0  0  0
 54122  1  0  0  0
 55 57  1  0  0  0
 55123  1  0  0  0
 56 69  2  0  0  0
 57 58  2  0  0  0
 57124  1  0  0  0
 58125  1  0  0  0
 59 60  1  0  0  0
 59 61  1  0  0  0
 59 62  1  0  0  0
 60126  1  0  0  0
 60127  1  0  0  0
 60128  1  0  0  0
 61129  1  0  0  0
 61130  1  0  0  0
 61131  1  0  0  0
 62132  1  0  0  0
 62133  1  0  0  0
 62134  1  0  0  0
 63 65  1  0  0  0
 63135  1  0  0  0
 63136  1  0  0  0
 63137  1  0  0  0
 64138  1  0  0  0
 65139  1  0  0  0
 68 79  1  0  0  0
 71 73  2  0  0  0
 71 75  1  0  0  0
 71140  1  0  0  0
 72 74  1  0  0  0
 72 75  2  0  0  0
 72141  1  0  0  0
 73 76  1  0  0  0
 73142  1  0  0  0
 74 76  2  0  0  0
 74143  1  0  0  0
 75 77  1  0  0  0
 76 80  1  0  0  0
 77 78  1  0  0  0
 77144  1  0  0  0
 77145  1  0  0  0
 78 79  1  0  0  0
 78146  1  0  0  0
 78147  1  0  0  0
 79148  1  0  0  0
 79149  1  0  0  0
 80150  1  0  0  0
M  ISO  4   1 100  68 101  79 101  80 100
M  END
> <chiral flag>
0

> <version>
0

> <s_m_source_file>
/data/baiqing/PycharmProjects/Reinvent-master-3.2/result/LINK_invent/BTK/process_docking_weight1_custom_product_contain_oxygen_bond_distance_aromatic_linkinvent_7_9_3/rearranged_h_0003.sdf

> <i_m_source_file_index>
20

> <r_mmod_Potential_Energy-OPLS-2005>
368.496154785156

> <r_mmod_Stretch_Energy-OPLS-2005>
182.733261108398

> <r_mmod_Bend_Energy-OPLS-2005>
243.465042114258

> <r_mmod_Torsional_Energy-OPLS-2005>
239.104476928711

> <r_mmod_Improper_Torsional_Energy-OPLS-2005>
7.75103044509888

> <r_mmod_Van_der_Waal_Energy-OPLS-2005>
128.386764526367

> <r_mmod_Electrostatic_Energy-OPLS-2005>
-365.693939208984

> <r_mmod_Solvation_Energy-OPLS-2005>
-206.073104858398

> <b_mmod_Minimization_Converged-OPLS-2005>
0

> <r_mmod_RMS_Derivative-OPLS-2005>
0.283948481082916

$$$$
20
                    3D
 Structure written by MMmdl.
169178  0  0  1  0            999 V2000
  -30.8661  -14.1830   20.8161 C   0  0  0  0  0  0
  -30.4100  -12.2788   19.3331 C   0  0  0  0  0  0
  -29.4594  -12.5486   18.1593 C   0  0  0  0  0  0
  -27.9951  -12.3814   18.5974 C   0  0  0  0  0  0
  -27.6668  -13.1978   19.8716 C   0  0  2  0  0  0
  -28.7061  -12.9280   20.9802 C   0  0  0  0  0  0
  -25.2625  -13.8152   20.5673 C   0  0  0  0  0  0
  -24.1862  -13.0447   20.9175 C   0  0  0  0  0  0
  -24.6393  -11.6906   20.8721 C   0  0  0  0  0  0
  -23.9053  -10.4297   21.0401 C   0  0  0  0  0  0
  -24.3606   -9.4211   21.9179 C   0  0  0  0  0  0
  -23.6285   -8.2246   22.0751 C   0  0  0  0  0  0
  -22.4268   -8.0282   21.3543 C   0  0  0  0  0  0
  -21.9899   -9.0254   20.4644 C   0  0  0  0  0  0
  -22.7226  -10.2134   20.3052 C   0  0  0  0  0  0
  -21.6852   -6.0735   22.5278 C   0  0  0  0  0  0
  -21.4013   -6.5639   23.8212 C   0  0  0  0  0  0
  -21.3659   -5.6790   24.9173 C   0  0  0  0  0  0
  -21.6043   -4.3054   24.7220 C   0  0  0  0  0  0
  -21.8821   -3.8145   23.4344 C   0  0  0  0  0  0
  -21.9194   -4.6963   22.3400 C   0  0  0  0  0  0
  -22.7885  -13.5252   21.1844 C   0  0  0  0  0  0
  -22.1662   -4.2148   21.0977 F   0  0  0  0  0  0
  -21.5629   -3.4538   25.7733 F   0  0  0  0  0  0
  -30.0635  -13.1639   20.4471 N   0  0  0  0  0  0
  -26.3051  -12.9308   20.3351 N   0  0  0  0  0  0
  -25.9312  -11.6472   20.5735 N   0  0  0  0  0  0
  -22.0513  -12.8244   22.0390 N   0  0  0  0  0  0
  -25.4377  -15.1866   20.4070 N   0  0  0  0  0  0
  -31.7231  -14.7017   20.0930 O   0  0  0  0  0  0
  -21.6640   -6.8874   21.4239 O   0  0  0  0  0  0
  -22.3579  -14.5568   20.6705 O   0  0  0  0  0  0
  -24.6080  -31.8726   23.2152 C   0  0  0  0  0  0
  -25.9001  -32.4842   23.8423 C   0  0  1  0  0  0
  -27.2448  -27.4983   20.0569 C   0  0  0  0  0  0
  -25.5876  -33.8642   24.2352 N   0  0  0  0  0  0
  -23.3918  -30.4960   21.5562 C   0  0  2  0  0  0
  -24.8354  -28.9625   20.1240 C   0  0  0  0  0  0
  -22.7367  -29.4683   22.5049 C   0  0  0  0  0  0
  -18.0253  -28.1376   22.8497 C   0  0  0  0  0  0
  -24.1483  -36.7334   23.2636 C   0  0  0  0  0  0
  -25.9149  -30.8486   21.3635 C   0  0  0  0  0  0
  -25.9899  -29.4836   20.7193 C   0  0  0  0  0  0
  -27.1909  -28.7493   20.7001 C   0  0  0  0  0  0
  -26.0638  -26.9639   19.4907 C   0  0  0  0  0  0
  -24.8614  -27.6935   19.5203 C   0  0  0  0  0  0
  -23.5959  -29.8241   20.1716 C   0  0  0  0  0  0
  -25.4098  -36.3130   24.0345 C   0  0  1  0  0  0
  -20.5841  -28.3644   23.1359 C   0  0  2  0  0  0
  -20.6743  -26.9388   22.5444 C   0  0  0  0  0  0
  -19.5728  -26.6390   21.5225 C   0  0  0  0  0  0
  -18.1898  -26.7928   22.1622 C   0  0  0  0  0  0
  -19.1503  -28.8825   23.2925 C   0  0  0  0  0  0
  -18.9431  -30.1431   23.8939 C   0  0  0  0  0  0
  -17.6433  -30.6578   24.0573 C   0  0  0  0  0  0
  -25.9026  -34.9489   23.5151 C   0  0  0  0  0  0
  -16.5326  -29.9087   23.6321 C   0  0  0  0  0  0
  -16.7243  -28.6505   23.0343 C   0  0  0  0  0  0
  -26.4448  -31.6601   25.0729 C   0  0  0  0  0  0
  -25.3734  -31.3704   26.1491 C   0  0  0  0  0  0
  -27.0233  -30.3036   24.6071 C   0  0  0  0  0  0
  -27.6047  -32.4292   25.7473 C   0  0  0  0  0  0
  -27.5588  -37.1811   24.8449 C   0  0  0  0  0  0
  -21.4102  -29.3026   22.3783 N   0  0  0  0  0  0
  -26.4289  -37.3813   23.9413 N   0  0  0  0  0  0
  -24.6561  -31.0866   22.1036 N   0  0  0  0  0  0
  -23.4167  -28.8230   23.3074 O   0  0  0  0  0  0
  -28.4669  -26.8763   19.9833 O   0  0  0  0  0  0
  -26.5596  -34.8933   22.4718 O   0  0  0  0  0  0
  -23.5294  -32.1462   23.7586 O   0  0  0  0  0  0
  -27.4423  -22.4420   18.9765 C   0  0  0  0  0  0
  -29.2218  -22.7347   20.6223 C   0  0  0  0  0  0
  -27.6034  -23.7804   18.5707 C   0  0  0  0  0  0
  -29.3718  -24.0705   20.2280 C   0  0  0  0  0  0
  -28.2452  -21.9184   20.0114 C   0  0  0  0  0  0
  -28.5562  -24.5975   19.2123 C   0  0  0  0  0  0
  -29.3393  -19.6823   19.9714 C   0  0  0  0  0  0
  -27.8751  -20.3492   21.9694 C   0  0  0  0  0  0
  -29.3685  -18.2712   20.5573 C   0  0  0  0  0  0
  -28.0241  -18.9084   22.4825 C   0  0  0  0  0  0
  -28.1028  -20.4705   20.4414 C   0  0  1  0  0  0
  -28.7219  -26.0513   18.8512 C   0  0  0  0  0  0
  -31.1988  -16.8012   22.6481 C   0  0  0  0  0  0
  -31.5841  -15.3423   22.9286 C   0  0  0  0  0  0
  -29.6755  -17.0763   22.7076 C   0  0  0  0  0  0
  -30.7944  -14.4113   22.1324 N   0  0  0  0  0  0
  -29.3235  -18.3476   22.0407 N   0  3  1  0  0  0
  -31.4468  -12.4054   19.0141 H   0  0  0  0  0  0
  -30.3225  -11.2412   19.6590 H   0  0  0  0  0  0
  -29.6803  -11.8715   17.3329 H   0  0  0  0  0  0
  -29.6175  -13.5593   17.7795 H   0  0  0  0  0  0
  -27.8164  -11.3205   18.7781 H   0  0  0  0  0  0
  -27.3256  -12.6679   17.7857 H   0  0  0  0  0  0
  -27.7308  -14.2530   19.6047 H   0  0  0  0  0  0
  -28.6375  -11.8951   21.3248 H   0  0  0  0  0  0
  -28.4649  -13.5509   21.8426 H   0  0  0  0  0  0
  -25.2749   -9.5694   22.4753 H   0  0  0  0  0  0
  -23.9999   -7.4637   22.7468 H   0  0  0  0  0  0
  -21.0832   -8.8765   19.8948 H   0  0  0  0  0  0
  -22.3679  -10.9672   19.6160 H   0  0  0  0  0  0
  -21.2003   -7.6147   23.9713 H   0  0  0  0  0  0
  -21.1479   -6.0521   25.9073 H   0  0  0  0  0  0
  -22.0600   -2.7607   23.2843 H   0  0  0  0  0  0
  -22.4111  -11.9888   22.4763 H   0  0  0  0  0  0
  -21.1128  -13.1275   22.2586 H   0  0  0  0  0  0
  -24.6678  -15.8407   20.4938 H   0  0  0  0  0  0
  -26.2819  -15.6113   20.0465 H   0  0  0  0  0  0
  -26.7082  -32.5568   23.1205 H   0  0  0  0  0  0
  -24.9985  -33.9808   25.0469 H   0  0  0  0  0  0
  -22.6774  -31.3101   21.4184 H   0  0  0  0  0  0
  -23.3745  -35.9664   23.3271 H   0  0  0  0  0  0
  -24.3587  -36.8968   22.2053 H   0  0  0  0  0  0
  -23.7218  -37.6532   23.6656 H   0  0  0  0  0  0
  -26.0186  -31.6111   20.5904 H   0  0  0  0  0  0
  -26.8074  -30.9072   21.9741 H   0  0  0  0  0  0
  -28.0878  -29.1593   21.1428 H   0  0  0  0  0  0
  -26.0588  -25.9967   19.0138 H   0  0  0  0  0  0
  -23.9700  -27.2803   19.0685 H   0  0  0  0  0  0
  -23.6992  -30.5953   19.4075 H   0  0  0  0  0  0
  -22.7221  -29.2379   19.8818 H   0  0  0  0  0  0
  -25.1274  -36.2010   25.0839 H   0  0  0  0  0  0
  -20.9912  -28.3195   24.1487 H   0  0  0  0  0  0
  -20.5622  -26.2255   23.3625 H   0  0  0  0  0  0
  -21.6620  -26.7430   22.1246 H   0  0  0  0  0  0
  -19.6882  -25.6308   21.1231 H   0  0  0  0  0  0
  -19.6682  -27.3227   20.6779 H   0  0  0  0  0  0
  -17.4182  -26.6700   21.4007 H   0  0  0  0  0  0
  -18.0269  -26.0059   22.9002 H   0  0  0  0  0  0
  -19.7906  -30.7231   24.2343 H   0  0  0  0  0  0
  -17.4989  -31.6266   24.5156 H   0  0  0  0  0  0
  -15.5328  -30.2998   23.7636 H   0  0  0  0  0  0
  -15.8640  -28.0837   22.7044 H   0  0  0  0  0  0
  -24.5929  -30.7012   25.7855 H   0  0  0  0  0  0
  -24.8904  -32.2855   26.4928 H   0  0  0  0  0  0
  -25.8116  -30.8907   27.0252 H   0  0  0  0  0  0
  -26.2749  -29.6838   24.1119 H   0  0  0  0  0  0
  -27.3980  -29.7237   25.4517 H   0  0  0  0  0  0
  -27.8609  -30.4333   23.9209 H   0  0  0  0  0  0
  -27.2684  -33.3579   26.2097 H   0  0  0  0  0  0
  -28.3834  -32.6858   25.0277 H   0  0  0  0  0  0
  -28.0735  -31.8375   26.5348 H   0  0  0  0  0  0
  -28.2600  -38.0117   24.7520 H   0  0  0  0  0  0
  -28.1091  -36.2654   24.6233 H   0  0  0  0  0  0
  -27.2321  -37.1411   25.8856 H   0  0  0  0  0  0
  -20.9245  -29.8755   21.7024 H   0  0  0  0  0  0
  -26.0184  -38.2895   24.1431 H   0  0  0  0  0  0
  -26.7043  -21.8224   18.4853 H   0  0  0  0  0  0
  -29.8687  -22.3490   21.3970 H   0  0  0  0  0  0
  -26.9846  -24.1790   17.7789 H   0  0  0  0  0  0
  -30.1098  -24.6960   20.7116 H   0  0  0  0  0  0
  -29.3568  -19.6341   18.8817 H   0  0  0  0  0  0
  -30.2564  -20.1964   20.2628 H   0  0  0  0  0  0
  -28.5870  -20.9610   22.5216 H   0  0  0  0  0  0
  -26.8897  -20.7378   22.2288 H   0  0  0  0  0  0
  -30.2634  -17.7672   20.1964 H   0  0  0  0  0  0
  -28.5253  -17.6871   20.1844 H   0  0  0  0  0  0
  -27.2031  -18.2850   22.1243 H   0  0  0  0  0  0
  -27.9616  -18.9104   23.5716 H   0  0  0  0  0  0
  -27.2293  -20.0424   19.9457 H   0  0  0  0  0  0
  -28.1269  -26.3223   17.9769 H   0  0  0  0  0  0
  -29.7598  -26.2080   18.5557 H   0  0  0  0  0  0
  -31.6161  -17.0598   21.6772 H   0  0  0  0  0  0
  -31.7126  -17.4510   23.3580 H   0  0  0  0  0  0
  -31.4201  -15.1120   23.9821 H   0  0  0  0  0  0
  -32.6478  -15.1853   22.7384 H   0  0  0  0  0  0
  -29.3752  -17.1007   23.7560 H   0  0  0  0  0  0
  -29.0842  -16.2848   22.2471 H   0  0  0  0  0  0
  -30.1447  -13.8218   22.6349 H   0  0  0  0  0  0
  -30.0284  -19.0072   22.3348 H   0  0  0  0  0  0
  1 25  1  0  0  0
  1 30  2  0  0  0
  1 86  1  0  0  0
  2  3  1  0  0  0
  2 25  1  0  0  0
  2 88  1  0  0  0
  2 89  1  0  0  0
  3  4  1  0  0  0
  3 90  1  0  0  0
  3 91  1  0  0  0
  4  5  1  0  0  0
  4 92  1  0  0  0
  4 93  1  0  0  0
  5  6  1  0  0  0
  5 26  1  0  0  0
  5 94  1  0  0  0
  6 25  1  0  0  0
  6 95  1  0  0  0
  6 96  1  0  0  0
  7  8  2  0  0  0
  7 26  1  0  0  0
  7 29  1  0  0  0
  8  9  1  0  0  0
  8 22  1  0  0  0
  9 10  1  0  0  0
  9 27  2  0  0  0
 10 11  2  0  0  0
 10 15  1  0  0  0
 11 12  1  0  0  0
 11 97  1  0  0  0
 12 13  2  0  0  0
 12 98  1  0  0  0
 13 14  1  0  0  0
 13 31  1  0  0  0
 14 15  2  0  0  0
 14 99  1  0  0  0
 15100  1  0  0  0
 16 17  2  0  0  0
 16 21  1  0  0  0
 16 31  1  0  0  0
 17 18  1  0  0  0
 17101  1  0  0  0
 18 19  2  0  0  0
 18102  1  0  0  0
 19 20  1  0  0  0
 19 24  1  0  0  0
 20 21  2  0  0  0
 20103  1  0  0  0
 21 23  1  0  0  0
 22 28  1  0  0  0
 22 32  2  0  0  0
 26 27  1  0  0  0
 28104  1  0  0  0
 28105  1  0  0  0
 29106  1  0  0  0
 29107  1  0  0  0
 33 34  1  0  0  0
 33 66  1  0  0  0
 33 70  2  0  0  0
 34 36  1  0  0  0
 34 59  1  0  0  0
 34108  1  0  0  0
 35 44  2  0  0  0
 35 45  1  0  0  0
 35 68  1  0  0  0
 36 56  1  0  0  0
 36109  1  0  0  0
 37 39  1  0  0  0
 37 47  1  0  0  0
 37 66  1  0  0  0
 37110  1  0  0  0
 38 43  2  0  0  0
 38 46  1  0  0  0
 38 47  1  0  0  0
 39 64  1  0  0  0
 39 67  2  0  0  0
 40 52  1  0  0  0
 40 53  2  0  0  0
 40 58  1  0  0  0
 41111  1  0  0  0
 41112  1  0  0  0
 41113  1  0  0  0
 41 48  1  0  0  0
 42 43  1  0  0  0
 42 66  1  0  0  0
 42114  1  0  0  0
 42115  1  0  0  0
 43 44  1  0  0  0
 44116  1  0  0  0
 45 46  2  0  0  0
 45117  1  0  0  0
 46118  1  0  0  0
 47119  1  0  0  0
 47120  1  0  0  0
 48 56  1  0  0  0
 48 65  1  0  0  0
 48121  1  0  0  0
 49 50  1  0  0  0
 49 53  1  0  0  0
 49 64  1  0  0  0
 49122  1  0  0  0
 50 51  1  0  0  0
 50123  1  0  0  0
 50124  1  0  0  0
 51 52  1  0  0  0
 51125  1  0  0  0
 51126  1  0  0  0
 52127  1  0  0  0
 52128  1  0  0  0
 53 54  1  0  0  0
 54 55  2  0  0  0
 54129  1  0  0  0
 55 57  1  0  0  0
 55130  1  0  0  0
 56 69  2  0  0  0
 57 58  2  0  0  0
 57131  1  0  0  0
 58132  1  0  0  0
 59 60  1  0  0  0
 59 61  1  0  0  0
 59 62  1  0  0  0
 60133  1  0  0  0
 60134  1  0  0  0
 60135  1  0  0  0
 61136  1  0  0  0
 61137  1  0  0  0
 61138  1  0  0  0
 62139  1  0  0  0
 62140  1  0  0  0
 62141  1  0  0  0
 63 65  1  0  0  0
 63142  1  0  0  0
 63143  1  0  0  0
 63144  1  0  0  0
 64145  1  0  0  0
 65146  1  0  0  0
 68 82  1  0  0  0
 71 73  2  0  0  0
 71 75  1  0  0  0
 71147  1  0  0  0
 72 74  1  0  0  0
 72 75  2  0  0  0
 72148  1  0  0  0
 73 76  1  0  0  0
 73149  1  0  0  0
 74 76  2  0  0  0
 74150  1  0  0  0
 75 81  1  0  0  0
 76 82  1  0  0  0
 77 79  1  0  0  0
 77 81  1  0  0  0
 77151  1  0  0  0
 77152  1  0  0  0
 78 80  1  0  0  0
 78 81  1  0  0  0
 78153  1  0  0  0
 78154  1  0  0  0
 79 87  1  0  0  0
 79155  1  0  0  0
 79156  1  0  0  0
 80 87  1  0  0  0
 80157  1  0  0  0
 80158  1  0  0  0
 81159  1  0  0  0
 82160  1  0  0  0
 82161  1  0  0  0
 83 84  1  0  0  0
 83 85  1  0  0  0
 83162  1  0  0  0
 83163  1  0  0  0
 84 86  1  0  0  0
 84164  1  0  0  0
 84165  1  0  0  0
 85166  1  0  0  0
 85167  1  0  0  0
 85 87  1  0  0  0
 86168  1  0  0  0
 87169  1  0  0  0
M  CHG  1  87   1
M  ISO  4   1 100  68 101  82 101  86 100
M  END
> <chiral flag>
0

> <version>
0

> <s_m_source_file>
/data/baiqing/PycharmProjects/Reinvent-master-3.2/result/LINK_invent/BTK/process_docking_weight1_custom_product_contain_oxygen_bond_distance_aromatic_linkinvent_7_9_3/rearranged_h_0003.sdf

> <i_m_source_file_index>
21

> <r_mmod_Potential_Energy-OPLS-2005>
-115.244079589844

> <r_mmod_Stretch_Energy-OPLS-2005>
29.9651851654053

> <r_mmod_Bend_Energy-OPLS-2005>
92.8679885864258

> <r_mmod_Torsional_Energy-OPLS-2005>
257.864318847656

> <r_mmod_Improper_Torsional_Energy-OPLS-2005>
4.86047410964966

> <r_mmod_Van_der_Waal_Energy-OPLS-2005>
160.929672241211

> <r_mmod_Electrostatic_Energy-OPLS-2005>
-240.006469726562

> <r_mmod_Solvation_Energy-OPLS-2005>
-438.138702392578

> <b_mmod_Minimization_Converged-OPLS-2005>
0

> <r_mmod_RMS_Derivative-OPLS-2005>
0.930407881736755

$$$$
21
                    3D
 Structure written by MMmdl.
157166  0  0  1  0            999 V2000
  -30.6430  -14.7439   20.4523 C   0  0  0  0  0  0
  -30.4207  -12.4557   19.4760 C   0  0  0  0  0  0
  -29.5065  -12.5058   18.2346 C   0  0  0  0  0  0
  -28.0340  -12.3322   18.6514 C   0  0  0  0  0  0
  -27.6371  -13.2410   19.8467 C   0  0  2  0  0  0
  -28.6815  -13.2056   20.9817 C   0  0  0  0  0  0
  -25.2496  -13.8223   20.5721 C   0  0  0  0  0  0
  -24.1790  -13.0454   20.9210 C   0  0  0  0  0  0
  -24.6393  -11.6936   20.8748 C   0  0  0  0  0  0
  -23.9073  -10.4300   21.0404 C   0  0  0  0  0  0
  -24.3624   -9.4212   21.9180 C   0  0  0  0  0  0
  -23.6294   -8.2251   22.0754 C   0  0  0  0  0  0
  -22.4274   -8.0291   21.3548 C   0  0  0  0  0  0
  -21.9908   -9.0263   20.4647 C   0  0  0  0  0  0
  -22.7245  -10.2139   20.3051 C   0  0  0  0  0  0
  -21.6859   -6.0733   22.5275 C   0  0  0  0  0  0
  -21.4026   -6.5638   23.8211 C   0  0  0  0  0  0
  -21.3662   -5.6791   24.9173 C   0  0  0  0  0  0
  -21.6045   -4.3054   24.7221 C   0  0  0  0  0  0
  -21.8820   -3.8144   23.4342 C   0  0  0  0  0  0
  -21.9195   -4.6960   22.3396 C   0  0  0  0  0  0
  -22.7807  -13.5221   21.1872 C   0  0  0  0  0  0
  -22.1660   -4.2146   21.0970 F   0  0  0  0  0  0
  -21.5623   -3.4536   25.7735 F   0  0  0  0  0  0
  -29.9772  -13.5397   20.3846 N   0  0  0  0  0  0
  -26.2923  -12.9445   20.3285 N   0  0  0  0  0  0
  -25.9330  -11.6579   20.5757 N   0  0  0  0  0  0
  -22.0457  -12.8207   22.0432 N   0  0  0  0  0  0
  -25.4197  -15.1952   20.4192 N   0  0  0  0  0  0
  -31.8467  -14.7742   20.1765 O   0  0  0  0  0  0
  -21.6644   -6.8882   21.4239 O   0  0  0  0  0  0
  -22.3473  -14.5516   20.6714 O   0  0  0  0  0  0
  -24.6316  -31.8550   23.1980 C   0  0  0  0  0  0
  -25.9139  -32.4754   23.8332 C   0  0  1  0  0  0
  -27.2192  -27.2541   20.1195 C   0  0  0  0  0  0
  -25.5934  -33.8556   24.2257 N   0  0  0  0  0  0
  -23.4282  -30.4789   21.5412 C   0  0  2  0  0  0
  -24.8738  -28.9260   20.1071 C   0  0  0  0  0  0
  -22.7506  -29.4601   22.4897 C   0  0  0  0  0  0
  -18.0299  -28.1380   22.8472 C   0  0  0  0  0  0
  -24.1486  -36.7280   23.2638 C   0  0  0  0  0  0
  -25.9752  -30.7658   21.3781 C   0  0  0  0  0  0
  -26.0460  -29.3881   20.7174 C   0  0  0  0  0  0
  -27.2171  -28.5629   20.7160 C   0  0  0  0  0  0
  -26.0129  -26.8547   19.4983 C   0  0  0  0  0  0
  -24.8626  -27.6673   19.4897 C   0  0  0  0  0  0
  -23.6466  -29.8161   20.1556 C   0  0  0  0  0  0
  -25.4111  -36.3072   24.0328 C   0  0  1  0  0  0
  -20.5899  -28.3693   23.1259 C   0  0  2  0  0  0
  -20.6781  -26.9406   22.5405 C   0  0  0  0  0  0
  -19.5764  -26.6373   21.5201 C   0  0  0  0  0  0
  -18.1944  -26.7922   22.1612 C   0  0  0  0  0  0
  -19.1551  -28.8853   23.2863 C   0  0  0  0  0  0
  -18.9473  -30.1447   23.8895 C   0  0  0  0  0  0
  -17.6471  -30.6574   24.0563 C   0  0  0  0  0  0
  -25.9054  -34.9442   23.5095 C   0  0  0  0  0  0
  -16.5363  -29.9073   23.6327 C   0  0  0  0  0  0
  -16.7284  -28.6491   23.0347 C   0  0  0  0  0  0
  -26.4493  -31.6580   25.0724 C   0  0  0  0  0  0
  -25.3717  -31.3745   26.1450 C   0  0  0  0  0  0
  -27.0328  -30.2996   24.6210 C   0  0  0  0  0  0
  -27.6050  -32.4317   25.7498 C   0  0  0  0  0  0
  -27.5582  -37.1792   24.8456 C   0  0  0  0  0  0
  -21.4211  -29.3037   22.3639 N   0  0  0  0  0  0
  -26.4283  -37.3775   23.9415 N   0  0  0  0  0  0
  -24.6976  -31.0512   22.0954 N   0  0  0  0  0  0
  -23.4204  -28.8141   23.2997 O   0  0  0  0  0  0
  -28.3201  -26.3650   20.2148 O   0  0  0  0  0  0
  -26.5628  -34.8918   22.4667 O   0  0  0  0  0  0
  -23.5465  -32.1373   23.7272 O   0  0  0  0  0  0
  -30.0933  -21.7645   20.8113 C   0  0  0  0  0  0
  -28.0309  -21.1701   19.7721 C   0  0  0  0  0  0
  -29.8040  -23.1612   20.6180 C   0  0  0  0  0  0
  -27.7398  -22.5672   19.5827 C   0  0  0  0  0  0
  -29.2434  -20.7066   20.3609 C   0  0  0  0  0  0
  -28.6261  -23.6225   19.9627 C   0  0  0  0  0  0
  -29.3697  -18.2869   21.6560 C   0  0  0  0  0  0
  -29.3055  -18.2271   19.2473 C   0  0  0  0  0  0
  -30.0489  -16.8418   21.6832 C   0  0  0  0  0  0
  -30.0224  -16.8128   19.2587 C   0  0  0  0  0  0
  -29.7113  -19.1667   20.4156 C   0  0  0  0  0  0
  -28.4384  -25.1127   19.3966 C   0  0  0  0  0  0
  -29.9259  -15.9507   20.4840 N   0  0  0  0  0  0
  -31.4653  -12.5579   19.1769 H   0  0  0  0  0  0
  -30.3474  -11.4877   19.9736 H   0  0  0  0  0  0
  -29.7892  -11.7299   17.5221 H   0  0  0  0  0  0
  -29.6354  -13.4583   17.7179 H   0  0  0  0  0  0
  -27.8947  -11.2853   18.9224 H   0  0  0  0  0  0
  -27.3757  -12.5177   17.8019 H   0  0  0  0  0  0
  -27.6227  -14.2585   19.4550 H   0  0  0  0  0  0
  -28.7159  -12.2244   21.4567 H   0  0  0  0  0  0
  -28.4215  -13.9228   21.7626 H   0  0  0  0  0  0
  -25.2776   -9.5680   22.4746 H   0  0  0  0  0  0
  -24.0011   -7.4633   22.7463 H   0  0  0  0  0  0
  -21.0844   -8.8780   19.8939 H   0  0  0  0  0  0
  -22.3714  -10.9675   19.6147 H   0  0  0  0  0  0
  -21.2030   -7.6150   23.9714 H   0  0  0  0  0  0
  -21.1480   -6.0522   25.9078 H   0  0  0  0  0  0
  -22.0597   -2.7603   23.2847 H   0  0  0  0  0  0
  -22.4091  -11.9888   22.4848 H   0  0  0  0  0  0
  -21.1064  -13.1207   22.2623 H   0  0  0  0  0  0
  -24.6594  -15.8548   20.5447 H   0  0  0  0  0  0
  -26.2856  -15.6375   20.1373 H   0  0  0  0  0  0
  -26.7204  -32.5399   23.1069 H   0  0  0  0  0  0
  -25.0074  -33.9697   25.0398 H   0  0  0  0  0  0
  -22.7246  -31.3014   21.3973 H   0  0  0  0  0  0
  -23.3758  -35.9601   23.3277 H   0  0  0  0  0  0
  -24.3582  -36.8926   22.2057 H   0  0  0  0  0  0
  -23.7223  -37.6467   23.6679 H   0  0  0  0  0  0
  -26.1164  -31.5276   20.6102 H   0  0  0  0  0  0
  -26.8523  -30.8142   22.0118 H   0  0  0  0  0  0
  -28.1130  -28.9102   21.2115 H   0  0  0  0  0  0
  -25.8986  -25.8797   19.0538 H   0  0  0  0  0  0
  -23.9589  -27.3015   19.0218 H   0  0  0  0  0  0
  -23.7769  -30.5958   19.4040 H   0  0  0  0  0  0
  -22.7626  -29.2560   19.8444 H   0  0  0  0  0  0
  -25.1289  -36.1916   25.0821 H   0  0  0  0  0  0
  -21.0002  -28.3278   24.1376 H   0  0  0  0  0  0
  -20.5659  -26.2303   23.3608 H   0  0  0  0  0  0
  -21.6657  -26.7415   22.1219 H   0  0  0  0  0  0
  -19.6923  -25.6282   21.1233 H   0  0  0  0  0  0
  -19.6697  -27.3174   20.6724 H   0  0  0  0  0  0
  -17.4209  -26.6658   21.4021 H   0  0  0  0  0  0
  -18.0349  -26.0066   22.9012 H   0  0  0  0  0  0
  -19.7951  -30.7260   24.2265 H   0  0  0  0  0  0
  -17.5026  -31.6252   24.5167 H   0  0  0  0  0  0
  -15.5365  -30.2969   23.7653 H   0  0  0  0  0  0
  -15.8686  -28.0803   22.7071 H   0  0  0  0  0  0
  -24.5886  -30.7094   25.7790 H   0  0  0  0  0  0
  -24.8913  -32.2918   26.4862 H   0  0  0  0  0  0
  -25.8032  -30.8934   27.0235 H   0  0  0  0  0  0
  -26.2899  -29.6747   24.1235 H   0  0  0  0  0  0
  -27.4005  -29.7256   25.4724 H   0  0  0  0  0  0
  -27.8782  -30.4262   23.9445 H   0  0  0  0  0  0
  -27.2667  -33.3625   26.2058 H   0  0  0  0  0  0
  -28.3870  -32.6860   25.0332 H   0  0  0  0  0  0
  -28.0700  -31.8449   26.5428 H   0  0  0  0  0  0
  -28.2580  -38.0111   24.7546 H   0  0  0  0  0  0
  -28.1104  -36.2649   24.6225 H   0  0  0  0  0  0
  -27.2315  -37.1374   25.8862 H   0  0  0  0  0  0
  -20.9389  -29.8757   21.6848 H   0  0  0  0  0  0
  -26.0158  -38.2843   24.1446 H   0  0  0  0  0  0
  -31.0388  -21.5051   21.2675 H   0  0  0  0  0  0
  -27.3230  -20.4433   19.3979 H   0  0  0  0  0  0
  -30.5487  -23.8870   20.9154 H   0  0  0  0  0  0
  -26.8320  -22.8269   19.0554 H   0  0  0  0  0  0
  -29.6691  -18.8226   22.5573 H   0  0  0  0  0  0
  -28.2873  -18.1764   21.7306 H   0  0  0  0  0  0
  -28.2243  -18.0858   19.2454 H   0  0  0  0  0  0
  -29.5406  -18.7235   18.3051 H   0  0  0  0  0  0
  -29.6664  -16.2948   22.5466 H   0  0  0  0  0  0
  -31.1148  -16.9789   21.8765 H   0  0  0  0  0  0
  -31.0794  -16.9869   19.0474 H   0  0  0  0  0  0
  -29.6533  -16.2334   18.4099 H   0  0  0  0  0  0
  -30.8001  -19.2315   20.3824 H   0  0  0  0  0  0
  -27.7117  -25.0745   18.5896 H   0  0  0  0  0  0
  -29.3651  -25.2800   18.8466 H   0  0  0  0  0  0
  1 25  1  0  0  0
  1 30  2  0  0  0
  1 83  1  0  0  0
  2  3  1  0  0  0
  2 25  1  0  0  0
  2 84  1  0  0  0
  2 85  1  0  0  0
  3  4  1  0  0  0
  3 86  1  0  0  0
  3 87  1  0  0  0
  4  5  1  0  0  0
  4 88  1  0  0  0
  4 89  1  0  0  0
  5  6  1  0  0  0
  5 26  1  0  0  0
  5 90  1  0  0  0
  6 25  1  0  0  0
  6 91  1  0  0  0
  6 92  1  0  0  0
  7  8  2  0  0  0
  7 26  1  0  0  0
  7 29  1  0  0  0
  8  9  1  0  0  0
  8 22  1  0  0  0
  9 10  1  0  0  0
  9 27  2  0  0  0
 10 11  2  0  0  0
 10 15  1  0  0  0
 11 12  1  0  0  0
 11 93  1  0  0  0
 12 13  2  0  0  0
 12 94  1  0  0  0
 13 14  1  0  0  0
 13 31  1  0  0  0
 14 15  2  0  0  0
 14 95  1  0  0  0
 15 96  1  0  0  0
 16 17  2  0  0  0
 16 21  1  0  0  0
 16 31  1  0  0  0
 17 18  1  0  0  0
 17 97  1  0  0  0
 18 19  2  0  0  0
 18 98  1  0  0  0
 19 20  1  0  0  0
 19 24  1  0  0  0
 20 21  2  0  0  0
 20 99  1  0  0  0
 21 23  1  0  0  0
 22 28  1  0  0  0
 22 32  2  0  0  0
 26 27  1  0  0  0
 28100  1  0  0  0
 28101  1  0  0  0
 29102  1  0  0  0
 29103  1  0  0  0
 33 34  1  0  0  0
 33 66  1  0  0  0
 33 70  2  0  0  0
 34 36  1  0  0  0
 34 59  1  0  0  0
 34104  1  0  0  0
 35 44  2  0  0  0
 35 45  1  0  0  0
 35 68  1  0  0  0
 36 56  1  0  0  0
 36105  1  0  0  0
 37 39  1  0  0  0
 37 47  1  0  0  0
 37 66  1  0  0  0
 37106  1  0  0  0
 38 43  2  0  0  0
 38 46  1  0  0  0
 38 47  1  0  0  0
 39 64  1  0  0  0
 39 67  2  0  0  0
 40 52  1  0  0  0
 40 53  2  0  0  0
 40 58  1  0  0  0
 41107  1  0  0  0
 41108  1  0  0  0
 41109  1  0  0  0
 41 48  1  0  0  0
 42 43  1  0  0  0
 42 66  1  0  0  0
 42110  1  0  0  0
 42111  1  0  0  0
 43 44  1  0  0  0
 44112  1  0  0  0
 45 46  2  0  0  0
 45113  1  0  0  0
 46114  1  0  0  0
 47115  1  0  0  0
 47116  1  0  0  0
 48 56  1  0  0  0
 48 65  1  0  0  0
 48117  1  0  0  0
 49 50  1  0  0  0
 49 53  1  0  0  0
 49 64  1  0  0  0
 49118  1  0  0  0
 50 51  1  0  0  0
 50119  1  0  0  0
 50120  1  0  0  0
 51 52  1  0  0  0
 51121  1  0  0  0
 51122  1  0  0  0
 52123  1  0  0  0
 52124  1  0  0  0
 53 54  1  0  0  0
 54 55  2  0  0  0
 54125  1  0  0  0
 55 57  1  0  0  0
 55126  1  0  0  0
 56 69  2  0  0  0
 57 58  2  0  0  0
 57127  1  0  0  0
 58128  1  0  0  0
 59 60  1  0  0  0
 59 61  1  0  0  0
 59 62  1  0  0  0
 60129  1  0  0  0
 60130  1  0  0  0
 60131  1  0  0  0
 61132  1  0  0  0
 61133  1  0  0  0
 61134  1  0  0  0
 62135  1  0  0  0
 62136  1  0  0  0
 62137  1  0  0  0
 63 65  1  0  0  0
 63138  1  0  0  0
 63139  1  0  0  0
 63140  1  0  0  0
 64141  1  0  0  0
 65142  1  0  0  0
 68 82  1  0  0  0
 71 73  2  0  0  0
 71 75  1  0  0  0
 71143  1  0  0  0
 72 74  1  0  0  0
 72 75  2  0  0  0
 72144  1  0  0  0
 73 76  1  0  0  0
 73145  1  0  0  0
 74 76  2  0  0  0
 74146  1  0  0  0
 75 81  1  0  0  0
 76 82  1  0  0  0
 77 79  1  0  0  0
 77 81  1  0  0  0
 77147  1  0  0  0
 77148  1  0  0  0
 78 80  1  0  0  0
 78 81  1  0  0  0
 78149  1  0  0  0
 78150  1  0  0  0
 79 83  1  0  0  0
 79151  1  0  0  0
 79152  1  0  0  0
 80 83  1  0  0  0
 80153  1  0  0  0
 80154  1  0  0  0
 81155  1  0  0  0
 82156  1  0  0  0
 82157  1  0  0  0
M  ISO  4   1 100  68 101  82 101  83 100
M  END
> <chiral flag>
0

> <version>
0

> <s_m_source_file>
/data/baiqing/PycharmProjects/Reinvent-master-3.2/result/LINK_invent/BTK/process_docking_weight1_custom_product_contain_oxygen_bond_distance_aromatic_linkinvent_7_9_3/rearranged_h_0003.sdf

> <i_m_source_file_index>
22

> <r_mmod_Potential_Energy-OPLS-2005>
449.520599365234

> <r_mmod_Stretch_Energy-OPLS-2005>
120.040107727051

> <r_mmod_Bend_Energy-OPLS-2005>
201.958053588867

> <r_mmod_Torsional_Energy-OPLS-2005>
341.868438720703

> <r_mmod_Improper_Torsional_Energy-OPLS-2005>
15.9666175842285

> <r_mmod_Van_der_Waal_Energy-OPLS-2005>
139.468215942383

> <r_mmod_Electrostatic_Energy-OPLS-2005>
-270.755279541016

> <r_mmod_Solvation_Energy-OPLS-2005>
-189.391342163086

> <b_mmod_Minimization_Converged-OPLS-2005>
0

> <r_mmod_RMS_Derivative-OPLS-2005>
1.37633216381073

$$$$
22
                    3D
 Structure written by MMmdl.
147155  0  0  1  0            999 V2000
  -30.4751  -15.1823   20.3805 C   0  0  0  0  0  0
  -30.4354  -12.7503   19.5208 C   0  0  0  0  0  0
  -29.5293  -12.5597   18.2802 C   0  0  0  0  0  0
  -28.0737  -12.3019   18.7063 C   0  0  0  0  0  0
  -27.6140  -13.2691   19.8262 C   0  0  2  0  0  0
  -28.6501  -13.4142   20.9608 C   0  0  0  0  0  0
  -25.2396  -13.8243   20.5741 C   0  0  0  0  0  0
  -24.1743  -13.0438   20.9256 C   0  0  0  0  0  0
  -24.6391  -11.6934   20.8765 C   0  0  0  0  0  0
  -23.9084  -10.4293   21.0410 C   0  0  0  0  0  0
  -24.3633   -9.4206   21.9185 C   0  0  0  0  0  0
  -23.6307   -8.2242   22.0750 C   0  0  0  0  0  0
  -22.4286   -8.0281   21.3544 C   0  0  0  0  0  0
  -21.9928   -9.0255   20.4643 C   0  0  0  0  0  0
  -22.7259  -10.2134   20.3055 C   0  0  0  0  0  0
  -21.6855   -6.0739   22.5281 C   0  0  0  0  0  0
  -21.4015   -6.5642   23.8214 C   0  0  0  0  0  0
  -21.3659   -5.6794   24.9175 C   0  0  0  0  0  0
  -21.6045   -4.3055   24.7226 C   0  0  0  0  0  0
  -21.8819   -3.8149   23.4346 C   0  0  0  0  0  0
  -21.9196   -4.6968   22.3404 C   0  0  0  0  0  0
  -22.7761  -13.5192   21.1912 C   0  0  0  0  0  0
  -22.1663   -4.2153   21.0981 F   0  0  0  0  0  0
  -21.5631   -3.4538   25.7738 F   0  0  0  0  0  0
  -29.8927  -13.8922   20.3375 N   0  0  0  0  0  0
  -26.2822  -12.9509   20.3229 N   0  0  0  0  0  0
  -25.9325  -11.6618   20.5732 N   0  0  0  0  0  0
  -22.0426  -12.8163   22.0464 N   0  0  0  0  0  0
  -25.4030  -15.1977   20.4173 N   0  0  0  0  0  0
  -31.6935  -15.1828   20.1597 O   0  0  0  0  0  0
  -21.6644   -6.8882   21.4241 O   0  0  0  0  0  0
  -22.3438  -14.5497   20.6759 O   0  0  0  0  0  0
  -24.6588  -31.8286   23.1761 C   0  0  0  0  0  0
  -25.9293  -32.4618   23.8201 C   0  0  1  0  0  0
  -27.2114  -26.9740   20.1745 C   0  0  0  0  0  0
  -25.5981  -33.8429   24.2108 N   0  0  0  0  0  0
  -23.4707  -30.4443   21.5237 C   0  0  2  0  0  0
  -24.9232  -28.8455   20.1093 C   0  0  0  0  0  0
  -22.7642  -29.4472   22.4790 C   0  0  0  0  0  0
  -18.0320  -28.1410   22.8475 C   0  0  0  0  0  0
  -24.1486  -36.7203   23.2645 C   0  0  0  0  0  0
  -26.0381  -30.6502   21.4006 C   0  0  0  0  0  0
  -26.1063  -29.2463   20.7427 C   0  0  0  0  0  0
  -27.2474  -28.3300   20.7549 C   0  0  0  0  0  0
  -26.0015  -26.7223   19.4877 C   0  0  0  0  0  0
  -24.8939  -27.6023   19.4623 C   0  0  0  0  0  0
  -23.7077  -29.7672   20.1472 C   0  0  0  0  0  0
  -25.4125  -36.2979   24.0306 C   0  0  1  0  0  0
  -20.5944  -28.3749   23.1193 C   0  0  2  0  0  0
  -20.6796  -26.9435   22.5401 C   0  0  0  0  0  0
  -19.5767  -26.6385   21.5213 C   0  0  0  0  0  0
  -18.1950  -26.7945   22.1627 C   0  0  0  0  0  0
  -19.1582  -28.8900   23.2826 C   0  0  0  0  0  0
  -18.9495  -30.1489   23.8861 C   0  0  0  0  0  0
  -17.6490  -30.6605   24.0555 C   0  0  0  0  0  0
  -25.9093  -34.9366   23.5024 C   0  0  0  0  0  0
  -16.5377  -29.9094   23.6348 C   0  0  0  0  0  0
  -16.7304  -28.6512   23.0375 C   0  0  0  0  0  0
  -26.4558  -31.6552   25.0712 C   0  0  0  0  0  0
  -25.3702  -31.3799   26.1381 C   0  0  0  0  0  0
  -27.0443  -30.2921   24.6420 C   0  0  0  0  0  0
  -27.6054  -32.4355   25.7514 C   0  0  0  0  0  0
  -27.5563  -37.1755   24.8468 C   0  0  0  0  0  0
  -21.4319  -29.3048   22.3543 N   0  0  0  0  0  0
  -26.4267  -37.3717   23.9420 N   0  0  0  0  0  0
  -24.7433  -30.9997   22.0872 N   0  0  0  0  0  0
  -23.4214  -28.8031   23.3007 O   0  0  0  0  0  0
  -28.1962  -25.8671   20.2637 O   0  0  0  0  0  0
  -26.5687  -34.8895   22.4609 O   0  0  0  0  0  0
  -23.5671  -32.1232   23.6885 O   0  0  0  0  0  0
  -28.2774  -20.1783   20.9076 C   0  0  0  0  0  0
  -30.1456  -20.7584   19.6963 C   0  0  0  0  0  0
  -27.8545  -21.6057   20.8710 C   0  0  0  0  0  0
  -29.7223  -22.1796   19.6571 C   0  0  0  0  0  0
  -29.4725  -19.6132   20.3050 C   0  0  0  0  0  0
  -28.5298  -22.7500   20.2537 C   0  0  0  0  0  0
  -30.1825  -18.0265   20.3361 C   0  0  0  0  0  0
  -27.8040  -24.3101   20.0193 C   0  0  0  0  0  0
  -29.7353  -16.4509   20.4631 N   0  0  0  0  0  0
  -31.4594  -12.9371   19.1947 H   0  0  0  0  0  0
  -30.4796  -11.8355   20.1142 H   0  0  0  0  0  0
  -29.8932  -11.7354   17.6652 H   0  0  0  0  0  0
  -29.5747  -13.4531   17.6556 H   0  0  0  0  0  0
  -28.0144  -11.2735   19.0644 H   0  0  0  0  0  0
  -27.4061  -12.3652   17.8463 H   0  0  0  0  0  0
  -27.5393  -14.2436   19.3423 H   0  0  0  0  0  0
  -28.7973  -12.4727   21.4919 H   0  0  0  0  0  0
  -28.3051  -14.1392   21.6999 H   0  0  0  0  0  0
  -25.2775   -9.5686   22.4766 H   0  0  0  0  0  0
  -24.0018   -7.4629   22.7465 H   0  0  0  0  0  0
  -21.0861   -8.8777   19.8943 H   0  0  0  0  0  0
  -22.3716  -10.9677   19.6168 H   0  0  0  0  0  0
  -21.2001   -7.6149   23.9719 H   0  0  0  0  0  0
  -21.1482   -6.0522   25.9080 H   0  0  0  0  0  0
  -22.0598   -2.7611   23.2844 H   0  0  0  0  0  0
  -22.4066  -11.9826   22.4836 H   0  0  0  0  0  0
  -21.1039  -13.1162   22.2684 H   0  0  0  0  0  0
  -24.6307  -15.8462   20.5268 H   0  0  0  0  0  0
  -26.2426  -15.6401   20.0678 H   0  0  0  0  0  0
  -26.7360  -32.5170   23.0915 H   0  0  0  0  0  0
  -25.0108  -33.9519   25.0247 H   0  0  0  0  0  0
  -22.7817  -31.2753   21.3586 H   0  0  0  0  0  0
  -23.3765  -35.9516   23.3288 H   0  0  0  0  0  0
  -24.3561  -36.8862   22.2063 H   0  0  0  0  0  0
  -23.7225  -37.6381   23.6704 H   0  0  0  0  0  0
  -26.2147  -31.3959   20.6243 H   0  0  0  0  0  0
  -26.8998  -30.7033   22.0539 H   0  0  0  0  0  0
  -28.1398  -28.6311   21.2848 H   0  0  0  0  0  0
  -25.8646  -25.7763   18.9864 H   0  0  0  0  0  0
  -23.9957  -27.2900   18.9472 H   0  0  0  0  0  0
  -23.8604  -30.5388   19.3918 H   0  0  0  0  0  0
  -22.8182  -29.2207   19.8291 H   0  0  0  0  0  0
  -25.1322  -36.1770   25.0795 H   0  0  0  0  0  0
  -21.0038  -28.3354   24.1314 H   0  0  0  0  0  0
  -20.5671  -26.2370   23.3639 H   0  0  0  0  0  0
  -21.6659  -26.7417   22.1202 H   0  0  0  0  0  0
  -19.6920  -25.6286   21.1269 H   0  0  0  0  0  0
  -19.6698  -27.3172   20.6723 H   0  0  0  0  0  0
  -17.4213  -26.6691   21.4036 H   0  0  0  0  0  0
  -18.0346  -26.0100   22.9037 H   0  0  0  0  0  0
  -19.7970  -30.7314   24.2214 H   0  0  0  0  0  0
  -17.5045  -31.6283   24.5161 H   0  0  0  0  0  0
  -15.5376  -30.2985   23.7697 H   0  0  0  0  0  0
  -15.8703  -28.0812   22.7124 H   0  0  0  0  0  0
  -24.5887  -30.7140   25.7706 H   0  0  0  0  0  0
  -24.8887  -32.3001   26.4697 H   0  0  0  0  0  0
  -25.7949  -30.9045   27.0232 H   0  0  0  0  0  0
  -26.3101  -29.6613   24.1393 H   0  0  0  0  0  0
  -27.3950  -29.7270   25.5066 H   0  0  0  0  0  0
  -27.9059  -30.4114   23.9849 H   0  0  0  0  0  0
  -27.2623  -33.3701   26.1969 H   0  0  0  0  0  0
  -28.3933  -32.6842   25.0392 H   0  0  0  0  0  0
  -28.0644  -31.8559   26.5535 H   0  0  0  0  0  0
  -28.2564  -38.0066   24.7527 H   0  0  0  0  0  0
  -28.1075  -36.2596   24.6281 H   0  0  0  0  0  0
  -27.2284  -37.1386   25.8872 H   0  0  0  0  0  0
  -20.9555  -29.8749   21.6692 H   0  0  0  0  0  0
  -26.0113  -38.2769   24.1454 H   0  0  0  0  0  0
  -27.6291  -19.4927   21.4361 H   0  0  0  0  0  0
  -31.0814  -20.5404   19.1999 H   0  0  0  0  0  0
  -26.9033  -21.8209   21.3381 H   0  0  0  0  0  0
  -30.3513  -22.8578   19.0974 H   0  0  0  0  0  0
  -30.9305  -18.1209   21.1241 H   0  0  0  0  0  0
  -30.7794  -18.0194   19.4234 H   0  0  0  0  0  0
  -26.8452  -24.2068   20.5276 H   0  0  0  0  0  0
  -27.5507  -24.2802   18.9596 H   0  0  0  0  0  0
  -28.7435  -16.3219   20.5965 H   0  0  0  0  0  0
  1 25  1  0  0  0
  1 30  2  0  0  0
  1 79  1  0  0  0
  2  3  1  0  0  0
  2 25  1  0  0  0
  2 80  1  0  0  0
  2 81  1  0  0  0
  3  4  1  0  0  0
  3 82  1  0  0  0
  3 83  1  0  0  0
  4  5  1  0  0  0
  4 84  1  0  0  0
  4 85  1  0  0  0
  5  6  1  0  0  0
  5 26  1  0  0  0
  5 86  1  0  0  0
  6 25  1  0  0  0
  6 87  1  0  0  0
  6 88  1  0  0  0
  7  8  2  0  0  0
  7 26  1  0  0  0
  7 29  1  0  0  0
  8  9  1  0  0  0
  8 22  1  0  0  0
  9 10  1  0  0  0
  9 27  2  0  0  0
 10 11  2  0  0  0
 10 15  1  0  0  0
 11 12  1  0  0  0
 11 89  1  0  0  0
 12 13  2  0  0  0
 12 90  1  0  0  0
 13 14  1  0  0  0
 13 31  1  0  0  0
 14 15  2  0  0  0
 14 91  1  0  0  0
 15 92  1  0  0  0
 16 17  2  0  0  0
 16 21  1  0  0  0
 16 31  1  0  0  0
 17 18  1  0  0  0
 17 93  1  0  0  0
 18 19  2  0  0  0
 18 94  1  0  0  0
 19 20  1  0  0  0
 19 24  1  0  0  0
 20 21  2  0  0  0
 20 95  1  0  0  0
 21 23  1  0  0  0
 22 28  1  0  0  0
 22 32  2  0  0  0
 26 27  1  0  0  0
 28 96  1  0  0  0
 28 97  1  0  0  0
 29 98  1  0  0  0
 29 99  1  0  0  0
 33 34  1  0  0  0
 33 66  1  0  0  0
 33 70  2  0  0  0
 34 36  1  0  0  0
 34 59  1  0  0  0
 34100  1  0  0  0
 35 44  2  0  0  0
 35 45  1  0  0  0
 35 68  1  0  0  0
 36 56  1  0  0  0
 36101  1  0  0  0
 37 39  1  0  0  0
 37 47  1  0  0  0
 37 66  1  0  0  0
 37102  1  0  0  0
 38 43  2  0  0  0
 38 46  1  0  0  0
 38 47  1  0  0  0
 39 64  1  0  0  0
 39 67  2  0  0  0
 40 52  1  0  0  0
 40 53  2  0  0  0
 40 58  1  0  0  0
 41103  1  0  0  0
 41104  1  0  0  0
 41105  1  0  0  0
 41 48  1  0  0  0
 42 43  1  0  0  0
 42 66  1  0  0  0
 42106  1  0  0  0
 42107  1  0  0  0
 43 44  1  0  0  0
 44108  1  0  0  0
 45 46  2  0  0  0
 45109  1  0  0  0
 46110  1  0  0  0
 47111  1  0  0  0
 47112  1  0  0  0
 48 56  1  0  0  0
 48 65  1  0  0  0
 48113  1  0  0  0
 49 50  1  0  0  0
 49 53  1  0  0  0
 49 64  1  0  0  0
 49114  1  0  0  0
 50 51  1  0  0  0
 50115  1  0  0  0
 50116  1  0  0  0
 51 52  1  0  0  0
 51117  1  0  0  0
 51118  1  0  0  0
 52119  1  0  0  0
 52120  1  0  0  0
 53 54  1  0  0  0
 54 55  2  0  0  0
 54121  1  0  0  0
 55 57  1  0  0  0
 55122  1  0  0  0
 56 69  2  0  0  0
 57 58  2  0  0  0
 57123  1  0  0  0
 58124  1  0  0  0
 59 60  1  0  0  0
 59 61  1  0  0  0
 59 62  1  0  0  0
 60125  1  0  0  0
 60126  1  0  0  0
 60127  1  0  0  0
 61128  1  0  0  0
 61129  1  0  0  0
 61130  1  0  0  0
 62131  1  0  0  0
 62132  1  0  0  0
 62133  1  0  0  0
 63 65  1  0  0  0
 63134  1  0  0  0
 63135  1  0  0  0
 63136  1  0  0  0
 64137  1  0  0  0
 65138  1  0  0  0
 68 78  1  0  0  0
 71 73  2  0  0  0
 71 75  1  0  0  0
 71139  1  0  0  0
 72 74  1  0  0  0
 72 75  2  0  0  0
 72140  1  0  0  0
 73 76  1  0  0  0
 73141  1  0  0  0
 74 76  2  0  0  0
 74142  1  0  0  0
 75 77  1  0  0  0
 76 78  1  0  0  0
 77 79  1  0  0  0
 77143  1  0  0  0
 77144  1  0  0  0
 78145  1  0  0  0
 78146  1  0  0  0
 79147  1  0  0  0
M  ISO  4   1 100  68 101  78 101  79 100
M  END
> <chiral flag>
0

> <version>
0

> <s_m_source_file>
/data/baiqing/PycharmProjects/Reinvent-master-3.2/result/LINK_invent/BTK/process_docking_weight1_custom_product_contain_oxygen_bond_distance_aromatic_linkinvent_7_9_3/rearranged_h_0003.sdf

> <i_m_source_file_index>
23

> <r_mmod_Potential_Energy-OPLS-2005>
1015.4599609375

> <r_mmod_Stretch_Energy-OPLS-2005>
443.456787109375

> <r_mmod_Bend_Energy-OPLS-2005>
422.297058105469

> <r_mmod_Torsional_Energy-OPLS-2005>
215.021911621094

> <r_mmod_Improper_Torsional_Energy-OPLS-2005>
7.18429374694824

> <r_mmod_Van_der_Waal_Energy-OPLS-2005>
133.087112426758

> <r_mmod_Electrostatic_Energy-OPLS-2005>
-379.332244873047

> <r_mmod_Solvation_Energy-OPLS-2005>
-213.699493408203

> <b_mmod_Minimization_Converged-OPLS-2005>
0

> <r_mmod_RMS_Derivative-OPLS-2005>
0.623550474643707

$$$$
23
                    3D
 Structure written by MMmdl.
144151  0  0  1  0            999 V2000
  -30.4369  -15.2511   20.3767 C   0  0  0  0  0  0
  -30.4407  -12.8036   19.5103 C   0  0  0  0  0  0
  -29.5321  -12.5695   18.2777 C   0  0  0  0  0  0
  -28.0806  -12.2958   18.7105 C   0  0  0  0  0  0
  -27.6107  -13.2711   19.8186 C   0  0  2  0  0  0
  -28.6480  -13.4407   20.9474 C   0  0  0  0  0  0
  -25.2393  -13.8238   20.5742 C   0  0  0  0  0  0
  -24.1743  -13.0431   20.9260 C   0  0  0  0  0  0
  -24.6395  -11.6928   20.8764 C   0  0  0  0  0  0
  -23.9090  -10.4290   21.0409 C   0  0  0  0  0  0
  -24.3635   -9.4203   21.9186 C   0  0  0  0  0  0
  -23.6303   -8.2241   22.0755 C   0  0  0  0  0  0
  -22.4284   -8.0282   21.3545 C   0  0  0  0  0  0
  -21.9926   -9.0257   20.4646 C   0  0  0  0  0  0
  -22.7261  -10.2132   20.3056 C   0  0  0  0  0  0
  -21.6855   -6.0737   22.5279 C   0  0  0  0  0  0
  -21.4016   -6.5641   23.8212 C   0  0  0  0  0  0
  -21.3660   -5.6793   24.9174 C   0  0  0  0  0  0
  -21.6044   -4.3056   24.7225 C   0  0  0  0  0  0
  -21.8819   -3.8148   23.4346 C   0  0  0  0  0  0
  -21.9193   -4.6965   22.3402 C   0  0  0  0  0  0
  -22.7761  -13.5187   21.1906 C   0  0  0  0  0  0
  -22.1661   -4.2150   21.0980 F   0  0  0  0  0  0
  -21.5628   -3.4540   25.7737 F   0  0  0  0  0  0
  -29.8748  -13.9472   20.3118 N   0  0  0  0  0  0
  -26.2814  -12.9504   20.3207 N   0  0  0  0  0  0
  -25.9329  -11.6614   20.5719 N   0  0  0  0  0  0
  -22.0419  -12.8169   22.0460 N   0  0  0  0  0  0
  -25.4019  -15.1973   20.4173 N   0  0  0  0  0  0
  -31.6652  -15.2598   20.2187 O   0  0  0  0  0  0
  -21.6644   -6.8882   21.4242 O   0  0  0  0  0  0
  -22.3441  -14.5488   20.6746 O   0  0  0  0  0  0
  -24.6622  -31.8245   23.1706 C   0  0  0  0  0  0
  -25.9306  -32.4593   23.8170 C   0  0  1  0  0  0
  -27.2187  -26.9359   20.1919 C   0  0  0  0  0  0
  -25.5976  -33.8406   24.2077 N   0  0  0  0  0  0
  -23.4761  -30.4358   21.5204 C   0  0  2  0  0  0
  -24.9283  -28.8193   20.1193 C   0  0  0  0  0  0
  -22.7660  -29.4449   22.4794 C   0  0  0  0  0  0
  -18.0321  -28.1408   22.8468 C   0  0  0  0  0  0
  -24.1493  -36.7209   23.2648 C   0  0  0  0  0  0
  -26.0446  -30.6350   21.3978 C   0  0  0  0  0  0
  -26.1136  -29.2235   20.7468 C   0  0  0  0  0  0
  -27.2569  -28.3054   20.7517 C   0  0  0  0  0  0
  -26.0019  -26.6767   19.5243 C   0  0  0  0  0  0
  -24.8966  -27.5655   19.4877 C   0  0  0  0  0  0
  -23.7155  -29.7482   20.1484 C   0  0  0  0  0  0
  -25.4134  -36.2970   24.0300 C   0  0  1  0  0  0
  -20.5944  -28.3752   23.1192 C   0  0  2  0  0  0
  -20.6798  -26.9435   22.5403 C   0  0  0  0  0  0
  -19.5772  -26.6378   21.5214 C   0  0  0  0  0  0
  -18.1954  -26.7942   22.1623 C   0  0  0  0  0  0
  -19.1582  -28.8901   23.2817 C   0  0  0  0  0  0
  -18.9493  -30.1491   23.8852 C   0  0  0  0  0  0
  -17.6486  -30.6598   24.0556 C   0  0  0  0  0  0
  -25.9098  -34.9353   23.5010 C   0  0  0  0  0  0
  -16.5376  -29.9085   23.6343 C   0  0  0  0  0  0
  -16.7303  -28.6506   23.0363 C   0  0  0  0  0  0
  -26.4559  -31.6536   25.0696 C   0  0  0  0  0  0
  -25.3687  -31.3784   26.1354 C   0  0  0  0  0  0
  -27.0455  -30.2904   24.6421 C   0  0  0  0  0  0
  -27.6050  -32.4345   25.7500 C   0  0  0  0  0  0
  -27.5569  -37.1762   24.8467 C   0  0  0  0  0  0
  -21.4331  -29.3044   22.3542 N   0  0  0  0  0  0
  -26.4280  -37.3705   23.9407 N   0  0  0  0  0  0
  -24.7491  -30.9919   22.0835 N   0  0  0  0  0  0
  -23.4211  -28.8021   23.3034 O   0  0  0  0  0  0
  -28.2432  -25.8546   20.1976 O   0  0  0  0  0  0
  -26.5710  -34.8888   22.4606 O   0  0  0  0  0  0
  -23.5694  -32.1209   23.6807 O   0  0  0  0  0  0
  -29.9032  -18.1505   20.6487 C   0  0  0  0  0  0
  -29.0916  -19.6523   20.0641 C   0  0  0  0  0  0
  -28.0410  -24.2465   20.5108 C   0  0  0  0  0  0
  -28.7182  -22.6665   19.9472 C   0  0  0  0  0  0
  -29.6593  -16.5123   20.4191 N   0  0  0  0  0  0
  -28.9892  -21.1936   20.6301 O   0  0  0  0  0  0
  -31.4561  -13.0183   19.1742 H   0  0  0  0  0  0
  -30.5160  -11.9000   20.1175 H   0  0  0  0  0  0
  -29.9090  -11.7401   17.6776 H   0  0  0  0  0  0
  -29.5601  -13.4510   17.6352 H   0  0  0  0  0  0
  -28.0368  -11.2719   19.0838 H   0  0  0  0  0  0
  -27.4101  -12.3372   17.8514 H   0  0  0  0  0  0
  -27.5259  -14.2383   19.3215 H   0  0  0  0  0  0
  -28.8185  -12.5046   21.4812 H   0  0  0  0  0  0
  -28.2924  -14.1615   21.6855 H   0  0  0  0  0  0
  -25.2776   -9.5679   22.4767 H   0  0  0  0  0  0
  -24.0007   -7.4633   22.7477 H   0  0  0  0  0  0
  -21.0856   -8.8780   19.8952 H   0  0  0  0  0  0
  -22.3719  -10.9674   19.6169 H   0  0  0  0  0  0
  -21.2009   -7.6149   23.9716 H   0  0  0  0  0  0
  -21.1482   -6.0524   25.9077 H   0  0  0  0  0  0
  -22.0597   -2.7610   23.2846 H   0  0  0  0  0  0
  -22.4051  -11.9839   22.4851 H   0  0  0  0  0  0
  -21.1031  -13.1176   22.2665 H   0  0  0  0  0  0
  -24.6298  -15.8453   20.5309 H   0  0  0  0  0  0
  -26.2396  -15.6403   20.0642 H   0  0  0  0  0  0
  -26.7377  -32.5137   23.0887 H   0  0  0  0  0  0
  -25.0070  -33.9485   25.0192 H   0  0  0  0  0  0
  -22.7891  -31.2670   21.3485 H   0  0  0  0  0  0
  -23.3765  -35.9530   23.3283 H   0  0  0  0  0  0
  -24.3569  -36.8881   22.2067 H   0  0  0  0  0  0
  -23.7242  -37.6387   23.6720 H   0  0  0  0  0  0
  -26.2213  -31.3747   20.6158 H   0  0  0  0  0  0
  -26.9062  -30.6947   22.0510 H   0  0  0  0  0  0
  -28.1614  -28.6200   21.2530 H   0  0  0  0  0  0
  -25.8841  -25.7202   19.0350 H   0  0  0  0  0  0
  -23.9962  -27.2498   18.9788 H   0  0  0  0  0  0
  -23.8728  -30.5146   19.3885 H   0  0  0  0  0  0
  -22.8250  -29.2028   19.8311 H   0  0  0  0  0  0
  -25.1332  -36.1767   25.0791 H   0  0  0  0  0  0
  -21.0032  -28.3358   24.1316 H   0  0  0  0  0  0
  -20.5680  -26.2370   23.3642 H   0  0  0  0  0  0
  -21.6662  -26.7414   22.1208 H   0  0  0  0  0  0
  -19.6931  -25.6277   21.1274 H   0  0  0  0  0  0
  -19.6710  -27.3164   20.6724 H   0  0  0  0  0  0
  -17.4222  -26.6685   21.4027 H   0  0  0  0  0  0
  -18.0350  -26.0095   22.9030 H   0  0  0  0  0  0
  -19.7968  -30.7320   24.2201 H   0  0  0  0  0  0
  -17.5037  -31.6274   24.5166 H   0  0  0  0  0  0
  -15.5375  -30.2973   23.7693 H   0  0  0  0  0  0
  -15.8704  -28.0808   22.7105 H   0  0  0  0  0  0
  -24.5885  -30.7117   25.7664 H   0  0  0  0  0  0
  -24.8859  -32.2984   26.4657 H   0  0  0  0  0  0
  -25.7920  -30.9033   27.0213 H   0  0  0  0  0  0
  -26.3120  -29.6580   24.1408 H   0  0  0  0  0  0
  -27.3971  -29.7268   25.5074 H   0  0  0  0  0  0
  -27.9066  -30.4088   23.9841 H   0  0  0  0  0  0
  -27.2619  -33.3690   26.1952 H   0  0  0  0  0  0
  -28.3927  -32.6835   25.0377 H   0  0  0  0  0  0
  -28.0645  -31.8555   26.5522 H   0  0  0  0  0  0
  -28.2572  -38.0071   24.7508 H   0  0  0  0  0  0
  -28.1079  -36.2597   24.6302 H   0  0  0  0  0  0
  -27.2284  -37.1414   25.8869 H   0  0  0  0  0  0
  -20.9586  -29.8729   21.6666 H   0  0  0  0  0  0
  -26.0128  -38.2764   24.1412 H   0  0  0  0  0  0
  -29.8343  -18.2328   21.7336 H   0  0  0  0  0  0
  -30.9655  -18.2990   20.4516 H   0  0  0  0  0  0
  -28.0459  -19.3727   19.9349 H   0  0  0  0  0  0
  -29.4521  -19.7769   19.0427 H   0  0  0  0  0  0
  -28.2693  -24.2286   21.5764 H   0  0  0  0  0  0
  -26.9610  -24.1021   20.4918 H   0  0  0  0  0  0
  -29.7032  -22.9230   19.5574 H   0  0  0  0  0  0
  -28.1449  -22.4326   19.0499 H   0  0  0  0  0  0
  -28.6725  -16.2975   20.4101 H   0  0  0  0  0  0
  1 25  1  0  0  0
  1 30  2  0  0  0
  1 75  1  0  0  0
  2  3  1  0  0  0
  2 25  1  0  0  0
  2 77  1  0  0  0
  2 78  1  0  0  0
  3  4  1  0  0  0
  3 79  1  0  0  0
  3 80  1  0  0  0
  4  5  1  0  0  0
  4 81  1  0  0  0
  4 82  1  0  0  0
  5  6  1  0  0  0
  5 26  1  0  0  0
  5 83  1  0  0  0
  6 25  1  0  0  0
  6 84  1  0  0  0
  6 85  1  0  0  0
  7  8  2  0  0  0
  7 26  1  0  0  0
  7 29  1  0  0  0
  8  9  1  0  0  0
  8 22  1  0  0  0
  9 10  1  0  0  0
  9 27  2  0  0  0
 10 11  2  0  0  0
 10 15  1  0  0  0
 11 12  1  0  0  0
 11 86  1  0  0  0
 12 13  2  0  0  0
 12 87  1  0  0  0
 13 14  1  0  0  0
 13 31  1  0  0  0
 14 15  2  0  0  0
 14 88  1  0  0  0
 15 89  1  0  0  0
 16 17  2  0  0  0
 16 21  1  0  0  0
 16 31  1  0  0  0
 17 18  1  0  0  0
 17 90  1  0  0  0
 18 19  2  0  0  0
 18 91  1  0  0  0
 19 20  1  0  0  0
 19 24  1  0  0  0
 20 21  2  0  0  0
 20 92  1  0  0  0
 21 23  1  0  0  0
 22 28  1  0  0  0
 22 32  2  0  0  0
 26 27  1  0  0  0
 28 93  1  0  0  0
 28 94  1  0  0  0
 29 95  1  0  0  0
 29 96  1  0  0  0
 33 34  1  0  0  0
 33 66  1  0  0  0
 33 70  2  0  0  0
 34 36  1  0  0  0
 34 59  1  0  0  0
 34 97  1  0  0  0
 35 44  2  0  0  0
 35 45  1  0  0  0
 35 68  1  0  0  0
 36 56  1  0  0  0
 36 98  1  0  0  0
 37 39  1  0  0  0
 37 47  1  0  0  0
 37 66  1  0  0  0
 37 99  1  0  0  0
 38 43  2  0  0  0
 38 46  1  0  0  0
 38 47  1  0  0  0
 39 64  1  0  0  0
 39 67  2  0  0  0
 40 52  1  0  0  0
 40 53  2  0  0  0
 40 58  1  0  0  0
 41100  1  0  0  0
 41101  1  0  0  0
 41102  1  0  0  0
 41 48  1  0  0  0
 42 43  1  0  0  0
 42 66  1  0  0  0
 42103  1  0  0  0
 42104  1  0  0  0
 43 44  1  0  0  0
 44105  1  0  0  0
 45 46  2  0  0  0
 45106  1  0  0  0
 46107  1  0  0  0
 47108  1  0  0  0
 47109  1  0  0  0
 48 56  1  0  0  0
 48 65  1  0  0  0
 48110  1  0  0  0
 49 50  1  0  0  0
 49 53  1  0  0  0
 49 64  1  0  0  0
 49111  1  0  0  0
 50 51  1  0  0  0
 50112  1  0  0  0
 50113  1  0  0  0
 51 52  1  0  0  0
 51114  1  0  0  0
 51115  1  0  0  0
 52116  1  0  0  0
 52117  1  0  0  0
 53 54  1  0  0  0
 54 55  2  0  0  0
 54118  1  0  0  0
 55 57  1  0  0  0
 55119  1  0  0  0
 56 69  2  0  0  0
 57 58  2  0  0  0
 57120  1  0  0  0
 58121  1  0  0  0
 59 60  1  0  0  0
 59 61  1  0  0  0
 59 62  1  0  0  0
 60122  1  0  0  0
 60123  1  0  0  0
 60124  1  0  0  0
 61125  1  0  0  0
 61126  1  0  0  0
 61127  1  0  0  0
 62128  1  0  0  0
 62129  1  0  0  0
 62130  1  0  0  0
 63 65  1  0  0  0
 63131  1  0  0  0
 63132  1  0  0  0
 63133  1  0  0  0
 64134  1  0  0  0
 65135  1  0  0  0
 68 73  1  0  0  0
 71 72  1  0  0  0
 71 75  1  0  0  0
 71136  1  0  0  0
 71137  1  0  0  0
 72 76  1  0  0  0
 72138  1  0  0  0
 72139  1  0  0  0
 73 74  1  0  0  0
 73140  1  0  0  0
 73141  1  0  0  0
 74 76  1  0  0  0
 74142  1  0  0  0
 74143  1  0  0  0
 75144  1  0  0  0
M  ISO  4   1 100  68 101  73 101  75 100
M  END
> <chiral flag>
0

> <version>
0

> <s_m_source_file>
/data/baiqing/PycharmProjects/Reinvent-master-3.2/result/LINK_invent/BTK/process_docking_weight1_custom_product_contain_oxygen_bond_distance_aromatic_linkinvent_7_9_3/rearranged_h_0003.sdf

> <i_m_source_file_index>
24

> <r_mmod_Potential_Energy-OPLS-2005>
1272.39196777344

> <r_mmod_Stretch_Energy-OPLS-2005>
620.559265136719

> <r_mmod_Bend_Energy-OPLS-2005>
470.408538818359

> <r_mmod_Torsional_Energy-OPLS-2005>
228.680725097656

> <r_mmod_Improper_Torsional_Energy-OPLS-2005>
4.08042764663696

> <r_mmod_Van_der_Waal_Energy-OPLS-2005>
109.728851318359

> <r_mmod_Electrostatic_Energy-OPLS-2005>
-380.777038574219

> <r_mmod_Solvation_Energy-OPLS-2005>
-221.878372192383

> <b_mmod_Minimization_Converged-OPLS-2005>
0

> <r_mmod_RMS_Derivative-OPLS-2005>
0.0835052877664566

$$$$
24
                    3D
 Structure written by MMmdl.
156164  0  0  1  0            999 V2000
  -30.5799  -14.8321   20.4617 C   0  0  0  0  0  0
  -30.4346  -12.5187   19.4825 C   0  0  0  0  0  0
  -29.5146  -12.5212   18.2412 C   0  0  0  0  0  0
  -28.0415  -12.3321   18.6534 C   0  0  0  0  0  0
  -27.6341  -13.2414   19.8443 C   0  0  2  0  0  0
  -28.6775  -13.2108   20.9814 C   0  0  0  0  0  0
  -25.2464  -13.8225   20.5698 C   0  0  0  0  0  0
  -24.1791  -13.0449   20.9237 C   0  0  0  0  0  0
  -24.6407  -11.6933   20.8776 C   0  0  0  0  0  0
  -23.9103  -10.4298   21.0422 C   0  0  0  0  0  0
  -24.3659   -9.4218   21.9191 C   0  0  0  0  0  0
  -23.6349   -8.2250   22.0762 C   0  0  0  0  0  0
  -22.4313   -8.0307   21.3565 C   0  0  0  0  0  0
  -21.9952   -9.0274   20.4650 C   0  0  0  0  0  0
  -22.7284  -10.2146   20.3064 C   0  0  0  0  0  0
  -21.6853   -6.0772   22.5280 C   0  0  0  0  0  0
  -21.4021   -6.5659   23.8223 C   0  0  0  0  0  0
  -21.3671   -5.6800   24.9176 C   0  0  0  0  0  0
  -21.6047   -4.3066   24.7205 C   0  0  0  0  0  0
  -21.8815   -3.8170   23.4321 C   0  0  0  0  0  0
  -21.9181   -4.7000   22.3390 C   0  0  0  0  0  0
  -22.7791  -13.5224   21.1860 C   0  0  0  0  0  0
  -22.1646   -4.2199   21.0961 F   0  0  0  0  0  0
  -21.5630   -3.4546   25.7715 F   0  0  0  0  0  0
  -29.9623  -13.5975   20.3858 N   0  0  0  0  0  0
  -26.2901  -12.9444   20.3258 N   0  0  0  0  0  0
  -25.9343  -11.6580   20.5759 N   0  0  0  0  0  0
  -22.0409  -12.8248   22.0408 N   0  0  0  0  0  0
  -25.4082  -15.1960   20.4112 N   0  0  0  0  0  0
  -31.7833  -14.9050   20.1966 O   0  0  0  0  0  0
  -21.6662   -6.8927   21.4248 O   0  0  0  0  0  0
  -22.3494  -14.5515   20.6694 O   0  0  0  0  0  0
  -24.6346  -31.8518   23.1953 C   0  0  0  0  0  0
  -25.9148  -32.4740   23.8338 C   0  0  1  0  0  0
  -27.2154  -27.2090   20.1562 C   0  0  0  0  0  0
  -25.5935  -33.8549   24.2257 N   0  0  0  0  0  0
  -23.4358  -30.4727   21.5377 C   0  0  2  0  0  0
  -24.8836  -28.9062   20.1143 C   0  0  0  0  0  0
  -22.7543  -29.4570   22.4868 C   0  0  0  0  0  0
  -18.0320  -28.1395   22.8460 C   0  0  0  0  0  0
  -24.1487  -36.7274   23.2639 C   0  0  0  0  0  0
  -25.9835  -30.7512   21.3798 C   0  0  0  0  0  0
  -26.0569  -29.3657   20.7268 C   0  0  0  0  0  0
  -27.2285  -28.5334   20.7274 C   0  0  0  0  0  0
  -26.0211  -26.8260   19.5120 C   0  0  0  0  0  0
  -24.8732  -27.6463   19.4935 C   0  0  0  0  0  0
  -23.6594  -29.8044   20.1554 C   0  0  0  0  0  0
  -25.4111  -36.3057   24.0321 C   0  0  1  0  0  0
  -20.5921  -28.3720   23.1235 C   0  0  2  0  0  0
  -20.6786  -26.9420   22.5396 C   0  0  0  0  0  0
  -19.5762  -26.6375   21.5194 C   0  0  0  0  0  0
  -18.1949  -26.7930   22.1610 C   0  0  0  0  0  0
  -19.1565  -28.8872   23.2843 C   0  0  0  0  0  0
  -18.9482  -30.1473   23.8862 C   0  0  0  0  0  0
  -17.6469  -30.6576   24.0564 C   0  0  0  0  0  0
  -25.9050  -34.9431   23.5085 C   0  0  0  0  0  0
  -16.5367  -29.9069   23.6330 C   0  0  0  0  0  0
  -16.7300  -28.6503   23.0322 C   0  0  0  0  0  0
  -26.4508  -31.6585   25.0748 C   0  0  0  0  0  0
  -25.3714  -31.3739   26.1454 C   0  0  0  0  0  0
  -27.0378  -30.3006   24.6260 C   0  0  0  0  0  0
  -27.6060  -32.4332   25.7529 C   0  0  0  0  0  0
  -27.5570  -37.1790   24.8460 C   0  0  0  0  0  0
  -21.4240  -29.3057   22.3619 N   0  0  0  0  0  0
  -26.4280  -37.3758   23.9404 N   0  0  0  0  0  0
  -24.7043  -31.0441   22.0947 N   0  0  0  0  0  0
  -23.4221  -28.8093   23.2970 O   0  0  0  0  0  0
  -28.3012  -26.2896   20.1741 O   0  0  0  0  0  0
  -26.5628  -34.8910   22.4662 O   0  0  0  0  0  0
  -23.5479  -32.1360   23.7208 O   0  0  0  0  0  0
  -30.7011  -20.0700   20.5356 C   0  0  0  0  0  0
  -28.3804  -19.5687   20.8600 C   0  0  0  0  0  0
  -30.3256  -21.5064   19.9648 C   0  0  0  0  0  0
  -28.0009  -21.0493   20.3197 C   0  0  0  0  0  0
  -29.6959  -18.8781   20.3122 C   0  0  2  0  0  0
  -30.2808  -17.4527   20.9427 C   0  0  0  0  0  0
  -28.7743  -23.5525   19.8189 C   0  0  0  0  0  0
  -28.1141  -24.8328   20.6134 C   0  0  0  0  0  0
  -29.8179  -15.9997   20.6496 N   0  0  0  0  0  0
  -29.0488  -22.1380   20.4649 N   0  3  2  0  0  0
  -31.4752  -12.6558   19.1831 H   0  0  0  0  0  0
  -30.3982  -11.5547   19.9932 H   0  0  0  0  0  0
  -29.8167  -11.7349   17.5490 H   0  0  0  0  0  0
  -29.6295  -13.4646   17.7029 H   0  0  0  0  0  0
  -27.9071  -11.2839   18.9252 H   0  0  0  0  0  0
  -27.3857  -12.5087   17.7998 H   0  0  0  0  0  0
  -27.6182  -14.2587   19.4510 H   0  0  0  0  0  0
  -28.7399  -12.2204   21.4355 H   0  0  0  0  0  0
  -28.3977  -13.8982   21.7807 H   0  0  0  0  0  0
  -25.2795   -9.5717   22.4783 H   0  0  0  0  0  0
  -24.0058   -7.4642   22.7497 H   0  0  0  0  0  0
  -21.0875   -8.8819   19.8956 H   0  0  0  0  0  0
  -22.3750  -10.9714   19.6193 H   0  0  0  0  0  0
  -21.2027   -7.6165   23.9757 H   0  0  0  0  0  0
  -21.1493   -6.0511   25.9086 H   0  0  0  0  0  0
  -22.0581   -2.7640   23.2783 H   0  0  0  0  0  0
  -22.4031  -11.9969   22.4884 H   0  0  0  0  0  0
  -21.1018  -13.1299   22.2556 H   0  0  0  0  0  0
  -24.6292  -15.8352   20.5284 H   0  0  0  0  0  0
  -26.2408  -15.6482   20.0566 H   0  0  0  0  0  0
  -26.7223  -32.5388   23.1089 H   0  0  0  0  0  0
  -25.0102  -33.9716   25.0415 H   0  0  0  0  0  0
  -22.7336  -31.2962   21.3874 H   0  0  0  0  0  0
  -23.3743  -35.9610   23.3290 H   0  0  0  0  0  0
  -24.3569  -36.8917   22.2053 H   0  0  0  0  0  0
  -23.7255  -37.6469   23.6689 H   0  0  0  0  0  0
  -26.1233  -31.5063   20.6048 H   0  0  0  0  0  0
  -26.8609  -30.8087   22.0135 H   0  0  0  0  0  0
  -28.1297  -28.8829   21.2117 H   0  0  0  0  0  0
  -25.9638  -25.8639   19.0236 H   0  0  0  0  0  0
  -23.9763  -27.2880   19.0068 H   0  0  0  0  0  0
  -23.8007  -30.5815   19.4024 H   0  0  0  0  0  0
  -22.7746  -29.2489   19.8381 H   0  0  0  0  0  0
  -25.1287  -36.1896   25.0809 H   0  0  0  0  0  0
  -21.0040  -28.3310   24.1344 H   0  0  0  0  0  0
  -20.5655  -26.2340   23.3625 H   0  0  0  0  0  0
  -21.6659  -26.7407   22.1205 H   0  0  0  0  0  0
  -19.6908  -25.6271   21.1252 H   0  0  0  0  0  0
  -19.6689  -27.3171   20.6709 H   0  0  0  0  0  0
  -17.4211  -26.6690   21.4013 H   0  0  0  0  0  0
  -18.0338  -26.0089   22.9028 H   0  0  0  0  0  0
  -19.7954  -30.7308   24.2204 H   0  0  0  0  0  0
  -17.5017  -31.6246   24.5186 H   0  0  0  0  0  0
  -15.5356  -30.2946   23.7661 H   0  0  0  0  0  0
  -15.8721  -28.0818   22.7007 H   0  0  0  0  0  0
  -24.5884  -30.7109   25.7757 H   0  0  0  0  0  0
  -24.8907  -32.2909   26.4869 H   0  0  0  0  0  0
  -25.7995  -30.8903   27.0245 H   0  0  0  0  0  0
  -26.2984  -29.6733   24.1267 H   0  0  0  0  0  0
  -27.4043  -29.7294   25.4799 H   0  0  0  0  0  0
  -27.8869  -30.4288   23.9544 H   0  0  0  0  0  0
  -27.2677  -33.3642   26.2094 H   0  0  0  0  0  0
  -28.3880  -32.6873   25.0361 H   0  0  0  0  0  0
  -28.0733  -31.8471   26.5456 H   0  0  0  0  0  0
  -28.2566  -38.0106   24.7495 H   0  0  0  0  0  0
  -28.1091  -36.2624   24.6292 H   0  0  0  0  0  0
  -27.2294  -37.1447   25.8870 H   0  0  0  0  0  0
  -20.9439  -29.8819   21.6849 H   0  0  0  0  0  0
  -26.0144  -38.2826   24.1409 H   0  0  0  0  0  0
  -30.8935  -20.1699   21.6053 H   0  0  0  0  0  0
  -31.6647  -19.7909   20.1048 H   0  0  0  0  0  0
  -27.5361  -18.9080   20.6572 H   0  0  0  0  0  0
  -28.4459  -19.6135   21.9479 H   0  0  0  0  0  0
  -30.2793  -21.4456   18.8761 H   0  0  0  0  0  0
  -31.1498  -22.1837   20.1940 H   0  0  0  0  0  0
  -27.0950  -21.3898   20.8237 H   0  0  0  0  0  0
  -27.7381  -20.9735   19.2643 H   0  0  0  0  0  0
  -29.5841  -18.7370   19.2369 H   0  0  0  0  0  0
  -30.2545  -17.5564   22.0287 H   0  0  0  0  0  0
  -31.3473  -17.4537   20.7108 H   0  0  0  0  0  0
  -29.7493  -23.9200   19.4997 H   0  0  0  0  0  0
  -28.2256  -23.4023   18.8892 H   0  0  0  0  0  0
  -28.5211  -24.8073   21.6250 H   0  0  0  0  0  0
  -27.0510  -24.6284   20.7519 H   0  0  0  0  0  0
  -28.8264  -15.8374   20.7518 H   0  0  0  0  0  0
  -29.1823  -22.2893   21.4548 H   0  0  0  0  0  0
  1 25  1  0  0  0
  1 30  2  0  0  0
  1 79  1  0  0  0
  2  3  1  0  0  0
  2 25  1  0  0  0
  2 81  1  0  0  0
  2 82  1  0  0  0
  3  4  1  0  0  0
  3 83  1  0  0  0
  3 84  1  0  0  0
  4  5  1  0  0  0
  4 85  1  0  0  0
  4 86  1  0  0  0
  5  6  1  0  0  0
  5 26  1  0  0  0
  5 87  1  0  0  0
  6 25  1  0  0  0
  6 88  1  0  0  0
  6 89  1  0  0  0
  7  8  2  0  0  0
  7 26  1  0  0  0
  7 29  1  0  0  0
  8  9  1  0  0  0
  8 22  1  0  0  0
  9 10  1  0  0  0
  9 27  2  0  0  0
 10 11  2  0  0  0
 10 15  1  0  0  0
 11 12  1  0  0  0
 11 90  1  0  0  0
 12 13  2  0  0  0
 12 91  1  0  0  0
 13 14  1  0  0  0
 13 31  1  0  0  0
 14 15  2  0  0  0
 14 92  1  0  0  0
 15 93  1  0  0  0
 16 17  2  0  0  0
 16 21  1  0  0  0
 16 31  1  0  0  0
 17 18  1  0  0  0
 17 94  1  0  0  0
 18 19  2  0  0  0
 18 95  1  0  0  0
 19 20  1  0  0  0
 19 24  1  0  0  0
 20 21  2  0  0  0
 20 96  1  0  0  0
 21 23  1  0  0  0
 22 28  1  0  0  0
 22 32  2  0  0  0
 26 27  1  0  0  0
 28 97  1  0  0  0
 28 98  1  0  0  0
 29 99  1  0  0  0
 29100  1  0  0  0
 33 34  1  0  0  0
 33 66  1  0  0  0
 33 70  2  0  0  0
 34 36  1  0  0  0
 34 59  1  0  0  0
 34101  1  0  0  0
 35 44  2  0  0  0
 35 45  1  0  0  0
 35 68  1  0  0  0
 36 56  1  0  0  0
 36102  1  0  0  0
 37 39  1  0  0  0
 37 47  1  0  0  0
 37 66  1  0  0  0
 37103  1  0  0  0
 38 43  2  0  0  0
 38 46  1  0  0  0
 38 47  1  0  0  0
 39 64  1  0  0  0
 39 67  2  0  0  0
 40 52  1  0  0  0
 40 53  2  0  0  0
 40 58  1  0  0  0
 41104  1  0  0  0
 41105  1  0  0  0
 41106  1  0  0  0
 41 48  1  0  0  0
 42 43  1  0  0  0
 42 66  1  0  0  0
 42107  1  0  0  0
 42108  1  0  0  0
 43 44  1  0  0  0
 44109  1  0  0  0
 45 46  2  0  0  0
 45110  1  0  0  0
 46111  1  0  0  0
 47112  1  0  0  0
 47113  1  0  0  0
 48 56  1  0  0  0
 48 65  1  0  0  0
 48114  1  0  0  0
 49 50  1  0  0  0
 49 53  1  0  0  0
 49 64  1  0  0  0
 49115  1  0  0  0
 50 51  1  0  0  0
 50116  1  0  0  0
 50117  1  0  0  0
 51 52  1  0  0  0
 51118  1  0  0  0
 51119  1  0  0  0
 52120  1  0  0  0
 52121  1  0  0  0
 53 54  1  0  0  0
 54 55  2  0  0  0
 54122  1  0  0  0
 55 57  1  0  0  0
 55123  1  0  0  0
 56 69  2  0  0  0
 57 58  2  0  0  0
 57124  1  0  0  0
 58125  1  0  0  0
 59 60  1  0  0  0
 59 61  1  0  0  0
 59 62  1  0  0  0
 60126  1  0  0  0
 60127  1  0  0  0
 60128  1  0  0  0
 61129  1  0  0  0
 61130  1  0  0  0
 61131  1  0  0  0
 62132  1  0  0  0
 62133  1  0  0  0
 62134  1  0  0  0
 63 65  1  0  0  0
 63135  1  0  0  0
 63136  1  0  0  0
 63137  1  0  0  0
 64138  1  0  0  0
 65139  1  0  0  0
 68 78  1  0  0  0
 71 73  1  0  0  0
 71 75  1  0  0  0
 71140  1  0  0  0
 71141  1  0  0  0
 72 74  1  0  0  0
 72 75  1  0  0  0
 72142  1  0  0  0
 72143  1  0  0  0
 73 80  1  0  0  0
 73144  1  0  0  0
 73145  1  0  0  0
 74 80  1  0  0  0
 74146  1  0  0  0
 74147  1  0  0  0
 75 76  1  0  0  0
 75148  1  0  0  0
 76 79  1  0  0  0
 76149  1  0  0  0
 76150  1  0  0  0
 77 78  1  0  0  0
 77151  1  0  0  0
 77152  1  0  0  0
 77 80  1  0  0  0
 78153  1  0  0  0
 78154  1  0  0  0
 79155  1  0  0  0
 80156  1  0  0  0
M  CHG  1  80   1
M  ISO  4   1 100  68 101  78 101  79 100
M  END
> <chiral flag>
0

> <version>
0

> <s_m_source_file>
/data/baiqing/PycharmProjects/Reinvent-master-3.2/result/LINK_invent/BTK/process_docking_weight1_custom_product_contain_oxygen_bond_distance_aromatic_linkinvent_7_9_3/rearranged_h_0003.sdf

> <i_m_source_file_index>
25

> <r_mmod_Potential_Energy-OPLS-2005>
237.454284667969

> <r_mmod_Stretch_Energy-OPLS-2005>
173.141448974609

> <r_mmod_Bend_Energy-OPLS-2005>
235.55924987793

> <r_mmod_Torsional_Energy-OPLS-2005>
264.518005371094

> <r_mmod_Improper_Torsional_Energy-OPLS-2005>
4.09633493423462

> <r_mmod_Van_der_Waal_Energy-OPLS-2005>
119.560813903809

> <r_mmod_Electrostatic_Energy-OPLS-2005>
-242.690979003906

> <r_mmod_Solvation_Energy-OPLS-2005>
-440.251312255859

> <b_mmod_Minimization_Converged-OPLS-2005>
0

> <r_mmod_RMS_Derivative-OPLS-2005>
2.69422435760498

$$$$
25
                    3D
 Structure written by MMmdl.
183194  0  0  1  0            999 V2000
  -30.7380  -14.4633   20.4062 C   0  0  0  0  0  0
  -30.4158  -12.2536   19.4063 C   0  0  0  0  0  0
  -29.4567  -12.3519   18.1969 C   0  0  0  0  0  0
  -27.9850  -12.2905   18.6350 C   0  0  0  0  0  0
  -27.6524  -13.1959   19.8528 C   0  0  2  0  0  0
  -28.7192  -13.0421   20.9590 C   0  0  0  0  0  0
  -25.2602  -13.8156   20.5733 C   0  0  0  0  0  0
  -24.1833  -13.0453   20.9216 C   0  0  0  0  0  0
  -24.6360  -11.6920   20.8796 C   0  0  0  0  0  0
  -23.9022  -10.4300   21.0430 C   0  0  0  0  0  0
  -24.3579   -9.4214   21.9195 C   0  0  0  0  0  0
  -23.6267   -8.2247   22.0753 C   0  0  0  0  0  0
  -22.4257   -8.0277   21.3536 C   0  0  0  0  0  0
  -21.9891   -9.0253   20.4640 C   0  0  0  0  0  0
  -22.7210  -10.2139   20.3063 C   0  0  0  0  0  0
  -21.6851   -6.0725   22.5268 C   0  0  0  0  0  0
  -21.4010   -6.5627   23.8203 C   0  0  0  0  0  0
  -21.3663   -5.6780   24.9163 C   0  0  0  0  0  0
  -21.6049   -4.3046   24.7216 C   0  0  0  0  0  0
  -21.8820   -3.8135   23.4337 C   0  0  0  0  0  0
  -21.9196   -4.6951   22.3390 C   0  0  0  0  0  0
  -22.7862  -13.5268   21.1844 C   0  0  0  0  0  0
  -22.1671   -4.2142   21.0970 F   0  0  0  0  0  0
  -21.5634   -3.4529   25.7729 F   0  0  0  0  0  0
  -30.0315  -13.3048   20.3499 N   0  0  0  0  0  0
  -26.3015  -12.9310   20.3421 N   0  0  0  0  0  0
  -25.9295  -11.6490   20.5899 N   0  0  0  0  0  0
  -22.0491  -12.8260   22.0390 N   0  0  0  0  0  0
  -25.4346  -15.1859   20.4125 N   0  0  0  0  0  0
  -31.9669  -14.5057   20.3606 O   0  0  0  0  0  0
  -21.6635   -6.8868   21.4230 O   0  0  0  0  0  0
  -22.3561  -14.5574   20.6686 O   0  0  0  0  0  0
  -24.6051  -31.8725   23.2127 C   0  0  0  0  0  0
  -25.8965  -32.4854   23.8423 C   0  0  1  0  0  0
  -27.2591  -27.5061   20.0859 C   0  0  0  0  0  0
  -25.5840  -33.8649   24.2358 N   0  0  0  0  0  0
  -23.3910  -30.4941   21.5494 C   0  0  2  0  0  0
  -24.8423  -28.9616   20.1196 C   0  0  0  0  0  0
  -22.7343  -29.4696   22.5016 C   0  0  0  0  0  0
  -18.0257  -28.1373   22.8513 C   0  0  0  0  0  0
  -24.1480  -36.7338   23.2644 C   0  0  0  0  0  0
  -25.9078  -30.8614   21.3526 C   0  0  0  0  0  0
  -25.9909  -29.4948   20.7144 C   0  0  0  0  0  0
  -27.1964  -28.7719   20.7088 C   0  0  0  0  0  0
  -26.0888  -26.9611   19.5193 C   0  0  0  0  0  0
  -24.8805  -27.6862   19.5256 C   0  0  0  0  0  0
  -23.5974  -29.8171   20.1662 C   0  0  0  0  0  0
  -25.4095  -36.3129   24.0354 C   0  0  1  0  0  0
  -20.5842  -28.3650   23.1349 C   0  0  2  0  0  0
  -20.6751  -26.9398   22.5424 C   0  0  0  0  0  0
  -19.5742  -26.6394   21.5210 C   0  0  0  0  0  0
  -18.1916  -26.7930   22.1623 C   0  0  0  0  0  0
  -19.1508  -28.8826   23.2940 C   0  0  0  0  0  0
  -18.9436  -30.1440   23.8936 C   0  0  0  0  0  0
  -17.6441  -30.6587   24.0578 C   0  0  0  0  0  0
  -25.9020  -34.9495   23.5162 C   0  0  0  0  0  0
  -16.5331  -29.9093   23.6327 C   0  0  0  0  0  0
  -16.7248  -28.6510   23.0347 C   0  0  0  0  0  0
  -26.4438  -31.6607   25.0716 C   0  0  0  0  0  0
  -25.3737  -31.3660   26.1481 C   0  0  0  0  0  0
  -27.0277  -30.3076   24.6016 C   0  0  0  0  0  0
  -27.6031  -32.4311   25.7459 C   0  0  0  0  0  0
  -27.5582  -37.1823   24.8464 C   0  0  0  0  0  0
  -21.4080  -29.3035   22.3763 N   0  0  0  0  0  0
  -26.4279  -37.3816   23.9422 N   0  0  0  0  0  0
  -24.6525  -31.0889   22.0987 N   0  0  0  0  0  0
  -23.4145  -28.8257   23.3053 O   0  0  0  0  0  0
  -28.4261  -26.7869   20.0025 O   0  0  0  0  0  0
  -26.5595  -34.8942   22.4732 O   0  0  0  0  0  0
  -23.5258  -32.1438   23.7560 O   0  0  0  0  0  0
  -29.9339  -23.7886   16.7444 C   0  0  0  0  0  0
  -27.6057  -23.5945   17.4353 C   0  0  0  0  0  0
  -31.1861  -15.6604   16.2667 C   0  0  0  0  0  0
  -30.1439  -22.4453   17.0910 C   0  0  0  0  0  0
  -27.8153  -22.2421   17.7741 C   0  0  0  0  0  0
  -31.0544  -15.2602   17.6067 C   0  0  0  0  0  0
  -29.9326  -17.6627   16.7750 C   0  0  0  0  0  0
  -28.6805  -24.3908   16.9818 C   0  0  0  0  0  0
  -29.8199  -17.2859   18.1379 C   0  0  0  0  0  0
  -30.5954  -16.8553   15.8376 C   0  0  0  0  0  0
  -29.1058  -21.6790   17.6640 C   0  0  0  0  0  0
  -30.3158  -16.0200   18.5601 C   0  0  0  0  0  0
  -28.5237  -25.8757   16.8714 C   0  0  0  0  0  0
  -28.4787  -17.4517   20.2330 C   0  0  0  0  0  0
  -30.4089  -19.0491   19.8102 C   0  0  0  0  0  0
  -29.3807  -16.3956   20.8905 C   0  0  0  0  0  0
  -30.6693  -20.2015   18.8451 C   0  0  0  0  0  0
  -28.4153  -19.4250   18.5957 C   0  0  0  0  0  0
  -29.2468  -18.2574   19.1802 C   0  0  1  0  0  0
  -31.6425  -18.4764   14.1938 C   0  0  0  0  0  0
  -30.6869  -17.2936   14.3869 C   0  0  0  0  0  0
  -29.5313  -27.8038   18.0654 C   0  0  0  0  0  0
  -29.5839  -27.5169   19.5817 C   0  0  0  0  0  0
  -30.0783  -15.5417   19.9157 N   0  0  0  0  0  0
  -29.4070  -20.3988   18.1465 N   0  0  0  0  0  0
  -29.5789  -26.5361   17.3549 N   0  0  0  0  0  0
  -27.4622  -26.4049   16.5390 O   0  0  0  0  0  0
  -31.4544  -12.3411   19.0822 H   0  0  0  0  0  0
  -30.3312  -11.2767   19.8841 H   0  0  0  0  0  0
  -29.6629  -11.5368   17.5018 H   0  0  0  0  0  0
  -29.5952  -13.2594   17.6232 H   0  0  0  0  0  0
  -27.7789  -11.2484   18.8813 H   0  0  0  0  0  0
  -27.3325  -12.5340   17.7963 H   0  0  0  0  0  0
  -27.6767  -14.2260   19.4995 H   0  0  0  0  0  0
  -28.6970  -12.0309   21.3682 H   0  0  0  0  0  0
  -28.5214  -13.7019   21.8019 H   0  0  0  0  0  0
  -25.2721   -9.5706   22.4766 H   0  0  0  0  0  0
  -23.9986   -7.4639   22.7464 H   0  0  0  0  0  0
  -21.0836   -8.8767   19.8928 H   0  0  0  0  0  0
  -22.3666  -10.9679   19.6175 H   0  0  0  0  0  0
  -21.1992   -7.6131   23.9703 H   0  0  0  0  0  0
  -21.1492   -6.0507   25.9067 H   0  0  0  0  0  0
  -22.0591   -2.7594   23.2838 H   0  0  0  0  0  0
  -22.4109  -11.9919   22.4775 H   0  0  0  0  0  0
  -21.1102  -13.1282   22.2565 H   0  0  0  0  0  0
  -24.6739  -15.8465   20.5268 H   0  0  0  0  0  0
  -26.2981  -15.6174   20.1118 H   0  0  0  0  0  0
  -26.7061  -32.5617   23.1229 H   0  0  0  0  0  0
  -24.9951  -33.9823   25.0476 H   0  0  0  0  0  0
  -22.6779  -31.3081   21.4060 H   0  0  0  0  0  0
  -23.3731  -35.9683   23.3299 H   0  0  0  0  0  0
  -24.3577  -36.8944   22.2055 H   0  0  0  0  0  0
  -23.7251  -37.6558   23.6654 H   0  0  0  0  0  0
  -25.9973  -31.6208   20.5748 H   0  0  0  0  0  0
  -26.8019  -30.9323   21.9585 H   0  0  0  0  0  0
  -28.0643  -29.2010   21.1873 H   0  0  0  0  0  0
  -26.1242  -25.9902   19.0462 H   0  0  0  0  0  0
  -23.9950  -27.2649   19.0697 H   0  0  0  0  0  0
  -23.6961  -30.5854   19.3978 H   0  0  0  0  0  0
  -22.7252  -29.2261   19.8811 H   0  0  0  0  0  0
  -25.1275  -36.1997   25.0848 H   0  0  0  0  0  0
  -20.9960  -28.3198   24.1462 H   0  0  0  0  0  0
  -20.5643  -26.2261   23.3598 H   0  0  0  0  0  0
  -21.6627  -26.7446   22.1237 H   0  0  0  0  0  0
  -19.6910  -25.6310   21.1231 H   0  0  0  0  0  0
  -19.6678  -27.3210   20.6746 H   0  0  0  0  0  0
  -17.4189  -26.6686   21.4014 H   0  0  0  0  0  0
  -18.0313  -26.0048   22.8997 H   0  0  0  0  0  0
  -19.7902  -30.7264   24.2318 H   0  0  0  0  0  0
  -17.4985  -31.6281   24.5163 H   0  0  0  0  0  0
  -15.5338  -30.3013   23.7633 H   0  0  0  0  0  0
  -15.8642  -28.0856   22.7031 H   0  0  0  0  0  0
  -24.5888  -30.7038   25.7807 H   0  0  0  0  0  0
  -24.8950  -32.2788   26.5024 H   0  0  0  0  0  0
  -25.8107  -30.8755   27.0183 H   0  0  0  0  0  0
  -26.2792  -29.6818   24.1133 H   0  0  0  0  0  0
  -27.4165  -29.7322   25.4427 H   0  0  0  0  0  0
  -27.8565  -30.4443   23.9066 H   0  0  0  0  0  0
  -27.2660  -33.3575   26.2117 H   0  0  0  0  0  0
  -28.3780  -32.6921   25.0242 H   0  0  0  0  0  0
  -28.0770  -31.8392   26.5297 H   0  0  0  0  0  0
  -28.2612  -38.0115   24.7523 H   0  0  0  0  0  0
  -28.1074  -36.2653   24.6266 H   0  0  0  0  0  0
  -27.2311  -37.1438   25.8873 H   0  0  0  0  0  0
  -20.9210  -29.8735   21.6983 H   0  0  0  0  0  0
  -26.0175  -38.2908   24.1398 H   0  0  0  0  0  0
  -30.7646  -24.3655   16.3610 H   0  0  0  0  0  0
  -26.6355  -24.0405   17.6017 H   0  0  0  0  0  0
  -31.7310  -15.0386   15.5704 H   0  0  0  0  0  0
  -31.1291  -22.0239   16.9512 H   0  0  0  0  0  0
  -26.9906  -21.6744   18.1818 H   0  0  0  0  0  0
  -31.5276  -14.3264   17.8652 H   0  0  0  0  0  0
  -29.5408  -18.6026   16.4192 H   0  0  0  0  0  0
  -28.0674  -18.1102   20.9991 H   0  0  0  0  0  0
  -27.6262  -16.9643   19.7602 H   0  0  0  0  0  0
  -30.0913  -19.4714   20.7640 H   0  0  0  0  0  0
  -31.3008  -18.4515   20.0035 H   0  0  0  0  0  0
  -28.7835  -15.8109   21.5857 H   0  0  0  0  0  0
  -30.1364  -16.8900   21.5036 H   0  0  0  0  0  0
  -31.4437  -19.9359   18.1237 H   0  0  0  0  0  0
  -30.9945  -21.0954   19.3813 H   0  0  0  0  0  0
  -27.8032  -19.8806   19.3749 H   0  0  0  0  0  0
  -27.7458  -19.1002   17.7978 H   0  0  0  0  0  0
  -31.6689  -18.7869   13.1491 H   0  0  0  0  0  0
  -32.6581  -18.2121   14.4885 H   0  0  0  0  0  0
  -31.3335  -19.3381   14.7861 H   0  0  0  0  0  0
  -29.6881  -17.5647   14.0404 H   0  0  0  0  0  0
  -31.0067  -16.4564   13.7647 H   0  0  0  0  0  0
  -30.3966  -28.3967   17.7709 H   0  0  0  0  0  0
  -28.6491  -28.3892   17.8004 H   0  0  0  0  0  0
  -29.7362  -28.4386   20.1407 H   0  0  0  0  0  0
  -30.4575  -26.9045   19.8092 H   0  0  0  0  0  0
  -30.3753  -25.9524   17.5662 H   0  0  0  0  0  0
  1 25  1  0  0  0
  1 30  2  0  0  0
  1 94  1  0  0  0
  2  3  1  0  0  0
  2 25  1  0  0  0
  2 98  1  0  0  0
  2 99  1  0  0  0
  3  4  1  0  0  0
  3100  1  0  0  0
  3101  1  0  0  0
  4  5  1  0  0  0
  4102  1  0  0  0
  4103  1  0  0  0
  5  6  1  0  0  0
  5 26  1  0  0  0
  5104  1  0  0  0
  6 25  1  0  0  0
  6105  1  0  0  0
  6106  1  0  0  0
  7  8  2  0  0  0
  7 26  1  0  0  0
  7 29  1  0  0  0
  8  9  1  0  0  0
  8 22  1  0  0  0
  9 10  1  0  0  0
  9 27  2  0  0  0
 10 11  2  0  0  0
 10 15  1  0  0  0
 11 12  1  0  0  0
 11107  1  0  0  0
 12 13  2  0  0  0
 12108  1  0  0  0
 13 14  1  0  0  0
 13 31  1  0  0  0
 14 15  2  0  0  0
 14109  1  0  0  0
 15110  1  0  0  0
 16 17  2  0  0  0
 16 21  1  0  0  0
 16 31  1  0  0  0
 17 18  1  0  0  0
 17111  1  0  0  0
 18 19  2  0  0  0
 18112  1  0  0  0
 19 20  1  0  0  0
 19 24  1  0  0  0
 20 21  2  0  0  0
 20113  1  0  0  0
 21 23  1  0  0  0
 22 28  1  0  0  0
 22 32  2  0  0  0
 26 27  1  0  0  0
 28114  1  0  0  0
 28115  1  0  0  0
 29116  1  0  0  0
 29117  1  0  0  0
 33 34  1  0  0  0
 33 66  1  0  0  0
 33 70  2  0  0  0
 34 36  1  0  0  0
 34 59  1  0  0  0
 34118  1  0  0  0
 35 44  2  0  0  0
 35 45  1  0  0  0
 35 68  1  0  0  0
 36 56  1  0  0  0
 36119  1  0  0  0
 37 39  1  0  0  0
 37 47  1  0  0  0
 37 66  1  0  0  0
 37120  1  0  0  0
 38 43  2  0  0  0
 38 46  1  0  0  0
 38 47  1  0  0  0
 39 64  1  0  0  0
 39 67  2  0  0  0
 40 52  1  0  0  0
 40 53  2  0  0  0
 40 58  1  0  0  0
 41121  1  0  0  0
 41122  1  0  0  0
 41123  1  0  0  0
 41 48  1  0  0  0
 42 43  1  0  0  0
 42 66  1  0  0  0
 42124  1  0  0  0
 42125  1  0  0  0
 43 44  1  0  0  0
 44126  1  0  0  0
 45 46  2  0  0  0
 45127  1  0  0  0
 46128  1  0  0  0
 47129  1  0  0  0
 47130  1  0  0  0
 48 56  1  0  0  0
 48 65  1  0  0  0
 48131  1  0  0  0
 49 50  1  0  0  0
 49 53  1  0  0  0
 49 64  1  0  0  0
 49132  1  0  0  0
 50 51  1  0  0  0
 50133  1  0  0  0
 50134  1  0  0  0
 51 52  1  0  0  0
 51135  1  0  0  0
 51136  1  0  0  0
 52137  1  0  0  0
 52138  1  0  0  0
 53 54  1  0  0  0
 54 55  2  0  0  0
 54139  1  0  0  0
 55 57  1  0  0  0
 55140  1  0  0  0
 56 69  2  0  0  0
 57 58  2  0  0  0
 57141  1  0  0  0
 58142  1  0  0  0
 59 60  1  0  0  0
 59 61  1  0  0  0
 59 62  1  0  0  0
 60143  1  0  0  0
 60144  1  0  0  0
 60145  1  0  0  0
 61146  1  0  0  0
 61147  1  0  0  0
 61148  1  0  0  0
 62149  1  0  0  0
 62150  1  0  0  0
 62151  1  0  0  0
 63 65  1  0  0  0
 63152  1  0  0  0
 63153  1  0  0  0
 63154  1  0  0  0
 64155  1  0  0  0
 65156  1  0  0  0
 68 93  1  0  0  0
 71 74  2  0  0  0
 71 78  1  0  0  0
 71157  1  0  0  0
 72 75  1  0  0  0
 72 78  2  0  0  0
 72158  1  0  0  0
 73 76  2  0  0  0
 73 80  1  0  0  0
 73159  1  0  0  0
 74 81  1  0  0  0
 74160  1  0  0  0
 75 81  2  0  0  0
 75161  1  0  0  0
 76 82  1  0  0  0
 76162  1  0  0  0
 77 79  1  0  0  0
 77 80  2  0  0  0
 77163  1  0  0  0
 78 83  1  0  0  0
 79 82  2  0  0  0
 79 89  1  0  0  0
 80 91  1  0  0  0
 81 95  1  0  0  0
 82 94  1  0  0  0
 83 96  1  0  0  0
 83 97  2  0  0  0
 84 86  1  0  0  0
 84164  1  0  0  0
 84165  1  0  0  0
 84 89  1  0  0  0
 85 87  1  0  0  0
 85 89  1  0  0  0
 85166  1  0  0  0
 85167  1  0  0  0
 86 94  1  0  0  0
 86168  1  0  0  0
 86169  1  0  0  0
 87 95  1  0  0  0
 87170  1  0  0  0
 87171  1  0  0  0
 88 89  1  0  0  0
 88 95  1  0  0  0
 88172  1  0  0  0
 88173  1  0  0  0
 90 91  1  0  0  0
 90174  1  0  0  0
 90175  1  0  0  0
 90176  1  0  0  0
 91177  1  0  0  0
 91178  1  0  0  0
 92 93  1  0  0  0
 92 96  1  0  0  0
 92179  1  0  0  0
 92180  1  0  0  0
 93181  1  0  0  0
 93182  1  0  0  0
 96183  1  0  0  0
M  ISO  4   1 100  68 101  93 101  94 100
M  END
> <chiral flag>
0

> <version>
0

> <s_m_source_file>
/data/baiqing/PycharmProjects/Reinvent-master-3.2/result/LINK_invent/BTK/process_docking_weight1_custom_product_contain_oxygen_bond_distance_aromatic_linkinvent_7_9_3/rearranged_h_0003.sdf

> <i_m_source_file_index>
26

> <r_mmod_Potential_Energy-OPLS-2005>
255.56266784668

> <r_mmod_Stretch_Energy-OPLS-2005>
40.9879989624023

> <r_mmod_Bend_Energy-OPLS-2005>
149.740249633789

> <r_mmod_Torsional_Energy-OPLS-2005>
416.746704101562

> <r_mmod_Improper_Torsional_Energy-OPLS-2005>
26.6156749725342

> <r_mmod_Van_der_Waal_Energy-OPLS-2005>
187.644409179688

> <r_mmod_Electrostatic_Energy-OPLS-2005>
-373.831817626953

> <r_mmod_Solvation_Energy-OPLS-2005>
-228.896240234375

> <b_mmod_Minimization_Converged-OPLS-2005>
0

> <r_mmod_RMS_Derivative-OPLS-2005>
1.84018671512604

$$$$
26
                    3D
 Structure written by MMmdl.
166175  0  0  1  0            999 V2000
  -30.8172  -14.3217   20.7656 C   0  0  0  0  0  0
  -30.4076  -12.2976   19.4031 C   0  0  0  0  0  0
  -29.4870  -12.5481   18.1957 C   0  0  0  0  0  0
  -28.0118  -12.3812   18.5988 C   0  0  0  0  0  0
  -27.6595  -13.2077   19.8585 C   0  0  2  0  0  0
  -28.6831  -12.9795   20.9854 C   0  0  0  0  0  0
  -25.2583  -13.8176   20.5620 C   0  0  0  0  0  0
  -24.1851  -13.0452   20.9172 C   0  0  0  0  0  0
  -24.6408  -11.6926   20.8736 C   0  0  0  0  0  0
  -23.9082  -10.4298   21.0415 C   0  0  0  0  0  0
  -24.3636   -9.4212   21.9186 C   0  0  0  0  0  0
  -23.6310   -8.2241   22.0748 C   0  0  0  0  0  0
  -22.4287   -8.0284   21.3534 C   0  0  0  0  0  0
  -21.9931   -9.0262   20.4645 C   0  0  0  0  0  0
  -22.7259  -10.2137   20.3055 C   0  0  0  0  0  0
  -21.6858   -6.0738   22.5265 C   0  0  0  0  0  0
  -21.4020   -6.5634   23.8198 C   0  0  0  0  0  0
  -21.3662   -5.6785   24.9156 C   0  0  0  0  0  0
  -21.6059   -4.3051   24.7212 C   0  0  0  0  0  0
  -21.8824   -3.8144   23.4333 C   0  0  0  0  0  0
  -21.9198   -4.6966   22.3388 C   0  0  0  0  0  0
  -22.7860  -13.5240   21.1872 C   0  0  0  0  0  0
  -22.1661   -4.2161   21.0964 F   0  0  0  0  0  0
  -21.5642   -3.4531   25.7720 F   0  0  0  0  0  0
  -30.0499  -13.2308   20.4861 N   0  0  0  0  0  0
  -26.2994  -12.9347   20.3210 N   0  0  0  0  0  0
  -25.9316  -11.6511   20.5678 N   0  0  0  0  0  0
  -22.0531  -12.8193   22.0414 N   0  0  0  0  0  0
  -25.4341  -15.1890   20.4045 N   0  0  0  0  0  0
  -31.7372  -14.6835   20.0199 O   0  0  0  0  0  0
  -21.6656   -6.8884   21.4222 O   0  0  0  0  0  0
  -22.3526  -14.5555   20.6751 O   0  0  0  0  0  0
  -24.6109  -31.8704   23.2186 C   0  0  0  0  0  0
  -25.9013  -32.4843   23.8454 C   0  0  1  0  0  0
  -27.2392  -27.4757   20.0753 C   0  0  0  0  0  0
  -25.5876  -33.8647   24.2355 N   0  0  0  0  0  0
  -23.3948  -30.4986   21.5578 C   0  0  2  0  0  0
  -24.8405  -28.9695   20.1210 C   0  0  0  0  0  0
  -22.7379  -29.4680   22.5031 C   0  0  0  0  0  0
  -18.0263  -28.1367   22.8534 C   0  0  0  0  0  0
  -24.1486  -36.7310   23.2645 C   0  0  0  0  0  0
  -25.9227  -30.8470   21.3698 C   0  0  0  0  0  0
  -25.9980  -29.4849   20.7148 C   0  0  0  0  0  0
  -27.1954  -28.7422   20.6960 C   0  0  0  0  0  0
  -26.0552  -26.9618   19.4937 C   0  0  0  0  0  0
  -24.8598  -27.7020   19.5169 C   0  0  0  0  0  0
  -23.6018  -29.8338   20.1713 C   0  0  0  0  0  0
  -25.4107  -36.3131   24.0353 C   0  0  1  0  0  0
  -20.5843  -28.3651   23.1359 C   0  0  2  0  0  0
  -20.6763  -26.9402   22.5428 C   0  0  0  0  0  0
  -19.5729  -26.6393   21.5236 C   0  0  0  0  0  0
  -18.1903  -26.7920   22.1646 C   0  0  0  0  0  0
  -19.1506  -28.8830   23.2950 C   0  0  0  0  0  0
  -18.9442  -30.1437   23.8968 C   0  0  0  0  0  0
  -17.6440  -30.6586   24.0573 C   0  0  0  0  0  0
  -25.9026  -34.9489   23.5147 C   0  0  0  0  0  0
  -16.5334  -29.9086   23.6337 C   0  0  0  0  0  0
  -16.7254  -28.6488   23.0396 C   0  0  0  0  0  0
  -26.4485  -31.6620   25.0765 C   0  0  0  0  0  0
  -25.3763  -31.3677   26.1521 C   0  0  0  0  0  0
  -27.0314  -30.3065   24.6128 C   0  0  0  0  0  0
  -27.6077  -32.4357   25.7475 C   0  0  0  0  0  0
  -27.5588  -37.1800   24.8467 C   0  0  0  0  0  0
  -21.4111  -29.3022   22.3762 N   0  0  0  0  0  0
  -26.4285  -37.3818   23.9432 N   0  0  0  0  0  0
  -24.6605  -31.0851   22.1069 N   0  0  0  0  0  0
  -23.4168  -28.8212   23.3059 O   0  0  0  0  0  0
  -28.4459  -26.8106   20.0591 O   0  0  0  0  0  0
  -26.5598  -34.8926   22.4718 O   0  0  0  0  0  0
  -23.5318  -32.1448   23.7597 O   0  0  0  0  0  0
  -30.9906  -18.6670   21.0842 C   0  0  0  0  0  0
  -28.9867  -17.3098   20.8070 C   0  0  0  0  0  0
  -30.3980  -19.7037   20.3408 C   0  0  0  0  0  0
  -28.3870  -18.3530   20.0711 C   0  0  0  0  0  0
  -30.2980  -17.4610   21.3119 C   0  0  0  0  0  0
  -29.0921  -19.5520   19.8291 C   0  0  0  0  0  0
  -31.0903  -15.2776   24.2522 C   0  0  0  0  0  0
  -30.8293  -16.6362   23.6353 C   0  0  0  0  0  0
  -30.4967  -14.3092   23.2284 C   0  0  0  0  0  0
  -30.9856  -16.3765   22.1359 C   0  0  1  0  0  0
  -28.4670  -20.6723   19.0141 C   0  0  0  0  0  0
  -28.1703  -24.3859   19.9502 C   0  0  0  0  0  0
  -28.3129  -23.1455   19.0522 C   0  0  0  0  0  0
  -28.6009  -25.6682   19.2225 C   0  0  0  0  0  0
  -30.5401  -14.9887   21.9175 N   0  0  0  0  0  0
  -28.3174  -21.8888   19.8325 N   0  3  0  0  0  0
  -31.4525  -12.3910   19.1024 H   0  0  0  0  0  0
  -30.2965  -11.2720   19.7582 H   0  0  0  0  0  0
  -29.7330  -11.8643   17.3813 H   0  0  0  0  0  0
  -29.6529  -13.5547   17.8087 H   0  0  0  0  0  0
  -27.8222  -11.3219   18.7785 H   0  0  0  0  0  0
  -27.3631  -12.6694   17.7701 H   0  0  0  0  0  0
  -27.7103  -14.2594   19.5720 H   0  0  0  0  0  0
  -28.6204  -11.9611   21.3702 H   0  0  0  0  0  0
  -28.3846  -13.6328   21.7986 H   0  0  0  0  0  0
  -25.2779   -9.5691   22.4770 H   0  0  0  0  0  0
  -24.0040   -7.4624   22.7446 H   0  0  0  0  0  0
  -21.0873   -8.8782   19.8934 H   0  0  0  0  0  0
  -22.3729  -10.9687   19.6171 H   0  0  0  0  0  0
  -21.1999   -7.6140   23.9712 H   0  0  0  0  0  0
  -21.1488   -6.0503   25.9064 H   0  0  0  0  0  0
  -22.0611   -2.7611   23.2823 H   0  0  0  0  0  0
  -22.4132  -11.9823   22.4764 H   0  0  0  0  0  0
  -21.1152  -13.1203   22.2672 H   0  0  0  0  0  0
  -24.6790  -15.8566   20.5216 H   0  0  0  0  0  0
  -26.2939  -15.6168   20.0865 H   0  0  0  0  0  0
  -26.7072  -32.5550   23.1212 H   0  0  0  0  0  0
  -25.0030  -33.9848   25.0501 H   0  0  0  0  0  0
  -22.6820  -31.3145   21.4218 H   0  0  0  0  0  0
  -23.3760  -35.9622   23.3304 H   0  0  0  0  0  0
  -24.3580  -36.8940   22.2060 H   0  0  0  0  0  0
  -23.7208  -37.6502   23.6666 H   0  0  0  0  0  0
  -26.0407  -31.6203   20.6094 H   0  0  0  0  0  0
  -26.8101  -30.8930   21.9895 H   0  0  0  0  0  0
  -28.0939  -29.1489   21.1410 H   0  0  0  0  0  0
  -26.0240  -25.9966   19.0134 H   0  0  0  0  0  0
  -23.9671  -27.2964   19.0631 H   0  0  0  0  0  0
  -23.7062  -30.6112   19.4138 H   0  0  0  0  0  0
  -22.7270  -29.2533   19.8736 H   0  0  0  0  0  0
  -25.1272  -36.2014   25.0843 H   0  0  0  0  0  0
  -20.9971  -28.3219   24.1466 H   0  0  0  0  0  0
  -20.5717  -26.2258   23.3608 H   0  0  0  0  0  0
  -21.6630  -26.7475   22.1188 H   0  0  0  0  0  0
  -19.6897  -25.6320   21.1234 H   0  0  0  0  0  0
  -19.6653  -27.3246   20.6802 H   0  0  0  0  0  0
  -17.4187  -26.6743   21.4026 H   0  0  0  0  0  0
  -18.0262  -26.0017   22.8992 H   0  0  0  0  0  0
  -19.7908  -30.7239   24.2385 H   0  0  0  0  0  0
  -17.4983  -31.6274   24.5146 H   0  0  0  0  0  0
  -15.5346  -30.3004   23.7604 H   0  0  0  0  0  0
  -15.8651  -28.0794   22.7131 H   0  0  0  0  0  0
  -24.5952  -30.7019   25.7857 H   0  0  0  0  0  0
  -24.8926  -32.2801   26.5021 H   0  0  0  0  0  0
  -25.8142  -30.8817   27.0244 H   0  0  0  0  0  0
  -26.2832  -29.6789   24.1277 H   0  0  0  0  0  0
  -27.4193  -29.7364   25.4577 H   0  0  0  0  0  0
  -27.8624  -30.4398   23.9187 H   0  0  0  0  0  0
  -27.2728  -33.3663   26.2066 H   0  0  0  0  0  0
  -28.3839  -32.6924   25.0252 H   0  0  0  0  0  0
  -28.0791  -31.8469   26.5366 H   0  0  0  0  0  0
  -28.2609  -38.0097   24.7559 H   0  0  0  0  0  0
  -28.1083  -36.2644   24.6232 H   0  0  0  0  0  0
  -27.2307  -37.1373   25.8864 H   0  0  0  0  0  0
  -20.9273  -29.8715   21.6960 H   0  0  0  0  0  0
  -26.0182  -38.2894   24.1452 H   0  0  0  0  0  0
  -31.9873  -18.8047   21.4822 H   0  0  0  0  0  0
  -28.4296  -16.4012   20.9859 H   0  0  0  0  0  0
  -30.9564  -20.6140   20.1700 H   0  0  0  0  0  0
  -27.3834  -18.2219   19.6882 H   0  0  0  0  0  0
  -30.6507  -15.1726   25.2445 H   0  0  0  0  0  0
  -32.1649  -15.1151   24.3461 H   0  0  0  0  0  0
  -31.4914  -17.4208   24.0050 H   0  0  0  0  0  0
  -29.8033  -16.9391   23.8563 H   0  0  0  0  0  0
  -29.4683  -14.1032   23.5209 H   0  0  0  0  0  0
  -31.0398  -13.3620   23.2241 H   0  0  0  0  0  0
  -32.0535  -16.4114   21.9084 H   0  0  0  0  0  0
  -27.4897  -20.3744   18.6323 H   0  0  0  0  0  0
  -29.0988  -20.8630   18.1453 H   0  0  0  0  0  0
  -28.7871  -24.2822   20.8424 H   0  0  0  0  0  0
  -27.1391  -24.4641   20.2971 H   0  0  0  0  0  0
  -29.2433  -23.2109   18.4834 H   0  0  0  0  0  0
  -27.5047  -23.1270   18.3183 H   0  0  0  0  0  0
  -28.0984  -25.7911   18.2613 H   0  0  0  0  0  0
  -29.6632  -25.5968   18.9824 H   0  0  0  0  0  0
  -29.0899  -21.9127   20.4771 H   0  0  0  0  0  0
  -27.4736  -21.8030   20.3755 H   0  0  0  0  0  0
  1 25  1  0  0  0
  1 30  2  0  0  0
  1 85  1  0  0  0
  2  3  1  0  0  0
  2 25  1  0  0  0
  2 87  1  0  0  0
  2 88  1  0  0  0
  3  4  1  0  0  0
  3 89  1  0  0  0
  3 90  1  0  0  0
  4  5  1  0  0  0
  4 91  1  0  0  0
  4 92  1  0  0  0
  5  6  1  0  0  0
  5 26  1  0  0  0
  5 93  1  0  0  0
  6 25  1  0  0  0
  6 94  1  0  0  0
  6 95  1  0  0  0
  7  8  2  0  0  0
  7 26  1  0  0  0
  7 29  1  0  0  0
  8  9  1  0  0  0
  8 22  1  0  0  0
  9 10  1  0  0  0
  9 27  2  0  0  0
 10 11  2  0  0  0
 10 15  1  0  0  0
 11 12  1  0  0  0
 11 96  1  0  0  0
 12 13  2  0  0  0
 12 97  1  0  0  0
 13 14  1  0  0  0
 13 31  1  0  0  0
 14 15  2  0  0  0
 14 98  1  0  0  0
 15 99  1  0  0  0
 16 17  2  0  0  0
 16 21  1  0  0  0
 16 31  1  0  0  0
 17 18  1  0  0  0
 17100  1  0  0  0
 18 19  2  0  0  0
 18101  1  0  0  0
 19 20  1  0  0  0
 19 24  1  0  0  0
 20 21  2  0  0  0
 20102  1  0  0  0
 21 23  1  0  0  0
 22 28  1  0  0  0
 22 32  2  0  0  0
 26 27  1  0  0  0
 28103  1  0  0  0
 28104  1  0  0  0
 29105  1  0  0  0
 29106  1  0  0  0
 33 34  1  0  0  0
 33 66  1  0  0  0
 33 70  2  0  0  0
 34 36  1  0  0  0
 34 59  1  0  0  0
 34107  1  0  0  0
 35 44  2  0  0  0
 35 45  1  0  0  0
 35 68  1  0  0  0
 36 56  1  0  0  0
 36108  1  0  0  0
 37 39  1  0  0  0
 37 47  1  0  0  0
 37 66  1  0  0  0
 37109  1  0  0  0
 38 43  2  0  0  0
 38 46  1  0  0  0
 38 47  1  0  0  0
 39 64  1  0  0  0
 39 67  2  0  0  0
 40 52  1  0  0  0
 40 53  2  0  0  0
 40 58  1  0  0  0
 41110  1  0  0  0
 41111  1  0  0  0
 41112  1  0  0  0
 41 48  1  0  0  0
 42 43  1  0  0  0
 42 66  1  0  0  0
 42113  1  0  0  0
 42114  1  0  0  0
 43 44  1  0  0  0
 44115  1  0  0  0
 45 46  2  0  0  0
 45116  1  0  0  0
 46117  1  0  0  0
 47118  1  0  0  0
 47119  1  0  0  0
 48 56  1  0  0  0
 48 65  1  0  0  0
 48120  1  0  0  0
 49 50  1  0  0  0
 49 53  1  0  0  0
 49 64  1  0  0  0
 49121  1  0  0  0
 50 51  1  0  0  0
 50122  1  0  0  0
 50123  1  0  0  0
 51 52  1  0  0  0
 51124  1  0  0  0
 51125  1  0  0  0
 52126  1  0  0  0
 52127  1  0  0  0
 53 54  1  0  0  0
 54 55  2  0  0  0
 54128  1  0  0  0
 55 57  1  0  0  0
 55129  1  0  0  0
 56 69  2  0  0  0
 57 58  2  0  0  0
 57130  1  0  0  0
 58131  1  0  0  0
 59 60  1  0  0  0
 59 61  1  0  0  0
 59 62  1  0  0  0
 60132  1  0  0  0
 60133  1  0  0  0
 60134  1  0  0  0
 61135  1  0  0  0
 61136  1  0  0  0
 61137  1  0  0  0
 62138  1  0  0  0
 62139  1  0  0  0
 62140  1  0  0  0
 63 65  1  0  0  0
 63141  1  0  0  0
 63142  1  0  0  0
 63143  1  0  0  0
 64144  1  0  0  0
 65145  1  0  0  0
 68 84  1  0  0  0
 71 73  2  0  0  0
 71 75  1  0  0  0
 71146  1  0  0  0
 72 74  1  0  0  0
 72 75  2  0  0  0
 72147  1  0  0  0
 73 76  1  0  0  0
 73148  1  0  0  0
 74 76  2  0  0  0
 74149  1  0  0  0
 75 80  1  0  0  0
 76 81  1  0  0  0
 77 78  1  0  0  0
 77 79  1  0  0  0
 77150  1  0  0  0
 77151  1  0  0  0
 78 80  1  0  0  0
 78152  1  0  0  0
 78153  1  0  0  0
 79 85  1  0  0  0
 79154  1  0  0  0
 79155  1  0  0  0
 80 85  1  0  0  0
 80156  1  0  0  0
 81 86  1  0  0  0
 81157  1  0  0  0
 81158  1  0  0  0
 82 83  1  0  0  0
 82 84  1  0  0  0
 82159  1  0  0  0
 82160  1  0  0  0
 83 86  1  0  0  0
 83161  1  0  0  0
 83162  1  0  0  0
 84163  1  0  0  0
 84164  1  0  0  0
 86165  1  0  0  0
 86166  1  0  0  0
M  CHG  1  86   1
M  ISO  4   1 100  68 101  84 101  85 100
M  END
> <chiral flag>
0

> <version>
0

> <s_m_source_file>
/data/baiqing/PycharmProjects/Reinvent-master-3.2/result/LINK_invent/BTK/process_docking_weight1_custom_product_contain_oxygen_bond_distance_aromatic_linkinvent_7_9_3/rearranged_h_0003.sdf

> <i_m_source_file_index>
27

> <r_mmod_Potential_Energy-OPLS-2005>
-66.5498580932617

> <r_mmod_Stretch_Energy-OPLS-2005>
35.0478706359863

> <r_mmod_Bend_Energy-OPLS-2005>
118.490272521973

> <r_mmod_Torsional_Energy-OPLS-2005>
294.312286376953

> <r_mmod_Improper_Torsional_Energy-OPLS-2005>
4.42410278320312

> <r_mmod_Van_der_Waal_Energy-OPLS-2005>
151.457290649414

> <r_mmod_Electrostatic_Energy-OPLS-2005>
-224.83918762207

> <r_mmod_Solvation_Energy-OPLS-2005>
-455.130279541016

> <b_mmod_Minimization_Converged-OPLS-2005>
0

> <r_mmod_RMS_Derivative-OPLS-2005>
2.84753775596619

$$$$
27
                    3D
 Structure written by MMmdl.
148155  0  0  1  0            999 V2000
  -30.6172  -14.7273   20.4712 C   0  0  0  0  0  0
  -30.4327  -12.4492   19.4668 C   0  0  0  0  0  0
  -29.5094  -12.5063   18.2303 C   0  0  0  0  0  0
  -28.0374  -12.3245   18.6483 C   0  0  0  0  0  0
  -27.6413  -13.2284   19.8470 C   0  0  2  0  0  0
  -28.6848  -13.1618   20.9829 C   0  0  0  0  0  0
  -25.2512  -13.8194   20.5685 C   0  0  0  0  0  0
  -24.1798  -13.0442   20.9208 C   0  0  0  0  0  0
  -24.6386  -11.6920   20.8745 C   0  0  0  0  0  0
  -23.9069  -10.4297   21.0410 C   0  0  0  0  0  0
  -24.3620   -9.4214   21.9182 C   0  0  0  0  0  0
  -23.6297   -8.2248   22.0751 C   0  0  0  0  0  0
  -22.4279   -8.0283   21.3542 C   0  0  0  0  0  0
  -21.9915   -9.0263   20.4649 C   0  0  0  0  0  0
  -22.7244  -10.2142   20.3059 C   0  0  0  0  0  0
  -21.6856   -6.0740   22.5282 C   0  0  0  0  0  0
  -21.4015   -6.5644   23.8216 C   0  0  0  0  0  0
  -21.3657   -5.6793   24.9176 C   0  0  0  0  0  0
  -21.6044   -4.3057   24.7223 C   0  0  0  0  0  0
  -21.8822   -3.8152   23.4347 C   0  0  0  0  0  0
  -21.9196   -4.6969   22.3403 C   0  0  0  0  0  0
  -22.7826  -13.5230   21.1875 C   0  0  0  0  0  0
  -22.1662   -4.2155   21.0979 F   0  0  0  0  0  0
  -21.5628   -3.4539   25.7736 F   0  0  0  0  0  0
  -29.9861  -13.5082   20.3990 N   0  0  0  0  0  0
  -26.2930  -12.9394   20.3260 N   0  0  0  0  0  0
  -25.9311  -11.6540   20.5730 N   0  0  0  0  0  0
  -22.0469  -12.8218   22.0433 N   0  0  0  0  0  0
  -25.4218  -15.1913   20.4101 N   0  0  0  0  0  0
  -31.8111  -14.8209   20.1747 O   0  0  0  0  0  0
  -21.6641   -6.8882   21.4241 O   0  0  0  0  0  0
  -22.3515  -14.5544   20.6738 O   0  0  0  0  0  0
  -24.6294  -31.8564   23.1986 C   0  0  0  0  0  0
  -25.9126  -32.4760   23.8327 C   0  0  1  0  0  0
  -27.2180  -27.2804   20.1383 C   0  0  0  0  0  0
  -25.5926  -33.8564   24.2250 N   0  0  0  0  0  0
  -23.4242  -30.4785   21.5427 C   0  0  2  0  0  0
  -24.8712  -28.9232   20.1137 C   0  0  0  0  0  0
  -22.7488  -29.4610   22.4933 C   0  0  0  0  0  0
  -18.0299  -28.1375   22.8485 C   0  0  0  0  0  0
  -24.1491  -36.7289   23.2639 C   0  0  0  0  0  0
  -25.9676  -30.7784   21.3720 C   0  0  0  0  0  0
  -26.0427  -29.4012   20.7161 C   0  0  0  0  0  0
  -27.2234  -28.5948   20.7098 C   0  0  0  0  0  0
  -26.0266  -26.8581   19.5138 C   0  0  0  0  0  0
  -24.8672  -27.6591   19.5008 C   0  0  0  0  0  0
  -23.6406  -29.8088   20.1599 C   0  0  0  0  0  0
  -25.4119  -36.3074   24.0323 C   0  0  1  0  0  0
  -20.5896  -28.3693   23.1291 C   0  0  2  0  0  0
  -20.6789  -26.9410   22.5437 C   0  0  0  0  0  0
  -19.5784  -26.6394   21.5217 C   0  0  0  0  0  0
  -18.1961  -26.7913   22.1636 C   0  0  0  0  0  0
  -19.1546  -28.8853   23.2881 C   0  0  0  0  0  0
  -18.9462  -30.1457   23.8891 C   0  0  0  0  0  0
  -17.6458  -30.6581   24.0557 C   0  0  0  0  0  0
  -25.9053  -34.9442   23.5089 C   0  0  0  0  0  0
  -16.5357  -29.9071   23.6320 C   0  0  0  0  0  0
  -16.7285  -28.6490   23.0341 C   0  0  0  0  0  0
  -26.4494  -31.6585   25.0715 C   0  0  0  0  0  0
  -25.3716  -31.3740   26.1436 C   0  0  0  0  0  0
  -27.0342  -30.3005   24.6190 C   0  0  0  0  0  0
  -27.6044  -32.4330   25.7495 C   0  0  0  0  0  0
  -27.5576  -37.1801   24.8463 C   0  0  0  0  0  0
  -21.4197  -29.3039   22.3670 N   0  0  0  0  0  0
  -26.4292  -37.3773   23.9399 N   0  0  0  0  0  0
  -24.6929  -31.0548   22.0947 N   0  0  0  0  0  0
  -23.4203  -28.8153   23.3027 O   0  0  0  0  0  0
  -28.3183  -26.4035   20.1511 O   0  0  0  0  0  0
  -26.5632  -34.8920   22.4663 O   0  0  0  0  0  0
  -23.5449  -32.1376   23.7297 O   0  0  0  0  0  0
  -29.5055  -18.5369   20.2166 C   0  0  0  0  0  0
  -29.5887  -19.8751   20.5763 C   0  0  0  0  0  0
  -30.3219  -17.3122   20.8152 C   0  0  0  0  0  0
  -28.9345  -21.1460   19.8838 C   0  0  0  0  0  0
  -28.1332  -25.0189   20.6967 C   0  0  0  0  0  0
  -28.6157  -23.6890   19.9137 C   0  0  0  0  0  0
  -29.8530  -15.8649   20.6783 N   0  0  0  0  0  0
  -28.7890  -22.4060   20.6591 O   0  0  0  0  0  0
  -31.4735  -12.5772   19.1633 H   0  0  0  0  0  0
  -30.3779  -11.4708   19.9473 H   0  0  0  0  0  0
  -29.7935  -11.7373   17.5103 H   0  0  0  0  0  0
  -29.6323  -13.4646   17.7214 H   0  0  0  0  0  0
  -27.9044  -11.2762   18.9196 H   0  0  0  0  0  0
  -27.3768  -12.5062   17.7998 H   0  0  0  0  0  0
  -27.6365  -14.2496   19.4642 H   0  0  0  0  0  0
  -28.7169  -12.1660   21.4278 H   0  0  0  0  0  0
  -28.4212  -13.8493   21.7882 H   0  0  0  0  0  0
  -25.2766   -9.5695   22.4755 H   0  0  0  0  0  0
  -24.0016   -7.4640   22.7464 H   0  0  0  0  0  0
  -21.0854   -8.8795   19.8942 H   0  0  0  0  0  0
  -22.3715  -10.9688   19.6170 H   0  0  0  0  0  0
  -21.2002   -7.6149   23.9723 H   0  0  0  0  0  0
  -21.1472   -6.0517   25.9078 H   0  0  0  0  0  0
  -22.0599   -2.7615   23.2847 H   0  0  0  0  0  0
  -22.4086  -11.9880   22.4826 H   0  0  0  0  0  0
  -21.1080  -13.1235   22.2612 H   0  0  0  0  0  0
  -24.6580  -15.8475   20.5294 H   0  0  0  0  0  0
  -26.2677  -15.6319   20.0724 H   0  0  0  0  0  0
  -26.7190  -32.5417   23.1069 H   0  0  0  0  0  0
  -25.0056  -33.9706   25.0381 H   0  0  0  0  0  0
  -22.7194  -31.3001   21.3962 H   0  0  0  0  0  0
  -23.3750  -35.9623   23.3302 H   0  0  0  0  0  0
  -24.3576  -36.8916   22.2051 H   0  0  0  0  0  0
  -23.7248  -37.6493   23.6668 H   0  0  0  0  0  0
  -26.1001  -31.5400   20.6022 H   0  0  0  0  0  0
  -26.8470  -30.8296   22.0026 H   0  0  0  0  0  0
  -28.1255  -28.9605   21.1801 H   0  0  0  0  0  0
  -25.9865  -25.8861   19.0429 H   0  0  0  0  0  0
  -23.9693  -27.2873   19.0270 H   0  0  0  0  0  0
  -23.7630  -30.5831   19.4019 H   0  0  0  0  0  0
  -22.7592  -29.2404   19.8576 H   0  0  0  0  0  0
  -25.1303  -36.1919   25.0815 H   0  0  0  0  0  0
  -20.9983  -28.3281   24.1414 H   0  0  0  0  0  0
  -20.5661  -26.2304   23.3642 H   0  0  0  0  0  0
  -21.6666  -26.7429   22.1259 H   0  0  0  0  0  0
  -19.6962  -25.6316   21.1224 H   0  0  0  0  0  0
  -19.6721  -27.3233   20.6769 H   0  0  0  0  0  0
  -17.4228  -26.6633   21.4043 H   0  0  0  0  0  0
  -18.0383  -26.0060   22.9042 H   0  0  0  0  0  0
  -19.7935  -30.7280   24.2253 H   0  0  0  0  0  0
  -17.5010  -31.6261   24.5155 H   0  0  0  0  0  0
  -15.5355  -30.2968   23.7645 H   0  0  0  0  0  0
  -15.8686  -28.0804   22.7053 H   0  0  0  0  0  0
  -24.5890  -30.7091   25.7759 H   0  0  0  0  0  0
  -24.8912  -32.2918   26.4843 H   0  0  0  0  0  0
  -25.8033  -30.8926   27.0220 H   0  0  0  0  0  0
  -26.2924  -29.6755   24.1204 H   0  0  0  0  0  0
  -27.4013  -29.7268   25.4708 H   0  0  0  0  0  0
  -27.8802  -30.4280   23.9434 H   0  0  0  0  0  0
  -27.2639  -33.3630   26.2064 H   0  0  0  0  0  0
  -28.3864  -32.6895   25.0334 H   0  0  0  0  0  0
  -28.0699  -31.8463   26.5424 H   0  0  0  0  0  0
  -28.2600  -38.0094   24.7506 H   0  0  0  0  0  0
  -28.1072  -36.2626   24.6301 H   0  0  0  0  0  0
  -27.2294  -37.1462   25.8868 H   0  0  0  0  0  0
  -20.9371  -29.8753   21.6874 H   0  0  0  0  0  0
  -26.0172  -38.2847   24.1403 H   0  0  0  0  0  0
  -28.8625  -18.2873   19.3844 H   0  0  0  0  0  0
  -30.2384  -20.1205   21.4039 H   0  0  0  0  0  0
  -30.4845  -17.5072   21.8761 H   0  0  0  0  0  0
  -31.3131  -17.3735   20.3624 H   0  0  0  0  0  0
  -27.9672  -20.8693   19.4621 H   0  0  0  0  0  0
  -29.5782  -21.3764   19.0342 H   0  0  0  0  0  0
  -28.6811  -25.0331   21.6387 H   0  0  0  0  0  0
  -27.0948  -24.8726   20.9970 H   0  0  0  0  0  0
  -29.5773  -23.9044   19.4472 H   0  0  0  0  0  0
  -27.9201  -23.5137   19.0920 H   0  0  0  0  0  0
  -28.8710  -15.6983   20.8401 H   0  0  0  0  0  0
  1 25  1  0  0  0
  1 30  2  0  0  0
  1 77  1  0  0  0
  2  3  1  0  0  0
  2 25  1  0  0  0
  2 79  1  0  0  0
  2 80  1  0  0  0
  3  4  1  0  0  0
  3 81  1  0  0  0
  3 82  1  0  0  0
  4  5  1  0  0  0
  4 83  1  0  0  0
  4 84  1  0  0  0
  5  6  1  0  0  0
  5 26  1  0  0  0
  5 85  1  0  0  0
  6 25  1  0  0  0
  6 86  1  0  0  0
  6 87  1  0  0  0
  7  8  2  0  0  0
  7 26  1  0  0  0
  7 29  1  0  0  0
  8  9  1  0  0  0
  8 22  1  0  0  0
  9 10  1  0  0  0
  9 27  2  0  0  0
 10 11  2  0  0  0
 10 15  1  0  0  0
 11 12  1  0  0  0
 11 88  1  0  0  0
 12 13  2  0  0  0
 12 89  1  0  0  0
 13 14  1  0  0  0
 13 31  1  0  0  0
 14 15  2  0  0  0
 14 90  1  0  0  0
 15 91  1  0  0  0
 16 17  2  0  0  0
 16 21  1  0  0  0
 16 31  1  0  0  0
 17 18  1  0  0  0
 17 92  1  0  0  0
 18 19  2  0  0  0
 18 93  1  0  0  0
 19 20  1  0  0  0
 19 24  1  0  0  0
 20 21  2  0  0  0
 20 94  1  0  0  0
 21 23  1  0  0  0
 22 28  1  0  0  0
 22 32  2  0  0  0
 26 27  1  0  0  0
 28 95  1  0  0  0
 28 96  1  0  0  0
 29 97  1  0  0  0
 29 98  1  0  0  0
 33 34  1  0  0  0
 33 66  1  0  0  0
 33 70  2  0  0  0
 34 36  1  0  0  0
 34 59  1  0  0  0
 34 99  1  0  0  0
 35 44  2  0  0  0
 35 45  1  0  0  0
 35 68  1  0  0  0
 36 56  1  0  0  0
 36100  1  0  0  0
 37 39  1  0  0  0
 37 47  1  0  0  0
 37 66  1  0  0  0
 37101  1  0  0  0
 38 43  2  0  0  0
 38 46  1  0  0  0
 38 47  1  0  0  0
 39 64  1  0  0  0
 39 67  2  0  0  0
 40 52  1  0  0  0
 40 53  2  0  0  0
 40 58  1  0  0  0
 41102  1  0  0  0
 41103  1  0  0  0
 41104  1  0  0  0
 41 48  1  0  0  0
 42 43  1  0  0  0
 42 66  1  0  0  0
 42105  1  0  0  0
 42106  1  0  0  0
 43 44  1  0  0  0
 44107  1  0  0  0
 45 46  2  0  0  0
 45108  1  0  0  0
 46109  1  0  0  0
 47110  1  0  0  0
 47111  1  0  0  0
 48 56  1  0  0  0
 48 65  1  0  0  0
 48112  1  0  0  0
 49 50  1  0  0  0
 49 53  1  0  0  0
 49 64  1  0  0  0
 49113  1  0  0  0
 50 51  1  0  0  0
 50114  1  0  0  0
 50115  1  0  0  0
 51 52  1  0  0  0
 51116  1  0  0  0
 51117  1  0  0  0
 52118  1  0  0  0
 52119  1  0  0  0
 53 54  1  0  0  0
 54 55  2  0  0  0
 54120  1  0  0  0
 55 57  1  0  0  0
 55121  1  0  0  0
 56 69  2  0  0  0
 57 58  2  0  0  0
 57122  1  0  0  0
 58123  1  0  0  0
 59 60  1  0  0  0
 59 61  1  0  0  0
 59 62  1  0  0  0
 60124  1  0  0  0
 60125  1  0  0  0
 60126  1  0  0  0
 61127  1  0  0  0
 61128  1  0  0  0
 61129  1  0  0  0
 62130  1  0  0  0
 62131  1  0  0  0
 62132  1  0  0  0
 63 65  1  0  0  0
 63133  1  0  0  0
 63134  1  0  0  0
 63135  1  0  0  0
 64136  1  0  0  0
 65137  1  0  0  0
 68 75  1  0  0  0
 71 72  2  0  0  0
 71 73  1  0  0  0
 71138  1  0  0  0
 72 74  1  0  0  0
 72139  1  0  0  0
 73 77  1  0  0  0
 73140  1  0  0  0
 73141  1  0  0  0
 74 78  1  0  0  0
 74142  1  0  0  0
 74143  1  0  0  0
 75 76  1  0  0  0
 75144  1  0  0  0
 75145  1  0  0  0
 76 78  1  0  0  0
 76146  1  0  0  0
 76147  1  0  0  0
 77148  1  0  0  0
M  ISO  4   1 100  68 101  75 101  77 100
M  END
> <chiral flag>
0

> <version>
0

> <s_m_source_file>
/data/baiqing/PycharmProjects/Reinvent-master-3.2/result/LINK_invent/BTK/process_docking_weight1_custom_product_contain_oxygen_bond_distance_aromatic_linkinvent_7_9_3/rearranged_h_0003.sdf

> <i_m_source_file_index>
28

> <r_mmod_Potential_Energy-OPLS-2005>
117.808822631836

> <r_mmod_Stretch_Energy-OPLS-2005>
112.129730224609

> <r_mmod_Bend_Energy-OPLS-2005>
155.295852661133

> <r_mmod_Torsional_Energy-OPLS-2005>
225.112701416016

> <r_mmod_Improper_Torsional_Energy-OPLS-2005>
5.50804710388184

> <r_mmod_Van_der_Waal_Energy-OPLS-2005>
119.393417358398

> <r_mmod_Electrostatic_Energy-OPLS-2005>
-363.519226074219

> <r_mmod_Solvation_Energy-OPLS-2005>
-212.544418334961

> <b_mmod_Minimization_Converged-OPLS-2005>
0

> <r_mmod_RMS_Derivative-OPLS-2005>
1.22264873981476

$$$$
28
                    3D
 Structure written by MMmdl.
163172  0  0  1  0            999 V2000
  -30.7069  -14.4535   20.5729 C   0  0  0  0  0  0
  -30.4189  -12.2931   19.4258 C   0  0  0  0  0  0
  -29.4948  -12.5066   18.2091 C   0  0  0  0  0  0
  -28.0151  -12.3695   18.6190 C   0  0  0  0  0  0
  -27.6626  -13.2065   19.8782 C   0  0  2  0  0  0
  -28.7017  -12.9795   20.9998 C   0  0  0  0  0  0
  -25.2588  -13.8160   20.5676 C   0  0  0  0  0  0
  -24.1836  -13.0438   20.9165 C   0  0  0  0  0  0
  -24.6389  -11.6906   20.8727 C   0  0  0  0  0  0
  -23.9054  -10.4292   21.0399 C   0  0  0  0  0  0
  -24.3609   -9.4210   21.9178 C   0  0  0  0  0  0
  -23.6289   -8.2243   22.0751 C   0  0  0  0  0  0
  -22.4270   -8.0278   21.3543 C   0  0  0  0  0  0
  -21.9903   -9.0249   20.4646 C   0  0  0  0  0  0
  -22.7227  -10.2129   20.3051 C   0  0  0  0  0  0
  -21.6852   -6.0734   22.5279 C   0  0  0  0  0  0
  -21.4013   -6.5639   23.8213 C   0  0  0  0  0  0
  -21.3659   -5.6790   24.9175 C   0  0  0  0  0  0
  -21.6044   -4.3052   24.7223 C   0  0  0  0  0  0
  -21.8819   -3.8146   23.4344 C   0  0  0  0  0  0
  -21.9193   -4.6962   22.3402 C   0  0  0  0  0  0
  -22.7862  -13.5241   21.1835 C   0  0  0  0  0  0
  -22.1663   -4.2150   21.0977 F   0  0  0  0  0  0
  -21.5628   -3.4532   25.7735 F   0  0  0  0  0  0
  -30.0375  -13.2754   20.4527 N   0  0  0  0  0  0
  -26.3027  -12.9331   20.3379 N   0  0  0  0  0  0
  -25.9316  -11.6489   20.5767 N   0  0  0  0  0  0
  -22.0502  -12.8231   22.0387 N   0  0  0  0  0  0
  -25.4314  -15.1873   20.4084 N   0  0  0  0  0  0
  -31.8325  -14.6219   20.0967 O   0  0  0  0  0  0
  -21.6638   -6.8874   21.4241 O   0  0  0  0  0  0
  -22.3549  -14.5553   20.6695 O   0  0  0  0  0  0
  -24.6107  -31.8697   23.2116 C   0  0  0  0  0  0
  -25.9009  -32.4835   23.8407 C   0  0  1  0  0  0
  -27.2474  -27.4529   20.1060 C   0  0  0  0  0  0
  -25.5877  -33.8632   24.2340 N   0  0  0  0  0  0
  -23.3994  -30.4909   21.5502 C   0  0  2  0  0  0
  -24.8513  -28.9563   20.1181 C   0  0  0  0  0  0
  -22.7394  -29.4660   22.4997 C   0  0  0  0  0  0
  -18.0265  -28.1378   22.8494 C   0  0  0  0  0  0
  -24.1483  -36.7321   23.2629 C   0  0  0  0  0  0
  -25.9236  -30.8412   21.3624 C   0  0  0  0  0  0
  -26.0052  -29.4724   20.7208 C   0  0  0  0  0  0
  -27.2044  -28.7275   20.7223 C   0  0  0  0  0  0
  -26.0827  -26.9556   19.4877 C   0  0  0  0  0  0
  -24.8829  -27.6937   19.5002 C   0  0  0  0  0  0
  -23.6098  -29.8188   20.1658 C   0  0  0  0  0  0
  -25.4094  -36.3119   24.0345 C   0  0  1  0  0  0
  -20.5853  -28.3657   23.1331 C   0  0  2  0  0  0
  -20.6755  -26.9397   22.5425 C   0  0  0  0  0  0
  -19.5736  -26.6391   21.5215 C   0  0  0  0  0  0
  -18.1914  -26.7926   22.1624 C   0  0  0  0  0  0
  -19.1513  -28.8833   23.2910 C   0  0  0  0  0  0
  -18.9444  -30.1440   23.8916 C   0  0  0  0  0  0
  -17.6449  -30.6584   24.0568 C   0  0  0  0  0  0
  -25.9027  -34.9486   23.5142 C   0  0  0  0  0  0
  -16.5339  -29.9089   23.6327 C   0  0  0  0  0  0
  -16.7255  -28.6507   23.0344 C   0  0  0  0  0  0
  -26.4457  -31.6600   25.0718 C   0  0  0  0  0  0
  -25.3741  -31.3696   26.1481 C   0  0  0  0  0  0
  -27.0281  -30.3049   24.6059 C   0  0  0  0  0  0
  -27.6048  -32.4308   25.7465 C   0  0  0  0  0  0
  -27.5602  -37.1780   24.8435 C   0  0  0  0  0  0
  -21.4125  -29.3026   22.3739 N   0  0  0  0  0  0
  -26.4270  -37.3816   23.9446 N   0  0  0  0  0  0
  -24.6624  -31.0815   22.1007 N   0  0  0  0  0  0
  -23.4179  -28.8207   23.3032 O   0  0  0  0  0  0
  -28.3770  -26.6654   20.0500 O   0  0  0  0  0  0
  -26.5596  -34.8936   22.4707 O   0  0  0  0  0  0
  -23.5306  -32.1436   23.7523 O   0  0  0  0  0  0
  -31.1775  -18.9030   20.1159 C   0  0  0  0  0  0
  -31.1122  -17.4989   20.2058 C   0  0  0  0  0  0
  -29.3492  -19.0984   21.6980 C   0  0  0  0  0  0
  -30.2989  -19.7205   20.8571 C   0  0  0  0  0  0
  -30.1639  -16.8671   21.0494 C   0  0  0  0  0  0
  -29.2797  -17.6889   21.7908 C   0  0  0  0  0  0
  -29.1304  -21.9694   20.3169 C   0  0  0  0  0  0
  -30.9172  -21.9007   22.0393 C   0  0  0  0  0  0
  -29.3905  -23.4837   20.1077 C   0  0  0  0  0  0
  -31.1833  -23.4029   21.8145 C   0  0  0  0  0  0
  -30.4186  -21.2444   20.7466 C   0  0  1  0  0  0
  -30.3267  -25.5864   21.0694 C   0  0  0  0  0  0
  -29.1559  -26.5796   21.2422 C   0  0  0  0  0  0
  -30.0162  -15.4454   21.1660 N   0  0  0  0  0  0
  -29.9929  -24.1457   21.3035 N   0  3  1  0  0  0
  -28.0894  -16.9725   22.8205 Cl  0  0  0  0  0  0
  -31.4654  -12.3793   19.1279 H   0  0  0  0  0  0
  -30.3064  -11.2812   19.8183 H   0  0  0  0  0  0
  -29.7334  -11.7880   17.4239 H   0  0  0  0  0  0
  -29.6681  -13.4956   17.7818 H   0  0  0  0  0  0
  -27.8221  -11.3134   18.8110 H   0  0  0  0  0  0
  -27.3660  -12.6483   17.7880 H   0  0  0  0  0  0
  -27.7099  -14.2558   19.5860 H   0  0  0  0  0  0
  -28.6705  -11.9431   21.3388 H   0  0  0  0  0  0
  -28.4618  -13.5766   21.8805 H   0  0  0  0  0  0
  -25.2757   -9.5686   22.4748 H   0  0  0  0  0  0
  -24.0003   -7.4632   22.7467 H   0  0  0  0  0  0
  -21.0834   -8.8759   19.8953 H   0  0  0  0  0  0
  -22.3683  -10.9661   19.6154 H   0  0  0  0  0  0
  -21.2003   -7.6147   23.9716 H   0  0  0  0  0  0
  -21.1482   -6.0519   25.9078 H   0  0  0  0  0  0
  -22.0598   -2.7608   23.2840 H   0  0  0  0  0  0
  -22.4116  -11.9886   22.4765 H   0  0  0  0  0  0
  -21.1118  -13.1255   22.2589 H   0  0  0  0  0  0
  -24.6702  -15.8460   20.5305 H   0  0  0  0  0  0
  -26.2965  -15.6296   20.1257 H   0  0  0  0  0  0
  -26.7085  -32.5572   23.1182 H   0  0  0  0  0  0
  -25.0018  -33.9798   25.0480 H   0  0  0  0  0  0
  -22.6870  -31.3064   21.4092 H   0  0  0  0  0  0
  -23.3758  -35.9637   23.3251 H   0  0  0  0  0  0
  -24.3602  -36.8967   22.2053 H   0  0  0  0  0  0
  -23.7208  -37.6508   23.6656 H   0  0  0  0  0  0
  -26.0267  -31.6022   20.5876 H   0  0  0  0  0  0
  -26.8142  -30.9051   21.9752 H   0  0  0  0  0  0
  -28.0860  -29.1505   21.1812 H   0  0  0  0  0  0
  -26.1040  -25.9888   19.0046 H   0  0  0  0  0  0
  -23.9979  -27.2902   19.0277 H   0  0  0  0  0  0
  -23.7147  -30.5907   19.4024 H   0  0  0  0  0  0
  -22.7362  -29.2333   19.8731 H   0  0  0  0  0  0
  -25.1253  -36.1973   25.0832 H   0  0  0  0  0  0
  -20.9944  -28.3218   24.1451 H   0  0  0  0  0  0
  -20.5656  -26.2264   23.3608 H   0  0  0  0  0  0
  -21.6627  -26.7445   22.1217 H   0  0  0  0  0  0
  -19.6900  -25.6310   21.1224 H   0  0  0  0  0  0
  -19.6679  -27.3220   20.6760 H   0  0  0  0  0  0
  -17.4190  -26.6678   21.4022 H   0  0  0  0  0  0
  -18.0313  -26.0064   22.9014 H   0  0  0  0  0  0
  -19.7923  -30.7246   24.2298 H   0  0  0  0  0  0
  -17.5010  -31.6265   24.5167 H   0  0  0  0  0  0
  -15.5342  -30.2997   23.7646 H   0  0  0  0  0  0
  -15.8655  -28.0837   22.7039 H   0  0  0  0  0  0
  -24.5899  -30.7056   25.7824 H   0  0  0  0  0  0
  -24.8948  -32.2850   26.4962 H   0  0  0  0  0  0
  -25.8110  -30.8844   27.0218 H   0  0  0  0  0  0
  -26.2813  -29.6819   24.1126 H   0  0  0  0  0  0
  -27.4081  -29.7271   25.4493 H   0  0  0  0  0  0
  -27.8634  -30.4386   23.9181 H   0  0  0  0  0  0
  -27.2677  -33.3591   26.2089 H   0  0  0  0  0  0
  -28.3826  -32.6892   25.0268 H   0  0  0  0  0  0
  -28.0753  -31.8403   26.5337 H   0  0  0  0  0  0
  -28.2516  -38.0182   24.7651 H   0  0  0  0  0  0
  -28.1203  -36.2731   24.6027 H   0  0  0  0  0  0
  -27.2364  -37.1141   25.8838 H   0  0  0  0  0  0
  -20.9281  -29.8753   21.6969 H   0  0  0  0  0  0
  -26.0157  -38.2870   24.1547 H   0  0  0  0  0  0
  -31.9177  -19.3477   19.4647 H   0  0  0  0  0  0
  -31.8045  -16.9357   19.6000 H   0  0  0  0  0  0
  -28.6660  -19.6994   22.2803 H   0  0  0  0  0  0
  -28.7575  -21.5381   19.3871 H   0  0  0  0  0  0
  -28.3444  -21.8248   21.0586 H   0  0  0  0  0  0
  -30.1966  -21.7591   22.8458 H   0  0  0  0  0  0
  -31.8408  -21.4205   22.3654 H   0  0  0  0  0  0
  -28.4559  -23.9804   19.8455 H   0  0  0  0  0  0
  -30.0566  -23.6144   19.2532 H   0  0  0  0  0  0
  -32.0074  -23.5214   21.1088 H   0  0  0  0  0  0
  -31.5171  -23.8455   22.7541 H   0  0  0  0  0  0
  -31.1659  -21.4388   19.9746 H   0  0  0  0  0  0
  -31.0716  -25.8827   21.8094 H   0  0  0  0  0  0
  -30.8126  -25.7260   20.1029 H   0  0  0  0  0  0
  -29.5845  -27.5592   21.4544 H   0  0  0  0  0  0
  -28.5353  -26.3113   22.0986 H   0  0  0  0  0  0
  -29.1730  -15.1522   21.6368 H   0  0  0  0  0  0
  -29.3039  -24.1143   22.0418 H   0  0  0  0  0  0
  1 25  1  0  0  0
  1 30  2  0  0  0
  1 84  1  0  0  0
  2  3  1  0  0  0
  2 25  1  0  0  0
  2 87  1  0  0  0
  2 88  1  0  0  0
  3  4  1  0  0  0
  3 89  1  0  0  0
  3 90  1  0  0  0
  4  5  1  0  0  0
  4 91  1  0  0  0
  4 92  1  0  0  0
  5  6  1  0  0  0
  5 26  1  0  0  0
  5 93  1  0  0  0
  6 25  1  0  0  0
  6 94  1  0  0  0
  6 95  1  0  0  0
  7  8  2  0  0  0
  7 26  1  0  0  0
  7 29  1  0  0  0
  8  9  1  0  0  0
  8 22  1  0  0  0
  9 10  1  0  0  0
  9 27  2  0  0  0
 10 11  2  0  0  0
 10 15  1  0  0  0
 11 12  1  0  0  0
 11 96  1  0  0  0
 12 13  2  0  0  0
 12 97  1  0  0  0
 13 14  1  0  0  0
 13 31  1  0  0  0
 14 15  2  0  0  0
 14 98  1  0  0  0
 15 99  1  0  0  0
 16 17  2  0  0  0
 16 21  1  0  0  0
 16 31  1  0  0  0
 17 18  1  0  0  0
 17100  1  0  0  0
 18 19  2  0  0  0
 18101  1  0  0  0
 19 20  1  0  0  0
 19 24  1  0  0  0
 20 21  2  0  0  0
 20102  1  0  0  0
 21 23  1  0  0  0
 22 28  1  0  0  0
 22 32  2  0  0  0
 26 27  1  0  0  0
 28103  1  0  0  0
 28104  1  0  0  0
 29105  1  0  0  0
 29106  1  0  0  0
 33 34  1  0  0  0
 33 66  1  0  0  0
 33 70  2  0  0  0
 34 36  1  0  0  0
 34 59  1  0  0  0
 34107  1  0  0  0
 35 44  2  0  0  0
 35 45  1  0  0  0
 35 68  1  0  0  0
 36 56  1  0  0  0
 36108  1  0  0  0
 37 39  1  0  0  0
 37 47  1  0  0  0
 37 66  1  0  0  0
 37109  1  0  0  0
 38 43  2  0  0  0
 38 46  1  0  0  0
 38 47  1  0  0  0
 39 64  1  0  0  0
 39 67  2  0  0  0
 40 52  1  0  0  0
 40 53  2  0  0  0
 40 58  1  0  0  0
 41110  1  0  0  0
 41111  1  0  0  0
 41112  1  0  0  0
 41 48  1  0  0  0
 42 43  1  0  0  0
 42 66  1  0  0  0
 42113  1  0  0  0
 42114  1  0  0  0
 43 44  1  0  0  0
 44115  1  0  0  0
 45 46  2  0  0  0
 45116  1  0  0  0
 46117  1  0  0  0
 47118  1  0  0  0
 47119  1  0  0  0
 48 56  1  0  0  0
 48 65  1  0  0  0
 48120  1  0  0  0
 49 50  1  0  0  0
 49 53  1  0  0  0
 49 64  1  0  0  0
 49121  1  0  0  0
 50 51  1  0  0  0
 50122  1  0  0  0
 50123  1  0  0  0
 51 52  1  0  0  0
 51124  1  0  0  0
 51125  1  0  0  0
 52126  1  0  0  0
 52127  1  0  0  0
 53 54  1  0  0  0
 54 55  2  0  0  0
 54128  1  0  0  0
 55 57  1  0  0  0
 55129  1  0  0  0
 56 69  2  0  0  0
 57 58  2  0  0  0
 57130  1  0  0  0
 58131  1  0  0  0
 59 60  1  0  0  0
 59 61  1  0  0  0
 59 62  1  0  0  0
 60132  1  0  0  0
 60133  1  0  0  0
 60134  1  0  0  0
 61135  1  0  0  0
 61136  1  0  0  0
 61137  1  0  0  0
 62138  1  0  0  0
 62139  1  0  0  0
 62140  1  0  0  0
 63 65  1  0  0  0
 63141  1  0  0  0
 63142  1  0  0  0
 63143  1  0  0  0
 64144  1  0  0  0
 65145  1  0  0  0
 68 83  1  0  0  0
 71 72  2  0  0  0
 71 74  1  0  0  0
 71146  1  0  0  0
 72 75  1  0  0  0
 72147  1  0  0  0
 73 74  2  0  0  0
 73 76  1  0  0  0
 73148  1  0  0  0
 74 81  1  0  0  0
 75 76  2  0  0  0
 75 84  1  0  0  0
 76 86  1  0  0  0
 77 79  1  0  0  0
 77 81  1  0  0  0
 77149  1  0  0  0
 77150  1  0  0  0
 78 80  1  0  0  0
 78 81  1  0  0  0
 78151  1  0  0  0
 78152  1  0  0  0
 79 85  1  0  0  0
 79153  1  0  0  0
 79154  1  0  0  0
 80 85  1  0  0  0
 80155  1  0  0  0
 80156  1  0  0  0
 81157  1  0  0  0
 82 83  1  0  0  0
 82158  1  0  0  0
 82159  1  0  0  0
 82 85  1  0  0  0
 83160  1  0  0  0
 83161  1  0  0  0
 84162  1  0  0  0
 85163  1  0  0  0
M  CHG  1  85   1
M  ISO  4   1 100  68 101  83 101  84 100
M  END
> <chiral flag>
0

> <version>
0

> <s_m_source_file>
/data/baiqing/PycharmProjects/Reinvent-master-3.2/result/LINK_invent/BTK/process_docking_weight1_custom_product_contain_oxygen_bond_distance_aromatic_linkinvent_7_9_3/rearranged_h_0003.sdf

> <i_m_source_file_index>
29

> <r_mmod_Potential_Energy-OPLS-2005>
-141.391494750977

> <r_mmod_Stretch_Energy-OPLS-2005>
37.9404716491699

> <r_mmod_Bend_Energy-OPLS-2005>
105.429374694824

> <r_mmod_Torsional_Energy-OPLS-2005>
256.132354736328

> <r_mmod_Improper_Torsional_Energy-OPLS-2005>
2.82852554321289

> <r_mmod_Van_der_Waal_Energy-OPLS-2005>
158.208648681641

> <r_mmod_Electrostatic_Energy-OPLS-2005>
-290.524169921875

> <r_mmod_Solvation_Energy-OPLS-2005>
-421.764709472656

> <b_mmod_Minimization_Converged-OPLS-2005>
0

> <r_mmod_RMS_Derivative-OPLS-2005>
0.487020969390869

$$$$
29
                    3D
 Structure written by MMmdl.
161170  0  0  1  0            999 V2000
  -30.6352  -14.6371   20.2971 C   0  0  0  0  0  0
  -30.4484  -12.3022   19.5089 C   0  0  0  0  0  0
  -29.5313  -12.1982   18.2684 C   0  0  0  0  0  0
  -28.0265  -12.2536   18.6479 C   0  0  0  0  0  0
  -27.6409  -13.1894   19.8373 C   0  0  2  0  0  0
  -28.6952  -13.1525   20.9600 C   0  0  0  0  0  0
  -25.2568  -13.8139   20.5704 C   0  0  0  0  0  0
  -24.1811  -13.0445   20.9186 C   0  0  0  0  0  0
  -24.6350  -11.6913   20.8812 C   0  0  0  0  0  0
  -23.9041  -10.4297   21.0472 C   0  0  0  0  0  0
  -24.3579   -9.4179   21.9222 C   0  0  0  0  0  0
  -23.6240   -8.2234   22.0770 C   0  0  0  0  0  0
  -22.4226   -8.0291   21.3556 C   0  0  0  0  0  0
  -21.9880   -9.0302   20.4674 C   0  0  0  0  0  0
  -22.7237  -10.2161   20.3082 C   0  0  0  0  0  0
  -21.6864   -6.0715   22.5267 C   0  0  0  0  0  0
  -21.4055   -6.5621   23.8202 C   0  0  0  0  0  0
  -21.3607   -5.6765   24.9157 C   0  0  0  0  0  0
  -21.6003   -4.3029   24.7211 C   0  0  0  0  0  0
  -21.8838   -3.8126   23.4347 C   0  0  0  0  0  0
  -21.9201   -4.6949   22.3407 C   0  0  0  0  0  0
  -22.7820  -13.5289   21.1781 C   0  0  0  0  0  0
  -22.1705   -4.2137   21.0992 F   0  0  0  0  0  0
  -21.5558   -3.4491   25.7716 F   0  0  0  0  0  0
  -29.9972  -13.4266   20.3436 N   0  0  0  0  0  0
  -26.2941  -12.9228   20.3285 N   0  0  0  0  0  0
  -25.9264  -11.6445   20.5887 N   0  0  0  0  0  0
  -22.0440  -12.8315   22.0347 N   0  0  0  0  0  0
  -25.4331  -15.1866   20.4164 N   0  0  0  0  0  0
  -31.8654  -14.7080   20.2861 O   0  0  0  0  0  0
  -21.6625   -6.8870   21.4227 O   0  0  0  0  0  0
  -22.3544  -14.5549   20.6546 O   0  0  0  0  0  0
  -24.6150  -31.8672   23.2097 C   0  0  0  0  0  0
  -25.9048  -32.4818   23.8367 C   0  0  1  0  0  0
  -27.2164  -27.4200   20.1070 C   0  0  0  0  0  0
  -25.5919  -33.8623   24.2305 N   0  0  0  0  0  0
  -23.3995  -30.4915   21.5546 C   0  0  2  0  0  0
  -24.8411  -28.9595   20.1094 C   0  0  0  0  0  0
  -22.7396  -29.4656   22.5028 C   0  0  0  0  0  0
  -18.0270  -28.1367   22.8496 C   0  0  0  0  0  0
  -24.1497  -36.7300   23.2630 C   0  0  0  0  0  0
  -25.9290  -30.8317   21.3587 C   0  0  0  0  0  0
  -26.0035  -29.4672   20.7040 C   0  0  0  0  0  0
  -27.1970  -28.7068   20.6943 C   0  0  0  0  0  0
  -26.0384  -26.9353   19.4926 C   0  0  0  0  0  0
  -24.8543  -27.6952   19.4982 C   0  0  0  0  0  0
  -23.6005  -29.8232   20.1672 C   0  0  0  0  0  0
  -25.4123  -36.3117   24.0331 C   0  0  1  0  0  0
  -20.5852  -28.3656   23.1338 C   0  0  2  0  0  0
  -20.6771  -26.9398   22.5422 C   0  0  0  0  0  0
  -19.5753  -26.6386   21.5216 C   0  0  0  0  0  0
  -18.1930  -26.7920   22.1626 C   0  0  0  0  0  0
  -19.1510  -28.8833   23.2917 C   0  0  0  0  0  0
  -18.9448  -30.1436   23.8917 C   0  0  0  0  0  0
  -17.6445  -30.6579   24.0565 C   0  0  0  0  0  0
  -25.9044  -34.9481   23.5113 C   0  0  0  0  0  0
  -16.5339  -29.9072   23.6328 C   0  0  0  0  0  0
  -16.7258  -28.6493   23.0360 C   0  0  0  0  0  0
  -26.4467  -31.6612   25.0701 C   0  0  0  0  0  0
  -25.3747  -31.3695   26.1461 C   0  0  0  0  0  0
  -27.0255  -30.3059   24.6042 C   0  0  0  0  0  0
  -27.6040  -32.4321   25.7476 C   0  0  0  0  0  0
  -27.5591  -37.1804   24.8465 C   0  0  0  0  0  0
  -21.4134  -29.3018   22.3754 N   0  0  0  0  0  0
  -26.4305  -37.3806   23.9407 N   0  0  0  0  0  0
  -24.6672  -31.0763   22.1000 N   0  0  0  0  0  0
  -23.4174  -28.8192   23.3063 O   0  0  0  0  0  0
  -28.3665  -26.6540   20.1583 O   0  0  0  0  0  0
  -26.5606  -34.8933   22.4668 O   0  0  0  0  0  0
  -23.5354  -32.1437   23.7492 O   0  0  0  0  0  0
  -31.4917  -20.3921   21.2466 C   0  0  0  0  0  0
  -29.1602  -20.0650   21.8395 C   0  0  0  0  0  0
  -31.5714  -19.0543   20.8037 C   0  0  0  0  0  0
  -29.2490  -18.7121   21.4263 C   0  0  0  0  0  0
  -30.2673  -20.9346   21.6929 C   0  0  0  0  0  0
  -30.4260  -18.2280   20.8000 C   0  0  0  0  0  0
  -30.1773  -22.4157   21.9697 C   0  0  0  0  0  0
  -30.5871  -16.2035   17.5680 C   0  0  0  0  0  0
  -31.2204  -17.2384   18.4908 C   0  0  0  0  0  0
  -29.4545  -15.5992   18.4228 C   0  0  0  0  0  0
  -30.3064  -17.1400   19.7176 C   0  0  1  0  0  0
  -29.4427  -24.5944   21.0122 C   0  0  0  0  0  0
  -28.1706  -25.2469   20.4154 C   0  0  0  0  0  0
  -29.8806  -15.7048   19.8439 N   0  0  0  0  0  0
  -29.3533  -23.1315   21.1854 N   0  0  0  0  0  0
  -30.9292  -22.9387   22.7960 O   0  0  0  0  0  0
  -31.4943  -12.4041   19.2077 H   0  0  0  0  0  0
  -30.3983  -11.3782   20.0884 H   0  0  0  0  0  0
  -29.7163  -11.2306   17.7978 H   0  0  0  0  0  0
  -29.8174  -12.8789   17.4705 H   0  0  0  0  0  0
  -27.7726  -11.2312   18.9247 H   0  0  0  0  0  0
  -27.4197  -12.4773   17.7709 H   0  0  0  0  0  0
  -27.6015  -14.2002   19.4521 H   0  0  0  0  0  0
  -28.7009  -12.1799   21.4553 H   0  0  0  0  0  0
  -28.4686  -13.8915   21.7299 H   0  0  0  0  0  0
  -25.2723   -9.5626   22.4797 H   0  0  0  0  0  0
  -23.9925   -7.4608   22.7468 H   0  0  0  0  0  0
  -21.0808   -8.8875   19.8979 H   0  0  0  0  0  0
  -22.3746  -10.9719   19.6184 H   0  0  0  0  0  0
  -21.2140   -7.6147   23.9721 H   0  0  0  0  0  0
  -21.1360   -6.0486   25.9048 H   0  0  0  0  0  0
  -22.0667   -2.7596   23.2863 H   0  0  0  0  0  0
  -22.4042  -11.9994   22.4772 H   0  0  0  0  0  0
  -21.1074  -13.1414   22.2540 H   0  0  0  0  0  0
  -24.6729  -15.8461   20.5309 H   0  0  0  0  0  0
  -26.2951  -15.6219   20.1158 H   0  0  0  0  0  0
  -26.7117  -32.5508   23.1122 H   0  0  0  0  0  0
  -25.0121  -33.9798   25.0492 H   0  0  0  0  0  0
  -22.6894  -31.3110   21.4189 H   0  0  0  0  0  0
  -23.3771  -35.9618   23.3315 H   0  0  0  0  0  0
  -24.3584  -36.8889   22.2035 H   0  0  0  0  0  0
  -23.7235  -37.6506   23.6630 H   0  0  0  0  0  0
  -26.0389  -31.5990   20.5879 H   0  0  0  0  0  0
  -26.8192  -30.8827   21.9740 H   0  0  0  0  0  0
  -28.0913  -29.0903   21.1669 H   0  0  0  0  0  0
  -26.0199  -25.9691   19.0097 H   0  0  0  0  0  0
  -23.9606  -27.3004   19.0353 H   0  0  0  0  0  0
  -23.6914  -30.5973   19.4041 H   0  0  0  0  0  0
  -22.7231  -29.2370   19.8840 H   0  0  0  0  0  0
  -25.1295  -36.1974   25.0824 H   0  0  0  0  0  0
  -20.9940  -28.3217   24.1460 H   0  0  0  0  0  0
  -20.5702  -26.2243   23.3597 H   0  0  0  0  0  0
  -21.6646  -26.7466   22.1191 H   0  0  0  0  0  0
  -19.6912  -25.6305   21.1231 H   0  0  0  0  0  0
  -19.6691  -27.3215   20.6766 H   0  0  0  0  0  0
  -17.4194  -26.6679   21.4027 H   0  0  0  0  0  0
  -18.0320  -26.0050   22.9011 H   0  0  0  0  0  0
  -19.7924  -30.7253   24.2298 H   0  0  0  0  0  0
  -17.5003  -31.6266   24.5151 H   0  0  0  0  0  0
  -15.5341  -30.2983   23.7648 H   0  0  0  0  0  0
  -15.8668  -28.0816   22.7072 H   0  0  0  0  0  0
  -24.5944  -30.7003   25.7826 H   0  0  0  0  0  0
  -24.8905  -32.2824   26.4938 H   0  0  0  0  0  0
  -25.8133  -30.8877   27.0210 H   0  0  0  0  0  0
  -26.2750  -29.6870   24.1110 H   0  0  0  0  0  0
  -27.4045  -29.7256   25.4464 H   0  0  0  0  0  0
  -27.8594  -30.4392   23.9143 H   0  0  0  0  0  0
  -27.2661  -33.3622   26.2078 H   0  0  0  0  0  0
  -28.3852  -32.6891   25.0302 H   0  0  0  0  0  0
  -28.0710  -31.8427   26.5384 H   0  0  0  0  0  0
  -28.2615  -38.0105   24.7541 H   0  0  0  0  0  0
  -28.1088  -36.2633   24.6268 H   0  0  0  0  0  0
  -27.2299  -37.1421   25.8869 H   0  0  0  0  0  0
  -20.9295  -29.8709   21.6952 H   0  0  0  0  0  0
  -26.0193  -38.2876   24.1439 H   0  0  0  0  0  0
  -32.3507  -21.0376   21.1398 H   0  0  0  0  0  0
  -28.2203  -20.4514   22.2114 H   0  0  0  0  0  0
  -32.4841  -18.7335   20.3221 H   0  0  0  0  0  0
  -28.3536  -18.1055   21.4304 H   0  0  0  0  0  0
  -31.3207  -15.4409   17.3031 H   0  0  0  0  0  0
  -30.2086  -16.6412   16.6430 H   0  0  0  0  0  0
  -31.2063  -18.2335   18.0437 H   0  0  0  0  0  0
  -32.2552  -16.9872   18.7304 H   0  0  0  0  0  0
  -29.1892  -14.6289   18.0695 H   0  0  0  0  0  0
  -28.5230  -16.1453   18.2661 H   0  0  0  0  0  0
  -29.4089  -17.6376   19.3304 H   0  0  0  0  0  0
  -29.6684  -25.0729   21.9664 H   0  0  0  0  0  0
  -30.2908  -24.7984   20.3577 H   0  0  0  0  0  0
  -27.3540  -25.1100   21.1272 H   0  0  0  0  0  0
  -27.8802  -24.7420   19.4918 H   0  0  0  0  0  0
  -28.7750  -22.6147   20.5345 H   0  0  0  0  0  0
  1 25  1  0  0  0
  1 30  2  0  0  0
  1 84  1  0  0  0
  2  3  1  0  0  0
  2 25  1  0  0  0
  2 87  1  0  0  0
  2 88  1  0  0  0
  3  4  1  0  0  0
  3 89  1  0  0  0
  3 90  1  0  0  0
  4  5  1  0  0  0
  4 91  1  0  0  0
  4 92  1  0  0  0
  5  6  1  0  0  0
  5 26  1  0  0  0
  5 93  1  0  0  0
  6 25  1  0  0  0
  6 94  1  0  0  0
  6 95  1  0  0  0
  7  8  2  0  0  0
  7 26  1  0  0  0
  7 29  1  0  0  0
  8  9  1  0  0  0
  8 22  1  0  0  0
  9 10  1  0  0  0
  9 27  2  0  0  0
 10 11  2  0  0  0
 10 15  1  0  0  0
 11 12  1  0  0  0
 11 96  1  0  0  0
 12 13  2  0  0  0
 12 97  1  0  0  0
 13 14  1  0  0  0
 13 31  1  0  0  0
 14 15  2  0  0  0
 14 98  1  0  0  0
 15 99  1  0  0  0
 16 17  2  0  0  0
 16 21  1  0  0  0
 16 31  1  0  0  0
 17 18  1  0  0  0
 17100  1  0  0  0
 18 19  2  0  0  0
 18101  1  0  0  0
 19 20  1  0  0  0
 19 24  1  0  0  0
 20 21  2  0  0  0
 20102  1  0  0  0
 21 23  1  0  0  0
 22 28  1  0  0  0
 22 32  2  0  0  0
 26 27  1  0  0  0
 28103  1  0  0  0
 28104  1  0  0  0
 29105  1  0  0  0
 29106  1  0  0  0
 33 34  1  0  0  0
 33 66  1  0  0  0
 33 70  2  0  0  0
 34 36  1  0  0  0
 34 59  1  0  0  0
 34107  1  0  0  0
 35 44  2  0  0  0
 35 45  1  0  0  0
 35 68  1  0  0  0
 36 56  1  0  0  0
 36108  1  0  0  0
 37 39  1  0  0  0
 37 47  1  0  0  0
 37 66  1  0  0  0
 37109  1  0  0  0
 38 43  2  0  0  0
 38 46  1  0  0  0
 38 47  1  0  0  0
 39 64  1  0  0  0
 39 67  2  0  0  0
 40 52  1  0  0  0
 40 53  2  0  0  0
 40 58  1  0  0  0
 41110  1  0  0  0
 41111  1  0  0  0
 41112  1  0  0  0
 41 48  1  0  0  0
 42 43  1  0  0  0
 42 66  1  0  0  0
 42113  1  0  0  0
 42114  1  0  0  0
 43 44  1  0  0  0
 44115  1  0  0  0
 45 46  2  0  0  0
 45116  1  0  0  0
 46117  1  0  0  0
 47118  1  0  0  0
 47119  1  0  0  0
 48 56  1  0  0  0
 48 65  1  0  0  0
 48120  1  0  0  0
 49 50  1  0  0  0
 49 53  1  0  0  0
 49 64  1  0  0  0
 49121  1  0  0  0
 50 51  1  0  0  0
 50122  1  0  0  0
 50123  1  0  0  0
 51 52  1  0  0  0
 51124  1  0  0  0
 51125  1  0  0  0
 52126  1  0  0  0
 52127  1  0  0  0
 53 54  1  0  0  0
 54 55  2  0  0  0
 54128  1  0  0  0
 55 57  1  0  0  0
 55129  1  0  0  0
 56 69  2  0  0  0
 57 58  2  0  0  0
 57130  1  0  0  0
 58131  1  0  0  0
 59 60  1  0  0  0
 59 61  1  0  0  0
 59 62  1  0  0  0
 60132  1  0  0  0
 60133  1  0  0  0
 60134  1  0  0  0
 61135  1  0  0  0
 61136  1  0  0  0
 61137  1  0  0  0
 62138  1  0  0  0
 62139  1  0  0  0
 62140  1  0  0  0
 63 65  1  0  0  0
 63141  1  0  0  0
 63142  1  0  0  0
 63143  1  0  0  0
 64144  1  0  0  0
 65145  1  0  0  0
 68 83  1  0  0  0
 71 73  2  0  0  0
 71 75  1  0  0  0
 71146  1  0  0  0
 72 74  1  0  0  0
 72 75  2  0  0  0
 72147  1  0  0  0
 73 76  1  0  0  0
 73148  1  0  0  0
 74 76  2  0  0  0
 74149  1  0  0  0
 75 77  1  0  0  0
 76 81  1  0  0  0
 77 85  1  0  0  0
 77 86  2  0  0  0
 78 79  1  0  0  0
 78 80  1  0  0  0
 78150  1  0  0  0
 78151  1  0  0  0
 79 81  1  0  0  0
 79152  1  0  0  0
 79153  1  0  0  0
 80 84  1  0  0  0
 80154  1  0  0  0
 80155  1  0  0  0
 81 84  1  0  0  0
 81156  1  0  0  0
 82 83  1  0  0  0
 82 85  1  0  0  0
 82157  1  0  0  0
 82158  1  0  0  0
 83159  1  0  0  0
 83160  1  0  0  0
 85161  1  0  0  0
M  ISO  4   1 100  68 101  83 101  84 100
M  END
> <chiral flag>
0

> <version>
0

> <s_m_source_file>
/data/baiqing/PycharmProjects/Reinvent-master-3.2/result/LINK_invent/BTK/process_docking_weight1_custom_product_contain_oxygen_bond_distance_aromatic_linkinvent_7_9_3/rearranged_h_0003.sdf

> <i_m_source_file_index>
30

> <r_mmod_Potential_Energy-OPLS-2005>
382.522430419922

> <r_mmod_Stretch_Energy-OPLS-2005>
51.0074119567871

> <r_mmod_Bend_Energy-OPLS-2005>
214.461639404297

> <r_mmod_Torsional_Energy-OPLS-2005>
407.76513671875

> <r_mmod_Improper_Torsional_Energy-OPLS-2005>
25.7457447052002

> <r_mmod_Van_der_Waal_Energy-OPLS-2005>
179.241882324219

> <r_mmod_Electrostatic_Energy-OPLS-2005>
-337.910491943359

> <r_mmod_Solvation_Energy-OPLS-2005>
-224.604675292969

> <b_mmod_Minimization_Converged-OPLS-2005>
0

> <r_mmod_RMS_Derivative-OPLS-2005>
4.63983821868896

$$$$
30
                    3D
 Structure written by MMmdl.
148156  0  0  1  0            999 V2000
  -30.5007  -15.0894   20.3926 C   0  0  0  0  0  0
  -30.4383  -12.6845   19.5107 C   0  0  0  0  0  0
  -29.5259  -12.5454   18.2688 C   0  0  0  0  0  0
  -28.0662  -12.3033   18.6935 C   0  0  0  0  0  0
  -27.6198  -13.2600   19.8290 C   0  0  2  0  0  0
  -28.6590  -13.3603   20.9651 C   0  0  0  0  0  0
  -25.2422  -13.8230   20.5727 C   0  0  0  0  0  0
  -24.1757  -13.0437   20.9245 C   0  0  0  0  0  0
  -24.6392  -11.6927   20.8763 C   0  0  0  0  0  0
  -23.9085  -10.4292   21.0410 C   0  0  0  0  0  0
  -24.3631   -9.4206   21.9186 C   0  0  0  0  0  0
  -23.6302   -8.2242   22.0753 C   0  0  0  0  0  0
  -22.4282   -8.0283   21.3546 C   0  0  0  0  0  0
  -21.9924   -9.0256   20.4646 C   0  0  0  0  0  0
  -22.7258  -10.2133   20.3057 C   0  0  0  0  0  0
  -21.6854   -6.0738   22.5281 C   0  0  0  0  0  0
  -21.4015   -6.5642   23.8214 C   0  0  0  0  0  0
  -21.3660   -5.6795   24.9176 C   0  0  0  0  0  0
  -21.6043   -4.3057   24.7226 C   0  0  0  0  0  0
  -21.8819   -3.8148   23.4347 C   0  0  0  0  0  0
  -21.9193   -4.6966   22.3404 C   0  0  0  0  0  0
  -22.7777  -13.5197   21.1899 C   0  0  0  0  0  0
  -22.1662   -4.2151   21.0982 F   0  0  0  0  0  0
  -21.5628   -3.4540   25.7738 F   0  0  0  0  0  0
  -29.9148  -13.8108   20.3502 N   0  0  0  0  0  0
  -26.2845  -12.9479   20.3225 N   0  0  0  0  0  0
  -25.9325  -11.6599   20.5733 N   0  0  0  0  0  0
  -22.0435  -12.8177   22.0453 N   0  0  0  0  0  0
  -25.4067  -15.1961   20.4149 N   0  0  0  0  0  0
  -31.7153  -15.1162   20.1605 O   0  0  0  0  0  0
  -21.6645   -6.8881   21.4241 O   0  0  0  0  0  0
  -22.3458  -14.5500   20.6744 O   0  0  0  0  0  0
  -24.6528  -31.8342   23.1797 C   0  0  0  0  0  0
  -25.9255  -32.4646   23.8221 C   0  0  1  0  0  0
  -27.2164  -27.0368   20.1678 C   0  0  0  0  0  0
  -25.5969  -33.8456   24.2135 N   0  0  0  0  0  0
  -23.4621  -30.4502   21.5269 C   0  0  2  0  0  0
  -24.9139  -28.8596   20.1103 C   0  0  0  0  0  0
  -22.7617  -29.4499   22.4820 C   0  0  0  0  0  0
  -18.0314  -28.1404   22.8475 C   0  0  0  0  0  0
  -24.1490  -36.7229   23.2646 C   0  0  0  0  0  0
  -26.0247  -30.6770   21.3935 C   0  0  0  0  0  0
  -26.0947  -29.2779   20.7368 C   0  0  0  0  0  0
  -27.2445  -28.3847   20.7451 C   0  0  0  0  0  0
  -26.0085  -26.7464   19.4953 C   0  0  0  0  0  0
  -24.8899  -27.6111   19.4712 C   0  0  0  0  0  0
  -23.6947  -29.7733   20.1493 C   0  0  0  0  0  0
  -25.4125  -36.3002   24.0311 C   0  0  1  0  0  0
  -20.5933  -28.3740   23.1213 C   0  0  2  0  0  0
  -20.6795  -26.9432   22.5403 C   0  0  0  0  0  0
  -19.5767  -26.6381   21.5215 C   0  0  0  0  0  0
  -18.1948  -26.7942   22.1624 C   0  0  0  0  0  0
  -19.1574  -28.8890   23.2834 C   0  0  0  0  0  0
  -18.9487  -30.1483   23.8864 C   0  0  0  0  0  0
  -17.6483  -30.6598   24.0557 C   0  0  0  0  0  0
  -25.9083  -34.9383   23.5035 C   0  0  0  0  0  0
  -16.5371  -29.9087   23.6345 C   0  0  0  0  0  0
  -16.7297  -28.6506   23.0365 C   0  0  0  0  0  0
  -26.4546  -31.6553   25.0706 C   0  0  0  0  0  0
  -25.3703  -31.3774   26.1383 C   0  0  0  0  0  0
  -27.0432  -30.2938   24.6361 C   0  0  0  0  0  0
  -27.6055  -32.4343   25.7500 C   0  0  0  0  0  0
  -27.5569  -37.1771   24.8468 C   0  0  0  0  0  0
  -21.4297  -29.3048   22.3571 N   0  0  0  0  0  0
  -26.4280  -37.3725   23.9412 N   0  0  0  0  0  0
  -24.7338  -31.0110   22.0879 N   0  0  0  0  0  0
  -23.4214  -28.8057   23.3016 O   0  0  0  0  0  0
  -28.2341  -25.9839   20.2466 O   0  0  0  0  0  0
  -26.5677  -34.8901   22.4620 O   0  0  0  0  0  0
  -23.5623  -32.1262   23.6959 O   0  0  0  0  0  0
  -28.9647  -23.1261   20.3820 C   0  0  0  0  0  0
  -29.4122  -20.6465   19.3925 C   0  0  0  0  0  0
  -29.0660  -20.5928   21.3265 C   0  0  0  0  0  0
  -29.1325  -19.3355   20.3071 C   0  0  0  0  0  0
  -27.9091  -24.4235   20.0659 C   0  0  0  0  0  0
  -30.1235  -17.8993   20.4093 C   0  0  0  0  0  0
  -28.6749  -21.6275   20.2837 N   0  0  0  0  0  0
  -29.7399  -16.3226   20.4872 N   0  0  0  0  0  0
  -30.0872  -23.4347   20.7879 O   0  0  0  0  0  0
  -31.4664  -12.8600   19.1907 H   0  0  0  0  0  0
  -30.4618  -11.7548   20.0818 H   0  0  0  0  0  0
  -29.8720  -11.7309   17.6310 H   0  0  0  0  0  0
  -29.5863  -13.4539   17.6674 H   0  0  0  0  0  0
  -27.9925  -11.2703   19.0359 H   0  0  0  0  0  0
  -27.3984  -12.3884   17.8354 H   0  0  0  0  0  0
  -27.5596  -14.2451   19.3648 H   0  0  0  0  0  0
  -28.7825  -12.4056   21.4783 H   0  0  0  0  0  0
  -28.3326  -14.0795   21.7182 H   0  0  0  0  0  0
  -25.2773   -9.5681   22.4767 H   0  0  0  0  0  0
  -24.0010   -7.4631   22.7472 H   0  0  0  0  0  0
  -21.0856   -8.8778   19.8949 H   0  0  0  0  0  0
  -22.3717  -10.9673   19.6169 H   0  0  0  0  0  0
  -21.2008   -7.6151   23.9718 H   0  0  0  0  0  0
  -21.1481   -6.0525   25.9079 H   0  0  0  0  0  0
  -22.0596   -2.7610   23.2847 H   0  0  0  0  0  0
  -22.4068  -11.9843   22.4837 H   0  0  0  0  0  0
  -21.1048  -13.1181   22.2663 H   0  0  0  0  0  0
  -24.6342  -15.8444   20.5239 H   0  0  0  0  0  0
  -26.2449  -15.6374   20.0598 H   0  0  0  0  0  0
  -26.7322  -32.5221   23.0942 H   0  0  0  0  0  0
  -25.0098  -33.9555   25.0273 H   0  0  0  0  0  0
  -22.7704  -31.2795   21.3647 H   0  0  0  0  0  0
  -23.3763  -35.9549   23.3287 H   0  0  0  0  0  0
  -24.3572  -36.8886   22.2064 H   0  0  0  0  0  0
  -23.7235  -37.6413   23.6703 H   0  0  0  0  0  0
  -26.1918  -31.4255   20.6176 H   0  0  0  0  0  0
  -26.8898  -30.7309   22.0426 H   0  0  0  0  0  0
  -28.1397  -28.6996   21.2630 H   0  0  0  0  0  0
  -25.8917  -25.7937   19.0015 H   0  0  0  0  0  0
  -23.9915  -27.2865   18.9645 H   0  0  0  0  0  0
  -23.8393  -30.5449   19.3922 H   0  0  0  0  0  0
  -22.8074  -29.2204   19.8354 H   0  0  0  0  0  0
  -25.1320  -36.1811   25.0803 H   0  0  0  0  0  0
  -21.0024  -28.3334   24.1335 H   0  0  0  0  0  0
  -20.5686  -26.2355   23.3632 H   0  0  0  0  0  0
  -21.6658  -26.7426   22.1200 H   0  0  0  0  0  0
  -19.6928  -25.6284   21.1266 H   0  0  0  0  0  0
  -19.6702  -27.3173   20.6731 H   0  0  0  0  0  0
  -17.4217  -26.6690   21.4026 H   0  0  0  0  0  0
  -18.0341  -26.0091   22.9026 H   0  0  0  0  0  0
  -19.7961  -30.7309   24.2219 H   0  0  0  0  0  0
  -17.5034  -31.6277   24.5160 H   0  0  0  0  0  0
  -15.5369  -30.2976   23.7693 H   0  0  0  0  0  0
  -15.8697  -28.0811   22.7102 H   0  0  0  0  0  0
  -24.5895  -30.7111   25.7700 H   0  0  0  0  0  0
  -24.8881  -32.2968   26.4713 H   0  0  0  0  0  0
  -25.7960  -30.9009   27.0222 H   0  0  0  0  0  0
  -26.3078  -29.6635   24.1349 H   0  0  0  0  0  0
  -27.3991  -29.7271   25.4975 H   0  0  0  0  0  0
  -27.9006  -30.4153   23.9739 H   0  0  0  0  0  0
  -27.2636  -33.3682   26.1973 H   0  0  0  0  0  0
  -28.3919  -32.6838   25.0366 H   0  0  0  0  0  0
  -28.0663  -31.8538   26.5503 H   0  0  0  0  0  0
  -28.2574  -38.0078   24.7512 H   0  0  0  0  0  0
  -28.1074  -36.2606   24.6293 H   0  0  0  0  0  0
  -27.2288  -37.1411   25.8871 H   0  0  0  0  0  0
  -20.9529  -29.8750   21.6725 H   0  0  0  0  0  0
  -26.0136  -38.2787   24.1418 H   0  0  0  0  0  0
  -28.9784  -20.5735   18.3941 H   0  0  0  0  0  0
  -30.4767  -20.8854   19.3098 H   0  0  0  0  0  0
  -30.0324  -20.8124   21.7891 H   0  0  0  0  0  0
  -28.3101  -20.4734   22.1042 H   0  0  0  0  0  0
  -28.1069  -19.0246   20.1033 H   0  0  0  0  0  0
  -27.0154  -24.2223   20.6568 H   0  0  0  0  0  0
  -27.6060  -24.2889   19.0278 H   0  0  0  0  0  0
  -30.7865  -18.0445   21.2628 H   0  0  0  0  0  0
  -30.8057  -17.9456   19.5598 H   0  0  0  0  0  0
  -28.7537  -16.1561   20.6228 H   0  0  0  0  0  0
  1 25  1  0  0  0
  1 30  2  0  0  0
  1 78  1  0  0  0
  2  3  1  0  0  0
  2 25  1  0  0  0
  2 80  1  0  0  0
  2 81  1  0  0  0
  3  4  1  0  0  0
  3 82  1  0  0  0
  3 83  1  0  0  0
  4  5  1  0  0  0
  4 84  1  0  0  0
  4 85  1  0  0  0
  5  6  1  0  0  0
  5 26  1  0  0  0
  5 86  1  0  0  0
  6 25  1  0  0  0
  6 87  1  0  0  0
  6 88  1  0  0  0
  7  8  2  0  0  0
  7 26  1  0  0  0
  7 29  1  0  0  0
  8  9  1  0  0  0
  8 22  1  0  0  0
  9 10  1  0  0  0
  9 27  2  0  0  0
 10 11  2  0  0  0
 10 15  1  0  0  0
 11 12  1  0  0  0
 11 89  1  0  0  0
 12 13  2  0  0  0
 12 90  1  0  0  0
 13 14  1  0  0  0
 13 31  1  0  0  0
 14 15  2  0  0  0
 14 91  1  0  0  0
 15 92  1  0  0  0
 16 17  2  0  0  0
 16 21  1  0  0  0
 16 31  1  0  0  0
 17 18  1  0  0  0
 17 93  1  0  0  0
 18 19  2  0  0  0
 18 94  1  0  0  0
 19 20  1  0  0  0
 19 24  1  0  0  0
 20 21  2  0  0  0
 20 95  1  0  0  0
 21 23  1  0  0  0
 22 28  1  0  0  0
 22 32  2  0  0  0
 26 27  1  0  0  0
 28 96  1  0  0  0
 28 97  1  0  0  0
 29 98  1  0  0  0
 29 99  1  0  0  0
 33 34  1  0  0  0
 33 66  1  0  0  0
 33 70  2  0  0  0
 34 36  1  0  0  0
 34 59  1  0  0  0
 34100  1  0  0  0
 35 44  2  0  0  0
 35 45  1  0  0  0
 35 68  1  0  0  0
 36 56  1  0  0  0
 36101  1  0  0  0
 37 39  1  0  0  0
 37 47  1  0  0  0
 37 66  1  0  0  0
 37102  1  0  0  0
 38 43  2  0  0  0
 38 46  1  0  0  0
 38 47  1  0  0  0
 39 64  1  0  0  0
 39 67  2  0  0  0
 40 52  1  0  0  0
 40 53  2  0  0  0
 40 58  1  0  0  0
 41103  1  0  0  0
 41104  1  0  0  0
 41105  1  0  0  0
 41 48  1  0  0  0
 42 43  1  0  0  0
 42 66  1  0  0  0
 42106  1  0  0  0
 42107  1  0  0  0
 43 44  1  0  0  0
 44108  1  0  0  0
 45 46  2  0  0  0
 45109  1  0  0  0
 46110  1  0  0  0
 47111  1  0  0  0
 47112  1  0  0  0
 48 56  1  0  0  0
 48 65  1  0  0  0
 48113  1  0  0  0
 49 50  1  0  0  0
 49 53  1  0  0  0
 49 64  1  0  0  0
 49114  1  0  0  0
 50 51  1  0  0  0
 50115  1  0  0  0
 50116  1  0  0  0
 51 52  1  0  0  0
 51117  1  0  0  0
 51118  1  0  0  0
 52119  1  0  0  0
 52120  1  0  0  0
 53 54  1  0  0  0
 54 55  2  0  0  0
 54121  1  0  0  0
 55 57  1  0  0  0
 55122  1  0  0  0
 56 69  2  0  0  0
 57 58  2  0  0  0
 57123  1  0  0  0
 58124  1  0  0  0
 59 60  1  0  0  0
 59 61  1  0  0  0
 59 62  1  0  0  0
 60125  1  0  0  0
 60126  1  0  0  0
 60127  1  0  0  0
 61128  1  0  0  0
 61129  1  0  0  0
 61130  1  0  0  0
 62131  1  0  0  0
 62132  1  0  0  0
 62133  1  0  0  0
 63 65  1  0  0  0
 63134  1  0  0  0
 63135  1  0  0  0
 63136  1  0  0  0
 64137  1  0  0  0
 65138  1  0  0  0
 68 75  1  0  0  0
 71 75  1  0  0  0
 71 77  1  0  0  0
 71 79  2  0  0  0
 72 74  1  0  0  0
 72 77  1  0  0  0
 72139  1  0  0  0
 72140  1  0  0  0
 73 74  1  0  0  0
 73 77  1  0  0  0
 73141  1  0  0  0
 73142  1  0  0  0
 74 76  1  0  0  0
 74143  1  0  0  0
 75144  1  0  0  0
 75145  1  0  0  0
 76 78  1  0  0  0
 76146  1  0  0  0
 76147  1  0  0  0
 78148  1  0  0  0
M  ISO  4   1 100  68 101  75 101  78 100
M  END
> <chiral flag>
0

> <version>
0

> <s_m_source_file>
/data/baiqing/PycharmProjects/Reinvent-master-3.2/result/LINK_invent/BTK/process_docking_weight1_custom_product_contain_oxygen_bond_distance_aromatic_linkinvent_7_9_3/rearranged_h_0003.sdf

> <i_m_source_file_index>
31

> <r_mmod_Potential_Energy-OPLS-2005>
788.438415527344

> <r_mmod_Stretch_Energy-OPLS-2005>
375.915496826172

> <r_mmod_Bend_Energy-OPLS-2005>
340.596984863281

> <r_mmod_Torsional_Energy-OPLS-2005>
247.917724609375

> <r_mmod_Improper_Torsional_Energy-OPLS-2005>
12.2386665344238

> <r_mmod_Van_der_Waal_Energy-OPLS-2005>
113.696243286133

> <r_mmod_Electrostatic_Energy-OPLS-2005>
-346.746185302734

> <r_mmod_Solvation_Energy-OPLS-2005>
-257.007476806641

> <b_mmod_Minimization_Converged-OPLS-2005>
0

> <r_mmod_RMS_Derivative-OPLS-2005>
0.458363473415375

$$$$
31
                    3D
 Structure written by MMmdl.
153161  0  0  1  0            999 V2000
  -30.6230  -14.7093   20.4538 C   0  0  0  0  0  0
  -30.4295  -12.4264   19.4820 C   0  0  0  0  0  0
  -29.5136  -12.5061   18.2404 C   0  0  0  0  0  0
  -28.0368  -12.3397   18.6473 C   0  0  0  0  0  0
  -27.6463  -13.2317   19.8565 C   0  0  2  0  0  0
  -28.6877  -13.1482   20.9955 C   0  0  0  0  0  0
  -25.2522  -13.8203   20.5694 C   0  0  0  0  0  0
  -24.1808  -13.0447   20.9199 C   0  0  0  0  0  0
  -24.6400  -11.6925   20.8744 C   0  0  0  0  0  0
  -23.9076  -10.4299   21.0406 C   0  0  0  0  0  0
  -24.3627   -9.4213   21.9180 C   0  0  0  0  0  0
  -23.6300   -8.2246   22.0753 C   0  0  0  0  0  0
  -22.4279   -8.0286   21.3547 C   0  0  0  0  0  0
  -21.9917   -9.0259   20.4649 C   0  0  0  0  0  0
  -22.7250  -10.2137   20.3057 C   0  0  0  0  0  0
  -21.6852   -6.0742   22.5280 C   0  0  0  0  0  0
  -21.4014   -6.5645   23.8216 C   0  0  0  0  0  0
  -21.3661   -5.6794   24.9176 C   0  0  0  0  0  0
  -21.6042   -4.3057   24.7225 C   0  0  0  0  0  0
  -21.8818   -3.8150   23.4344 C   0  0  0  0  0  0
  -21.9192   -4.6969   22.3402 C   0  0  0  0  0  0
  -22.7827  -13.5227   21.1857 C   0  0  0  0  0  0
  -22.1659   -4.2158   21.0978 F   0  0  0  0  0  0
  -21.5633   -3.4539   25.7737 F   0  0  0  0  0  0
  -29.9978  -13.4844   20.4244 N   0  0  0  0  0  0
  -26.2957  -12.9412   20.3296 N   0  0  0  0  0  0
  -25.9334  -11.6550   20.5751 N   0  0  0  0  0  0
  -22.0471  -12.8224   22.0416 N   0  0  0  0  0  0
  -25.4220  -15.1925   20.4121 N   0  0  0  0  0  0
  -31.8025  -14.8032   20.1005 O   0  0  0  0  0  0
  -21.6643   -6.8882   21.4241 O   0  0  0  0  0  0
  -22.3512  -14.5532   20.6702 O   0  0  0  0  0  0
  -24.6296  -31.8572   23.2004 C   0  0  0  0  0  0
  -25.9128  -32.4764   23.8349 C   0  0  1  0  0  0
  -27.2168  -27.2748   20.1254 C   0  0  0  0  0  0
  -25.5927  -33.8566   24.2270 N   0  0  0  0  0  0
  -23.4253  -30.4813   21.5433 C   0  0  2  0  0  0
  -24.8725  -28.9342   20.1080 C   0  0  0  0  0  0
  -22.7499  -29.4606   22.4909 C   0  0  0  0  0  0
  -18.0293  -28.1383   22.8480 C   0  0  0  0  0  0
  -24.1490  -36.7290   23.2638 C   0  0  0  0  0  0
  -25.9709  -30.7731   21.3805 C   0  0  0  0  0  0
  -26.0425  -29.3972   20.7226 C   0  0  0  0  0  0
  -27.2157  -28.5783   20.7251 C   0  0  0  0  0  0
  -26.0286  -26.8901   19.4605 C   0  0  0  0  0  0
  -24.8703  -27.6881   19.4665 C   0  0  0  0  0  0
  -23.6430  -29.8190   20.1579 C   0  0  0  0  0  0
  -25.4114  -36.3074   24.0327 C   0  0  1  0  0  0
  -20.5896  -28.3694   23.1264 C   0  0  2  0  0  0
  -20.6777  -26.9409   22.5403 C   0  0  0  0  0  0
  -19.5751  -26.6379   21.5207 C   0  0  0  0  0  0
  -18.1933  -26.7923   22.1623 C   0  0  0  0  0  0
  -19.1546  -28.8856   23.2868 C   0  0  0  0  0  0
  -18.9467  -30.1457   23.8886 C   0  0  0  0  0  0
  -17.6465  -30.6582   24.0561 C   0  0  0  0  0  0
  -25.9054  -34.9444   23.5100 C   0  0  0  0  0  0
  -16.5357  -29.9080   23.6327 C   0  0  0  0  0  0
  -16.7279  -28.6499   23.0346 C   0  0  0  0  0  0
  -26.4502  -31.6580   25.0730 C   0  0  0  0  0  0
  -25.3727  -31.3728   26.1452 C   0  0  0  0  0  0
  -27.0351  -30.2997   24.6211 C   0  0  0  0  0  0
  -27.6056  -32.4321   25.7503 C   0  0  0  0  0  0
  -27.5578  -37.1799   24.8464 C   0  0  0  0  0  0
  -21.4207  -29.3045   22.3658 N   0  0  0  0  0  0
  -26.4290  -37.3769   23.9407 N   0  0  0  0  0  0
  -24.6941  -31.0553   22.0973 N   0  0  0  0  0  0
  -23.4208  -28.8135   23.2991 O   0  0  0  0  0  0
  -28.3083  -26.3795   20.2115 O   0  0  0  0  0  0
  -26.5627  -34.8913   22.4671 O   0  0  0  0  0  0
  -23.5448  -32.1388   23.7302 O   0  0  0  0  0  0
  -30.6261  -18.6052   18.2261 C   0  0  0  0  0  0
  -30.2299  -19.7864   18.8820 C   0  0  0  0  0  0
  -30.5183  -17.3463   18.8492 C   0  0  0  0  0  0
  -29.5692  -18.4390   20.8022 C   0  0  0  0  0  0
  -29.6894  -19.7538   20.1847 C   0  0  0  0  0  0
  -30.0014  -17.2070   20.1580 C   0  0  0  0  0  0
  -29.3864  -21.1440   20.8984 C   0  0  0  0  0  0
  -29.0084  -23.7628   20.5921 C   0  0  0  0  0  0
  -28.0897  -24.9168   19.9405 C   0  0  0  0  0  0
  -29.8715  -15.8427   20.7257 N   0  0  0  0  0  0
  -28.8066  -22.3154   20.0979 N   0  3  0  0  0  0
  -31.4748  -12.5329   19.1863 H   0  0  0  0  0  0
  -30.3548  -11.4459   19.9548 H   0  0  0  0  0  0
  -29.7915  -11.7397   17.5161 H   0  0  0  0  0  0
  -29.6527  -13.4654   17.7391 H   0  0  0  0  0  0
  -27.8820  -11.2896   18.8981 H   0  0  0  0  0  0
  -27.3853  -12.5473   17.7977 H   0  0  0  0  0  0
  -27.6485  -14.2575   19.4864 H   0  0  0  0  0  0
  -28.7091  -12.1482   21.4308 H   0  0  0  0  0  0
  -28.4274  -13.8273   21.8084 H   0  0  0  0  0  0
  -25.2774   -9.5691   22.4753 H   0  0  0  0  0  0
  -24.0018   -7.4637   22.7468 H   0  0  0  0  0  0
  -21.0851   -8.8776   19.8953 H   0  0  0  0  0  0
  -22.3707  -10.9673   19.6166 H   0  0  0  0  0  0
  -21.2004   -7.6150   23.9722 H   0  0  0  0  0  0
  -21.1486   -6.0523   25.9080 H   0  0  0  0  0  0
  -22.0595   -2.7614   23.2838 H   0  0  0  0  0  0
  -22.4088  -11.9896   22.4827 H   0  0  0  0  0  0
  -21.1081  -13.1241   22.2602 H   0  0  0  0  0  0
  -24.6553  -15.8469   20.5236 H   0  0  0  0  0  0
  -26.2723  -15.6322   20.0829 H   0  0  0  0  0  0
  -26.7193  -32.5421   23.1092 H   0  0  0  0  0  0
  -25.0068  -33.9712   25.0411 H   0  0  0  0  0  0
  -22.7200  -31.3023   21.3995 H   0  0  0  0  0  0
  -23.3749  -35.9626   23.3299 H   0  0  0  0  0  0
  -24.3579  -36.8917   22.2053 H   0  0  0  0  0  0
  -23.7254  -37.6493   23.6667 H   0  0  0  0  0  0
  -26.1113  -31.5324   20.6099 H   0  0  0  0  0  0
  -26.8484  -30.8207   22.0137 H   0  0  0  0  0  0
  -28.1073  -28.9240   21.2295 H   0  0  0  0  0  0
  -25.9565  -25.9505   18.9342 H   0  0  0  0  0  0
  -23.9781  -27.3336   18.9688 H   0  0  0  0  0  0
  -23.7671  -30.5971   19.4039 H   0  0  0  0  0  0
  -22.7617  -29.2523   19.8521 H   0  0  0  0  0  0
  -25.1295  -36.1922   25.0818 H   0  0  0  0  0  0
  -20.9992  -28.3274   24.1385 H   0  0  0  0  0  0
  -20.5667  -26.2308   23.3612 H   0  0  0  0  0  0
  -21.6646  -26.7425   22.1204 H   0  0  0  0  0  0
  -19.6910  -25.6290   21.1240 H   0  0  0  0  0  0
  -19.6684  -27.3189   20.6736 H   0  0  0  0  0  0
  -17.4199  -26.6666   21.4030 H   0  0  0  0  0  0
  -18.0334  -26.0071   22.9027 H   0  0  0  0  0  0
  -19.7944  -30.7275   24.2249 H   0  0  0  0  0  0
  -17.5019  -31.6259   24.5167 H   0  0  0  0  0  0
  -15.5355  -30.2977   23.7654 H   0  0  0  0  0  0
  -15.8681  -28.0816   22.7060 H   0  0  0  0  0  0
  -24.5902  -30.7077   25.7781 H   0  0  0  0  0  0
  -24.8920  -32.2898   26.4869 H   0  0  0  0  0  0
  -25.8044  -30.8910   27.0235 H   0  0  0  0  0  0
  -26.2937  -29.6739   24.1229 H   0  0  0  0  0  0
  -27.4032  -29.7262   25.4728 H   0  0  0  0  0  0
  -27.8816  -30.4275   23.9459 H   0  0  0  0  0  0
  -27.2663  -33.3624   26.2072 H   0  0  0  0  0  0
  -28.3871  -32.6874   25.0334 H   0  0  0  0  0  0
  -28.0721  -31.8454   26.5429 H   0  0  0  0  0  0
  -28.2590  -38.0098   24.7503 H   0  0  0  0  0  0
  -28.1077  -36.2628   24.6296 H   0  0  0  0  0  0
  -27.2293  -37.1457   25.8866 H   0  0  0  0  0  0
  -20.9383  -29.8794   21.6891 H   0  0  0  0  0  0
  -26.0167  -38.2844   24.1400 H   0  0  0  0  0  0
  -31.0326  -18.6655   17.2258 H   0  0  0  0  0  0
  -30.3700  -20.7284   18.3703 H   0  0  0  0  0  0
  -30.8343  -16.4789   18.2871 H   0  0  0  0  0  0
  -29.1690  -18.3820   21.8051 H   0  0  0  0  0  0
  -30.3351  -21.4785   21.3194 H   0  0  0  0  0  0
  -28.7356  -20.9626   21.7546 H   0  0  0  0  0  0
  -28.8490  -23.7787   21.6703 H   0  0  0  0  0  0
  -30.0570  -24.0215   20.4411 H   0  0  0  0  0  0
  -27.0775  -24.6537   20.2475 H   0  0  0  0  0  0
  -28.1175  -24.8000   18.8566 H   0  0  0  0  0  0
  -29.0115  -15.6658   21.2230 H   0  0  0  0  0  0
  -27.8192  -22.1326   20.0145 H   0  0  0  0  0  0
  -29.1856  -22.2601   19.1672 H   0  0  0  0  0  0
  1 25  1  0  0  0
  1 30  2  0  0  0
  1 80  1  0  0  0
  2  3  1  0  0  0
  2 25  1  0  0  0
  2 82  1  0  0  0
  2 83  1  0  0  0
  3  4  1  0  0  0
  3 84  1  0  0  0
  3 85  1  0  0  0
  4  5  1  0  0  0
  4 86  1  0  0  0
  4 87  1  0  0  0
  5  6  1  0  0  0
  5 26  1  0  0  0
  5 88  1  0  0  0
  6 25  1  0  0  0
  6 89  1  0  0  0
  6 90  1  0  0  0
  7  8  2  0  0  0
  7 26  1  0  0  0
  7 29  1  0  0  0
  8  9  1  0  0  0
  8 22  1  0  0  0
  9 10  1  0  0  0
  9 27  2  0  0  0
 10 11  2  0  0  0
 10 15  1  0  0  0
 11 12  1  0  0  0
 11 91  1  0  0  0
 12 13  2  0  0  0
 12 92  1  0  0  0
 13 14  1  0  0  0
 13 31  1  0  0  0
 14 15  2  0  0  0
 14 93  1  0  0  0
 15 94  1  0  0  0
 16 17  2  0  0  0
 16 21  1  0  0  0
 16 31  1  0  0  0
 17 18  1  0  0  0
 17 95  1  0  0  0
 18 19  2  0  0  0
 18 96  1  0  0  0
 19 20  1  0  0  0
 19 24  1  0  0  0
 20 21  2  0  0  0
 20 97  1  0  0  0
 21 23  1  0  0  0
 22 28  1  0  0  0
 22 32  2  0  0  0
 26 27  1  0  0  0
 28 98  1  0  0  0
 28 99  1  0  0  0
 29100  1  0  0  0
 29101  1  0  0  0
 33 34  1  0  0  0
 33 66  1  0  0  0
 33 70  2  0  0  0
 34 36  1  0  0  0
 34 59  1  0  0  0
 34102  1  0  0  0
 35 44  2  0  0  0
 35 45  1  0  0  0
 35 68  1  0  0  0
 36 56  1  0  0  0
 36103  1  0  0  0
 37 39  1  0  0  0
 37 47  1  0  0  0
 37 66  1  0  0  0
 37104  1  0  0  0
 38 43  2  0  0  0
 38 46  1  0  0  0
 38 47  1  0  0  0
 39 64  1  0  0  0
 39 67  2  0  0  0
 40 52  1  0  0  0
 40 53  2  0  0  0
 40 58  1  0  0  0
 41105  1  0  0  0
 41106  1  0  0  0
 41107  1  0  0  0
 41 48  1  0  0  0
 42 43  1  0  0  0
 42 66  1  0  0  0
 42108  1  0  0  0
 42109  1  0  0  0
 43 44  1  0  0  0
 44110  1  0  0  0
 45 46  2  0  0  0
 45111  1  0  0  0
 46112  1  0  0  0
 47113  1  0  0  0
 47114  1  0  0  0
 48 56  1  0  0  0
 48 65  1  0  0  0
 48115  1  0  0  0
 49 50  1  0  0  0
 49 53  1  0  0  0
 49 64  1  0  0  0
 49116  1  0  0  0
 50 51  1  0  0  0
 50117  1  0  0  0
 50118  1  0  0  0
 51 52  1  0  0  0
 51119  1  0  0  0
 51120  1  0  0  0
 52121  1  0  0  0
 52122  1  0  0  0
 53 54  1  0  0  0
 54 55  2  0  0  0
 54123  1  0  0  0
 55 57  1  0  0  0
 55124  1  0  0  0
 56 69  2  0  0  0
 57 58  2  0  0  0
 57125  1  0  0  0
 58126  1  0  0  0
 59 60  1  0  0  0
 59 61  1  0  0  0
 59 62  1  0  0  0
 60127  1  0  0  0
 60128  1  0  0  0
 60129  1  0  0  0
 61130  1  0  0  0
 61131  1  0  0  0
 61132  1  0  0  0
 62133  1  0  0  0
 62134  1  0  0  0
 62135  1  0  0  0
 63 65  1  0  0  0
 63136  1  0  0  0
 63137  1  0  0  0
 63138  1  0  0  0
 64139  1  0  0  0
 65140  1  0  0  0
 68 79  1  0  0  0
 71 72  2  0  0  0
 71 73  1  0  0  0
 71141  1  0  0  0
 72 75  1  0  0  0
 72142  1  0  0  0
 73 76  2  0  0  0
 73143  1  0  0  0
 74 75  2  0  0  0
 74 76  1  0  0  0
 74144  1  0  0  0
 75 77  1  0  0  0
 76 80  1  0  0  0
 77 81  1  0  0  0
 77145  1  0  0  0
 77146  1  0  0  0
 78 79  1  0  0  0
 78 81  1  0  0  0
 78147  1  0  0  0
 78148  1  0  0  0
 79149  1  0  0  0
 79150  1  0  0  0
 80151  1  0  0  0
 81152  1  0  0  0
 81153  1  0  0  0
M  CHG  1  81   1
M  ISO  4   1 100  68 101  79 101  80 100
M  END
> <chiral flag>
0

> <version>
0

> <s_m_source_file>
/data/baiqing/PycharmProjects/Reinvent-master-3.2/result/LINK_invent/BTK/process_docking_weight1_custom_product_contain_oxygen_bond_distance_aromatic_linkinvent_7_9_3/rearranged_h_0003.sdf

> <i_m_source_file_index>
32

> <r_mmod_Potential_Energy-OPLS-2005>
-34.7456741333008

> <r_mmod_Stretch_Energy-OPLS-2005>
112.539047241211

> <r_mmod_Bend_Energy-OPLS-2005>
147.294815063477

> <r_mmod_Torsional_Energy-OPLS-2005>
227.704132080078

> <r_mmod_Improper_Torsional_Energy-OPLS-2005>
4.58505725860596

> <r_mmod_Van_der_Waal_Energy-OPLS-2005>
142.705841064453

> <r_mmod_Electrostatic_Energy-OPLS-2005>
-269.937713623047

> <r_mmod_Solvation_Energy-OPLS-2005>
-475.085266113281

> <b_mmod_Minimization_Converged-OPLS-2005>
0

> <r_mmod_RMS_Derivative-OPLS-2005>
0.710408389568329

$$$$
32
                    3D
 Structure written by MMmdl.
141149  0  0  1  0            999 V2000
  -30.1000  -16.1294   20.2910 C   0  0  0  0  0  0
  -30.3824  -13.4562   19.5426 C   0  0  0  0  0  0
  -29.5680  -12.7947   18.3756 C   0  0  0  0  0  0
  -28.1851  -12.3266   18.8423 C   0  0  0  0  0  0
  -27.5826  -13.3607   19.8110 C   0  0  2  0  0  0
  -28.5625  -13.8932   20.8983 C   0  0  0  0  0  0
  -25.2248  -13.8357   20.5865 C   0  0  0  0  0  0
  -24.1690  -13.0438   20.9320 C   0  0  0  0  0  0
  -24.6465  -11.6973   20.8758 C   0  0  0  0  0  0
  -23.9173  -10.4299   21.0375 C   0  0  0  0  0  0
  -24.3687   -9.4210   21.9168 C   0  0  0  0  0  0
  -23.6333   -8.2258   22.0751 C   0  0  0  0  0  0
  -22.4311   -8.0299   21.3544 C   0  0  0  0  0  0
  -21.9969   -9.0277   20.4640 C   0  0  0  0  0  0
  -22.7328  -10.2140   20.3037 C   0  0  0  0  0  0
  -21.6866   -6.0749   22.5278 C   0  0  0  0  0  0
  -21.4024   -6.5647   23.8213 C   0  0  0  0  0  0
  -21.3663   -5.6797   24.9173 C   0  0  0  0  0  0
  -21.6044   -4.3059   24.7221 C   0  0  0  0  0  0
  -21.8818   -3.8154   23.4341 C   0  0  0  0  0  0
  -21.9196   -4.6974   22.3399 C   0  0  0  0  0  0
  -22.7688  -13.5127   21.1936 C   0  0  0  0  0  0
  -22.1662   -4.2159   21.0976 F   0  0  0  0  0  0
  -21.5627   -3.4541   25.7733 F   0  0  0  0  0  0
  -29.6519  -14.6717   20.2146 N   0  0  0  0  0  0
  -26.2767  -12.9795   20.3319 N   0  0  0  0  0  0
  -25.9436  -11.6804   20.5678 N   0  0  0  0  0  0
  -22.0367  -12.8092   22.0486 N   0  0  0  0  0  0
  -25.3754  -15.2108   20.4298 N   0  0  0  0  0  0
  -31.3477  -16.0016   20.1844 O   0  0  0  0  0  0
  -21.6658   -6.8903   21.4245 O   0  0  0  0  0  0
  -22.3348  -14.5419   20.6768 O   0  0  0  0  0  0
  -24.7154  -31.7596   23.1231 C   0  0  0  0  0  0
  -25.9574  -32.4266   23.7903 C   0  0  1  0  0  0
  -27.2427  -26.3548   20.2528 C   0  0  0  0  0  0
  -25.6012  -33.8112   24.1752 N   0  0  0  0  0  0
  -23.5573  -30.3446   21.4850 C   0  0  2  0  0  0
  -25.0174  -28.6087   20.1317 C   0  0  0  0  0  0
  -22.7906  -29.4097   22.4624 C   0  0  0  0  0  0
  -18.0357  -28.1438   22.8436 C   0  0  0  0  0  0
  -24.1498  -36.7068   23.2663 C   0  0  0  0  0  0
  -26.1495  -30.3757   21.4419 C   0  0  0  0  0  0
  -26.2091  -28.8999   20.8039 C   0  0  0  0  0  0
  -27.2857  -27.8119   20.8234 C   0  0  0  0  0  0
  -26.0175  -26.3637   19.5093 C   0  0  0  0  0  0
  -24.9807  -27.3697   19.4603 C   0  0  0  0  0  0
  -23.8306  -29.6070   20.1364 C   0  0  0  0  0  0
  -25.4162  -36.2779   24.0256 C   0  0  1  0  0  0
  -20.6007  -28.3811   23.1082 C   0  0  2  0  0  0
  -20.6805  -26.9439   22.5411 C   0  0  0  0  0  0
  -19.5789  -26.6358   21.5220 C   0  0  0  0  0  0
  -18.1970  -26.7958   22.1611 C   0  0  0  0  0  0
  -19.1631  -28.8956   23.2729 C   0  0  0  0  0  0
  -18.9532  -30.1531   23.8789 C   0  0  0  0  0  0
  -17.6518  -30.6611   24.0543 C   0  0  0  0  0  0
  -25.9161  -34.9177   23.4867 C   0  0  0  0  0  0
  -16.5405  -29.9087   23.6358 C   0  0  0  0  0  0
  -16.7335  -28.6512   23.0371 C   0  0  0  0  0  0
  -26.4647  -31.6451   25.0668 C   0  0  0  0  0  0
  -25.3624  -31.3865   26.1220 C   0  0  0  0  0  0
  -27.0635  -30.2753   24.6820 C   0  0  0  0  0  0
  -27.6029  -32.4397   25.7503 C   0  0  0  0  0  0
  -27.5553  -37.1691   24.8467 C   0  0  0  0  0  0
  -21.4524  -29.2990   22.3366 N   0  0  0  0  0  0
  -26.4259  -37.3577   23.9404 N   0  0  0  0  0  0
  -24.8350  -30.8691   22.0681 N   0  0  0  0  0  0
  -23.4189  -28.7757   23.3129 O   0  0  0  0  0  0
  -28.2137  -25.0162   20.2777 O   0  0  0  0  0  0
  -26.5853  -34.8822   22.4520 O   0  0  0  0  0  0
  -23.6102  -32.0835   23.5965 O   0  0  0  0  0  0
  -29.9288  -20.7763   20.2737 C   0  0  0  0  0  0
  -29.6182  -22.3439   20.2651 C   0  0  0  0  0  0
  -27.8559  -20.4094   20.3004 C   0  0  0  0  0  0
  -29.0988  -19.4763   20.2943 C   0  0  0  0  0  0
  -28.3754  -23.2721   20.2705 C   0  0  0  0  0  0
  -27.5293  -21.9783   20.2910 C   0  0  0  0  0  0
  -29.2933  -17.5968   20.3100 N   0  0  0  0  0  0
  -26.1983  -22.2325   20.3058 F   0  0  0  0  0  0
  -31.3300  -13.7942   19.1221 H   0  0  0  0  0  0
  -30.6701  -12.7075   20.2830 H   0  0  0  0  0  0
  -30.1235  -11.9616   17.9429 H   0  0  0  0  0  0
  -29.4451  -13.5275   17.5769 H   0  0  0  0  0  0
  -28.3023  -11.3732   19.3590 H   0  0  0  0  0  0
  -27.5251  -12.1452   17.9931 H   0  0  0  0  0  0
  -27.3820  -14.2154   19.1629 H   0  0  0  0  0  0
  -28.9331  -13.0938   21.5421 H   0  0  0  0  0  0
  -28.0358  -14.5817   21.5603 H   0  0  0  0  0  0
  -25.2824   -9.5678   22.4758 H   0  0  0  0  0  0
  -24.0026   -7.4653   22.7483 H   0  0  0  0  0  0
  -21.0896   -8.8813   19.8948 H   0  0  0  0  0  0
  -22.3787  -10.9681   19.6148 H   0  0  0  0  0  0
  -21.2021   -7.6156   23.9720 H   0  0  0  0  0  0
  -21.1484   -6.0525   25.9076 H   0  0  0  0  0  0
  -22.0592   -2.7616   23.2838 H   0  0  0  0  0  0
  -22.4028  -11.9780   22.4887 H   0  0  0  0  0  0
  -21.0964  -13.1064   22.2677 H   0  0  0  0  0  0
  -24.5978  -15.8532   20.5373 H   0  0  0  0  0  0
  -26.2122  -15.6554   20.0775 H   0  0  0  0  0  0
  -26.7690  -32.4657   23.0634 H   0  0  0  0  0  0
  -25.0010  -33.9092   24.9807 H   0  0  0  0  0  0
  -22.9025  -31.1901   21.2642 H   0  0  0  0  0  0
  -23.3787  -35.9367   23.3242 H   0  0  0  0  0  0
  -24.3553  -36.8837   22.2094 H   0  0  0  0  0  0
  -23.7236  -37.6200   23.6826 H   0  0  0  0  0  0
  -26.3868  -31.0735   20.6378 H   0  0  0  0  0  0
  -26.9888  -30.4585   22.1190 H   0  0  0  0  0  0
  -28.1804  -28.0592   21.3770 H   0  0  0  0  0  0
  -25.8051  -25.4546   18.9644 H   0  0  0  0  0  0
  -24.0940  -27.1328   18.8883 H   0  0  0  0  0  0
  -24.0349  -30.3509   19.3656 H   0  0  0  0  0  0
  -22.9284  -29.0905   19.8043 H   0  0  0  0  0  0
  -25.1390  -36.1490   25.0745 H   0  0  0  0  0  0
  -21.0074  -28.3460   24.1216 H   0  0  0  0  0  0
  -20.5635  -26.2445   23.3703 H   0  0  0  0  0  0
  -21.6665  -26.7328   22.1253 H   0  0  0  0  0  0
  -19.6940  -25.6241   21.1319 H   0  0  0  0  0  0
  -19.6745  -27.3110   20.6706 H   0  0  0  0  0  0
  -17.4244  -26.6703   21.4010 H   0  0  0  0  0  0
  -18.0344  -26.0127   22.9030 H   0  0  0  0  0  0
  -19.8008  -30.7371   24.2114 H   0  0  0  0  0  0
  -17.5068  -31.6279   24.5167 H   0  0  0  0  0  0
  -15.5401  -30.2955   23.7745 H   0  0  0  0  0  0
  -15.8735  -28.0796   22.7147 H   0  0  0  0  0  0
  -24.5857  -30.7168   25.7508 H   0  0  0  0  0  0
  -24.8765  -32.3115   26.4333 H   0  0  0  0  0  0
  -25.7722  -30.9230   27.0203 H   0  0  0  0  0  0
  -26.3415  -29.6256   24.1867 H   0  0  0  0  0  0
  -27.3978  -29.7344   25.5684 H   0  0  0  0  0  0
  -27.9425  -30.3801   24.0460 H   0  0  0  0  0  0
  -27.2525  -33.3812   26.1747 H   0  0  0  0  0  0
  -28.4004  -32.6779   25.0452 H   0  0  0  0  0  0
  -28.0517  -31.8758   26.5691 H   0  0  0  0  0  0
  -28.2521  -38.0028   24.7508 H   0  0  0  0  0  0
  -28.1097  -36.2545   24.6305 H   0  0  0  0  0  0
  -27.2264  -37.1330   25.8867 H   0  0  0  0  0  0
  -20.9911  -29.8589   21.6331 H   0  0  0  0  0  0
  -26.0054  -38.2609   24.1419 H   0  0  0  0  0  0
  -30.9911  -20.5758   20.2648 H   0  0  0  0  0  0
  -30.5304  -22.9226   20.2544 H   0  0  0  0  0  0
  -26.9418  -19.8350   20.3160 H   0  0  0  0  0  0
  -28.3451  -17.2488   20.3422 H   0  0  0  0  0  0
  1 25  1  0  0  0
  1 30  2  0  0  0
  1 77  1  0  0  0
  2  3  1  0  0  0
  2 25  1  0  0  0
  2 79  1  0  0  0
  2 80  1  0  0  0
  3  4  1  0  0  0
  3 81  1  0  0  0
  3 82  1  0  0  0
  4  5  1  0  0  0
  4 83  1  0  0  0
  4 84  1  0  0  0
  5  6  1  0  0  0
  5 26  1  0  0  0
  5 85  1  0  0  0
  6 25  1  0  0  0
  6 86  1  0  0  0
  6 87  1  0  0  0
  7  8  2  0  0  0
  7 26  1  0  0  0
  7 29  1  0  0  0
  8  9  1  0  0  0
  8 22  1  0  0  0
  9 10  1  0  0  0
  9 27  2  0  0  0
 10 11  2  0  0  0
 10 15  1  0  0  0
 11 12  1  0  0  0
 11 88  1  0  0  0
 12 13  2  0  0  0
 12 89  1  0  0  0
 13 14  1  0  0  0
 13 31  1  0  0  0
 14 15  2  0  0  0
 14 90  1  0  0  0
 15 91  1  0  0  0
 16 17  2  0  0  0
 16 21  1  0  0  0
 16 31  1  0  0  0
 17 18  1  0  0  0
 17 92  1  0  0  0
 18 19  2  0  0  0
 18 93  1  0  0  0
 19 20  1  0  0  0
 19 24  1  0  0  0
 20 21  2  0  0  0
 20 94  1  0  0  0
 21 23  1  0  0  0
 22 28  1  0  0  0
 22 32  2  0  0  0
 26 27  1  0  0  0
 28 95  1  0  0  0
 28 96  1  0  0  0
 29 97  1  0  0  0
 29 98  1  0  0  0
 33 34  1  0  0  0
 33 66  1  0  0  0
 33 70  2  0  0  0
 34 36  1  0  0  0
 34 59  1  0  0  0
 34 99  1  0  0  0
 35 44  2  0  0  0
 35 45  1  0  0  0
 35 68  1  0  0  0
 36 56  1  0  0  0
 36100  1  0  0  0
 37 39  1  0  0  0
 37 47  1  0  0  0
 37 66  1  0  0  0
 37101  1  0  0  0
 38 43  2  0  0  0
 38 46  1  0  0  0
 38 47  1  0  0  0
 39 64  1  0  0  0
 39 67  2  0  0  0
 40 52  1  0  0  0
 40 53  2  0  0  0
 40 58  1  0  0  0
 41102  1  0  0  0
 41103  1  0  0  0
 41104  1  0  0  0
 41 48  1  0  0  0
 42 43  1  0  0  0
 42 66  1  0  0  0
 42105  1  0  0  0
 42106  1  0  0  0
 43 44  1  0  0  0
 44107  1  0  0  0
 45 46  2  0  0  0
 45108  1  0  0  0
 46109  1  0  0  0
 47110  1  0  0  0
 47111  1  0  0  0
 48 56  1  0  0  0
 48 65  1  0  0  0
 48112  1  0  0  0
 49 50  1  0  0  0
 49 53  1  0  0  0
 49 64  1  0  0  0
 49113  1  0  0  0
 50 51  1  0  0  0
 50114  1  0  0  0
 50115  1  0  0  0
 51 52  1  0  0  0
 51116  1  0  0  0
 51117  1  0  0  0
 52118  1  0  0  0
 52119  1  0  0  0
 53 54  1  0  0  0
 54 55  2  0  0  0
 54120  1  0  0  0
 55 57  1  0  0  0
 55121  1  0  0  0
 56 69  2  0  0  0
 57 58  2  0  0  0
 57122  1  0  0  0
 58123  1  0  0  0
 59 60  1  0  0  0
 59 61  1  0  0  0
 59 62  1  0  0  0
 60124  1  0  0  0
 60125  1  0  0  0
 60126  1  0  0  0
 61127  1  0  0  0
 61128  1  0  0  0
 61129  1  0  0  0
 62130  1  0  0  0
 62131  1  0  0  0
 62132  1  0  0  0
 63 65  1  0  0  0
 63133  1  0  0  0
 63134  1  0  0  0
 63135  1  0  0  0
 64136  1  0  0  0
 65137  1  0  0  0
 68 75  1  0  0  0
 71 72  2  0  0  0
 71 74  1  0  0  0
 71138  1  0  0  0
 72 75  1  0  0  0
 72139  1  0  0  0
 73 74  2  0  0  0
 73 76  1  0  0  0
 73140  1  0  0  0
 74 77  1  0  0  0
 75 76  2  0  0  0
 76 78  1  0  0  0
 77141  1  0  0  0
M  ISO  4   1 100  68 101  75 101  77 100
M  END
> <chiral flag>
0

> <version>
0

> <s_m_source_file>
/data/baiqing/PycharmProjects/Reinvent-master-3.2/result/LINK_invent/BTK/process_docking_weight1_custom_product_contain_oxygen_bond_distance_aromatic_linkinvent_7_9_3/rearranged_h_0003.sdf

> <i_m_source_file_index>
33

> <r_mmod_Potential_Energy-OPLS-2005>
4227.75244140625

> <r_mmod_Stretch_Energy-OPLS-2005>
1618.41552734375

> <r_mmod_Bend_Energy-OPLS-2005>
1015.79376220703

> <r_mmod_Torsional_Energy-OPLS-2005>
213.548812866211

> <r_mmod_Improper_Torsional_Energy-OPLS-2005>
4.03080034255981

> <r_mmod_Van_der_Waal_Energy-OPLS-2005>
143.613464355469

> <r_mmod_Electrostatic_Energy-OPLS-2005>
-332.424163818359

> <r_mmod_Solvation_Energy-OPLS-2005>
-216.626251220703

> <b_mmod_Minimization_Converged-OPLS-2005>
0

> <r_mmod_RMS_Derivative-OPLS-2005>
0.128873005509377

$$$$
33
                    3D
 Structure written by MMmdl.
163172  0  0  1  0            999 V2000
  -30.7757  -14.4473   20.6904 C   0  0  0  0  0  0
  -30.4127  -12.3339   19.4367 C   0  0  0  0  0  0
  -29.4959  -12.5292   18.2128 C   0  0  0  0  0  0
  -28.0191  -12.3675   18.6129 C   0  0  0  0  0  0
  -27.6566  -13.2113   19.8594 C   0  0  2  0  0  0
  -28.6833  -13.0073   20.9889 C   0  0  0  0  0  0
  -25.2568  -13.8170   20.5639 C   0  0  0  0  0  0
  -24.1832  -13.0442   20.9158 C   0  0  0  0  0  0
  -24.6391  -11.6910   20.8706 C   0  0  0  0  0  0
  -23.9061  -10.4295   21.0394 C   0  0  0  0  0  0
  -24.3615   -9.4215   21.9177 C   0  0  0  0  0  0
  -23.6292   -8.2249   22.0753 C   0  0  0  0  0  0
  -22.4273   -8.0283   21.3545 C   0  0  0  0  0  0
  -21.9905   -9.0254   20.4647 C   0  0  0  0  0  0
  -22.7231  -10.2133   20.3050 C   0  0  0  0  0  0
  -21.6854   -6.0736   22.5279 C   0  0  0  0  0  0
  -21.4016   -6.5640   23.8212 C   0  0  0  0  0  0
  -21.3660   -5.6793   24.9175 C   0  0  0  0  0  0
  -21.6044   -4.3056   24.7226 C   0  0  0  0  0  0
  -21.8819   -3.8147   23.4347 C   0  0  0  0  0  0
  -21.9193   -4.6963   22.3403 C   0  0  0  0  0  0
  -22.7859  -13.5238   21.1848 C   0  0  0  0  0  0
  -22.1661   -4.2149   21.0981 F   0  0  0  0  0  0
  -21.5629   -3.4539   25.7739 F   0  0  0  0  0  0
  -30.0343  -13.3121   20.4787 N   0  0  0  0  0  0
  -26.2983  -12.9344   20.3232 N   0  0  0  0  0  0
  -25.9305  -11.6501   20.5677 N   0  0  0  0  0  0
  -22.0509  -12.8227   22.0409 N   0  0  0  0  0  0
  -25.4305  -15.1891   20.4087 N   0  0  0  0  0  0
  -31.7628  -14.6898   19.9860 O   0  0  0  0  0  0
  -21.6641   -6.8878   21.4241 O   0  0  0  0  0  0
  -22.3539  -14.5547   20.6706 O   0  0  0  0  0  0
  -24.6165  -31.8661   23.2075 C   0  0  0  0  0  0
  -25.9050  -32.4812   23.8381 C   0  0  1  0  0  0
  -27.2316  -27.4115   20.1066 C   0  0  0  0  0  0
  -25.5899  -33.8611   24.2314 N   0  0  0  0  0  0
  -23.4055  -30.4884   21.5488 C   0  0  2  0  0  0
  -24.8519  -28.9476   20.1171 C   0  0  0  0  0  0
  -22.7419  -29.4651   22.4985 C   0  0  0  0  0  0
  -18.0273  -28.1378   22.8494 C   0  0  0  0  0  0
  -24.1487  -36.7312   23.2639 C   0  0  0  0  0  0
  -25.9356  -30.8266   21.3613 C   0  0  0  0  0  0
  -26.0138  -29.4583   20.7097 C   0  0  0  0  0  0
  -27.2098  -28.7008   20.6935 C   0  0  0  0  0  0
  -26.0528  -26.9174   19.5096 C   0  0  0  0  0  0
  -24.8674  -27.6782   19.5122 C   0  0  0  0  0  0
  -23.6150  -29.8175   20.1648 C   0  0  0  0  0  0
  -25.4108  -36.3106   24.0336 C   0  0  1  0  0  0
  -20.5865  -28.3667   23.1317 C   0  0  2  0  0  0
  -20.6763  -26.9403   22.5419 C   0  0  0  0  0  0
  -19.5742  -26.6387   21.5215 C   0  0  0  0  0  0
  -18.1920  -26.7925   22.1626 C   0  0  0  0  0  0
  -19.1523  -28.8839   23.2902 C   0  0  0  0  0  0
  -18.9450  -30.1445   23.8911 C   0  0  0  0  0  0
  -17.6453  -30.6585   24.0566 C   0  0  0  0  0  0
  -25.9036  -34.9471   23.5124 C   0  0  0  0  0  0
  -16.5344  -29.9086   23.6326 C   0  0  0  0  0  0
  -16.7262  -28.6503   23.0348 C   0  0  0  0  0  0
  -26.4473  -31.6595   25.0715 C   0  0  0  0  0  0
  -25.3737  -31.3699   26.1462 C   0  0  0  0  0  0
  -27.0308  -30.3039   24.6094 C   0  0  0  0  0  0
  -27.6048  -32.4316   25.7479 C   0  0  0  0  0  0
  -27.5580  -37.1811   24.8466 C   0  0  0  0  0  0
  -21.4144  -29.3033   22.3725 N   0  0  0  0  0  0
  -26.4295  -37.3790   23.9407 N   0  0  0  0  0  0
  -24.6711  -31.0748   22.0980 N   0  0  0  0  0  0
  -23.4185  -28.8194   23.3033 O   0  0  0  0  0  0
  -28.3898  -26.6593   20.0929 O   0  0  0  0  0  0
  -26.5600  -34.8926   22.4687 O   0  0  0  0  0  0
  -23.5354  -32.1418   23.7463 O   0  0  0  0  0  0
  -31.2349  -18.9447   20.6796 C   0  0  0  0  0  0
  -28.9901  -18.0870   21.0016 C   0  0  0  0  0  0
  -30.7121  -20.1527   20.1675 C   0  0  0  0  0  0
  -28.4639  -19.3041   20.4929 C   0  0  0  0  0  0
  -30.3875  -17.8965   21.1084 C   0  0  0  0  0  0
  -29.3182  -20.3567   20.0754 C   0  0  0  0  0  0
  -31.0935  -15.6046   23.9666 C   0  0  0  0  0  0
  -31.1398  -16.9661   23.3107 C   0  0  0  0  0  0
  -30.1626  -14.8276   23.0458 C   0  0  0  0  0  0
  -31.0246  -16.6770   21.8066 C   0  0  1  0  0  0
  -28.7686  -21.6603   19.4590 C   0  0  0  0  0  0
  -28.4793  -24.1564   19.7142 C   0  0  0  0  0  0
  -28.3248  -25.3488   20.7056 C   0  0  0  0  0  0
  -30.3998  -15.3214   21.6762 N   0  0  0  0  0  0
  -28.7329  -22.8325   20.3779 N   0  3  0  0  0  0
  -31.4594  -12.4177   19.1391 H   0  0  0  0  0  0
  -30.3070  -11.3214   19.8296 H   0  0  0  0  0  0
  -29.7510  -11.8118   17.4316 H   0  0  0  0  0  0
  -29.6570  -13.5200   17.7850 H   0  0  0  0  0  0
  -27.8408  -11.3106   18.8146 H   0  0  0  0  0  0
  -27.3699  -12.6312   17.7773 H   0  0  0  0  0  0
  -27.6997  -14.2585   19.5588 H   0  0  0  0  0  0
  -28.6555  -11.9792   21.3527 H   0  0  0  0  0  0
  -28.3690  -13.6216   21.8253 H   0  0  0  0  0  0
  -25.2764   -9.5694   22.4746 H   0  0  0  0  0  0
  -24.0004   -7.4643   22.7474 H   0  0  0  0  0  0
  -21.0836   -8.8770   19.8954 H   0  0  0  0  0  0
  -22.3687  -10.9669   19.6157 H   0  0  0  0  0  0
  -21.2008   -7.6149   23.9715 H   0  0  0  0  0  0
  -21.1483   -6.0524   25.9078 H   0  0  0  0  0  0
  -22.0598   -2.7609   23.2847 H   0  0  0  0  0  0
  -22.4125  -11.9880   22.4783 H   0  0  0  0  0  0
  -21.1130  -13.1252   22.2627 H   0  0  0  0  0  0
  -24.6691  -15.8485   20.5266 H   0  0  0  0  0  0
  -26.2890  -15.6257   20.0971 H   0  0  0  0  0  0
  -26.7122  -32.5519   23.1145 H   0  0  0  0  0  0
  -25.0053  -33.9768   25.0462 H   0  0  0  0  0  0
  -22.6951  -31.3055   21.4077 H   0  0  0  0  0  0
  -23.3745  -35.9650   23.3312 H   0  0  0  0  0  0
  -24.3579  -36.8919   22.2052 H   0  0  0  0  0  0
  -23.7245  -37.6522   23.6649 H   0  0  0  0  0  0
  -26.0480  -31.5913   20.5916 H   0  0  0  0  0  0
  -26.8233  -30.8819   21.9797 H   0  0  0  0  0  0
  -28.1097  -29.0943   21.1455 H   0  0  0  0  0  0
  -26.0469  -25.9468   19.0350 H   0  0  0  0  0  0
  -23.9743  -27.2807   19.0498 H   0  0  0  0  0  0
  -23.7250  -30.5908   19.4036 H   0  0  0  0  0  0
  -22.7381  -29.2383   19.8696 H   0  0  0  0  0  0
  -25.1287  -36.1970   25.0830 H   0  0  0  0  0  0
  -20.9955  -28.3233   24.1439 H   0  0  0  0  0  0
  -20.5669  -26.2274   23.3605 H   0  0  0  0  0  0
  -21.6634  -26.7447   22.1210 H   0  0  0  0  0  0
  -19.6903  -25.6301   21.1233 H   0  0  0  0  0  0
  -19.6680  -27.3206   20.6752 H   0  0  0  0  0  0
  -17.4192  -26.6678   21.4025 H   0  0  0  0  0  0
  -18.0318  -26.0063   22.9016 H   0  0  0  0  0  0
  -19.7926  -30.7257   24.2285 H   0  0  0  0  0  0
  -17.5009  -31.6266   24.5166 H   0  0  0  0  0  0
  -15.5345  -30.2993   23.7643 H   0  0  0  0  0  0
  -15.8663  -28.0827   22.7054 H   0  0  0  0  0  0
  -24.5911  -30.7047   25.7798 H   0  0  0  0  0  0
  -24.8927  -32.2852   26.4920 H   0  0  0  0  0  0
  -25.8090  -30.8861   27.0215 H   0  0  0  0  0  0
  -26.2853  -29.6795   24.1156 H   0  0  0  0  0  0
  -27.4091  -29.7281   25.4551 H   0  0  0  0  0  0
  -27.8682  -30.4363   23.9238 H   0  0  0  0  0  0
  -27.2669  -33.3608   26.2079 H   0  0  0  0  0  0
  -28.3845  -32.6887   25.0297 H   0  0  0  0  0  0
  -28.0731  -31.8426   26.5375 H   0  0  0  0  0  0
  -28.2605  -38.0102   24.7509 H   0  0  0  0  0  0
  -28.1069  -36.2633   24.6299 H   0  0  0  0  0  0
  -27.2297  -37.1471   25.8869 H   0  0  0  0  0  0
  -20.9306  -29.8756   21.6947 H   0  0  0  0  0  0
  -26.0185  -38.2871   24.1402 H   0  0  0  0  0  0
  -32.3077  -18.8370   20.7654 H   0  0  0  0  0  0
  -28.3145  -17.3142   21.3425 H   0  0  0  0  0  0
  -31.3958  -20.9259   19.8437 H   0  0  0  0  0  0
  -27.3910  -19.4225   20.4235 H   0  0  0  0  0  0
  -30.7401  -15.6403   24.9980 H   0  0  0  0  0  0
  -32.0873  -15.1536   23.9655 H   0  0  0  0  0  0
  -32.0324  -17.5389   23.5665 H   0  0  0  0  0  0
  -30.2764  -17.5411   23.6507 H   0  0  0  0  0  0
  -29.1287  -15.0411   23.3205 H   0  0  0  0  0  0
  -30.3262  -13.7542   23.1643 H   0  0  0  0  0  0
  -32.0521  -16.6078   21.4432 H   0  0  0  0  0  0
  -27.7664  -21.4832   19.0666 H   0  0  0  0  0  0
  -29.3890  -21.9066   18.5959 H   0  0  0  0  0  0
  -29.3105  -24.3650   19.0399 H   0  0  0  0  0  0
  -27.5862  -24.0864   19.0929 H   0  0  0  0  0  0
  -29.1439  -25.3141   21.4244 H   0  0  0  0  0  0
  -27.4149  -25.2301   21.2970 H   0  0  0  0  0  0
  -29.6178  -22.8703   20.8584 H   0  0  0  0  0  0
  -28.0236  -22.6521   21.0707 H   0  0  0  0  0  0
  1 25  1  0  0  0
  1 30  2  0  0  0
  1 84  1  0  0  0
  2  3  1  0  0  0
  2 25  1  0  0  0
  2 86  1  0  0  0
  2 87  1  0  0  0
  3  4  1  0  0  0
  3 88  1  0  0  0
  3 89  1  0  0  0
  4  5  1  0  0  0
  4 90  1  0  0  0
  4 91  1  0  0  0
  5  6  1  0  0  0
  5 26  1  0  0  0
  5 92  1  0  0  0
  6 25  1  0  0  0
  6 93  1  0  0  0
  6 94  1  0  0  0
  7  8  2  0  0  0
  7 26  1  0  0  0
  7 29  1  0  0  0
  8  9  1  0  0  0
  8 22  1  0  0  0
  9 10  1  0  0  0
  9 27  2  0  0  0
 10 11  2  0  0  0
 10 15  1  0  0  0
 11 12  1  0  0  0
 11 95  1  0  0  0
 12 13  2  0  0  0
 12 96  1  0  0  0
 13 14  1  0  0  0
 13 31  1  0  0  0
 14 15  2  0  0  0
 14 97  1  0  0  0
 15 98  1  0  0  0
 16 17  2  0  0  0
 16 21  1  0  0  0
 16 31  1  0  0  0
 17 18  1  0  0  0
 17 99  1  0  0  0
 18 19  2  0  0  0
 18100  1  0  0  0
 19 20  1  0  0  0
 19 24  1  0  0  0
 20 21  2  0  0  0
 20101  1  0  0  0
 21 23  1  0  0  0
 22 28  1  0  0  0
 22 32  2  0  0  0
 26 27  1  0  0  0
 28102  1  0  0  0
 28103  1  0  0  0
 29104  1  0  0  0
 29105  1  0  0  0
 33 34  1  0  0  0
 33 66  1  0  0  0
 33 70  2  0  0  0
 34 36  1  0  0  0
 34 59  1  0  0  0
 34106  1  0  0  0
 35 44  2  0  0  0
 35 45  1  0  0  0
 35 68  1  0  0  0
 36 56  1  0  0  0
 36107  1  0  0  0
 37 39  1  0  0  0
 37 47  1  0  0  0
 37 66  1  0  0  0
 37108  1  0  0  0
 38 43  2  0  0  0
 38 46  1  0  0  0
 38 47  1  0  0  0
 39 64  1  0  0  0
 39 67  2  0  0  0
 40 52  1  0  0  0
 40 53  2  0  0  0
 40 58  1  0  0  0
 41109  1  0  0  0
 41110  1  0  0  0
 41111  1  0  0  0
 41 48  1  0  0  0
 42 43  1  0  0  0
 42 66  1  0  0  0
 42112  1  0  0  0
 42113  1  0  0  0
 43 44  1  0  0  0
 44114  1  0  0  0
 45 46  2  0  0  0
 45115  1  0  0  0
 46116  1  0  0  0
 47117  1  0  0  0
 47118  1  0  0  0
 48 56  1  0  0  0
 48 65  1  0  0  0
 48119  1  0  0  0
 49 50  1  0  0  0
 49 53  1  0  0  0
 49 64  1  0  0  0
 49120  1  0  0  0
 50 51  1  0  0  0
 50121  1  0  0  0
 50122  1  0  0  0
 51 52  1  0  0  0
 51123  1  0  0  0
 51124  1  0  0  0
 52125  1  0  0  0
 52126  1  0  0  0
 53 54  1  0  0  0
 54 55  2  0  0  0
 54127  1  0  0  0
 55 57  1  0  0  0
 55128  1  0  0  0
 56 69  2  0  0  0
 57 58  2  0  0  0
 57129  1  0  0  0
 58130  1  0  0  0
 59 60  1  0  0  0
 59 61  1  0  0  0
 59 62  1  0  0  0
 60131  1  0  0  0
 60132  1  0  0  0
 60133  1  0  0  0
 61134  1  0  0  0
 61135  1  0  0  0
 61136  1  0  0  0
 62137  1  0  0  0
 62138  1  0  0  0
 62139  1  0  0  0
 63 65  1  0  0  0
 63140  1  0  0  0
 63141  1  0  0  0
 63142  1  0  0  0
 64143  1  0  0  0
 65144  1  0  0  0
 68 83  1  0  0  0
 71 73  2  0  0  0
 71 75  1  0  0  0
 71145  1  0  0  0
 72 74  1  0  0  0
 72 75  2  0  0  0
 72146  1  0  0  0
 73 76  1  0  0  0
 73147  1  0  0  0
 74 76  2  0  0  0
 74148  1  0  0  0
 75 80  1  0  0  0
 76 81  1  0  0  0
 77 78  1  0  0  0
 77 79  1  0  0  0
 77149  1  0  0  0
 77150  1  0  0  0
 78 80  1  0  0  0
 78151  1  0  0  0
 78152  1  0  0  0
 79 84  1  0  0  0
 79153  1  0  0  0
 79154  1  0  0  0
 80 84  1  0  0  0
 80155  1  0  0  0
 81 85  1  0  0  0
 81156  1  0  0  0
 81157  1  0  0  0
 82 83  1  0  0  0
 82 85  1  0  0  0
 82158  1  0  0  0
 82159  1  0  0  0
 83160  1  0  0  0
 83161  1  0  0  0
 85162  1  0  0  0
 85163  1  0  0  0
M  CHG  1  85   1
M  ISO  4   1 100  68 101  83 101  84 100
M  END
> <chiral flag>
0

> <version>
0

> <s_m_source_file>
/data/baiqing/PycharmProjects/Reinvent-master-3.2/result/LINK_invent/BTK/process_docking_weight1_custom_product_contain_oxygen_bond_distance_aromatic_linkinvent_7_9_3/rearranged_h_0003.sdf

> <i_m_source_file_index>
34

> <r_mmod_Potential_Energy-OPLS-2005>
12.2888059616089

> <r_mmod_Stretch_Energy-OPLS-2005>
50.3103103637695

> <r_mmod_Bend_Energy-OPLS-2005>
133.228958129883

> <r_mmod_Torsional_Energy-OPLS-2005>
309.680694580078

> <r_mmod_Improper_Torsional_Energy-OPLS-2005>
5.97911357879639

> <r_mmod_Van_der_Waal_Energy-OPLS-2005>
146.62434387207

> <r_mmod_Electrostatic_Energy-OPLS-2005>
-211.182586669922

> <r_mmod_Solvation_Energy-OPLS-2005>
-435.774932861328

> <b_mmod_Minimization_Converged-OPLS-2005>
0

> <r_mmod_RMS_Derivative-OPLS-2005>
0.169777944684029

$$$$
34
                    3D
 Structure written by MMmdl.
157166  0  0  1  0            999 V2000
  -30.6272  -14.7457   20.5723 C   0  0  0  0  0  0
  -30.4458  -12.4810   19.4697 C   0  0  0  0  0  0
  -29.5233  -12.5388   18.2312 C   0  0  0  0  0  0
  -28.0471  -12.3434   18.6349 C   0  0  0  0  0  0
  -27.6486  -13.2272   19.8442 C   0  0  2  0  0  0
  -28.6847  -13.1150   20.9779 C   0  0  0  0  0  0
  -25.2556  -13.8190   20.5646 C   0  0  0  0  0  0
  -24.1831  -13.0444   20.9167 C   0  0  0  0  0  0
  -24.6416  -11.6917   20.8723 C   0  0  0  0  0  0
  -23.9084  -10.4303   21.0404 C   0  0  0  0  0  0
  -24.3643   -9.4212   21.9177 C   0  0  0  0  0  0
  -23.6318   -8.2245   22.0745 C   0  0  0  0  0  0
  -22.4290   -8.0284   21.3548 C   0  0  0  0  0  0
  -21.9924   -9.0257   20.4648 C   0  0  0  0  0  0
  -22.7258  -10.2132   20.3050 C   0  0  0  0  0  0
  -21.6857   -6.0744   22.5289 C   0  0  0  0  0  0
  -21.4014   -6.5644   23.8224 C   0  0  0  0  0  0
  -21.3657   -5.6786   24.9181 C   0  0  0  0  0  0
  -21.6041   -4.3051   24.7218 C   0  0  0  0  0  0
  -21.8819   -3.8147   23.4340 C   0  0  0  0  0  0
  -21.9194   -4.6973   22.3403 C   0  0  0  0  0  0
  -22.7848  -13.5228   21.1843 C   0  0  0  0  0  0
  -22.1658   -4.2157   21.0979 F   0  0  0  0  0  0
  -21.5640   -3.4533   25.7729 F   0  0  0  0  0  0
  -29.9980  -13.5146   20.4376 N   0  0  0  0  0  0
  -26.2971  -12.9387   20.3189 N   0  0  0  0  0  0
  -25.9342  -11.6539   20.5684 N   0  0  0  0  0  0
  -22.0478  -12.8234   22.0406 N   0  0  0  0  0  0
  -25.4301  -15.1916   20.4116 N   0  0  0  0  0  0
  -31.7245  -14.9244   20.0312 O   0  0  0  0  0  0
  -21.6651   -6.8886   21.4246 O   0  0  0  0  0  0
  -22.3521  -14.5529   20.6683 O   0  0  0  0  0  0
  -24.6352  -31.8540   23.1978 C   0  0  0  0  0  0
  -25.9168  -32.4746   23.8325 C   0  0  1  0  0  0
  -27.2131  -27.2348   20.1219 C   0  0  0  0  0  0
  -25.5953  -33.8550   24.2258 N   0  0  0  0  0  0
  -23.4317  -30.4787   21.5432 C   0  0  2  0  0  0
  -24.8752  -28.9229   20.1119 C   0  0  0  0  0  0
  -22.7520  -29.4605   22.4910 C   0  0  0  0  0  0
  -18.0291  -28.1388   22.8488 C   0  0  0  0  0  0
  -24.1486  -36.7284   23.2633 C   0  0  0  0  0  0
  -25.9809  -30.7569   21.3816 C   0  0  0  0  0  0
  -26.0509  -29.3784   20.7211 C   0  0  0  0  0  0
  -27.2236  -28.5495   20.7099 C   0  0  0  0  0  0
  -26.0107  -26.8594   19.4795 C   0  0  0  0  0  0
  -24.8615  -27.6732   19.4792 C   0  0  0  0  0  0
  -23.6502  -29.8169   20.1588 C   0  0  0  0  0  0
  -25.4115  -36.3070   24.0323 C   0  0  1  0  0  0
  -20.5900  -28.3716   23.1265 C   0  0  2  0  0  0
  -20.6791  -26.9435   22.5407 C   0  0  0  0  0  0
  -19.5760  -26.6390   21.5219 C   0  0  0  0  0  0
  -18.1938  -26.7929   22.1631 C   0  0  0  0  0  0
  -19.1546  -28.8868   23.2868 C   0  0  0  0  0  0
  -18.9463  -30.1466   23.8896 C   0  0  0  0  0  0
  -17.6463  -30.6593   24.0561 C   0  0  0  0  0  0
  -25.9064  -34.9436   23.5098 C   0  0  0  0  0  0
  -16.5353  -29.9092   23.6326 C   0  0  0  0  0  0
  -16.7280  -28.6504   23.0358 C   0  0  0  0  0  0
  -26.4519  -31.6567   25.0728 C   0  0  0  0  0  0
  -25.3722  -31.3734   26.1438 C   0  0  0  0  0  0
  -27.0355  -30.2964   24.6238 C   0  0  0  0  0  0
  -27.6065  -32.4310   25.7512 C   0  0  0  0  0  0
  -27.5584  -37.1794   24.8459 C   0  0  0  0  0  0
  -21.4224  -29.3057   22.3652 N   0  0  0  0  0  0
  -26.4287  -37.3776   23.9414 N   0  0  0  0  0  0
  -24.7021  -31.0483   22.0971 N   0  0  0  0  0  0
  -23.4202  -28.8142   23.3020 O   0  0  0  0  0  0
  -28.3064  -26.3247   20.1515 O   0  0  0  0  0  0
  -26.5642  -34.8916   22.4673 O   0  0  0  0  0  0
  -23.5500  -32.1374   23.7266 O   0  0  0  0  0  0
  -30.3115  -20.0073   22.1685 C   0  0  0  0  0  0
  -30.6817  -18.9698   23.0417 C   0  0  0  0  0  0
  -29.7535  -18.3330   20.4517 C   0  0  0  0  0  0
  -29.8202  -19.7481   20.8681 C   0  0  0  0  0  0
  -30.5686  -17.6344   22.6251 C   0  0  0  0  0  0
  -30.1423  -17.2417   21.3494 C   0  0  0  0  0  0
  -29.5259  -21.0211   20.0461 C   0  0  0  0  0  0
  -30.8038  -16.4652   23.5228 C   0  0  0  0  0  0
  -30.0566  -15.3540   22.7863 C   0  0  0  0  0  0
  -29.2175  -23.7105   20.0307 C   0  0  0  0  0  0
  -28.0548  -24.8284   20.2639 C   0  0  0  0  0  0
  -30.0336  -15.7399   21.3554 N   0  0  0  0  0  0
  -29.8192  -20.9857   18.7504 N   0  0  0  0  0  0
  -29.0797  -22.2472   20.5511 N   0  3  0  0  0  0
  -31.4860  -12.6223   19.1740 H   0  0  0  0  0  0
  -30.4044  -11.4918   19.9287 H   0  0  0  0  0  0
  -29.8205  -11.7786   17.5084 H   0  0  0  0  0  0
  -29.6462  -13.5003   17.7302 H   0  0  0  0  0  0
  -27.9074  -11.2915   18.8882 H   0  0  0  0  0  0
  -27.3945  -12.5419   17.7843 H   0  0  0  0  0  0
  -27.6584  -14.2588   19.4907 H   0  0  0  0  0  0
  -28.7271  -12.0953   21.3614 H   0  0  0  0  0  0
  -28.3557  -13.7269   21.8114 H   0  0  0  0  0  0
  -25.2794   -9.5699   22.4738 H   0  0  0  0  0  0
  -24.0044   -7.4639   22.7457 H   0  0  0  0  0  0
  -21.0849   -8.8767   19.8968 H   0  0  0  0  0  0
  -22.3714  -10.9664   19.6147 H   0  0  0  0  0  0
  -21.2004   -7.6148   23.9736 H   0  0  0  0  0  0
  -21.1481   -6.0509   25.9087 H   0  0  0  0  0  0
  -22.0606   -2.7606   23.2837 H   0  0  0  0  0  0
  -22.4092  -11.9924   22.4853 H   0  0  0  0  0  0
  -21.1083  -13.1264   22.2573 H   0  0  0  0  0  0
  -24.6743  -15.8543   20.5437 H   0  0  0  0  0  0
  -26.2951  -15.6324   20.1247 H   0  0  0  0  0  0
  -26.7238  -32.5381   23.1061 H   0  0  0  0  0  0
  -25.0069  -33.9671   25.0385 H   0  0  0  0  0  0
  -22.7297  -31.3022   21.3984 H   0  0  0  0  0  0
  -23.3758  -35.9607   23.3273 H   0  0  0  0  0  0
  -24.3577  -36.8933   22.2052 H   0  0  0  0  0  0
  -23.7221  -37.6471   23.6675 H   0  0  0  0  0  0
  -26.1237  -31.5175   20.6127 H   0  0  0  0  0  0
  -26.8581  -30.8038   22.0160 H   0  0  0  0  0  0
  -28.1252  -28.8969   21.1942 H   0  0  0  0  0  0
  -25.9191  -25.9209   18.9579 H   0  0  0  0  0  0
  -23.9641  -27.3258   18.9862 H   0  0  0  0  0  0
  -23.7827  -30.5953   19.4062 H   0  0  0  0  0  0
  -22.7656  -29.2573   19.8503 H   0  0  0  0  0  0
  -25.1289  -36.1915   25.0816 H   0  0  0  0  0  0
  -20.9981  -28.3292   24.1388 H   0  0  0  0  0  0
  -20.5707  -26.2326   23.3610 H   0  0  0  0  0  0
  -21.6655  -26.7464   22.1187 H   0  0  0  0  0  0
  -19.6924  -25.6297   21.1258 H   0  0  0  0  0  0
  -19.6692  -27.3193   20.6741 H   0  0  0  0  0  0
  -17.4210  -26.6677   21.4031 H   0  0  0  0  0  0
  -18.0334  -26.0069   22.9025 H   0  0  0  0  0  0
  -19.7940  -30.7282   24.2266 H   0  0  0  0  0  0
  -17.5015  -31.6269   24.5168 H   0  0  0  0  0  0
  -15.5356  -30.2998   23.7638 H   0  0  0  0  0  0
  -15.8677  -28.0815   22.7089 H   0  0  0  0  0  0
  -24.5896  -30.7091   25.7756 H   0  0  0  0  0  0
  -24.8924  -32.2915   26.4842 H   0  0  0  0  0  0
  -25.8023  -30.8914   27.0227 H   0  0  0  0  0  0
  -26.2944  -29.6715   24.1243 H   0  0  0  0  0  0
  -27.3980  -29.7231   25.4780 H   0  0  0  0  0  0
  -27.8853  -30.4206   23.9521 H   0  0  0  0  0  0
  -27.2664  -33.3610   26.2083 H   0  0  0  0  0  0
  -28.3893  -32.6869   25.0359 H   0  0  0  0  0  0
  -28.0718  -31.8436   26.5440 H   0  0  0  0  0  0
  -28.2580  -38.0110   24.7538 H   0  0  0  0  0  0
  -28.1102  -36.2645   24.6248 H   0  0  0  0  0  0
  -27.2308  -37.1396   25.8861 H   0  0  0  0  0  0
  -20.9418  -29.8769   21.6843 H   0  0  0  0  0  0
  -26.0163  -38.2846   24.1435 H   0  0  0  0  0  0
  -30.4225  -21.0252   22.5144 H   0  0  0  0  0  0
  -31.0311  -19.2029   24.0389 H   0  0  0  0  0  0
  -29.3776  -18.0941   19.4675 H   0  0  0  0  0  0
  -30.4242  -16.6278   24.5317 H   0  0  0  0  0  0
  -31.8749  -16.2621   23.5757 H   0  0  0  0  0  0
  -29.0252  -15.3416   23.1413 H   0  0  0  0  0  0
  -30.4880  -14.3771   23.0208 H   0  0  0  0  0  0
  -30.1172  -24.0929   20.5126 H   0  0  0  0  0  0
  -29.4608  -23.6921   18.9686 H   0  0  0  0  0  0
  -27.6039  -24.6564   21.2411 H   0  0  0  0  0  0
  -27.2919  -24.5400   19.5461 H   0  0  0  0  0  0
  -30.2221  -20.1460   18.3631 H   0  0  0  0  0  0
  -29.6502  -21.7645   18.1365 H   0  0  0  0  0  0
  -28.7624  -22.1939   21.5119 H   0  0  0  0  0  0
  1 25  1  0  0  0
  1 30  2  0  0  0
  1 82  1  0  0  0
  2  3  1  0  0  0
  2 25  1  0  0  0
  2 85  1  0  0  0
  2 86  1  0  0  0
  3  4  1  0  0  0
  3 87  1  0  0  0
  3 88  1  0  0  0
  4  5  1  0  0  0
  4 89  1  0  0  0
  4 90  1  0  0  0
  5  6  1  0  0  0
  5 26  1  0  0  0
  5 91  1  0  0  0
  6 25  1  0  0  0
  6 92  1  0  0  0
  6 93  1  0  0  0
  7  8  2  0  0  0
  7 26  1  0  0  0
  7 29  1  0  0  0
  8  9  1  0  0  0
  8 22  1  0  0  0
  9 10  1  0  0  0
  9 27  2  0  0  0
 10 11  2  0  0  0
 10 15  1  0  0  0
 11 12  1  0  0  0
 11 94  1  0  0  0
 12 13  2  0  0  0
 12 95  1  0  0  0
 13 14  1  0  0  0
 13 31  1  0  0  0
 14 15  2  0  0  0
 14 96  1  0  0  0
 15 97  1  0  0  0
 16 17  2  0  0  0
 16 21  1  0  0  0
 16 31  1  0  0  0
 17 18  1  0  0  0
 17 98  1  0  0  0
 18 19  2  0  0  0
 18 99  1  0  0  0
 19 20  1  0  0  0
 19 24  1  0  0  0
 20 21  2  0  0  0
 20100  1  0  0  0
 21 23  1  0  0  0
 22 28  1  0  0  0
 22 32  2  0  0  0
 26 27  1  0  0  0
 28101  1  0  0  0
 28102  1  0  0  0
 29103  1  0  0  0
 29104  1  0  0  0
 33 34  1  0  0  0
 33 66  1  0  0  0
 33 70  2  0  0  0
 34 36  1  0  0  0
 34 59  1  0  0  0
 34105  1  0  0  0
 35 44  2  0  0  0
 35 45  1  0  0  0
 35 68  1  0  0  0
 36 56  1  0  0  0
 36106  1  0  0  0
 37 39  1  0  0  0
 37 47  1  0  0  0
 37 66  1  0  0  0
 37107  1  0  0  0
 38 43  2  0  0  0
 38 46  1  0  0  0
 38 47  1  0  0  0
 39 64  1  0  0  0
 39 67  2  0  0  0
 40 52  1  0  0  0
 40 53  2  0  0  0
 40 58  1  0  0  0
 41108  1  0  0  0
 41109  1  0  0  0
 41110  1  0  0  0
 41 48  1  0  0  0
 42 43  1  0  0  0
 42 66  1  0  0  0
 42111  1  0  0  0
 42112  1  0  0  0
 43 44  1  0  0  0
 44113  1  0  0  0
 45 46  2  0  0  0
 45114  1  0  0  0
 46115  1  0  0  0
 47116  1  0  0  0
 47117  1  0  0  0
 48 56  1  0  0  0
 48 65  1  0  0  0
 48118  1  0  0  0
 49 50  1  0  0  0
 49 53  1  0  0  0
 49 64  1  0  0  0
 49119  1  0  0  0
 50 51  1  0  0  0
 50120  1  0  0  0
 50121  1  0  0  0
 51 52  1  0  0  0
 51122  1  0  0  0
 51123  1  0  0  0
 52124  1  0  0  0
 52125  1  0  0  0
 53 54  1  0  0  0
 54 55  2  0  0  0
 54126  1  0  0  0
 55 57  1  0  0  0
 55127  1  0  0  0
 56 69  2  0  0  0
 57 58  2  0  0  0
 57128  1  0  0  0
 58129  1  0  0  0
 59 60  1  0  0  0
 59 61  1  0  0  0
 59 62  1  0  0  0
 60130  1  0  0  0
 60131  1  0  0  0
 60132  1  0  0  0
 61133  1  0  0  0
 61134  1  0  0  0
 61135  1  0  0  0
 62136  1  0  0  0
 62137  1  0  0  0
 62138  1  0  0  0
 63 65  1  0  0  0
 63139  1  0  0  0
 63140  1  0  0  0
 63141  1  0  0  0
 64142  1  0  0  0
 65143  1  0  0  0
 68 81  1  0  0  0
 71 72  2  0  0  0
 71 74  1  0  0  0
 71144  1  0  0  0
 72 75  1  0  0  0
 72145  1  0  0  0
 73 74  2  0  0  0
 73 76  1  0  0  0
 73146  1  0  0  0
 74 77  1  0  0  0
 75 76  2  0  0  0
 75 78  1  0  0  0
 76 82  1  0  0  0
 77 83  1  0  0  0
 77 84  2  0  0  0
 78 79  1  0  0  0
 78147  1  0  0  0
 78148  1  0  0  0
 79 82  1  0  0  0
 79149  1  0  0  0
 79150  1  0  0  0
 80 81  1  0  0  0
 80 84  1  0  0  0
 80151  1  0  0  0
 80152  1  0  0  0
 81153  1  0  0  0
 81154  1  0  0  0
 83155  1  0  0  0
 83156  1  0  0  0
 84157  1  0  0  0
M  CHG  1  84   1
M  ISO  4   1 100  68 101  81 101  82 100
M  END
> <chiral flag>
0

> <version>
0

> <s_m_source_file>
/data/baiqing/PycharmProjects/Reinvent-master-3.2/result/LINK_invent/BTK/process_docking_weight1_custom_product_contain_oxygen_bond_distance_aromatic_linkinvent_7_9_3/rearranged_h_0003.sdf

> <i_m_source_file_index>
35

> <r_mmod_Potential_Energy-OPLS-2005>
197.418807983398

> <r_mmod_Stretch_Energy-OPLS-2005>
155.401443481445

> <r_mmod_Bend_Energy-OPLS-2005>
261.758972167969

> <r_mmod_Torsional_Energy-OPLS-2005>
298.214050292969

> <r_mmod_Improper_Torsional_Energy-OPLS-2005>
8.25789356231689

> <r_mmod_Van_der_Waal_Energy-OPLS-2005>
143.322174072266

> <r_mmod_Electrostatic_Energy-OPLS-2005>
-353.719818115234

> <r_mmod_Solvation_Energy-OPLS-2005>
-405.544281005859

> <b_mmod_Minimization_Converged-OPLS-2005>
0

> <r_mmod_RMS_Derivative-OPLS-2005>
2.09846210479736

$$$$
35
                    3D
 Structure written by MMmdl.
173182  0  0  1  0            999 V2000
  -30.8110  -14.3252   20.7009 C   0  0  0  0  0  0
  -30.4115  -12.2812   19.3857 C   0  0  0  0  0  0
  -29.4774  -12.5176   18.1875 C   0  0  0  0  0  0
  -28.0060  -12.3715   18.6123 C   0  0  0  0  0  0
  -27.6669  -13.2043   19.8753 C   0  0  2  0  0  0
  -28.7061  -12.9639   20.9930 C   0  0  0  0  0  0
  -25.2606  -13.8162   20.5689 C   0  0  0  0  0  0
  -24.1855  -13.0436   20.9178 C   0  0  0  0  0  0
  -24.6394  -11.6912   20.8740 C   0  0  0  0  0  0
  -23.9059  -10.4294   21.0411 C   0  0  0  0  0  0
  -24.3611   -9.4217   21.9199 C   0  0  0  0  0  0
  -23.6288   -8.2250   22.0758 C   0  0  0  0  0  0
  -22.4285   -8.0285   21.3535 C   0  0  0  0  0  0
  -21.9907   -9.0261   20.4647 C   0  0  0  0  0  0
  -22.7229  -10.2143   20.3057 C   0  0  0  0  0  0
  -21.6842   -6.0743   22.5280 C   0  0  0  0  0  0
  -21.4015   -6.5641   23.8216 C   0  0  0  0  0  0
  -21.3661   -5.6794   24.9178 C   0  0  0  0  0  0
  -21.6040   -4.3055   24.7225 C   0  0  0  0  0  0
  -21.8814   -3.8151   23.4353 C   0  0  0  0  0  0
  -21.9197   -4.6962   22.3402 C   0  0  0  0  0  0
  -22.7855  -13.5245   21.1824 C   0  0  0  0  0  0
  -22.1657   -4.2142   21.0983 F   0  0  0  0  0  0
  -21.5630   -3.4545   25.7745 F   0  0  0  0  0  0
  -30.0521  -13.2280   20.4518 N   0  0  0  0  0  0
  -26.3058  -12.9337   20.3374 N   0  0  0  0  0  0
  -25.9335  -11.6495   20.5772 N   0  0  0  0  0  0
  -22.0498  -12.8246   22.0392 N   0  0  0  0  0  0
  -25.4335  -15.1882   20.4130 N   0  0  0  0  0  0
  -31.7958  -14.6325   20.0236 O   0  0  0  0  0  0
  -21.6632   -6.8885   21.4244 O   0  0  0  0  0  0
  -22.3552  -14.5550   20.6674 O   0  0  0  0  0  0
  -24.6101  -31.8700   23.2135 C   0  0  0  0  0  0
  -25.9024  -32.4810   23.8371 C   0  0  1  0  0  0
  -27.2176  -27.4474   20.0885 C   0  0  0  0  0  0
  -25.5953  -33.8609   24.2311 N   0  0  0  0  0  0
  -23.3921  -30.4947   21.5528 C   0  0  2  0  0  0
  -24.8378  -28.9739   20.1098 C   0  0  0  0  0  0
  -22.7392  -29.4593   22.4980 C   0  0  0  0  0  0
  -18.0258  -28.1396   22.8507 C   0  0  0  0  0  0
  -24.1519  -36.7312   23.2631 C   0  0  0  0  0  0
  -25.9153  -30.8421   21.3577 C   0  0  0  0  0  0
  -25.9942  -29.4728   20.7203 C   0  0  0  0  0  0
  -27.1787  -28.7074   20.7295 C   0  0  0  0  0  0
  -26.0413  -26.9708   19.4597 C   0  0  0  0  0  0
  -24.8531  -27.7164   19.4873 C   0  0  0  0  0  0
  -23.6037  -29.8434   20.1578 C   0  0  0  0  0  0
  -25.4130  -36.3063   24.0318 C   0  0  1  0  0  0
  -20.5858  -28.3597   23.1433 C   0  0  2  0  0  0
  -20.6767  -26.9340   22.5487 C   0  0  0  0  0  0
  -19.5742  -26.6374   21.5284 C   0  0  0  0  0  0
  -18.1907  -26.7954   22.1655 C   0  0  0  0  0  0
  -19.1518  -28.8819   23.2977 C   0  0  0  0  0  0
  -18.9443  -30.1467   23.8917 C   0  0  0  0  0  0
  -17.6443  -30.6595   24.0575 C   0  0  0  0  0  0
  -25.9052  -34.9451   23.5068 C   0  0  0  0  0  0
  -16.5335  -29.9075   23.6360 C   0  0  0  0  0  0
  -16.7244  -28.6531   23.0298 C   0  0  0  0  0  0
  -26.4476  -31.6570   25.0654 C   0  0  0  0  0  0
  -25.3755  -31.3671   26.1395 C   0  0  0  0  0  0
  -27.0309  -30.3033   24.5980 C   0  0  0  0  0  0
  -27.6086  -32.4216   25.7452 C   0  0  0  0  0  0
  -27.5569  -37.1802   24.8465 C   0  0  0  0  0  0
  -21.4119  -29.2957   22.3813 N   0  0  0  0  0  0
  -26.4278  -37.3765   23.9399 N   0  0  0  0  0  0
  -24.6578  -31.0814   22.1035 N   0  0  0  0  0  0
  -23.4188  -28.8093   23.2957 O   0  0  0  0  0  0
  -28.4085  -26.7574   20.0816 O   0  0  0  0  0  0
  -26.5596  -34.8912   22.4616 O   0  0  0  0  0  0
  -23.5318  -32.1417   23.7581 O   0  0  0  0  0  0
  -29.0381  -17.5761   25.0124 C   0  0  0  0  0  0
  -30.5921  -19.2749   24.2064 C   0  0  0  0  0  0
  -29.6212  -16.6257   24.1483 C   0  0  0  0  0  0
  -31.1729  -18.3262   23.3423 C   0  0  0  0  0  0
  -29.5283  -18.9003   25.0538 C   0  0  0  0  0  0
  -30.6951  -17.0008   23.3125 C   0  0  0  0  0  0
  -28.0357  -21.5676   24.3859 C   0  0  0  0  0  0
  -25.5974  -22.9790   22.9831 C   0  0  0  0  0  0
  -26.2887  -23.3757   24.2921 C   0  0  0  0  0  0
  -26.7032  -23.0335   21.9213 C   0  0  0  0  0  0
  -27.7723  -23.0534   24.0592 C   0  0  2  0  0  0
  -28.9060  -19.9100   26.0138 C   0  0  0  0  0  0
  -31.3900  -15.9970   22.4062 C   0  0  0  0  0  0
  -29.2705  -24.6829   20.8807 C   0  0  0  0  0  0
  -28.5928  -24.6276   22.2788 C   0  0  0  0  0  0
  -28.4279  -25.3574   19.7889 C   0  0  0  0  0  0
  -28.7509  -21.2634   25.4759 N   0  0  0  0  0  0
  -30.5068  -14.9953   21.8161 N   0  0  0  0  0  0
  -27.9926  -23.2991   22.6109 N   0  3  2  0  0  0
  -27.5476  -20.6958   23.6627 O   0  0  0  0  0  0
  -31.4539  -12.3767   19.0730 H   0  0  0  0  0  0
  -30.3080  -11.2590   19.7544 H   0  0  0  0  0  0
  -29.7059  -11.8133   17.3863 H   0  0  0  0  0  0
  -29.6468  -13.5149   17.7797 H   0  0  0  0  0  0
  -27.8212  -11.3143   18.8077 H   0  0  0  0  0  0
  -27.3459  -12.6476   17.7882 H   0  0  0  0  0  0
  -27.7204  -14.2552   19.5898 H   0  0  0  0  0  0
  -28.6607  -11.9296   21.3367 H   0  0  0  0  0  0
  -28.4574  -13.5739   21.8619 H   0  0  0  0  0  0
  -25.2760   -9.5681   22.4769 H   0  0  0  0  0  0
  -23.9993   -7.4632   22.7470 H   0  0  0  0  0  0
  -21.0839   -8.8784   19.8949 H   0  0  0  0  0  0
  -22.3703  -10.9680   19.6155 H   0  0  0  0  0  0
  -21.2002   -7.6152   23.9710 H   0  0  0  0  0  0
  -21.1483   -6.0530   25.9072 H   0  0  0  0  0  0
  -22.0593   -2.7611   23.2853 H   0  0  0  0  0  0
  -22.4083  -11.9922   22.4815 H   0  0  0  0  0  0
  -21.1097  -13.1265   22.2542 H   0  0  0  0  0  0
  -24.6763  -15.8494   20.5458 H   0  0  0  0  0  0
  -26.2982  -15.6311   20.1289 H   0  0  0  0  0  0
  -26.7076  -32.5507   23.1105 H   0  0  0  0  0  0
  -25.0144  -33.9821   25.0476 H   0  0  0  0  0  0
  -22.6739  -31.3071   21.4178 H   0  0  0  0  0  0
  -23.3764  -35.9663   23.3283 H   0  0  0  0  0  0
  -24.3620  -36.8954   22.2048 H   0  0  0  0  0  0
  -23.7330  -37.6530   23.6664 H   0  0  0  0  0  0
  -26.0013  -31.5980   20.5738 H   0  0  0  0  0  0
  -26.8154  -30.9205   21.9554 H   0  0  0  0  0  0
  -28.0605  -29.0729   21.2400 H   0  0  0  0  0  0
  -26.0118  -26.0385   18.9148 H   0  0  0  0  0  0
  -23.9616  -27.3386   19.0076 H   0  0  0  0  0  0
  -23.7253  -30.6262   19.4090 H   0  0  0  0  0  0
  -22.7283  -29.2734   19.8406 H   0  0  0  0  0  0
  -25.1333  -36.1861   25.0816 H   0  0  0  0  0  0
  -20.9972  -28.3110   24.1554 H   0  0  0  0  0  0
  -20.5783  -26.2112   23.3592 H   0  0  0  0  0  0
  -21.6630  -26.7444   22.1229 H   0  0  0  0  0  0
  -19.6902  -25.6299   21.1255 H   0  0  0  0  0  0
  -19.6776  -27.3260   20.6889 H   0  0  0  0  0  0
  -17.4216  -26.6758   21.4005 H   0  0  0  0  0  0
  -18.0223  -26.0117   22.9064 H   0  0  0  0  0  0
  -19.7909  -30.7313   24.2255 H   0  0  0  0  0  0
  -17.4983  -31.6289   24.5151 H   0  0  0  0  0  0
  -15.5342  -30.2957   23.7706 H   0  0  0  0  0  0
  -15.8660  -28.0911   22.6877 H   0  0  0  0  0  0
  -24.5924  -30.7013   25.7729 H   0  0  0  0  0  0
  -24.8959  -32.2846   26.4808 H   0  0  0  0  0  0
  -25.8126  -30.8831   27.0141 H   0  0  0  0  0  0
  -26.2803  -29.6797   24.1097 H   0  0  0  0  0  0
  -27.4194  -29.7244   25.4369 H   0  0  0  0  0  0
  -27.8613  -30.4399   23.9050 H   0  0  0  0  0  0
  -27.2735  -33.3495   26.2072 H   0  0  0  0  0  0
  -28.3944  -32.6780   25.0323 H   0  0  0  0  0  0
  -28.0698  -31.8259   26.5349 H   0  0  0  0  0  0
  -28.2548  -38.0130   24.7498 H   0  0  0  0  0  0
  -28.1085  -36.2644   24.6266 H   0  0  0  0  0  0
  -27.2290  -37.1451   25.8872 H   0  0  0  0  0  0
  -20.9195  -29.8746   21.7157 H   0  0  0  0  0  0
  -26.0145  -38.2814   24.1458 H   0  0  0  0  0  0
  -28.2179  -17.2764   25.6489 H   0  0  0  0  0  0
  -30.9646  -20.2895   24.2120 H   0  0  0  0  0  0
  -29.2517  -15.6102   24.1600 H   0  0  0  0  0  0
  -31.9945  -18.6264   22.7049 H   0  0  0  0  0  0
  -24.7631  -23.6404   22.7431 H   0  0  0  0  0  0
  -25.1929  -21.9658   23.0316 H   0  0  0  0  0  0
  -25.8688  -22.8532   25.1537 H   0  0  0  0  0  0
  -26.1747  -24.4437   24.4834 H   0  0  0  0  0  0
  -26.4423  -23.7843   21.1858 H   0  0  0  0  0  0
  -26.7880  -22.0786   21.3978 H   0  0  0  0  0  0
  -28.4080  -23.6845   24.6835 H   0  0  0  0  0  0
  -29.5310  -19.9483   26.9070 H   0  0  0  0  0  0
  -27.9281  -19.5510   26.3384 H   0  0  0  0  0  0
  -32.1584  -15.4806   22.9869 H   0  0  0  0  0  0
  -31.9179  -16.5514   21.6263 H   0  0  0  0  0  0
  -29.5752  -23.6881   20.5573 H   0  0  0  0  0  0
  -30.1913  -25.2633   20.9502 H   0  0  0  0  0  0
  -27.8275  -25.3973   22.3786 H   0  0  0  0  0  0
  -29.3540  -24.8862   23.0188 H   0  0  0  0  0  0
  -27.4625  -24.8666   19.7344 H   0  0  0  0  0  0
  -28.8729  -25.2152   18.8051 H   0  0  0  0  0  0
  -29.1420  -22.0224   26.0212 H   0  0  0  0  0  0
  -29.6850  -14.7157   22.3291 H   0  0  0  0  0  0
  -28.6498  -22.5839   22.3370 H   0  0  0  0  0  0
  1 25  1  0  0  0
  1 30  2  0  0  0
  1 88  1  0  0  0
  2  3  1  0  0  0
  2 25  1  0  0  0
  2 91  1  0  0  0
  2 92  1  0  0  0
  3  4  1  0  0  0
  3 93  1  0  0  0
  3 94  1  0  0  0
  4  5  1  0  0  0
  4 95  1  0  0  0
  4 96  1  0  0  0
  5  6  1  0  0  0
  5 26  1  0  0  0
  5 97  1  0  0  0
  6 25  1  0  0  0
  6 98  1  0  0  0
  6 99  1  0  0  0
  7  8  2  0  0  0
  7 26  1  0  0  0
  7 29  1  0  0  0
  8  9  1  0  0  0
  8 22  1  0  0  0
  9 10  1  0  0  0
  9 27  2  0  0  0
 10 11  2  0  0  0
 10 15  1  0  0  0
 11 12  1  0  0  0
 11100  1  0  0  0
 12 13  2  0  0  0
 12101  1  0  0  0
 13 14  1  0  0  0
 13 31  1  0  0  0
 14 15  2  0  0  0
 14102  1  0  0  0
 15103  1  0  0  0
 16 17  2  0  0  0
 16 21  1  0  0  0
 16 31  1  0  0  0
 17 18  1  0  0  0
 17104  1  0  0  0
 18 19  2  0  0  0
 18105  1  0  0  0
 19 20  1  0  0  0
 19 24  1  0  0  0
 20 21  2  0  0  0
 20106  1  0  0  0
 21 23  1  0  0  0
 22 28  1  0  0  0
 22 32  2  0  0  0
 26 27  1  0  0  0
 28107  1  0  0  0
 28108  1  0  0  0
 29109  1  0  0  0
 29110  1  0  0  0
 33 34  1  0  0  0
 33 66  1  0  0  0
 33 70  2  0  0  0
 34 36  1  0  0  0
 34 59  1  0  0  0
 34111  1  0  0  0
 35 44  2  0  0  0
 35 45  1  0  0  0
 35 68  1  0  0  0
 36 56  1  0  0  0
 36112  1  0  0  0
 37 39  1  0  0  0
 37 47  1  0  0  0
 37 66  1  0  0  0
 37113  1  0  0  0
 38 43  2  0  0  0
 38 46  1  0  0  0
 38 47  1  0  0  0
 39 64  1  0  0  0
 39 67  2  0  0  0
 40 52  1  0  0  0
 40 53  2  0  0  0
 40 58  1  0  0  0
 41114  1  0  0  0
 41115  1  0  0  0
 41116  1  0  0  0
 41 48  1  0  0  0
 42 43  1  0  0  0
 42 66  1  0  0  0
 42117  1  0  0  0
 42118  1  0  0  0
 43 44  1  0  0  0
 44119  1  0  0  0
 45 46  2  0  0  0
 45120  1  0  0  0
 46121  1  0  0  0
 47122  1  0  0  0
 47123  1  0  0  0
 48 56  1  0  0  0
 48 65  1  0  0  0
 48124  1  0  0  0
 49 50  1  0  0  0
 49 53  1  0  0  0
 49 64  1  0  0  0
 49125  1  0  0  0
 50 51  1  0  0  0
 50126  1  0  0  0
 50127  1  0  0  0
 51 52  1  0  0  0
 51128  1  0  0  0
 51129  1  0  0  0
 52130  1  0  0  0
 52131  1  0  0  0
 53 54  1  0  0  0
 54 55  2  0  0  0
 54132  1  0  0  0
 55 57  1  0  0  0
 55133  1  0  0  0
 56 69  2  0  0  0
 57 58  2  0  0  0
 57134  1  0  0  0
 58135  1  0  0  0
 59 60  1  0  0  0
 59 61  1  0  0  0
 59 62  1  0  0  0
 60136  1  0  0  0
 60137  1  0  0  0
 60138  1  0  0  0
 61139  1  0  0  0
 61140  1  0  0  0
 61141  1  0  0  0
 62142  1  0  0  0
 62143  1  0  0  0
 62144  1  0  0  0
 63 65  1  0  0  0
 63145  1  0  0  0
 63146  1  0  0  0
 63147  1  0  0  0
 64148  1  0  0  0
 65149  1  0  0  0
 68 86  1  0  0  0
 71 73  2  0  0  0
 71 75  1  0  0  0
 71150  1  0  0  0
 72 74  1  0  0  0
 72 75  2  0  0  0
 72151  1  0  0  0
 73 76  1  0  0  0
 73152  1  0  0  0
 74 76  2  0  0  0
 74153  1  0  0  0
 75 82  1  0  0  0
 76 83  1  0  0  0
 77 87  1  0  0  0
 77 90  2  0  0  0
 77 81  1  0  0  0
 78 79  1  0  0  0
 78 80  1  0  0  0
 78154  1  0  0  0
 78155  1  0  0  0
 79 81  1  0  0  0
 79156  1  0  0  0
 79157  1  0  0  0
 80 89  1  0  0  0
 80158  1  0  0  0
 80159  1  0  0  0
 81 89  1  0  0  0
 81160  1  0  0  0
 82 87  1  0  0  0
 82161  1  0  0  0
 82162  1  0  0  0
 83 88  1  0  0  0
 83163  1  0  0  0
 83164  1  0  0  0
 84 85  1  0  0  0
 84 86  1  0  0  0
 84165  1  0  0  0
 84166  1  0  0  0
 85167  1  0  0  0
 85168  1  0  0  0
 85 89  1  0  0  0
 86169  1  0  0  0
 86170  1  0  0  0
 87171  1  0  0  0
 88172  1  0  0  0
 89173  1  0  0  0
M  CHG  1  89   1
M  ISO  4   1 100  68 101  86 101  88 100
M  END
> <chiral flag>
0

> <version>
0

> <s_m_source_file>
/data/baiqing/PycharmProjects/Reinvent-master-3.2/result/LINK_invent/BTK/process_docking_weight1_custom_product_contain_oxygen_bond_distance_aromatic_linkinvent_7_9_3/rearranged_h_0003.sdf

> <i_m_source_file_index>
36

> <r_mmod_Potential_Energy-OPLS-2005>
-254.567977905273

> <r_mmod_Stretch_Energy-OPLS-2005>
34.8811149597168

> <r_mmod_Bend_Energy-OPLS-2005>
118.294692993164

> <r_mmod_Torsional_Energy-OPLS-2005>
275.864990234375

> <r_mmod_Improper_Torsional_Energy-OPLS-2005>
2.92964386940002

> <r_mmod_Van_der_Waal_Energy-OPLS-2005>
166.864013671875

> <r_mmod_Electrostatic_Energy-OPLS-2005>
-416.876068115234

> <r_mmod_Solvation_Energy-OPLS-2005>
-445.465850830078

> <b_mmod_Minimization_Converged-OPLS-2005>
0

> <r_mmod_RMS_Derivative-OPLS-2005>
5.53861808776855

$$$$
36
                    3D
 Structure written by MMmdl.
153161  0  0  1  0            999 V2000
  -30.5770  -14.6725   20.4904 C   0  0  0  0  0  0
  -30.4513  -12.4109   19.4460 C   0  0  0  0  0  0
  -29.5111  -12.5082   18.2218 C   0  0  0  0  0  0
  -28.0331  -12.3427   18.6331 C   0  0  0  0  0  0
  -27.6543  -13.2087   19.8629 C   0  0  2  0  0  0
  -28.7018  -13.0503   20.9891 C   0  0  0  0  0  0
  -25.2563  -13.8138   20.5656 C   0  0  0  0  0  0
  -24.1833  -13.0425   20.9212 C   0  0  0  0  0  0
  -24.6390  -11.6893   20.8755 C   0  0  0  0  0  0
  -23.9055  -10.4285   21.0419 C   0  0  0  0  0  0
  -24.3609   -9.4201   21.9193 C   0  0  0  0  0  0
  -23.6289   -8.2232   22.0753 C   0  0  0  0  0  0
  -22.4268   -8.0274   21.3546 C   0  0  0  0  0  0
  -21.9909   -9.0246   20.4644 C   0  0  0  0  0  0
  -22.7231  -10.2129   20.3062 C   0  0  0  0  0  0
  -21.6849   -6.0736   22.5281 C   0  0  0  0  0  0
  -21.4005   -6.5638   23.8214 C   0  0  0  0  0  0
  -21.3661   -5.6793   24.9176 C   0  0  0  0  0  0
  -21.6049   -4.3055   24.7226 C   0  0  0  0  0  0
  -21.8819   -3.8148   23.4346 C   0  0  0  0  0  0
  -21.9188   -4.6965   22.3403 C   0  0  0  0  0  0
  -22.7855  -13.5229   21.1870 C   0  0  0  0  0  0
  -22.1658   -4.2152   21.0983 F   0  0  0  0  0  0
  -21.5636   -3.4540   25.7739 F   0  0  0  0  0  0
  -30.0133  -13.4213   20.4294 N   0  0  0  0  0  0
  -26.2989  -12.9307   20.3298 N   0  0  0  0  0  0
  -25.9316  -11.6473   20.5761 N   0  0  0  0  0  0
  -22.0490  -12.8221   22.0420 N   0  0  0  0  0  0
  -25.4254  -15.1846   20.3952 N   0  0  0  0  0  0
  -31.7356  -14.8765   20.1136 O   0  0  0  0  0  0
  -21.6634   -6.8874   21.4241 O   0  0  0  0  0  0
  -22.3553  -14.5545   20.6725 O   0  0  0  0  0  0
  -24.6242  -31.8581   23.2006 C   0  0  0  0  0  0
  -25.9092  -32.4770   23.8324 C   0  0  1  0  0  0
  -27.2353  -27.3171   20.1323 C   0  0  0  0  0  0
  -25.5919  -33.8570   24.2267 N   0  0  0  0  0  0
  -23.4180  -30.4783   21.5426 C   0  0  2  0  0  0
  -24.8675  -28.9199   20.1207 C   0  0  0  0  0  0
  -22.7468  -29.4607   22.4944 C   0  0  0  0  0  0
  -18.0286  -28.1387   22.8478 C   0  0  0  0  0  0
  -24.1489  -36.7273   23.2644 C   0  0  0  0  0  0
  -25.9574  -30.7895   21.3696 C   0  0  0  0  0  0
  -26.0339  -29.4124   20.7186 C   0  0  0  0  0  0
  -27.2204  -28.6243   20.7086 C   0  0  0  0  0  0
  -26.0471  -26.8622   19.5262 C   0  0  0  0  0  0
  -24.8748  -27.6490   19.5176 C   0  0  0  0  0  0
  -23.6358  -29.8027   20.1618 C   0  0  0  0  0  0
  -25.4111  -36.3068   24.0337 C   0  0  1  0  0  0
  -20.5881  -28.3677   23.1298 C   0  0  2  0  0  0
  -20.6777  -26.9401   22.5421 C   0  0  0  0  0  0
  -19.5758  -26.6377   21.5221 C   0  0  0  0  0  0
  -18.1929  -26.7928   22.1619 C   0  0  0  0  0  0
  -19.1534  -28.8846   23.2878 C   0  0  0  0  0  0
  -18.9464  -30.1450   23.8886 C   0  0  0  0  0  0
  -17.6468  -30.6586   24.0557 C   0  0  0  0  0  0
  -25.9047  -34.9445   23.5100 C   0  0  0  0  0  0
  -16.5356  -29.9082   23.6343 C   0  0  0  0  0  0
  -16.7271  -28.6513   23.0338 C   0  0  0  0  0  0
  -26.4496  -31.6579   25.0692 C   0  0  0  0  0  0
  -25.3740  -31.3719   26.1432 C   0  0  0  0  0  0
  -27.0334  -30.3004   24.6123 C   0  0  0  0  0  0
  -27.6044  -32.4321   25.7465 C   0  0  0  0  0  0
  -27.5574  -37.1790   24.8473 C   0  0  0  0  0  0
  -21.4185  -29.3026   22.3690 N   0  0  0  0  0  0
  -26.4286  -37.3765   23.9417 N   0  0  0  0  0  0
  -24.6856  -31.0590   22.0950 N   0  0  0  0  0  0
  -23.4198  -28.8156   23.3030 O   0  0  0  0  0  0
  -28.3897  -26.5274   20.0881 O   0  0  0  0  0  0
  -26.5611  -34.8921   22.4664 O   0  0  0  0  0  0
  -23.5409  -32.1382   23.7341 O   0  0  0  0  0  0
  -28.0843  -19.1029   20.7846 C   0  0  0  0  0  0
  -30.4328  -19.4867   20.4955 C   0  0  0  0  0  0
  -28.3189  -17.7007   20.8122 C   0  0  0  0  0  0
  -30.6689  -18.0648   20.5003 C   0  0  0  0  0  0
  -29.1298  -20.0528   20.6588 C   0  0  0  0  0  0
  -29.6109  -17.1280   20.6915 C   0  0  0  0  0  0
  -28.8026  -21.5923   20.8911 C   0  0  0  0  0  0
  -28.2631  -23.8881   19.6650 C   0  0  0  0  0  0
  -28.4108  -25.1466   20.6335 C   0  0  0  0  0  0
  -29.7000  -15.6689   20.8443 N   0  0  0  0  0  0
  -29.1370  -22.6385   19.8529 N   0  3  0  0  0  0
  -31.4877  -12.5627   19.1392 H   0  0  0  0  0  0
  -30.4120  -11.4125   19.8842 H   0  0  0  0  0  0
  -29.7765  -11.7507   17.4829 H   0  0  0  0  0  0
  -29.6473  -13.4736   17.7317 H   0  0  0  0  0  0
  -27.8690  -11.2888   18.8602 H   0  0  0  0  0  0
  -27.3786  -12.5759   17.7921 H   0  0  0  0  0  0
  -27.6729  -14.2451   19.5254 H   0  0  0  0  0  0
  -28.7240  -12.0195   21.3463 H   0  0  0  0  0  0
  -28.4409  -13.6543   21.8597 H   0  0  0  0  0  0
  -25.2752   -9.5682   22.4767 H   0  0  0  0  0  0
  -24.0001   -7.4627   22.7468 H   0  0  0  0  0  0
  -21.0844   -8.8765   19.8941 H   0  0  0  0  0  0
  -22.3693  -10.9672   19.6174 H   0  0  0  0  0  0
  -21.1988   -7.6144   23.9720 H   0  0  0  0  0  0
  -21.1487   -6.0520   25.9083 H   0  0  0  0  0  0
  -22.0595   -2.7609   23.2846 H   0  0  0  0  0  0
  -22.4087  -11.9862   22.4797 H   0  0  0  0  0  0
  -21.1110  -13.1256   22.2627 H   0  0  0  0  0  0
  -24.6433  -15.8260   20.4683 H   0  0  0  0  0  0
  -26.2318  -15.5958   19.9446 H   0  0  0  0  0  0
  -26.7147  -32.5448   23.1060 H   0  0  0  0  0  0
  -25.0105  -33.9708   25.0434 H   0  0  0  0  0  0
  -22.7111  -31.2973   21.3937 H   0  0  0  0  0  0
  -23.3762  -35.9598   23.3312 H   0  0  0  0  0  0
  -24.3582  -36.8879   22.2059 H   0  0  0  0  0  0
  -23.7244  -37.6476   23.6661 H   0  0  0  0  0  0
  -26.0847  -31.5498   20.5975 H   0  0  0  0  0  0
  -26.8390  -30.8431   21.9958 H   0  0  0  0  0  0
  -28.1236  -29.0078   21.1621 H   0  0  0  0  0  0
  -26.0259  -25.8942   19.0471 H   0  0  0  0  0  0
  -23.9799  -27.2641   19.0491 H   0  0  0  0  0  0
  -23.7586  -30.5754   19.4020 H   0  0  0  0  0  0
  -22.7559  -29.2328   19.8589 H   0  0  0  0  0  0
  -25.1296  -36.1913   25.0833 H   0  0  0  0  0  0
  -20.9956  -28.3246   24.1425 H   0  0  0  0  0  0
  -20.5694  -26.2276   23.3606 H   0  0  0  0  0  0
  -21.6644  -26.7443   22.1200 H   0  0  0  0  0  0
  -19.6924  -25.6294   21.1238 H   0  0  0  0  0  0
  -19.6709  -27.3196   20.6758 H   0  0  0  0  0  0
  -17.4206  -26.6674   21.4016 H   0  0  0  0  0  0
  -18.0314  -26.0076   22.9015 H   0  0  0  0  0  0
  -19.7945  -30.7259   24.2247 H   0  0  0  0  0  0
  -17.5032  -31.6274   24.5145 H   0  0  0  0  0  0
  -15.5361  -30.2975   23.7689 H   0  0  0  0  0  0
  -15.8670  -28.0837   22.7043 H   0  0  0  0  0  0
  -24.5908  -30.7073   25.7769 H   0  0  0  0  0  0
  -24.8948  -32.2889   26.4860 H   0  0  0  0  0  0
  -25.8075  -30.8896   27.0200 H   0  0  0  0  0  0
  -26.2885  -29.6750   24.1184 H   0  0  0  0  0  0
  -27.4093  -29.7261   25.4602 H   0  0  0  0  0  0
  -27.8733  -30.4302   23.9292 H   0  0  0  0  0  0
  -27.2645  -33.3626   26.2018 H   0  0  0  0  0  0
  -28.3868  -32.6868   25.0305 H   0  0  0  0  0  0
  -28.0697  -31.8468   26.5403 H   0  0  0  0  0  0
  -28.2589  -38.0084   24.7501 H   0  0  0  0  0  0
  -28.1070  -36.2613   24.6319 H   0  0  0  0  0  0
  -27.2293  -37.1458   25.8876 H   0  0  0  0  0  0
  -20.9357  -29.8720   21.6881 H   0  0  0  0  0  0
  -26.0168  -38.2841   24.1418 H   0  0  0  0  0  0
  -27.0694  -19.4472   20.9290 H   0  0  0  0  0  0
  -31.2852  -20.1463   20.4074 H   0  0  0  0  0  0
  -27.4664  -17.0557   20.9654 H   0  0  0  0  0  0
  -31.6835  -17.7046   20.3999 H   0  0  0  0  0  0
  -29.2703  -21.8923   21.8299 H   0  0  0  0  0  0
  -27.7307  -21.6654   21.0755 H   0  0  0  0  0  0
  -28.5007  -24.2511   18.6650 H   0  0  0  0  0  0
  -27.2150  -23.5904   19.6133 H   0  0  0  0  0  0
  -29.3783  -25.0637   21.1280 H   0  0  0  0  0  0
  -27.6831  -25.0662   21.4427 H   0  0  0  0  0  0
  -28.8315  -15.2577   21.1476 H   0  0  0  0  0  0
  -29.0980  -22.1450   18.9757 H   0  0  0  0  0  0
  -30.1001  -22.9112   19.9729 H   0  0  0  0  0  0
  1 25  1  0  0  0
  1 30  2  0  0  0
  1 80  1  0  0  0
  2  3  1  0  0  0
  2 25  1  0  0  0
  2 82  1  0  0  0
  2 83  1  0  0  0
  3  4  1  0  0  0
  3 84  1  0  0  0
  3 85  1  0  0  0
  4  5  1  0  0  0
  4 86  1  0  0  0
  4 87  1  0  0  0
  5  6  1  0  0  0
  5 26  1  0  0  0
  5 88  1  0  0  0
  6 25  1  0  0  0
  6 89  1  0  0  0
  6 90  1  0  0  0
  7  8  2  0  0  0
  7 26  1  0  0  0
  7 29  1  0  0  0
  8  9  1  0  0  0
  8 22  1  0  0  0
  9 10  1  0  0  0
  9 27  2  0  0  0
 10 11  2  0  0  0
 10 15  1  0  0  0
 11 12  1  0  0  0
 11 91  1  0  0  0
 12 13  2  0  0  0
 12 92  1  0  0  0
 13 14  1  0  0  0
 13 31  1  0  0  0
 14 15  2  0  0  0
 14 93  1  0  0  0
 15 94  1  0  0  0
 16 17  2  0  0  0
 16 21  1  0  0  0
 16 31  1  0  0  0
 17 18  1  0  0  0
 17 95  1  0  0  0
 18 19  2  0  0  0
 18 96  1  0  0  0
 19 20  1  0  0  0
 19 24  1  0  0  0
 20 21  2  0  0  0
 20 97  1  0  0  0
 21 23  1  0  0  0
 22 28  1  0  0  0
 22 32  2  0  0  0
 26 27  1  0  0  0
 28 98  1  0  0  0
 28 99  1  0  0  0
 29100  1  0  0  0
 29101  1  0  0  0
 33 34  1  0  0  0
 33 66  1  0  0  0
 33 70  2  0  0  0
 34 36  1  0  0  0
 34 59  1  0  0  0
 34102  1  0  0  0
 35 44  2  0  0  0
 35 45  1  0  0  0
 35 68  1  0  0  0
 36 56  1  0  0  0
 36103  1  0  0  0
 37 39  1  0  0  0
 37 47  1  0  0  0
 37 66  1  0  0  0
 37104  1  0  0  0
 38 43  2  0  0  0
 38 46  1  0  0  0
 38 47  1  0  0  0
 39 64  1  0  0  0
 39 67  2  0  0  0
 40 52  1  0  0  0
 40 53  2  0  0  0
 40 58  1  0  0  0
 41105  1  0  0  0
 41106  1  0  0  0
 41107  1  0  0  0
 41 48  1  0  0  0
 42 43  1  0  0  0
 42 66  1  0  0  0
 42108  1  0  0  0
 42109  1  0  0  0
 43 44  1  0  0  0
 44110  1  0  0  0
 45 46  2  0  0  0
 45111  1  0  0  0
 46112  1  0  0  0
 47113  1  0  0  0
 47114  1  0  0  0
 48 56  1  0  0  0
 48 65  1  0  0  0
 48115  1  0  0  0
 49 50  1  0  0  0
 49 53  1  0  0  0
 49 64  1  0  0  0
 49116  1  0  0  0
 50 51  1  0  0  0
 50117  1  0  0  0
 50118  1  0  0  0
 51 52  1  0  0  0
 51119  1  0  0  0
 51120  1  0  0  0
 52121  1  0  0  0
 52122  1  0  0  0
 53 54  1  0  0  0
 54 55  2  0  0  0
 54123  1  0  0  0
 55 57  1  0  0  0
 55124  1  0  0  0
 56 69  2  0  0  0
 57 58  2  0  0  0
 57125  1  0  0  0
 58126  1  0  0  0
 59 60  1  0  0  0
 59 61  1  0  0  0
 59 62  1  0  0  0
 60127  1  0  0  0
 60128  1  0  0  0
 60129  1  0  0  0
 61130  1  0  0  0
 61131  1  0  0  0
 61132  1  0  0  0
 62133  1  0  0  0
 62134  1  0  0  0
 62135  1  0  0  0
 63 65  1  0  0  0
 63136  1  0  0  0
 63137  1  0  0  0
 63138  1  0  0  0
 64139  1  0  0  0
 65140  1  0  0  0
 68 79  1  0  0  0
 71 73  2  0  0  0
 71 75  1  0  0  0
 71141  1  0  0  0
 72 74  1  0  0  0
 72 75  2  0  0  0
 72142  1  0  0  0
 73 76  1  0  0  0
 73143  1  0  0  0
 74 76  2  0  0  0
 74144  1  0  0  0
 75 77  1  0  0  0
 76 80  1  0  0  0
 77 81  1  0  0  0
 77145  1  0  0  0
 77146  1  0  0  0
 78 79  1  0  0  0
 78 81  1  0  0  0
 78147  1  0  0  0
 78148  1  0  0  0
 79149  1  0  0  0
 79150  1  0  0  0
 80151  1  0  0  0
 81152  1  0  0  0
 81153  1  0  0  0
M  CHG  1  81   1
M  ISO  4   1 100  68 101  79 101  80 100
M  END
> <chiral flag>
0

> <version>
0

> <s_m_source_file>
/data/baiqing/PycharmProjects/Reinvent-master-3.2/result/LINK_invent/BTK/process_docking_weight1_custom_product_contain_oxygen_bond_distance_aromatic_linkinvent_7_9_3/rearranged_h_0003.sdf

> <i_m_source_file_index>
37

> <r_mmod_Potential_Energy-OPLS-2005>
-54.9934043884277

> <r_mmod_Stretch_Energy-OPLS-2005>
85.6707229614258

> <r_mmod_Bend_Energy-OPLS-2005>
175.563705444336

> <r_mmod_Torsional_Energy-OPLS-2005>
239.738403320312

> <r_mmod_Improper_Torsional_Energy-OPLS-2005>
5.90545845031738

> <r_mmod_Van_der_Waal_Energy-OPLS-2005>
131.060195922852

> <r_mmod_Electrostatic_Energy-OPLS-2005>
-278.882781982422

> <r_mmod_Solvation_Energy-OPLS-2005>
-465.260192871094

> <b_mmod_Minimization_Converged-OPLS-2005>
0

> <r_mmod_RMS_Derivative-OPLS-2005>
1.49292147159576

$$$$
37
                    3D
 Structure written by MMmdl.
186195  0  0  1  0            999 V2000
  -30.8187  -14.3921   20.6182 C   0  0  0  0  0  0
  -30.4039  -12.3141   19.3791 C   0  0  0  0  0  0
  -29.4641  -12.5191   18.1811 C   0  0  0  0  0  0
  -27.9990  -12.3497   18.6214 C   0  0  0  0  0  0
  -27.6575  -13.1998   19.8724 C   0  0  2  0  0  0
  -28.7172  -13.0051   20.9839 C   0  0  0  0  0  0
  -25.2600  -13.8073   20.5835 C   0  0  0  0  0  0
  -24.1779  -13.0449   20.9186 C   0  0  0  0  0  0
  -24.6369  -11.6913   20.8864 C   0  0  0  0  0  0
  -23.8966  -10.4343   21.0589 C   0  0  0  0  0  0
  -24.3447   -9.4355   21.9473 C   0  0  0  0  0  0
  -23.6166   -8.2354   22.1034 C   0  0  0  0  0  0
  -22.4321   -8.0264   21.3577 C   0  0  0  0  0  0
  -22.0027   -9.0107   20.4487 C   0  0  0  0  0  0
  -22.7313  -10.2051   20.3002 C   0  0  0  0  0  0
  -21.6866   -6.0813   22.5373 C   0  0  0  0  0  0
  -21.3968   -6.5740   23.8265 C   0  0  0  0  0  0
  -21.3676   -5.6924   24.9274 C   0  0  0  0  0  0
  -21.6010   -4.3167   24.7302 C   0  0  0  0  0  0
  -21.8779   -3.8214   23.4406 C   0  0  0  0  0  0
  -21.9201   -4.7041   22.3472 C   0  0  0  0  0  0
  -22.7809  -13.5312   21.1735 C   0  0  0  0  0  0
  -22.1625   -4.2247   21.1022 F   0  0  0  0  0  0
  -21.5594   -3.4547   25.7732 F   0  0  0  0  0  0
  -30.0464  -13.2899   20.4153 N   0  0  0  0  0  0
  -26.3031  -12.9291   20.3441 N   0  0  0  0  0  0
  -25.9303  -11.6472   20.5813 N   0  0  0  0  0  0
  -22.0349  -12.8290   22.0204 N   0  0  0  0  0  0
  -25.4311  -15.1725   20.4313 N   0  0  0  0  0  0
  -31.8492  -14.6211   19.9878 O   0  0  0  0  0  0
  -21.6661   -6.8887   21.4294 O   0  0  0  0  0  0
  -22.3582  -14.5725   20.6714 O   0  0  0  0  0  0
  -24.6137  -31.8719   23.2178 C   0  0  0  0  0  0
  -25.9039  -32.4854   23.8446 C   0  0  1  0  0  0
  -27.2011  -27.4452   20.0960 C   0  0  0  0  0  0
  -25.5908  -33.8645   24.2364 N   0  0  0  0  0  0
  -23.3997  -30.5018   21.5586 C   0  0  2  0  0  0
  -24.8417  -28.9968   20.0949 C   0  0  0  0  0  0
  -22.7439  -29.4668   22.5000 C   0  0  0  0  0  0
  -18.0269  -28.1379   22.8508 C   0  0  0  0  0  0
  -24.1480  -36.7320   23.2639 C   0  0  0  0  0  0
  -25.9312  -30.8449   21.3691 C   0  0  0  0  0  0
  -26.0050  -29.4919   20.7012 C   0  0  0  0  0  0
  -27.1949  -28.7229   20.6988 C   0  0  0  0  0  0
  -26.0348  -27.0016   19.4246 C   0  0  0  0  0  0
  -24.8526  -27.7545   19.4456 C   0  0  0  0  0  0
  -23.6023  -29.8548   20.1644 C   0  0  0  0  0  0
  -25.4097  -36.3131   24.0343 C   0  0  1  0  0  0
  -20.5874  -28.3646   23.1338 C   0  0  2  0  0  0
  -20.6762  -26.9381   22.5419 C   0  0  0  0  0  0
  -19.5738  -26.6385   21.5217 C   0  0  0  0  0  0
  -18.1917  -26.7922   22.1633 C   0  0  0  0  0  0
  -19.1528  -28.8828   23.2912 C   0  0  0  0  0  0
  -18.9454  -30.1446   23.8899 C   0  0  0  0  0  0
  -17.6458  -30.6579   24.0570 C   0  0  0  0  0  0
  -25.9023  -34.9489   23.5144 C   0  0  0  0  0  0
  -16.5344  -29.9086   23.6338 C   0  0  0  0  0  0
  -16.7258  -28.6512   23.0336 C   0  0  0  0  0  0
  -26.4464  -31.6620   25.0760 C   0  0  0  0  0  0
  -25.3729  -31.3713   26.1510 C   0  0  0  0  0  0
  -27.0294  -30.3075   24.6114 C   0  0  0  0  0  0
  -27.6051  -32.4333   25.7515 C   0  0  0  0  0  0
  -27.5569  -37.1822   24.8463 C   0  0  0  0  0  0
  -21.4159  -29.3018   22.3751 N   0  0  0  0  0  0
  -26.4299  -37.3808   23.9410 N   0  0  0  0  0  0
  -24.6664  -31.0852   22.1063 N   0  0  0  0  0  0
  -23.4232  -28.8172   23.3017 O   0  0  0  0  0  0
  -28.2740  -26.5937   20.2515 O   0  0  0  0  0  0
  -26.5586  -34.8940   22.4713 O   0  0  0  0  0  0
  -23.5338  -32.1461   23.7572 O   0  0  0  0  0  0
  -27.1874  -17.8332   21.9845 C   0  0  0  0  0  0
  -28.9869  -16.5125   22.9424 C   0  0  0  0  0  0
  -28.7183  -16.6114   20.5245 C   0  0  0  0  0  0
  -27.8652  -17.3441   23.1278 C   0  0  0  0  0  0
  -27.6326  -17.5031   20.6834 C   0  0  0  0  0  0
  -29.3790  -16.0973   21.6615 C   0  0  0  0  0  0
  -27.2727  -12.9147   25.6899 C   0  0  0  0  0  0
  -28.6523  -13.5623   25.8905 C   0  0  0  0  0  0
  -26.4229  -14.0203   25.0355 C   0  0  0  0  0  0
  -28.3185  -15.0424   26.0393 C   0  0  0  0  0  0
  -26.2967  -19.3857   25.9405 C   0  0  0  0  0  0
  -28.3672  -22.2642   23.0659 C   0  0  0  0  0  0
  -27.7360  -23.2899   22.1126 C   0  0  0  0  0  0
  -27.3114  -21.2449   23.5484 C   0  0  0  0  0  0
  -28.6344  -24.4496   21.6108 C   0  0  0  0  0  0
  -27.9048  -20.0603   24.3260 C   0  0  0  0  0  0
  -26.5208  -16.5561   25.1148 C   0  0  0  0  0  0
  -27.8304  -25.2568   20.5805 C   0  0  0  0  0  0
  -27.4247  -17.7018   24.5588 C   0  0  2  0  0  0
  -26.9458  -18.1235   19.4675 C   0  0  0  0  0  0
  -30.4888  -15.2202   21.6096 N   0  0  0  0  0  0
  -26.8608  -19.0632   24.6252 N   0  0  0  0  0  0
  -27.2405  -15.2520   25.0472 N   0  3  0  0  0  0
  -25.6196  -18.0843   19.6080 F   0  0  0  0  0  0
  -27.3215  -19.3975   19.3420 F   0  0  0  0  0  0
  -27.2645  -17.4733   18.3473 F   0  0  0  0  0  0
  -31.4504  -12.3866   19.0690 H   0  0  0  0  0  0
  -30.2793  -11.3037   19.7705 H   0  0  0  0  0  0
  -29.7029  -11.8004   17.3939 H   0  0  0  0  0  0
  -29.6127  -13.5090   17.7478 H   0  0  0  0  0  0
  -27.8662  -11.2938   18.8602 H   0  0  0  0  0  0
  -27.3136  -12.5639   17.7992 H   0  0  0  0  0  0
  -27.6769  -14.2405   19.5575 H   0  0  0  0  0  0
  -28.7100  -11.9779   21.3492 H   0  0  0  0  0  0
  -28.4782  -13.6144   21.8510 H   0  0  0  0  0  0
  -25.2513   -9.5871   22.5194 H   0  0  0  0  0  0
  -23.9827   -7.4870   22.7918 H   0  0  0  0  0  0
  -21.1235   -8.8332   19.8463 H   0  0  0  0  0  0
  -22.3855  -10.9528   19.5978 H   0  0  0  0  0  0
  -21.1959   -7.6230   23.9723 H   0  0  0  0  0  0
  -21.1685   -6.0740   25.9175 H   0  0  0  0  0  0
  -22.0544   -2.7652   23.2963 H   0  0  0  0  0  0
  -22.3852  -11.9760   22.4270 H   0  0  0  0  0  0
  -21.1010  -13.1316   22.2414 H   0  0  0  0  0  0
  -24.6566  -15.8213   20.4462 H   0  0  0  0  0  0
  -26.2621  -15.5578   20.0094 H   0  0  0  0  0  0
  -26.7126  -32.5578   23.1227 H   0  0  0  0  0  0
  -25.0060  -33.9829   25.0512 H   0  0  0  0  0  0
  -22.6840  -31.3168   21.4325 H   0  0  0  0  0  0
  -23.3745  -35.9652   23.3323 H   0  0  0  0  0  0
  -24.3566  -36.8914   22.2046 H   0  0  0  0  0  0
  -23.7222  -37.6537   23.6630 H   0  0  0  0  0  0
  -26.0448  -31.6194   20.6101 H   0  0  0  0  0  0
  -26.8216  -30.8930   21.9851 H   0  0  0  0  0  0
  -28.0827  -29.0808   21.2026 H   0  0  0  0  0  0
  -26.0089  -26.0417   18.9266 H   0  0  0  0  0  0
  -23.9677  -27.3774   18.9562 H   0  0  0  0  0  0
  -23.7018  -30.6404   19.4155 H   0  0  0  0  0  0
  -22.7279  -29.2751   19.8646 H   0  0  0  0  0  0
  -25.1269  -36.2012   25.0838 H   0  0  0  0  0  0
  -20.9960  -28.3197   24.1465 H   0  0  0  0  0  0
  -20.5682  -26.2244   23.3602 H   0  0  0  0  0  0
  -21.6632  -26.7437   22.1199 H   0  0  0  0  0  0
  -19.6890  -25.6300   21.1233 H   0  0  0  0  0  0
  -19.6677  -27.3219   20.6769 H   0  0  0  0  0  0
  -17.4186  -26.6691   21.4027 H   0  0  0  0  0  0
  -18.0300  -26.0058   22.9024 H   0  0  0  0  0  0
  -19.7913  -30.7273   24.2279 H   0  0  0  0  0  0
  -17.4987  -31.6261   24.5164 H   0  0  0  0  0  0
  -15.5332  -30.2980   23.7642 H   0  0  0  0  0  0
  -15.8662  -28.0823   22.7039 H   0  0  0  0  0  0
  -24.5916  -30.7047   25.7843 H   0  0  0  0  0  0
  -24.8900  -32.2861   26.4964 H   0  0  0  0  0  0
  -25.8093  -30.8884   27.0266 H   0  0  0  0  0  0
  -26.2840  -29.6867   24.1137 H   0  0  0  0  0  0
  -27.4052  -29.7277   25.4556 H   0  0  0  0  0  0
  -27.8681  -30.4425   23.9278 H   0  0  0  0  0  0
  -27.2692  -33.3633   26.2120 H   0  0  0  0  0  0
  -28.3853  -32.6905   25.0331 H   0  0  0  0  0  0
  -28.0738  -31.8438   26.5413 H   0  0  0  0  0  0
  -28.2614  -38.0096   24.7513 H   0  0  0  0  0  0
  -28.1055  -36.2639   24.6302 H   0  0  0  0  0  0
  -27.2297  -37.1477   25.8872 H   0  0  0  0  0  0
  -20.9316  -29.8761   21.6999 H   0  0  0  0  0  0
  -26.0187  -38.2904   24.1417 H   0  0  0  0  0  0
  -26.3349  -18.4886   22.0971 H   0  0  0  0  0  0
  -29.5573  -16.1647   23.7892 H   0  0  0  0  0  0
  -29.0339  -16.3385   19.5285 H   0  0  0  0  0  0
  -26.8478  -12.6435   26.6553 H   0  0  0  0  0  0
  -27.3038  -12.0086   25.0842 H   0  0  0  0  0  0
  -29.2696  -13.4171   25.0039 H   0  0  0  0  0  0
  -29.2070  -13.1812   26.7500 H   0  0  0  0  0  0
  -25.4957  -14.1533   25.5948 H   0  0  0  0  0  0
  -26.1653  -13.7578   24.0070 H   0  0  0  0  0  0
  -29.1959  -15.6717   25.8759 H   0  0  0  0  0  0
  -27.9721  -15.2519   27.0507 H   0  0  0  0  0  0
  -25.9947  -20.4324   25.9951 H   0  0  0  0  0  0
  -27.0166  -19.2092   26.7391 H   0  0  0  0  0  0
  -25.3997  -18.8011   26.1499 H   0  0  0  0  0  0
  -28.8033  -22.7707   23.9277 H   0  0  0  0  0  0
  -29.1850  -21.7539   22.5547 H   0  0  0  0  0  0
  -26.8674  -23.7181   22.6168 H   0  0  0  0  0  0
  -27.3372  -22.7532   21.2470 H   0  0  0  0  0  0
  -26.7719  -20.8601   22.6819 H   0  0  0  0  0  0
  -26.5752  -21.7612   24.1651 H   0  0  0  0  0  0
  -29.5517  -24.0719   21.1621 H   0  0  0  0  0  0
  -28.9216  -25.0840   22.4504 H   0  0  0  0  0  0
  -28.4080  -20.3925   25.2353 H   0  0  0  0  0  0
  -28.6923  -19.6358   23.6999 H   0  0  0  0  0  0
  -25.6187  -16.4863   24.5047 H   0  0  0  0  0  0
  -26.1821  -16.7229   26.1377 H   0  0  0  0  0  0
  -26.8342  -25.3092   21.0301 H   0  0  0  0  0  0
  -27.7170  -24.6774   19.6639 H   0  0  0  0  0  0
  -28.3201  -17.7234   25.1839 H   0  0  0  0  0  0
  -31.3091  -15.6430   22.0106 H   0  0  0  0  0  0
  -27.6917  -15.2797   24.1430 H   0  0  0  0  0  0
  1 25  1  0  0  0
  1 30  2  0  0  0
  1 91  1  0  0  0
  2  3  1  0  0  0
  2 25  1  0  0  0
  2 97  1  0  0  0
  2 98  1  0  0  0
  3  4  1  0  0  0
  3 99  1  0  0  0
  3100  1  0  0  0
  4  5  1  0  0  0
  4101  1  0  0  0
  4102  1  0  0  0
  5  6  1  0  0  0
  5 26  1  0  0  0
  5103  1  0  0  0
  6 25  1  0  0  0
  6104  1  0  0  0
  6105  1  0  0  0
  7  8  2  0  0  0
  7 26  1  0  0  0
  7 29  1  0  0  0
  8  9  1  0  0  0
  8 22  1  0  0  0
  9 10  1  0  0  0
  9 27  2  0  0  0
 10 11  2  0  0  0
 10 15  1  0  0  0
 11 12  1  0  0  0
 11106  1  0  0  0
 12 13  2  0  0  0
 12107  1  0  0  0
 13 14  1  0  0  0
 13 31  1  0  0  0
 14 15  2  0  0  0
 14108  1  0  0  0
 15109  1  0  0  0
 16 17  2  0  0  0
 16 21  1  0  0  0
 16 31  1  0  0  0
 17 18  1  0  0  0
 17110  1  0  0  0
 18 19  2  0  0  0
 18111  1  0  0  0
 19 20  1  0  0  0
 19 24  1  0  0  0
 20 21  2  0  0  0
 20112  1  0  0  0
 21 23  1  0  0  0
 22 28  1  0  0  0
 22 32  2  0  0  0
 26 27  1  0  0  0
 28113  1  0  0  0
 28114  1  0  0  0
 29115  1  0  0  0
 29116  1  0  0  0
 33 34  1  0  0  0
 33 66  1  0  0  0
 33 70  2  0  0  0
 34 36  1  0  0  0
 34 59  1  0  0  0
 34117  1  0  0  0
 35 44  2  0  0  0
 35 45  1  0  0  0
 35 68  1  0  0  0
 36 56  1  0  0  0
 36118  1  0  0  0
 37 39  1  0  0  0
 37 47  1  0  0  0
 37 66  1  0  0  0
 37119  1  0  0  0
 38 43  2  0  0  0
 38 46  1  0  0  0
 38 47  1  0  0  0
 39 64  1  0  0  0
 39 67  2  0  0  0
 40 52  1  0  0  0
 40 53  2  0  0  0
 40 58  1  0  0  0
 41120  1  0  0  0
 41121  1  0  0  0
 41122  1  0  0  0
 41 48  1  0  0  0
 42 43  1  0  0  0
 42 66  1  0  0  0
 42123  1  0  0  0
 42124  1  0  0  0
 43 44  1  0  0  0
 44125  1  0  0  0
 45 46  2  0  0  0
 45126  1  0  0  0
 46127  1  0  0  0
 47128  1  0  0  0
 47129  1  0  0  0
 48 56  1  0  0  0
 48 65  1  0  0  0
 48130  1  0  0  0
 49 50  1  0  0  0
 49 53  1  0  0  0
 49 64  1  0  0  0
 49131  1  0  0  0
 50 51  1  0  0  0
 50132  1  0  0  0
 50133  1  0  0  0
 51 52  1  0  0  0
 51134  1  0  0  0
 51135  1  0  0  0
 52136  1  0  0  0
 52137  1  0  0  0
 53 54  1  0  0  0
 54 55  2  0  0  0
 54138  1  0  0  0
 55 57  1  0  0  0
 55139  1  0  0  0
 56 69  2  0  0  0
 57 58  2  0  0  0
 57140  1  0  0  0
 58141  1  0  0  0
 59 60  1  0  0  0
 59 61  1  0  0  0
 59 62  1  0  0  0
 60142  1  0  0  0
 60143  1  0  0  0
 60144  1  0  0  0
 61145  1  0  0  0
 61146  1  0  0  0
 61147  1  0  0  0
 62148  1  0  0  0
 62149  1  0  0  0
 62150  1  0  0  0
 63 65  1  0  0  0
 63151  1  0  0  0
 63152  1  0  0  0
 63153  1  0  0  0
 64154  1  0  0  0
 65155  1  0  0  0
 68 88  1  0  0  0
 71 74  2  0  0  0
 71 75  1  0  0  0
 71156  1  0  0  0
 72 74  1  0  0  0
 72 76  2  0  0  0
 72157  1  0  0  0
 73 75  2  0  0  0
 73 76  1  0  0  0
 73158  1  0  0  0
 74 89  1  0  0  0
 75 90  1  0  0  0
 76 91  1  0  0  0
 77 78  1  0  0  0
 77 79  1  0  0  0
 77159  1  0  0  0
 77160  1  0  0  0
 78 80  1  0  0  0
 78161  1  0  0  0
 78162  1  0  0  0
 79 93  1  0  0  0
 79163  1  0  0  0
 79164  1  0  0  0
 80 93  1  0  0  0
 80165  1  0  0  0
 80166  1  0  0  0
 81 92  1  0  0  0
 81167  1  0  0  0
 81168  1  0  0  0
 81169  1  0  0  0
 82 83  1  0  0  0
 82 84  1  0  0  0
 82170  1  0  0  0
 82171  1  0  0  0
 83 85  1  0  0  0
 83172  1  0  0  0
 83173  1  0  0  0
 84 86  1  0  0  0
 84174  1  0  0  0
 84175  1  0  0  0
 85 88  1  0  0  0
 85176  1  0  0  0
 85177  1  0  0  0
 86 92  1  0  0  0
 86178  1  0  0  0
 86179  1  0  0  0
 87180  1  0  0  0
 87181  1  0  0  0
 87 89  1  0  0  0
 87 93  1  0  0  0
 88182  1  0  0  0
 88183  1  0  0  0
 89 92  1  0  0  0
 89184  1  0  0  0
 90 94  1  0  0  0
 90 95  1  0  0  0
 90 96  1  0  0  0
 91185  1  0  0  0
 93186  1  0  0  0
M  CHG  1  93   1
M  ISO  4   1 100  68 101  88 101  91 100
M  END
> <chiral flag>
0

> <version>
0

> <s_m_source_file>
/data/baiqing/PycharmProjects/Reinvent-master-3.2/result/LINK_invent/BTK/process_docking_weight1_custom_product_contain_oxygen_bond_distance_aromatic_linkinvent_7_9_3/rearranged_h_0003.sdf

> <i_m_source_file_index>
38

> <r_mmod_Potential_Energy-OPLS-2005>
67.4777908325195

> <r_mmod_Stretch_Energy-OPLS-2005>
40.5650520324707

> <r_mmod_Bend_Energy-OPLS-2005>
153.925827026367

> <r_mmod_Torsional_Energy-OPLS-2005>
352.663452148438

> <r_mmod_Improper_Torsional_Energy-OPLS-2005>
6.78657102584839

> <r_mmod_Van_der_Waal_Energy-OPLS-2005>
158.166107177734

> <r_mmod_Electrostatic_Energy-OPLS-2005>
-225.942123413086

> <r_mmod_Solvation_Energy-OPLS-2005>
-441.499053955078

> <b_mmod_Minimization_Converged-OPLS-2005>
0

> <r_mmod_RMS_Derivative-OPLS-2005>
9.60641670227051

$$$$
38
                    3D
 Structure written by MMmdl.
163172  0  0  1  0            999 V2000
  -30.6828  -14.4602   20.6132 C   0  0  0  0  0  0
  -30.4363  -12.3135   19.4074 C   0  0  0  0  0  0
  -29.4972  -12.5182   18.1993 C   0  0  0  0  0  0
  -28.0172  -12.3757   18.6107 C   0  0  0  0  0  0
  -27.6667  -13.1984   19.8791 C   0  0  2  0  0  0
  -28.7070  -12.9357   20.9906 C   0  0  0  0  0  0
  -25.2616  -13.8141   20.5672 C   0  0  0  0  0  0
  -24.1852  -13.0434   20.9171 C   0  0  0  0  0  0
  -24.6387  -11.6896   20.8722 C   0  0  0  0  0  0
  -23.9047  -10.4291   21.0398 C   0  0  0  0  0  0
  -24.3605   -9.4210   21.9179 C   0  0  0  0  0  0
  -23.6285   -8.2243   22.0751 C   0  0  0  0  0  0
  -22.4267   -8.0279   21.3539 C   0  0  0  0  0  0
  -21.9900   -9.0249   20.4640 C   0  0  0  0  0  0
  -22.7222  -10.2129   20.3046 C   0  0  0  0  0  0
  -21.6852   -6.0734   22.5281 C   0  0  0  0  0  0
  -21.4009   -6.5638   23.8214 C   0  0  0  0  0  0
  -21.3657   -5.6790   24.9175 C   0  0  0  0  0  0
  -21.6047   -4.3054   24.7226 C   0  0  0  0  0  0
  -21.8819   -3.8145   23.4347 C   0  0  0  0  0  0
  -21.9192   -4.6961   22.3403 C   0  0  0  0  0  0
  -22.7878  -13.5242   21.1844 C   0  0  0  0  0  0
  -22.1663   -4.2152   21.0979 F   0  0  0  0  0  0
  -21.5630   -3.4535   25.7734 F   0  0  0  0  0  0
  -30.0411  -13.2695   20.4527 N   0  0  0  0  0  0
  -26.3047  -12.9293   20.3364 N   0  0  0  0  0  0
  -25.9311  -11.6462   20.5746 N   0  0  0  0  0  0
  -22.0501  -12.8233   22.0387 N   0  0  0  0  0  0
  -25.4362  -15.1859   20.4087 N   0  0  0  0  0  0
  -31.7836  -14.7013   20.1058 O   0  0  0  0  0  0
  -21.6635   -6.8874   21.4239 O   0  0  0  0  0  0
  -22.3571  -14.5555   20.6701 O   0  0  0  0  0  0
  -24.6149  -31.8680   23.2115 C   0  0  0  0  0  0
  -25.9038  -32.4827   23.8405 C   0  0  1  0  0  0
  -27.2304  -27.4330   20.0987 C   0  0  0  0  0  0
  -25.5894  -33.8624   24.2339 N   0  0  0  0  0  0
  -23.4037  -30.4929   21.5519 C   0  0  2  0  0  0
  -24.8499  -28.9628   20.1134 C   0  0  0  0  0  0
  -22.7414  -29.4656   22.4986 C   0  0  0  0  0  0
  -18.0271  -28.1376   22.8501 C   0  0  0  0  0  0
  -24.1485  -36.7303   23.2642 C   0  0  0  0  0  0
  -25.9330  -30.8354   21.3626 C   0  0  0  0  0  0
  -26.0116  -29.4700   20.7097 C   0  0  0  0  0  0
  -27.2078  -28.7144   20.6972 C   0  0  0  0  0  0
  -26.0546  -26.9497   19.4831 C   0  0  0  0  0  0
  -24.8669  -27.7021   19.4941 C   0  0  0  0  0  0
  -23.6122  -29.8288   20.1653 C   0  0  0  0  0  0
  -25.4108  -36.3114   24.0346 C   0  0  1  0  0  0
  -20.5865  -28.3656   23.1323 C   0  0  2  0  0  0
  -20.6758  -26.9393   22.5413 C   0  0  0  0  0  0
  -19.5742  -26.6388   21.5204 C   0  0  0  0  0  0
  -18.1921  -26.7926   22.1620 C   0  0  0  0  0  0
  -19.1522  -28.8829   23.2909 C   0  0  0  0  0  0
  -18.9453  -30.1439   23.8909 C   0  0  0  0  0  0
  -17.6456  -30.6580   24.0576 C   0  0  0  0  0  0
  -25.9030  -34.9478   23.5133 C   0  0  0  0  0  0
  -16.5344  -29.9091   23.6331 C   0  0  0  0  0  0
  -16.7259  -28.6509   23.0345 C   0  0  0  0  0  0
  -26.4472  -31.6597   25.0717 C   0  0  0  0  0  0
  -25.3745  -31.3694   26.1467 C   0  0  0  0  0  0
  -27.0297  -30.3054   24.6053 C   0  0  0  0  0  0
  -27.6048  -32.4307   25.7477 C   0  0  0  0  0  0
  -27.5581  -37.1810   24.8472 C   0  0  0  0  0  0
  -21.4138  -29.3030   22.3726 N   0  0  0  0  0  0
  -26.4294  -37.3794   23.9416 N   0  0  0  0  0  0
  -24.6691  -31.0789   22.1010 N   0  0  0  0  0  0
  -23.4190  -28.8179   23.3012 O   0  0  0  0  0  0
  -28.3760  -26.6628   20.1185 O   0  0  0  0  0  0
  -26.5582  -34.8929   22.4693 O   0  0  0  0  0  0
  -23.5340  -32.1410   23.7520 O   0  0  0  0  0  0
  -28.9839  -18.8555   22.1864 C   0  0  0  0  0  0
  -31.2880  -18.9293   21.4304 C   0  0  0  0  0  0
  -28.9487  -17.4690   21.9330 C   0  0  0  0  0  0
  -31.2520  -17.5375   21.1708 C   0  0  0  0  0  0
  -30.1629  -19.6023   21.9695 C   0  0  0  0  0  0
  -30.0827  -16.7858   21.4428 C   0  0  0  0  0  0
  -32.1019  -22.5852   22.8474 C   0  0  0  0  0  0
  -31.4007  -21.3438   23.3975 C   0  0  0  0  0  0
  -31.7079  -22.5834   21.3726 C   0  0  0  0  0  0
  -30.2230  -21.0723   22.4325 C   0  0  1  0  0  0
  -29.4391  -24.4537   20.6271 C   0  0  0  0  0  0
  -29.2626  -23.1567   21.4729 C   0  0  0  0  0  0
  -28.1859  -25.3545   20.6900 C   0  0  0  0  0  0
  -29.9639  -15.3688   21.3029 N   0  0  0  0  0  0
  -30.3117  -22.0896   21.3386 N   0  3  1  0  0  0
  -31.4774  -12.4384   19.1033 H   0  0  0  0  0  0
  -30.3583  -11.2926   19.7851 H   0  0  0  0  0  0
  -29.7368  -11.8013   17.4130 H   0  0  0  0  0  0
  -29.6622  -13.5077   17.7693 H   0  0  0  0  0  0
  -27.8242  -11.3178   18.7928 H   0  0  0  0  0  0
  -27.3673  -12.6643   17.7842 H   0  0  0  0  0  0
  -27.7231  -14.2526   19.6066 H   0  0  0  0  0  0
  -28.6855  -11.8832   21.2794 H   0  0  0  0  0  0
  -28.4550  -13.4798   21.9019 H   0  0  0  0  0  0
  -25.2751   -9.5691   22.4752 H   0  0  0  0  0  0
  -24.0000   -7.4633   22.7467 H   0  0  0  0  0  0
  -21.0837   -8.8754   19.8944 H   0  0  0  0  0  0
  -22.3679  -10.9662   19.6152 H   0  0  0  0  0  0
  -21.1995   -7.6146   23.9718 H   0  0  0  0  0  0
  -21.1484   -6.0519   25.9080 H   0  0  0  0  0  0
  -22.0599   -2.7609   23.2841 H   0  0  0  0  0  0
  -22.4101  -11.9885   22.4773 H   0  0  0  0  0  0
  -21.1114  -13.1259   22.2574 H   0  0  0  0  0  0
  -24.6694  -15.8420   20.5103 H   0  0  0  0  0  0
  -26.2875  -15.6201   20.0750 H   0  0  0  0  0  0
  -26.7105  -32.5528   23.1165 H   0  0  0  0  0  0
  -25.0078  -33.9786   25.0509 H   0  0  0  0  0  0
  -22.6928  -31.3105   21.4146 H   0  0  0  0  0  0
  -23.3739  -35.9638   23.3304 H   0  0  0  0  0  0
  -24.3592  -36.8900   22.2055 H   0  0  0  0  0  0
  -23.7235  -37.6516   23.6641 H   0  0  0  0  0  0
  -26.0410  -31.6008   20.5932 H   0  0  0  0  0  0
  -26.8230  -30.8916   21.9763 H   0  0  0  0  0  0
  -28.1042  -29.1014   21.1619 H   0  0  0  0  0  0
  -26.0439  -25.9919   18.9839 H   0  0  0  0  0  0
  -23.9783  -27.3089   19.0204 H   0  0  0  0  0  0
  -23.7209  -30.6053   19.4078 H   0  0  0  0  0  0
  -22.7359  -29.2499   19.8685 H   0  0  0  0  0  0
  -25.1284  -36.1981   25.0838 H   0  0  0  0  0  0
  -20.9961  -28.3207   24.1444 H   0  0  0  0  0  0
  -20.5663  -26.2257   23.3594 H   0  0  0  0  0  0
  -21.6629  -26.7441   22.1198 H   0  0  0  0  0  0
  -19.6909  -25.6309   21.1207 H   0  0  0  0  0  0
  -19.6684  -27.3222   20.6754 H   0  0  0  0  0  0
  -17.4194  -26.6675   21.4017 H   0  0  0  0  0  0
  -18.0320  -26.0066   22.9012 H   0  0  0  0  0  0
  -19.7928  -30.7258   24.2270 H   0  0  0  0  0  0
  -17.5014  -31.6262   24.5177 H   0  0  0  0  0  0
  -15.5347  -30.3004   23.7650 H   0  0  0  0  0  0
  -15.8654  -28.0846   22.7040 H   0  0  0  0  0  0
  -24.5921  -30.7042   25.7805 H   0  0  0  0  0  0
  -24.8931  -32.2841   26.4931 H   0  0  0  0  0  0
  -25.8104  -30.8857   27.0217 H   0  0  0  0  0  0
  -26.2832  -29.6822   24.1119 H   0  0  0  0  0  0
  -27.4114  -29.7285   25.4485 H   0  0  0  0  0  0
  -27.8641  -30.4402   23.9168 H   0  0  0  0  0  0
  -27.2677  -33.3607   26.2073 H   0  0  0  0  0  0
  -28.3847  -32.6862   25.0289 H   0  0  0  0  0  0
  -28.0721  -31.8412   26.5376 H   0  0  0  0  0  0
  -28.2598  -38.0109   24.7510 H   0  0  0  0  0  0
  -28.1073  -36.2634   24.6294 H   0  0  0  0  0  0
  -27.2298  -37.1451   25.8878 H   0  0  0  0  0  0
  -20.9283  -29.8787   21.6981 H   0  0  0  0  0  0
  -26.0175  -38.2871   24.1413 H   0  0  0  0  0  0
  -28.1033  -19.3290   22.5990 H   0  0  0  0  0  0
  -32.2112  -19.4640   21.2577 H   0  0  0  0  0  0
  -28.0373  -16.9274   22.1476 H   0  0  0  0  0  0
  -32.1462  -17.0600   20.7980 H   0  0  0  0  0  0
  -33.1823  -22.5635   22.9942 H   0  0  0  0  0  0
  -31.7163  -23.4826   23.3335 H   0  0  0  0  0  0
  -31.0590  -21.4905   24.4228 H   0  0  0  0  0  0
  -32.1032  -20.5111   23.4212 H   0  0  0  0  0  0
  -32.3301  -21.8664   20.8364 H   0  0  0  0  0  0
  -31.8770  -23.5416   20.8857 H   0  0  0  0  0  0
  -29.3042  -21.2472   22.9961 H   0  0  0  0  0  0
  -29.6590  -24.2077   19.5880 H   0  0  0  0  0  0
  -30.2812  -25.0320   21.0057 H   0  0  0  0  0  0
  -28.3022  -22.6997   21.2291 H   0  0  0  0  0  0
  -29.1917  -23.4590   22.5196 H   0  0  0  0  0  0
  -27.8882  -25.4857   21.7322 H   0  0  0  0  0  0
  -27.3747  -24.8147   20.2040 H   0  0  0  0  0  0
  -29.1056  -14.9805   21.6620 H   0  0  0  0  0  0
  -30.1585  -21.6248   20.4558 H   0  0  0  0  0  0
  1 25  1  0  0  0
  1 30  2  0  0  0
  1 84  1  0  0  0
  2  3  1  0  0  0
  2 25  1  0  0  0
  2 86  1  0  0  0
  2 87  1  0  0  0
  3  4  1  0  0  0
  3 88  1  0  0  0
  3 89  1  0  0  0
  4  5  1  0  0  0
  4 90  1  0  0  0
  4 91  1  0  0  0
  5  6  1  0  0  0
  5 26  1  0  0  0
  5 92  1  0  0  0
  6 25  1  0  0  0
  6 93  1  0  0  0
  6 94  1  0  0  0
  7  8  2  0  0  0
  7 26  1  0  0  0
  7 29  1  0  0  0
  8  9  1  0  0  0
  8 22  1  0  0  0
  9 10  1  0  0  0
  9 27  2  0  0  0
 10 11  2  0  0  0
 10 15  1  0  0  0
 11 12  1  0  0  0
 11 95  1  0  0  0
 12 13  2  0  0  0
 12 96  1  0  0  0
 13 14  1  0  0  0
 13 31  1  0  0  0
 14 15  2  0  0  0
 14 97  1  0  0  0
 15 98  1  0  0  0
 16 17  2  0  0  0
 16 21  1  0  0  0
 16 31  1  0  0  0
 17 18  1  0  0  0
 17 99  1  0  0  0
 18 19  2  0  0  0
 18100  1  0  0  0
 19 20  1  0  0  0
 19 24  1  0  0  0
 20 21  2  0  0  0
 20101  1  0  0  0
 21 23  1  0  0  0
 22 28  1  0  0  0
 22 32  2  0  0  0
 26 27  1  0  0  0
 28102  1  0  0  0
 28103  1  0  0  0
 29104  1  0  0  0
 29105  1  0  0  0
 33 34  1  0  0  0
 33 66  1  0  0  0
 33 70  2  0  0  0
 34 36  1  0  0  0
 34 59  1  0  0  0
 34106  1  0  0  0
 35 44  2  0  0  0
 35 45  1  0  0  0
 35 68  1  0  0  0
 36 56  1  0  0  0
 36107  1  0  0  0
 37 39  1  0  0  0
 37 47  1  0  0  0
 37 66  1  0  0  0
 37108  1  0  0  0
 38 43  2  0  0  0
 38 46  1  0  0  0
 38 47  1  0  0  0
 39 64  1  0  0  0
 39 67  2  0  0  0
 40 52  1  0  0  0
 40 53  2  0  0  0
 40 58  1  0  0  0
 41109  1  0  0  0
 41110  1  0  0  0
 41111  1  0  0  0
 41 48  1  0  0  0
 42 43  1  0  0  0
 42 66  1  0  0  0
 42112  1  0  0  0
 42113  1  0  0  0
 43 44  1  0  0  0
 44114  1  0  0  0
 45 46  2  0  0  0
 45115  1  0  0  0
 46116  1  0  0  0
 47117  1  0  0  0
 47118  1  0  0  0
 48 56  1  0  0  0
 48 65  1  0  0  0
 48119  1  0  0  0
 49 50  1  0  0  0
 49 53  1  0  0  0
 49 64  1  0  0  0
 49120  1  0  0  0
 50 51  1  0  0  0
 50121  1  0  0  0
 50122  1  0  0  0
 51 52  1  0  0  0
 51123  1  0  0  0
 51124  1  0  0  0
 52125  1  0  0  0
 52126  1  0  0  0
 53 54  1  0  0  0
 54 55  2  0  0  0
 54127  1  0  0  0
 55 57  1  0  0  0
 55128  1  0  0  0
 56 69  2  0  0  0
 57 58  2  0  0  0
 57129  1  0  0  0
 58130  1  0  0  0
 59 60  1  0  0  0
 59 61  1  0  0  0
 59 62  1  0  0  0
 60131  1  0  0  0
 60132  1  0  0  0
 60133  1  0  0  0
 61134  1  0  0  0
 61135  1  0  0  0
 61136  1  0  0  0
 62137  1  0  0  0
 62138  1  0  0  0
 62139  1  0  0  0
 63 65  1  0  0  0
 63140  1  0  0  0
 63141  1  0  0  0
 63142  1  0  0  0
 64143  1  0  0  0
 65144  1  0  0  0
 68 83  1  0  0  0
 71 73  2  0  0  0
 71 75  1  0  0  0
 71145  1  0  0  0
 72 74  1  0  0  0
 72 75  2  0  0  0
 72146  1  0  0  0
 73 76  1  0  0  0
 73147  1  0  0  0
 74 76  2  0  0  0
 74148  1  0  0  0
 75 80  1  0  0  0
 76 84  1  0  0  0
 77 78  1  0  0  0
 77 79  1  0  0  0
 77149  1  0  0  0
 77150  1  0  0  0
 78 80  1  0  0  0
 78151  1  0  0  0
 78152  1  0  0  0
 79 85  1  0  0  0
 79153  1  0  0  0
 79154  1  0  0  0
 80 85  1  0  0  0
 80155  1  0  0  0
 81 82  1  0  0  0
 81 83  1  0  0  0
 81156  1  0  0  0
 81157  1  0  0  0
 82158  1  0  0  0
 82159  1  0  0  0
 82 85  1  0  0  0
 83160  1  0  0  0
 83161  1  0  0  0
 84162  1  0  0  0
 85163  1  0  0  0
M  CHG  1  85   1
M  ISO  4   1 100  68 101  83 101  84 100
M  END
> <chiral flag>
0

> <version>
0

> <s_m_source_file>
/data/baiqing/PycharmProjects/Reinvent-master-3.2/result/LINK_invent/BTK/process_docking_weight1_custom_product_contain_oxygen_bond_distance_aromatic_linkinvent_7_9_3/rearranged_h_0003.sdf

> <i_m_source_file_index>
39

> <r_mmod_Potential_Energy-OPLS-2005>
-75.1154022216797

> <r_mmod_Stretch_Energy-OPLS-2005>
40.7715835571289

> <r_mmod_Bend_Energy-OPLS-2005>
130.485198974609

> <r_mmod_Torsional_Energy-OPLS-2005>
289.722747802734

> <r_mmod_Improper_Torsional_Energy-OPLS-2005>
3.15175294876099

> <r_mmod_Van_der_Waal_Energy-OPLS-2005>
157.156982421875

> <r_mmod_Electrostatic_Energy-OPLS-2005>
-267.728271484375

> <r_mmod_Solvation_Energy-OPLS-2005>
-440.789276123047

> <b_mmod_Minimization_Converged-OPLS-2005>
0

> <r_mmod_RMS_Derivative-OPLS-2005>
1.26633334159851

$$$$
39
                    3D
 Structure written by MMmdl.
166175  0  0  1  0            999 V2000
  -30.6962  -14.7781   20.4792 C   0  0  0  0  0  0
  -30.4172  -12.4909   19.4873 C   0  0  0  0  0  0
  -29.5090  -12.5023   18.2437 C   0  0  0  0  0  0
  -28.0379  -12.3314   18.6575 C   0  0  0  0  0  0
  -27.6356  -13.2516   19.8406 C   0  0  2  0  0  0
  -28.6813  -13.2647   20.9793 C   0  0  0  0  0  0
  -25.2487  -13.8241   20.5713 C   0  0  0  0  0  0
  -24.1804  -13.0473   20.9214 C   0  0  0  0  0  0
  -24.6422  -11.6952   20.8760 C   0  0  0  0  0  0
  -23.9104  -10.4315   21.0438 C   0  0  0  0  0  0
  -24.3654   -9.4227   21.9206 C   0  0  0  0  0  0
  -23.6322   -8.2264   22.0764 C   0  0  0  0  0  0
  -22.4298   -8.0309   21.3562 C   0  0  0  0  0  0
  -21.9958   -9.0282   20.4647 C   0  0  0  0  0  0
  -22.7293  -10.2161   20.3067 C   0  0  0  0  0  0
  -21.6869   -6.0762   22.5299 C   0  0  0  0  0  0
  -21.4010   -6.5654   23.8230 C   0  0  0  0  0  0
  -21.3651   -5.6807   24.9186 C   0  0  0  0  0  0
  -21.6042   -4.3068   24.7239 C   0  0  0  0  0  0
  -21.8814   -3.8166   23.4354 C   0  0  0  0  0  0
  -21.9186   -4.6988   22.3415 C   0  0  0  0  0  0
  -22.7817  -13.5234   21.1862 C   0  0  0  0  0  0
  -22.1661   -4.2174   21.0999 F   0  0  0  0  0  0
  -21.5628   -3.4549   25.7744 F   0  0  0  0  0  0
  -29.9797  -13.5975   20.3808 N   0  0  0  0  0  0
  -26.2934  -12.9487   20.3274 N   0  0  0  0  0  0
  -25.9365  -11.6611   20.5770 N   0  0  0  0  0  0
  -22.0446  -12.8216   22.0396 N   0  0  0  0  0  0
  -25.4140  -15.1973   20.4156 N   0  0  0  0  0  0
  -31.8666  -14.7656   20.0867 O   0  0  0  0  0  0
  -21.6654   -6.8918   21.4264 O   0  0  0  0  0  0
  -22.3512  -14.5558   20.6729 O   0  0  0  0  0  0
  -24.6314  -31.8556   23.1935 C   0  0  0  0  0  0
  -25.9152  -32.4724   23.8272 C   0  0  1  0  0  0
  -27.2262  -27.2583   20.1320 C   0  0  0  0  0  0
  -25.5975  -33.8528   24.2225 N   0  0  0  0  0  0
  -23.4284  -30.4745   21.5381 C   0  0  2  0  0  0
  -24.8776  -28.9174   20.1122 C   0  0  0  0  0  0
  -22.7529  -29.4590   22.4891 C   0  0  0  0  0  0
  -18.0306  -28.1379   22.8436 C   0  0  0  0  0  0
  -24.1517  -36.7255   23.2638 C   0  0  0  0  0  0
  -25.9736  -30.7689   21.3734 C   0  0  0  0  0  0
  -26.0508  -29.3896   20.7176 C   0  0  0  0  0  0
  -27.2284  -28.5719   20.7141 C   0  0  0  0  0  0
  -26.0346  -26.8664   19.4834 C   0  0  0  0  0  0
  -24.8750  -27.6627   19.4871 C   0  0  0  0  0  0
  -23.6449  -29.8006   20.1572 C   0  0  0  0  0  0
  -25.4142  -36.3036   24.0324 C   0  0  1  0  0  0
  -20.5940  -28.3684   23.1246 C   0  0  2  0  0  0
  -20.6818  -26.9392   22.5403 C   0  0  0  0  0  0
  -19.5790  -26.6364   21.5206 C   0  0  0  0  0  0
  -18.1956  -26.7912   22.1578 C   0  0  0  0  0  0
  -19.1570  -28.8835   23.2836 C   0  0  0  0  0  0
  -18.9497  -30.1425   23.8837 C   0  0  0  0  0  0
  -17.6502  -30.6579   24.0518 C   0  0  0  0  0  0
  -25.9081  -34.9424   23.5075 C   0  0  0  0  0  0
  -16.5384  -29.9068   23.6330 C   0  0  0  0  0  0
  -16.7291  -28.6500   23.0323 C   0  0  0  0  0  0
  -26.4526  -31.6547   25.0665 C   0  0  0  0  0  0
  -25.3742  -31.3749   26.1383 C   0  0  0  0  0  0
  -27.0401  -30.2977   24.6143 C   0  0  0  0  0  0
  -27.6065  -32.4297   25.7453 C   0  0  0  0  0  0
  -27.5577  -37.1770   24.8458 C   0  0  0  0  0  0
  -21.4243  -29.3013   22.3610 N   0  0  0  0  0  0
  -26.4294  -37.3744   23.9402 N   0  0  0  0  0  0
  -24.6965  -31.0523   22.0897 N   0  0  0  0  0  0
  -23.4227  -28.8102   23.2965 O   0  0  0  0  0  0
  -28.3180  -26.3556   20.1577 O   0  0  0  0  0  0
  -26.5647  -34.8901   22.4637 O   0  0  0  0  0  0
  -23.5480  -32.1352   23.7278 O   0  0  0  0  0  0
  -32.9050  -18.9440   22.4151 C   0  0  0  0  0  0
  -32.9270  -17.5904   22.7334 C   0  0  0  0  0  0
  -31.8339  -19.4536   21.6756 C   0  0  0  0  0  0
  -31.9323  -16.7551   22.2173 C   0  0  0  0  0  0
  -30.7456  -18.6750   21.1934 C   0  0  0  0  0  0
  -30.8735  -17.1920   21.3618 C   0  0  0  0  0  0
  -27.0469  -20.8673   22.3591 C   0  0  0  0  0  0
  -26.5867  -20.6876   20.8829 C   0  0  0  0  0  0
  -28.5997  -20.8721   22.5392 C   0  0  0  0  0  0
  -27.2797  -21.6799   19.9087 C   0  0  0  0  0  0
  -29.3522  -21.1274   21.2128 C   0  0  1  0  0  0
  -29.6488  -19.6355   20.5221 C   0  0  0  0  0  0
  -28.9759  -23.6382   20.1271 C   0  0  0  0  0  0
  -28.0599  -24.9200   20.5639 C   0  0  0  0  0  0
  -30.1203  -16.0125   20.8246 N   0  0  0  0  0  0
  -28.4866  -22.2279   20.5616 N   0  3  2  0  0  0
  -31.4582  -12.5793   19.1738 H   0  0  0  0  0  0
  -30.3523  -11.5340   20.0093 H   0  0  0  0  0  0
  -29.7996  -11.7076   17.5551 H   0  0  0  0  0  0
  -29.6349  -13.4407   17.7008 H   0  0  0  0  0  0
  -27.8987  -11.2869   18.9370 H   0  0  0  0  0  0
  -27.3863  -12.5059   17.8002 H   0  0  0  0  0  0
  -27.6076  -14.2605   19.4261 H   0  0  0  0  0  0
  -28.7257  -12.3033   21.4937 H   0  0  0  0  0  0
  -28.4092  -14.0097   21.7307 H   0  0  0  0  0  0
  -25.2798   -9.5710   22.4789 H   0  0  0  0  0  0
  -24.0024   -7.4669   22.7503 H   0  0  0  0  0  0
  -21.0881   -8.8813   19.8966 H   0  0  0  0  0  0
  -22.3756  -10.9704   19.6173 H   0  0  0  0  0  0
  -21.2001   -7.6161   23.9746 H   0  0  0  0  0  0
  -21.1475   -6.0531   25.9093 H   0  0  0  0  0  0
  -22.0591   -2.7627   23.2854 H   0  0  0  0  0  0
  -22.4023  -11.9855   22.4775 H   0  0  0  0  0  0
  -21.1067  -13.1260   22.2591 H   0  0  0  0  0  0
  -24.6461  -15.8483   20.5374 H   0  0  0  0  0  0
  -26.2660  -15.6454   20.1060 H   0  0  0  0  0  0
  -26.7194  -32.5383   23.0983 H   0  0  0  0  0  0
  -25.0072  -33.9642   25.0352 H   0  0  0  0  0  0
  -22.7238  -31.2953   21.3844 H   0  0  0  0  0  0
  -23.3765  -35.9592   23.3306 H   0  0  0  0  0  0
  -24.3602  -36.8889   22.2044 H   0  0  0  0  0  0
  -23.7304  -37.6465   23.6668 H   0  0  0  0  0  0
  -26.1222  -31.5333   20.6092 H   0  0  0  0  0  0
  -26.8496  -30.8127   22.0085 H   0  0  0  0  0  0
  -28.1298  -28.9208   21.1955 H   0  0  0  0  0  0
  -25.9848  -25.9180   18.9708 H   0  0  0  0  0  0
  -23.9833  -27.2950   18.9991 H   0  0  0  0  0  0
  -23.7618  -30.5681   19.3913 H   0  0  0  0  0  0
  -22.7619  -29.2282   19.8610 H   0  0  0  0  0  0
  -25.1335  -36.1845   25.0809 H   0  0  0  0  0  0
  -21.0025  -28.3276   24.1377 H   0  0  0  0  0  0
  -20.5768  -26.2260   23.3607 H   0  0  0  0  0  0
  -21.6685  -26.7461   22.1169 H   0  0  0  0  0  0
  -19.6990  -25.6287   21.1232 H   0  0  0  0  0  0
  -19.6756  -27.3164   20.6743 H   0  0  0  0  0  0
  -17.4254  -26.6636   21.3962 H   0  0  0  0  0  0
  -18.0330  -26.0083   22.8996 H   0  0  0  0  0  0
  -19.7989  -30.7230   24.2189 H   0  0  0  0  0  0
  -17.5083  -31.6252   24.5120 H   0  0  0  0  0  0
  -15.5381  -30.2941   23.7730 H   0  0  0  0  0  0
  -15.8689  -28.0810   22.7056 H   0  0  0  0  0  0
  -24.5924  -30.7072   25.7737 H   0  0  0  0  0  0
  -24.8919  -32.2940   26.4724 H   0  0  0  0  0  0
  -25.8056  -30.9007   27.0212 H   0  0  0  0  0  0
  -26.3002  -29.6677   24.1199 H   0  0  0  0  0  0
  -27.4133  -29.7291   25.4667 H   0  0  0  0  0  0
  -27.8830  -30.4266   23.9360 H   0  0  0  0  0  0
  -27.2652  -33.3618   26.1976 H   0  0  0  0  0  0
  -28.3898  -32.6839   25.0296 H   0  0  0  0  0  0
  -28.0666  -31.8458   26.5426 H   0  0  0  0  0  0
  -28.2571  -38.0090   24.7505 H   0  0  0  0  0  0
  -28.1122  -36.2619   24.6312 H   0  0  0  0  0  0
  -27.2296  -37.1438   25.8865 H   0  0  0  0  0  0
  -20.9456  -29.8701   21.6775 H   0  0  0  0  0  0
  -26.0177  -38.2815   24.1413 H   0  0  0  0  0  0
  -33.6986  -19.5983   22.7522 H   0  0  0  0  0  0
  -33.7303  -17.1833   23.3342 H   0  0  0  0  0  0
  -31.9042  -20.5077   21.4767 H   0  0  0  0  0  0
  -32.0467  -15.7130   22.4775 H   0  0  0  0  0  0
  -26.5945  -20.1088   22.9998 H   0  0  0  0  0  0
  -26.6471  -21.8208   22.7161 H   0  0  0  0  0  0
  -25.5047  -20.8010   20.8092 H   0  0  0  0  0  0
  -26.7594  -19.6625   20.5659 H   0  0  0  0  0  0
  -28.9441  -19.9398   22.9876 H   0  0  0  0  0  0
  -28.8636  -21.6431   23.2688 H   0  0  0  0  0  0
  -26.5947  -22.4906   19.6578 H   0  0  0  0  0  0
  -27.5517  -21.1970   18.9688 H   0  0  0  0  0  0
  -30.2790  -21.6461   21.4334 H   0  0  0  0  0  0
  -28.7453  -19.0326   20.4735 H   0  0  0  0  0  0
  -29.9538  -19.7982   19.4879 H   0  0  0  0  0  0
  -29.9806  -23.8027   20.5232 H   0  0  0  0  0  0
  -29.0918  -23.6345   19.0434 H   0  0  0  0  0  0
  -28.0833  -24.9471   21.6512 H   0  0  0  0  0  0
  -27.0295  -24.6568   20.3387 H   0  0  0  0  0  0
  -29.1128  -16.0643   20.8376 H   0  0  0  0  0  0
  -28.0500  -22.5179   21.4252 H   0  0  0  0  0  0
  1 25  1  0  0  0
  1 30  2  0  0  0
  1 85  1  0  0  0
  2  3  1  0  0  0
  2 25  1  0  0  0
  2 87  1  0  0  0
  2 88  1  0  0  0
  3  4  1  0  0  0
  3 89  1  0  0  0
  3 90  1  0  0  0
  4  5  1  0  0  0
  4 91  1  0  0  0
  4 92  1  0  0  0
  5  6  1  0  0  0
  5 26  1  0  0  0
  5 93  1  0  0  0
  6 25  1  0  0  0
  6 94  1  0  0  0
  6 95  1  0  0  0
  7  8  2  0  0  0
  7 26  1  0  0  0
  7 29  1  0  0  0
  8  9  1  0  0  0
  8 22  1  0  0  0
  9 10  1  0  0  0
  9 27  2  0  0  0
 10 11  2  0  0  0
 10 15  1  0  0  0
 11 12  1  0  0  0
 11 96  1  0  0  0
 12 13  2  0  0  0
 12 97  1  0  0  0
 13 14  1  0  0  0
 13 31  1  0  0  0
 14 15  2  0  0  0
 14 98  1  0  0  0
 15 99  1  0  0  0
 16 17  2  0  0  0
 16 21  1  0  0  0
 16 31  1  0  0  0
 17 18  1  0  0  0
 17100  1  0  0  0
 18 19  2  0  0  0
 18101  1  0  0  0
 19 20  1  0  0  0
 19 24  1  0  0  0
 20 21  2  0  0  0
 20102  1  0  0  0
 21 23  1  0  0  0
 22 28  1  0  0  0
 22 32  2  0  0  0
 26 27  1  0  0  0
 28103  1  0  0  0
 28104  1  0  0  0
 29105  1  0  0  0
 29106  1  0  0  0
 33 34  1  0  0  0
 33 66  1  0  0  0
 33 70  2  0  0  0
 34 36  1  0  0  0
 34 59  1  0  0  0
 34107  1  0  0  0
 35 44  2  0  0  0
 35 45  1  0  0  0
 35 68  1  0  0  0
 36 56  1  0  0  0
 36108  1  0  0  0
 37 39  1  0  0  0
 37 47  1  0  0  0
 37 66  1  0  0  0
 37109  1  0  0  0
 38 43  2  0  0  0
 38 46  1  0  0  0
 38 47  1  0  0  0
 39 64  1  0  0  0
 39 67  2  0  0  0
 40 52  1  0  0  0
 40 53  2  0  0  0
 40 58  1  0  0  0
 41110  1  0  0  0
 41111  1  0  0  0
 41112  1  0  0  0
 41 48  1  0  0  0
 42 43  1  0  0  0
 42 66  1  0  0  0
 42113  1  0  0  0
 42114  1  0  0  0
 43 44  1  0  0  0
 44115  1  0  0  0
 45 46  2  0  0  0
 45116  1  0  0  0
 46117  1  0  0  0
 47118  1  0  0  0
 47119  1  0  0  0
 48 56  1  0  0  0
 48 65  1  0  0  0
 48120  1  0  0  0
 49 50  1  0  0  0
 49 53  1  0  0  0
 49 64  1  0  0  0
 49121  1  0  0  0
 50 51  1  0  0  0
 50122  1  0  0  0
 50123  1  0  0  0
 51 52  1  0  0  0
 51124  1  0  0  0
 51125  1  0  0  0
 52126  1  0  0  0
 52127  1  0  0  0
 53 54  1  0  0  0
 54 55  2  0  0  0
 54128  1  0  0  0
 55 57  1  0  0  0
 55129  1  0  0  0
 56 69  2  0  0  0
 57 58  2  0  0  0
 57130  1  0  0  0
 58131  1  0  0  0
 59 60  1  0  0  0
 59 61  1  0  0  0
 59 62  1  0  0  0
 60132  1  0  0  0
 60133  1  0  0  0
 60134  1  0  0  0
 61135  1  0  0  0
 61136  1  0  0  0
 61137  1  0  0  0
 62138  1  0  0  0
 62139  1  0  0  0
 62140  1  0  0  0
 63 65  1  0  0  0
 63141  1  0  0  0
 63142  1  0  0  0
 63143  1  0  0  0
 64144  1  0  0  0
 65145  1  0  0  0
 68 84  1  0  0  0
 71 72  2  0  0  0
 71 73  1  0  0  0
 71146  1  0  0  0
 72 74  1  0  0  0
 72147  1  0  0  0
 73 75  2  0  0  0
 73148  1  0  0  0
 74 76  2  0  0  0
 74149  1  0  0  0
 75 76  1  0  0  0
 75 82  1  0  0  0
 76 85  1  0  0  0
 77 78  1  0  0  0
 77 79  1  0  0  0
 77150  1  0  0  0
 77151  1  0  0  0
 78 80  1  0  0  0
 78152  1  0  0  0
 78153  1  0  0  0
 79 81  1  0  0  0
 79154  1  0  0  0
 79155  1  0  0  0
 80 86  1  0  0  0
 80156  1  0  0  0
 80157  1  0  0  0
 81 82  1  0  0  0
 81 86  1  0  0  0
 81158  1  0  0  0
 82159  1  0  0  0
 82160  1  0  0  0
 83 84  1  0  0  0
 83161  1  0  0  0
 83162  1  0  0  0
 83 86  1  0  0  0
 84163  1  0  0  0
 84164  1  0  0  0
 85165  1  0  0  0
 86166  1  0  0  0
M  CHG  1  86   1
M  ISO  4   1 100  68 101  84 101  85 100
M  END
> <chiral flag>
0

> <version>
0

> <s_m_source_file>
/data/baiqing/PycharmProjects/Reinvent-master-3.2/result/LINK_invent/BTK/process_docking_weight1_custom_product_contain_oxygen_bond_distance_aromatic_linkinvent_7_9_3/rearranged_h_0003.sdf

> <i_m_source_file_index>
40

> <r_mmod_Potential_Energy-OPLS-2005>
396.804046630859

> <r_mmod_Stretch_Energy-OPLS-2005>
174.628723144531

> <r_mmod_Bend_Energy-OPLS-2005>
281.234588623047

> <r_mmod_Torsional_Energy-OPLS-2005>
326.767608642578

> <r_mmod_Improper_Torsional_Energy-OPLS-2005>
3.8355667591095

> <r_mmod_Van_der_Waal_Energy-OPLS-2005>
173.386322021484

> <r_mmod_Electrostatic_Energy-OPLS-2005>
-222.740158081055

> <r_mmod_Solvation_Energy-OPLS-2005>
-437.475524902344

> <b_mmod_Minimization_Converged-OPLS-2005>
0

> <r_mmod_RMS_Derivative-OPLS-2005>
4.71035003662109

$$$$
40
                    3D
 Structure written by MMmdl.
166175  0  0  1  0            999 V2000
  -30.8117  -14.3258   20.7320 C   0  0  0  0  0  0
  -30.4097  -12.2982   19.3850 C   0  0  0  0  0  0
  -29.4760  -12.5349   18.1870 C   0  0  0  0  0  0
  -28.0054  -12.3788   18.6105 C   0  0  0  0  0  0
  -27.6641  -13.2062   19.8763 C   0  0  2  0  0  0
  -28.7020  -12.9671   20.9947 C   0  0  0  0  0  0
  -25.2593  -13.8165   20.5676 C   0  0  0  0  0  0
  -24.1840  -13.0441   20.9164 C   0  0  0  0  0  0
  -24.6392  -11.6907   20.8723 C   0  0  0  0  0  0
  -23.9058  -10.4294   21.0399 C   0  0  0  0  0  0
  -24.3612   -9.4210   21.9179 C   0  0  0  0  0  0
  -23.6289   -8.2246   22.0751 C   0  0  0  0  0  0
  -22.4271   -8.0282   21.3545 C   0  0  0  0  0  0
  -21.9904   -9.0253   20.4645 C   0  0  0  0  0  0
  -22.7230  -10.2133   20.3051 C   0  0  0  0  0  0
  -21.6854   -6.0734   22.5279 C   0  0  0  0  0  0
  -21.4015   -6.5638   23.8212 C   0  0  0  0  0  0
  -21.3659   -5.6791   24.9174 C   0  0  0  0  0  0
  -21.6044   -4.3054   24.7225 C   0  0  0  0  0  0
  -21.8820   -3.8145   23.4347 C   0  0  0  0  0  0
  -21.9194   -4.6962   22.3402 C   0  0  0  0  0  0
  -22.7864  -13.5241   21.1835 C   0  0  0  0  0  0
  -22.1662   -4.2147   21.0980 F   0  0  0  0  0  0
  -21.5628   -3.4537   25.7738 F   0  0  0  0  0  0
  -30.0492  -13.2370   20.4580 N   0  0  0  0  0  0
  -26.3034  -12.9337   20.3371 N   0  0  0  0  0  0
  -25.9319  -11.6492   20.5754 N   0  0  0  0  0  0
  -22.0506  -12.8234   22.0394 N   0  0  0  0  0  0
  -25.4327  -15.1882   20.4097 N   0  0  0  0  0  0
  -31.7726  -14.6718   20.0372 O   0  0  0  0  0  0
  -21.6639   -6.8875   21.4240 O   0  0  0  0  0  0
  -22.3550  -14.5553   20.6694 O   0  0  0  0  0  0
  -24.6132  -31.8699   23.2129 C   0  0  0  0  0  0
  -25.9038  -32.4830   23.8408 C   0  0  1  0  0  0
  -27.2280  -27.4441   20.0793 C   0  0  0  0  0  0
  -25.5907  -33.8630   24.2340 N   0  0  0  0  0  0
  -23.3987  -30.4965   21.5537 C   0  0  2  0  0  0
  -24.8406  -28.9669   20.1136 C   0  0  0  0  0  0
  -22.7397  -29.4674   22.4999 C   0  0  0  0  0  0
  -18.0269  -28.1377   22.8499 C   0  0  0  0  0  0
  -24.1489  -36.7316   23.2637 C   0  0  0  0  0  0
  -25.9277  -30.8353   21.3669 C   0  0  0  0  0  0
  -26.0004  -29.4712   20.7132 C   0  0  0  0  0  0
  -27.1925  -28.7139   20.6995 C   0  0  0  0  0  0
  -26.0488  -26.9632   19.4595 C   0  0  0  0  0  0
  -24.8589  -27.7111   19.4875 C   0  0  0  0  0  0
  -23.6045  -29.8338   20.1662 C   0  0  0  0  0  0
  -25.4110  -36.3118   24.0341 C   0  0  1  0  0  0
  -20.5859  -28.3662   23.1325 C   0  0  2  0  0  0
  -20.6763  -26.9403   22.5416 C   0  0  0  0  0  0
  -19.5741  -26.6390   21.5215 C   0  0  0  0  0  0
  -18.1920  -26.7926   22.1629 C   0  0  0  0  0  0
  -19.1518  -28.8836   23.2910 C   0  0  0  0  0  0
  -18.9449  -30.1444   23.8917 C   0  0  0  0  0  0
  -17.6453  -30.6586   24.0568 C   0  0  0  0  0  0
  -25.9037  -34.9482   23.5135 C   0  0  0  0  0  0
  -16.5343  -29.9092   23.6327 C   0  0  0  0  0  0
  -16.7259  -28.6507   23.0348 C   0  0  0  0  0  0
  -26.4471  -31.6602   25.0728 C   0  0  0  0  0  0
  -25.3746  -31.3711   26.1487 C   0  0  0  0  0  0
  -27.0286  -30.3043   24.6088 C   0  0  0  0  0  0
  -27.6058  -32.4308   25.7481 C   0  0  0  0  0  0
  -27.5582  -37.1813   24.8467 C   0  0  0  0  0  0
  -21.4128  -29.3036   22.3736 N   0  0  0  0  0  0
  -26.4295  -37.3801   23.9411 N   0  0  0  0  0  0
  -24.6649  -31.0814   22.1028 N   0  0  0  0  0  0
  -23.4180  -28.8210   23.3026 O   0  0  0  0  0  0
  -28.4175  -26.7424   20.1016 O   0  0  0  0  0  0
  -26.5589  -34.8930   22.4690 O   0  0  0  0  0  0
  -23.5331  -32.1445   23.7540 O   0  0  0  0  0  0
  -30.0349  -17.7056   23.1907 C   0  0  0  0  0  0
  -32.2656  -18.1044   22.2985 C   0  0  0  0  0  0
  -29.8617  -19.0948   23.3724 C   0  0  0  0  0  0
  -32.0914  -19.4911   22.4743 C   0  0  0  0  0  0
  -31.2526  -17.2020   22.6852 C   0  0  0  0  0  0
  -30.9014  -19.9931   23.0431 C   0  0  0  0  0  0
  -28.8434  -24.4963   22.0659 C   0  0  0  0  0  0
  -29.6264  -23.1447   20.1133 C   0  0  0  0  0  0
  -29.7508  -23.6552   22.9807 C   0  0  0  0  0  0
  -30.5237  -22.3215   21.0621 C   0  0  0  0  0  0
  -29.3947  -24.5787   20.6304 C   0  0  1  0  0  0
  -31.5313  -15.7052   22.6599 C   0  0  0  0  0  0
  -30.7894  -21.4762   23.3899 C   0  0  0  0  0  0
  -28.4355  -25.3633   19.7167 C   0  0  0  0  0  0
  -30.5684  -14.8936   21.9194 N   0  0  0  0  0  0
  -29.9771  -22.2850   22.4456 N   0  3  1  0  0  0
  -31.4517  -12.3986   19.0757 H   0  0  0  0  0  0
  -30.3088  -11.2742   19.7485 H   0  0  0  0  0  0
  -29.7094  -11.8356   17.3828 H   0  0  0  0  0  0
  -29.6399  -13.5350   17.7828 H   0  0  0  0  0  0
  -27.8220  -11.3200   18.7979 H   0  0  0  0  0  0
  -27.3454  -12.6605   17.7892 H   0  0  0  0  0  0
  -27.7183  -14.2583   19.5954 H   0  0  0  0  0  0
  -28.6569  -11.9334   21.3410 H   0  0  0  0  0  0
  -28.4476  -13.5793   21.8599 H   0  0  0  0  0  0
  -25.2760   -9.5690   22.4748 H   0  0  0  0  0  0
  -24.0001   -7.4640   22.7472 H   0  0  0  0  0  0
  -21.0835   -8.8770   19.8954 H   0  0  0  0  0  0
  -22.3688  -10.9668   19.6156 H   0  0  0  0  0  0
  -21.2007   -7.6146   23.9715 H   0  0  0  0  0  0
  -21.1479   -6.0521   25.9077 H   0  0  0  0  0  0
  -22.0599   -2.7608   23.2847 H   0  0  0  0  0  0
  -22.4116  -11.9888   22.4772 H   0  0  0  0  0  0
  -21.1127  -13.1264   22.2604 H   0  0  0  0  0  0
  -24.6724  -15.8495   20.5249 H   0  0  0  0  0  0
  -26.2977  -15.6255   20.1158 H   0  0  0  0  0  0
  -26.7104  -32.5542   23.1168 H   0  0  0  0  0  0
  -25.0083  -33.9797   25.0502 H   0  0  0  0  0  0
  -22.6874  -31.3139   21.4189 H   0  0  0  0  0  0
  -23.3751  -35.9649   23.3309 H   0  0  0  0  0  0
  -24.3587  -36.8916   22.2049 H   0  0  0  0  0  0
  -23.7239  -37.6526   23.6639 H   0  0  0  0  0  0
  -26.0412  -31.6021   20.5993 H   0  0  0  0  0  0
  -26.8162  -30.8857   21.9845 H   0  0  0  0  0  0
  -28.0874  -29.0997   21.1678 H   0  0  0  0  0  0
  -26.0144  -26.0249   18.9280 H   0  0  0  0  0  0
  -23.9699  -27.3223   19.0098 H   0  0  0  0  0  0
  -23.7132  -30.6111   19.4089 H   0  0  0  0  0  0
  -22.7276  -29.2553   19.8693 H   0  0  0  0  0  0
  -25.1284  -36.1988   25.0833 H   0  0  0  0  0  0
  -20.9951  -28.3220   24.1445 H   0  0  0  0  0  0
  -20.5680  -26.2266   23.3598 H   0  0  0  0  0  0
  -21.6633  -26.7461   22.1198 H   0  0  0  0  0  0
  -19.6907  -25.6307   21.1230 H   0  0  0  0  0  0
  -19.6680  -27.3214   20.6756 H   0  0  0  0  0  0
  -17.4191  -26.6677   21.4030 H   0  0  0  0  0  0
  -18.0323  -26.0063   22.9020 H   0  0  0  0  0  0
  -19.7925  -30.7255   24.2295 H   0  0  0  0  0  0
  -17.5011  -31.6269   24.5165 H   0  0  0  0  0  0
  -15.5346  -30.3002   23.7643 H   0  0  0  0  0  0
  -15.8658  -28.0838   22.7049 H   0  0  0  0  0  0
  -24.5898  -30.7081   25.7831 H   0  0  0  0  0  0
  -24.8964  -32.2869   26.4967 H   0  0  0  0  0  0
  -25.8106  -30.8852   27.0225 H   0  0  0  0  0  0
  -26.2813  -29.6819   24.1150 H   0  0  0  0  0  0
  -27.4066  -29.7269   25.4535 H   0  0  0  0  0  0
  -27.8653  -30.4364   23.9224 H   0  0  0  0  0  0
  -27.2690  -33.3607   26.2077 H   0  0  0  0  0  0
  -28.3856  -32.6863   25.0295 H   0  0  0  0  0  0
  -28.0733  -31.8415   26.5379 H   0  0  0  0  0  0
  -28.2606  -38.0104   24.7514 H   0  0  0  0  0  0
  -28.1068  -36.2638   24.6289 H   0  0  0  0  0  0
  -27.2301  -37.1461   25.8869 H   0  0  0  0  0  0
  -20.9281  -29.8765   21.6971 H   0  0  0  0  0  0
  -26.0188  -38.2882   24.1407 H   0  0  0  0  0  0
  -29.2516  -17.0251   23.4956 H   0  0  0  0  0  0
  -33.2047  -17.7348   21.9092 H   0  0  0  0  0  0
  -28.9443  -19.4592   23.8147 H   0  0  0  0  0  0
  -32.9006  -20.1614   22.2170 H   0  0  0  0  0  0
  -28.7392  -25.4994   22.4824 H   0  0  0  0  0  0
  -27.8396  -24.0687   22.0573 H   0  0  0  0  0  0
  -28.6694  -22.6355   19.9859 H   0  0  0  0  0  0
  -30.0833  -23.1764   19.1232 H   0  0  0  0  0  0
  -29.2981  -23.5956   23.9717 H   0  0  0  0  0  0
  -30.7098  -24.1601   23.1089 H   0  0  0  0  0  0
  -31.5306  -22.7416   21.0780 H   0  0  0  0  0  0
  -30.6162  -21.3083   20.6699 H   0  0  0  0  0  0
  -30.3553  -25.0969   20.6461 H   0  0  0  0  0  0
  -31.5252  -15.3540   23.6926 H   0  0  0  0  0  0
  -32.5487  -15.5226   22.3074 H   0  0  0  0  0  0
  -31.7886  -21.9072   23.4713 H   0  0  0  0  0  0
  -30.3559  -21.5450   24.3890 H   0  0  0  0  0  0
  -27.4697  -24.8672   19.7908 H   0  0  0  0  0  0
  -28.7543  -25.2998   18.6756 H   0  0  0  0  0  0
  -29.7796  -14.5350   22.4356 H   0  0  0  0  0  0
  -29.0773  -21.8318   22.3997 H   0  0  0  0  0  0
  1 25  1  0  0  0
  1 30  2  0  0  0
  1 85  1  0  0  0
  2  3  1  0  0  0
  2 25  1  0  0  0
  2 87  1  0  0  0
  2 88  1  0  0  0
  3  4  1  0  0  0
  3 89  1  0  0  0
  3 90  1  0  0  0
  4  5  1  0  0  0
  4 91  1  0  0  0
  4 92  1  0  0  0
  5  6  1  0  0  0
  5 26  1  0  0  0
  5 93  1  0  0  0
  6 25  1  0  0  0
  6 94  1  0  0  0
  6 95  1  0  0  0
  7  8  2  0  0  0
  7 26  1  0  0  0
  7 29  1  0  0  0
  8  9  1  0  0  0
  8 22  1  0  0  0
  9 10  1  0  0  0
  9 27  2  0  0  0
 10 11  2  0  0  0
 10 15  1  0  0  0
 11 12  1  0  0  0
 11 96  1  0  0  0
 12 13  2  0  0  0
 12 97  1  0  0  0
 13 14  1  0  0  0
 13 31  1  0  0  0
 14 15  2  0  0  0
 14 98  1  0  0  0
 15 99  1  0  0  0
 16 17  2  0  0  0
 16 21  1  0  0  0
 16 31  1  0  0  0
 17 18  1  0  0  0
 17100  1  0  0  0
 18 19  2  0  0  0
 18101  1  0  0  0
 19 20  1  0  0  0
 19 24  1  0  0  0
 20 21  2  0  0  0
 20102  1  0  0  0
 21 23  1  0  0  0
 22 28  1  0  0  0
 22 32  2  0  0  0
 26 27  1  0  0  0
 28103  1  0  0  0
 28104  1  0  0  0
 29105  1  0  0  0
 29106  1  0  0  0
 33 34  1  0  0  0
 33 66  1  0  0  0
 33 70  2  0  0  0
 34 36  1  0  0  0
 34 59  1  0  0  0
 34107  1  0  0  0
 35 44  2  0  0  0
 35 45  1  0  0  0
 35 68  1  0  0  0
 36 56  1  0  0  0
 36108  1  0  0  0
 37 39  1  0  0  0
 37 47  1  0  0  0
 37 66  1  0  0  0
 37109  1  0  0  0
 38 43  2  0  0  0
 38 46  1  0  0  0
 38 47  1  0  0  0
 39 64  1  0  0  0
 39 67  2  0  0  0
 40 52  1  0  0  0
 40 53  2  0  0  0
 40 58  1  0  0  0
 41110  1  0  0  0
 41111  1  0  0  0
 41112  1  0  0  0
 41 48  1  0  0  0
 42 43  1  0  0  0
 42 66  1  0  0  0
 42113  1  0  0  0
 42114  1  0  0  0
 43 44  1  0  0  0
 44115  1  0  0  0
 45 46  2  0  0  0
 45116  1  0  0  0
 46117  1  0  0  0
 47118  1  0  0  0
 47119  1  0  0  0
 48 56  1  0  0  0
 48 65  1  0  0  0
 48120  1  0  0  0
 49 50  1  0  0  0
 49 53  1  0  0  0
 49 64  1  0  0  0
 49121  1  0  0  0
 50 51  1  0  0  0
 50122  1  0  0  0
 50123  1  0  0  0
 51 52  1  0  0  0
 51124  1  0  0  0
 51125  1  0  0  0
 52126  1  0  0  0
 52127  1  0  0  0
 53 54  1  0  0  0
 54 55  2  0  0  0
 54128  1  0  0  0
 55 57  1  0  0  0
 55129  1  0  0  0
 56 69  2  0  0  0
 57 58  2  0  0  0
 57130  1  0  0  0
 58131  1  0  0  0
 59 60  1  0  0  0
 59 61  1  0  0  0
 59 62  1  0  0  0
 60132  1  0  0  0
 60133  1  0  0  0
 60134  1  0  0  0
 61135  1  0  0  0
 61136  1  0  0  0
 61137  1  0  0  0
 62138  1  0  0  0
 62139  1  0  0  0
 62140  1  0  0  0
 63 65  1  0  0  0
 63141  1  0  0  0
 63142  1  0  0  0
 63143  1  0  0  0
 64144  1  0  0  0
 65145  1  0  0  0
 68 84  1  0  0  0
 71 73  2  0  0  0
 71 75  1  0  0  0
 71146  1  0  0  0
 72 74  1  0  0  0
 72 75  2  0  0  0
 72147  1  0  0  0
 73 76  1  0  0  0
 73148  1  0  0  0
 74 76  2  0  0  0
 74149  1  0  0  0
 75 82  1  0  0  0
 76 83  1  0  0  0
 77 79  1  0  0  0
 77 81  1  0  0  0
 77150  1  0  0  0
 77151  1  0  0  0
 78 80  1  0  0  0
 78 81  1  0  0  0
 78152  1  0  0  0
 78153  1  0  0  0
 79 86  1  0  0  0
 79154  1  0  0  0
 79155  1  0  0  0
 80 86  1  0  0  0
 80156  1  0  0  0
 80157  1  0  0  0
 81 84  1  0  0  0
 81158  1  0  0  0
 82 85  1  0  0  0
 82159  1  0  0  0
 82160  1  0  0  0
 83161  1  0  0  0
 83162  1  0  0  0
 83 86  1  0  0  0
 84163  1  0  0  0
 84164  1  0  0  0
 85165  1  0  0  0
 86166  1  0  0  0
M  CHG  1  86   1
M  ISO  4   1 100  68 101  84 101  85 100
M  END
> <chiral flag>
0

> <version>
0

> <s_m_source_file>
/data/baiqing/PycharmProjects/Reinvent-master-3.2/result/LINK_invent/BTK/process_docking_weight1_custom_product_contain_oxygen_bond_distance_aromatic_linkinvent_7_9_3/rearranged_h_0003.sdf

> <i_m_source_file_index>
41

> <r_mmod_Potential_Energy-OPLS-2005>
-224.548797607422

> <r_mmod_Stretch_Energy-OPLS-2005>
33.9286117553711

> <r_mmod_Bend_Energy-OPLS-2005>
96.7373046875

> <r_mmod_Torsional_Energy-OPLS-2005>
220.642944335938

> <r_mmod_Improper_Torsional_Energy-OPLS-2005>
4.87986993789673

> <r_mmod_Van_der_Waal_Energy-OPLS-2005>
161.114364624023

> <r_mmod_Electrostatic_Energy-OPLS-2005>
-316.329711914062

> <r_mmod_Solvation_Energy-OPLS-2005>
-434.881500244141

> <b_mmod_Minimization_Converged-OPLS-2005>
0

> <r_mmod_RMS_Derivative-OPLS-2005>
0.437367588281631

$$$$
41
                    3D
 Structure written by MMmdl.
145153  0  0  1  0            999 V2000
  -30.2138  -15.9659   20.3206 C   0  0  0  0  0  0
  -30.3867  -13.3358   19.5420 C   0  0  0  0  0  0
  -29.5546  -12.7452   18.3590 C   0  0  0  0  0  0
  -28.1593  -12.3148   18.8224 C   0  0  0  0  0  0
  -27.5832  -13.3459   19.8128 C   0  0  2  0  0  0
  -28.5764  -13.8296   20.9079 C   0  0  0  0  0  0
  -25.2259  -13.8350   20.5861 C   0  0  0  0  0  0
  -24.1683  -13.0443   20.9308 C   0  0  0  0  0  0
  -24.6445  -11.6973   20.8775 C   0  0  0  0  0  0
  -23.9152  -10.4306   21.0394 C   0  0  0  0  0  0
  -24.3673   -9.4218   21.9181 C   0  0  0  0  0  0
  -23.6324   -8.2264   22.0759 C   0  0  0  0  0  0
  -22.4303   -8.0312   21.3551 C   0  0  0  0  0  0
  -21.9952   -9.0288   20.4651 C   0  0  0  0  0  0
  -22.7308  -10.2150   20.3056 C   0  0  0  0  0  0
  -21.6868   -6.0754   22.5284 C   0  0  0  0  0  0
  -21.4027   -6.5653   23.8214 C   0  0  0  0  0  0
  -21.3655   -5.6807   24.9177 C   0  0  0  0  0  0
  -21.6044   -4.3066   24.7223 C   0  0  0  0  0  0
  -21.8811   -3.8160   23.4343 C   0  0  0  0  0  0
  -21.9193   -4.6977   22.3400 C   0  0  0  0  0  0
  -22.7686  -13.5144   21.1935 C   0  0  0  0  0  0
  -22.1658   -4.2164   21.0977 F   0  0  0  0  0  0
  -21.5617   -3.4549   25.7729 F   0  0  0  0  0  0
  -29.6881  -14.5570   20.2200 N   0  0  0  0  0  0
  -26.2756  -12.9757   20.3322 N   0  0  0  0  0  0
  -25.9409  -11.6780   20.5706 N   0  0  0  0  0  0
  -22.0365  -12.8121   22.0496 N   0  0  0  0  0  0
  -25.3814  -15.2104   20.4334 N   0  0  0  0  0  0
  -31.4496  -15.7886   20.1794 O   0  0  0  0  0  0
  -21.6665   -6.8906   21.4248 O   0  0  0  0  0  0
  -22.3356  -14.5442   20.6775 O   0  0  0  0  0  0
  -24.7045  -31.7732   23.1349 C   0  0  0  0  0  0
  -25.9511  -32.4335   23.7978 C   0  0  1  0  0  0
  -27.2357  -26.4722   20.2270 C   0  0  0  0  0  0
  -25.6002  -33.8175   24.1832 N   0  0  0  0  0  0
  -23.5416  -30.3656   21.4931 C   0  0  2  0  0  0
  -25.0043  -28.6631   20.1206 C   0  0  0  0  0  0
  -22.7863  -29.4165   22.4644 C   0  0  0  0  0  0
  -18.0351  -28.1422   22.8444 C   0  0  0  0  0  0
  -24.1505  -36.7105   23.2667 C   0  0  0  0  0  0
  -26.1317  -30.4274   21.4381 C   0  0  0  0  0  0
  -26.1943  -28.9677   20.7906 C   0  0  0  0  0  0
  -27.2788  -27.9051   20.8133 C   0  0  0  0  0  0
  -26.0123  -26.4415   19.4913 C   0  0  0  0  0  0
  -24.9664  -27.4282   19.4472 C   0  0  0  0  0  0
  -23.8107  -29.6465   20.1359 C   0  0  0  0  0  0
  -25.4170  -36.2826   24.0262 C   0  0  1  0  0  0
  -20.5997  -28.3790   23.1100 C   0  0  2  0  0  0
  -20.6809  -26.9427   22.5407 C   0  0  0  0  0  0
  -19.5787  -26.6350   21.5220 C   0  0  0  0  0  0
  -18.1971  -26.7942   22.1622 C   0  0  0  0  0  0
  -19.1622  -28.8933   23.2746 C   0  0  0  0  0  0
  -18.9523  -30.1514   23.8802 C   0  0  0  0  0  0
  -17.6511  -30.6597   24.0537 C   0  0  0  0  0  0
  -25.9145  -34.9216   23.4903 C   0  0  0  0  0  0
  -16.5399  -29.9077   23.6352 C   0  0  0  0  0  0
  -16.7331  -28.6498   23.0372 C   0  0  0  0  0  0
  -26.4624  -31.6474   25.0699 C   0  0  0  0  0  0
  -25.3629  -31.3862   26.1269 C   0  0  0  0  0  0
  -27.0597  -30.2787   24.6775 C   0  0  0  0  0  0
  -27.6021  -32.4402   25.7535 C   0  0  0  0  0  0
  -27.5539  -37.1749   24.8493 C   0  0  0  0  0  0
  -21.4486  -29.2994   22.3398 N   0  0  0  0  0  0
  -26.4297  -37.3589   23.9357 N   0  0  0  0  0  0
  -24.8185  -30.8945   22.0735 N   0  0  0  0  0  0
  -23.4209  -28.7799   23.3083 O   0  0  0  0  0  0
  -28.1380  -25.1261   20.3217 O   0  0  0  0  0  0
  -26.5820  -34.8826   22.4545 O   0  0  0  0  0  0
  -23.6015  -32.0915   23.6151 O   0  0  0  0  0  0
  -27.9029  -23.1401   20.0686 C   0  0  0  0  0  0
  -28.6880  -18.5224   21.1400 C   0  0  0  0  0  0
  -30.1646  -18.9321   19.7341 C   0  0  0  0  0  0
  -28.1742  -20.2872   21.0131 C   0  0  0  0  0  0
  -29.3702  -20.5270   19.3925 C   0  0  0  0  0  0
  -29.5875  -17.4907   20.2448 N   0  0  0  0  0  0
  -28.7670  -21.6860   20.3752 N   0  0  0  0  0  0
  -26.7922  -22.9205   19.5784 O   0  0  0  0  0  0
  -31.3544  -13.6297   19.1351 H   0  0  0  0  0  0
  -30.6281  -12.5586   20.2701 H   0  0  0  0  0  0
  -30.0754  -11.9024   17.9036 H   0  0  0  0  0  0
  -29.4574  -13.5054   17.5823 H   0  0  0  0  0  0
  -28.2509  -11.3481   19.3194 H   0  0  0  0  0  0
  -27.4921  -12.1693   17.9720 H   0  0  0  0  0  0
  -27.3973  -14.2185   19.1846 H   0  0  0  0  0  0
  -28.9165  -13.0113   21.5447 H   0  0  0  0  0  0
  -28.0760  -14.5355   21.5726 H   0  0  0  0  0  0
  -25.2802   -9.5690   22.4774 H   0  0  0  0  0  0
  -24.0017   -7.4657   22.7496 H   0  0  0  0  0  0
  -21.0867   -8.8826   19.8964 H   0  0  0  0  0  0
  -22.3761  -10.9699   19.6181 H   0  0  0  0  0  0
  -21.2037   -7.6166   23.9722 H   0  0  0  0  0  0
  -21.1475   -6.0537   25.9076 H   0  0  0  0  0  0
  -22.0589   -2.7623   23.2846 H   0  0  0  0  0  0
  -22.4004  -11.9790   22.4877 H   0  0  0  0  0  0
  -21.0974  -13.1124   22.2708 H   0  0  0  0  0  0
  -24.6101  -15.8566   20.5586 H   0  0  0  0  0  0
  -26.2314  -15.6637   20.1222 H   0  0  0  0  0  0
  -26.7611  -32.4746   23.0697 H   0  0  0  0  0  0
  -25.0008  -33.9187   24.9888 H   0  0  0  0  0  0
  -22.8799  -31.2095   21.2862 H   0  0  0  0  0  0
  -23.3746  -35.9466   23.3385 H   0  0  0  0  0  0
  -24.3523  -36.8717   22.2067 H   0  0  0  0  0  0
  -23.7322  -37.6320   23.6726 H   0  0  0  0  0  0
  -26.3625  -31.1375   20.6429 H   0  0  0  0  0  0
  -26.9721  -30.5017   22.1141 H   0  0  0  0  0  0
  -28.1629  -28.1484   21.3853 H   0  0  0  0  0  0
  -25.8064  -25.5221   18.9608 H   0  0  0  0  0  0
  -24.0770  -27.1833   18.8834 H   0  0  0  0  0  0
  -24.0057  -30.4015   19.3738 H   0  0  0  0  0  0
  -22.9109  -29.1282   19.8020 H   0  0  0  0  0  0
  -25.1413  -36.1583   25.0759 H   0  0  0  0  0  0
  -21.0070  -28.3424   24.1228 H   0  0  0  0  0  0
  -20.5654  -26.2415   23.3686 H   0  0  0  0  0  0
  -21.6667  -26.7334   22.1234 H   0  0  0  0  0  0
  -19.6939  -25.6233   21.1312 H   0  0  0  0  0  0
  -19.6734  -27.3105   20.6709 H   0  0  0  0  0  0
  -17.4240  -26.6668   21.4032 H   0  0  0  0  0  0
  -18.0359  -26.0108   22.9041 H   0  0  0  0  0  0
  -19.7997  -30.7348   24.2137 H   0  0  0  0  0  0
  -17.5057  -31.6272   24.5148 H   0  0  0  0  0  0
  -15.5393  -30.2949   23.7725 H   0  0  0  0  0  0
  -15.8732  -28.0782   22.7152 H   0  0  0  0  0  0
  -24.5824  -30.7214   25.7554 H   0  0  0  0  0  0
  -24.8815  -32.3110   26.4462 H   0  0  0  0  0  0
  -25.7738  -30.9156   27.0209 H   0  0  0  0  0  0
  -26.3353  -29.6324   24.1806 H   0  0  0  0  0  0
  -27.3964  -29.7340   25.5607 H   0  0  0  0  0  0
  -27.9364  -30.3867   24.0386 H   0  0  0  0  0  0
  -27.2506  -33.3779   26.1858 H   0  0  0  0  0  0
  -28.3960  -32.6843   25.0465 H   0  0  0  0  0  0
  -28.0552  -31.8713   26.5665 H   0  0  0  0  0  0
  -28.2641  -37.9953   24.7355 H   0  0  0  0  0  0
  -28.0950  -36.2467   24.6588 H   0  0  0  0  0  0
  -27.2210  -37.1705   25.8888 H   0  0  0  0  0  0
  -20.9839  -29.8629   21.6411 H   0  0  0  0  0  0
  -26.0117  -38.2664   24.1233 H   0  0  0  0  0  0
  -27.7647  -17.9710   21.3247 H   0  0  0  0  0  0
  -29.1892  -18.4714   22.1087 H   0  0  0  0  0  0
  -31.0205  -19.1458   20.3786 H   0  0  0  0  0  0
  -30.6350  -18.6638   18.7864 H   0  0  0  0  0  0
  -27.9421  -20.5714   22.0406 H   0  0  0  0  0  0
  -27.1774  -20.2305   20.5665 H   0  0  0  0  0  0
  -28.6203  -20.3530   18.6155 H   0  0  0  0  0  0
  -30.1382  -21.0811   18.8509 H   0  0  0  0  0  0
  1 25  1  0  0  0
  1 30  2  0  0  0
  1 76  1  0  0  0
  2  3  1  0  0  0
  2 25  1  0  0  0
  2 79  1  0  0  0
  2 80  1  0  0  0
  3  4  1  0  0  0
  3 81  1  0  0  0
  3 82  1  0  0  0
  4  5  1  0  0  0
  4 83  1  0  0  0
  4 84  1  0  0  0
  5  6  1  0  0  0
  5 26  1  0  0  0
  5 85  1  0  0  0
  6 25  1  0  0  0
  6 86  1  0  0  0
  6 87  1  0  0  0
  7  8  2  0  0  0
  7 26  1  0  0  0
  7 29  1  0  0  0
  8  9  1  0  0  0
  8 22  1  0  0  0
  9 10  1  0  0  0
  9 27  2  0  0  0
 10 11  2  0  0  0
 10 15  1  0  0  0
 11 12  1  0  0  0
 11 88  1  0  0  0
 12 13  2  0  0  0
 12 89  1  0  0  0
 13 14  1  0  0  0
 13 31  1  0  0  0
 14 15  2  0  0  0
 14 90  1  0  0  0
 15 91  1  0  0  0
 16 17  2  0  0  0
 16 21  1  0  0  0
 16 31  1  0  0  0
 17 18  1  0  0  0
 17 92  1  0  0  0
 18 19  2  0  0  0
 18 93  1  0  0  0
 19 20  1  0  0  0
 19 24  1  0  0  0
 20 21  2  0  0  0
 20 94  1  0  0  0
 21 23  1  0  0  0
 22 28  1  0  0  0
 22 32  2  0  0  0
 26 27  1  0  0  0
 28 95  1  0  0  0
 28 96  1  0  0  0
 29 97  1  0  0  0
 29 98  1  0  0  0
 33 34  1  0  0  0
 33 66  1  0  0  0
 33 70  2  0  0  0
 34 36  1  0  0  0
 34 59  1  0  0  0
 34 99  1  0  0  0
 35 44  2  0  0  0
 35 45  1  0  0  0
 35 68  1  0  0  0
 36 56  1  0  0  0
 36100  1  0  0  0
 37 39  1  0  0  0
 37 47  1  0  0  0
 37 66  1  0  0  0
 37101  1  0  0  0
 38 43  2  0  0  0
 38 46  1  0  0  0
 38 47  1  0  0  0
 39 64  1  0  0  0
 39 67  2  0  0  0
 40 52  1  0  0  0
 40 53  2  0  0  0
 40 58  1  0  0  0
 41102  1  0  0  0
 41103  1  0  0  0
 41104  1  0  0  0
 41 48  1  0  0  0
 42 43  1  0  0  0
 42 66  1  0  0  0
 42105  1  0  0  0
 42106  1  0  0  0
 43 44  1  0  0  0
 44107  1  0  0  0
 45 46  2  0  0  0
 45108  1  0  0  0
 46109  1  0  0  0
 47110  1  0  0  0
 47111  1  0  0  0
 48 56  1  0  0  0
 48 65  1  0  0  0
 48112  1  0  0  0
 49 50  1  0  0  0
 49 53  1  0  0  0
 49 64  1  0  0  0
 49113  1  0  0  0
 50 51  1  0  0  0
 50114  1  0  0  0
 50115  1  0  0  0
 51 52  1  0  0  0
 51116  1  0  0  0
 51117  1  0  0  0
 52118  1  0  0  0
 52119  1  0  0  0
 53 54  1  0  0  0
 54 55  2  0  0  0
 54120  1  0  0  0
 55 57  1  0  0  0
 55121  1  0  0  0
 56 69  2  0  0  0
 57 58  2  0  0  0
 57122  1  0  0  0
 58123  1  0  0  0
 59 60  1  0  0  0
 59 61  1  0  0  0
 59 62  1  0  0  0
 60124  1  0  0  0
 60125  1  0  0  0
 60126  1  0  0  0
 61127  1  0  0  0
 61128  1  0  0  0
 61129  1  0  0  0
 62130  1  0  0  0
 62131  1  0  0  0
 62132  1  0  0  0
 63 65  1  0  0  0
 63133  1  0  0  0
 63134  1  0  0  0
 63135  1  0  0  0
 64136  1  0  0  0
 65137  1  0  0  0
 68 71  1  0  0  0
 71 77  1  0  0  0
 71 78  2  0  0  0
 72 74  1  0  0  0
 72 76  1  0  0  0
 72138  1  0  0  0
 72139  1  0  0  0
 73 75  1  0  0  0
 73 76  1  0  0  0
 73140  1  0  0  0
 73141  1  0  0  0
 74 77  1  0  0  0
 74142  1  0  0  0
 74143  1  0  0  0
 75 77  1  0  0  0
 75144  1  0  0  0
 75145  1  0  0  0
M  ISO  4   1 100  68 101  71 101  76 100
M  END
> <chiral flag>
0

> <version>
0

> <s_m_source_file>
/data/baiqing/PycharmProjects/Reinvent-master-3.2/result/LINK_invent/BTK/process_docking_weight1_custom_product_contain_oxygen_bond_distance_aromatic_linkinvent_7_9_3/rearranged_h_0003.sdf

> <i_m_source_file_index>
42

> <r_mmod_Potential_Energy-OPLS-2005>
4126.98583984375

> <r_mmod_Stretch_Energy-OPLS-2005>
1579.25390625

> <r_mmod_Bend_Energy-OPLS-2005>
1035.71228027344

> <r_mmod_Torsional_Energy-OPLS-2005>
414.657196044922

> <r_mmod_Improper_Torsional_Energy-OPLS-2005>
21.4799480438232

> <r_mmod_Van_der_Waal_Energy-OPLS-2005>
128.791137695312

> <r_mmod_Electrostatic_Energy-OPLS-2005>
-266.882019042969

> <r_mmod_Solvation_Energy-OPLS-2005>
-243.395050048828

> <b_mmod_Minimization_Converged-OPLS-2005>
0

> <r_mmod_RMS_Derivative-OPLS-2005>
1.58480596542358

$$$$
42
                    3D
 Structure written by MMmdl.
167175  0  0  1  0            999 V2000
  -30.7837  -14.3300   20.7527 C   0  0  0  0  0  0
  -30.4193  -12.2995   19.3887 C   0  0  0  0  0  0
  -29.4834  -12.5390   18.1910 C   0  0  0  0  0  0
  -28.0104  -12.3761   18.6082 C   0  0  0  0  0  0
  -27.6641  -13.1995   19.8744 C   0  0  2  0  0  0
  -28.6947  -12.9380   20.9917 C   0  0  0  0  0  0
  -25.2603  -13.8148   20.5647 C   0  0  0  0  0  0
  -24.1842  -13.0438   20.9142 C   0  0  0  0  0  0
  -24.6379  -11.6898   20.8705 C   0  0  0  0  0  0
  -23.9051  -10.4290   21.0395 C   0  0  0  0  0  0
  -24.3607   -9.4206   21.9177 C   0  0  0  0  0  0
  -23.6282   -8.2243   22.0752 C   0  0  0  0  0  0
  -22.4266   -8.0280   21.3543 C   0  0  0  0  0  0
  -21.9900   -9.0249   20.4645 C   0  0  0  0  0  0
  -22.7226  -10.2126   20.3049 C   0  0  0  0  0  0
  -21.6856   -6.0732   22.5277 C   0  0  0  0  0  0
  -21.4016   -6.5637   23.8210 C   0  0  0  0  0  0
  -21.3662   -5.6791   24.9173 C   0  0  0  0  0  0
  -21.6041   -4.3054   24.7223 C   0  0  0  0  0  0
  -21.8823   -3.8144   23.4345 C   0  0  0  0  0  0
  -21.9189   -4.6957   22.3401 C   0  0  0  0  0  0
  -22.7868  -13.5237   21.1827 C   0  0  0  0  0  0
  -22.1663   -4.2143   21.0978 F   0  0  0  0  0  0
  -21.5625   -3.4540   25.7738 F   0  0  0  0  0  0
  -30.0475  -13.2255   20.4678 N   0  0  0  0  0  0
  -26.3019  -12.9306   20.3316 N   0  0  0  0  0  0
  -25.9297  -11.6471   20.5715 N   0  0  0  0  0  0
  -22.0518  -12.8233   22.0387 N   0  0  0  0  0  0
  -25.4376  -15.1867   20.4081 N   0  0  0  0  0  0
  -31.7602  -14.6794   20.0789 O   0  0  0  0  0  0
  -21.6640   -6.8867   21.4237 O   0  0  0  0  0  0
  -22.3547  -14.5548   20.6678 O   0  0  0  0  0  0
  -24.6098  -31.8711   23.2134 C   0  0  0  0  0  0
  -25.9002  -32.4845   23.8425 C   0  0  1  0  0  0
  -27.2481  -27.4757   20.1038 C   0  0  0  0  0  0
  -25.5873  -33.8640   24.2355 N   0  0  0  0  0  0
  -23.3975  -30.4933   21.5505 C   0  0  2  0  0  0
  -24.8486  -28.9612   20.1191 C   0  0  0  0  0  0
  -22.7389  -29.4671   22.4987 C   0  0  0  0  0  0
  -18.0273  -28.1396   22.8482 C   0  0  0  0  0  0
  -24.1480  -36.7330   23.2644 C   0  0  0  0  0  0
  -25.9213  -30.8494   21.3624 C   0  0  0  0  0  0
  -26.0014  -29.4844   20.7183 C   0  0  0  0  0  0
  -27.2025  -28.7480   20.7176 C   0  0  0  0  0  0
  -26.0859  -26.9664   19.4918 C   0  0  0  0  0  0
  -24.8822  -27.6966   19.5042 C   0  0  0  0  0  0
  -23.6079  -29.8227   20.1654 C   0  0  0  0  0  0
  -25.4095  -36.3129   24.0351 C   0  0  1  0  0  0
  -20.5863  -28.3674   23.1318 C   0  0  2  0  0  0
  -20.6773  -26.9418   22.5413 C   0  0  0  0  0  0
  -19.5756  -26.6400   21.5207 C   0  0  0  0  0  0
  -18.1928  -26.7941   22.1614 C   0  0  0  0  0  0
  -19.1525  -28.8848   23.2902 C   0  0  0  0  0  0
  -18.9458  -30.1451   23.8915 C   0  0  0  0  0  0
  -17.6464  -30.6601   24.0572 C   0  0  0  0  0  0
  -25.9023  -34.9494   23.5154 C   0  0  0  0  0  0
  -16.5348  -29.9116   23.6322 C   0  0  0  0  0  0
  -16.7265  -28.6532   23.0336 C   0  0  0  0  0  0
  -26.4441  -31.6617   25.0738 C   0  0  0  0  0  0
  -25.3716  -31.3710   26.1487 C   0  0  0  0  0  0
  -27.0265  -30.3070   24.6084 C   0  0  0  0  0  0
  -27.6055  -32.4314   25.7481 C   0  0  0  0  0  0
  -27.5579  -37.1817   24.8467 C   0  0  0  0  0  0
  -21.4124  -29.3045   22.3727 N   0  0  0  0  0  0
  -26.4289  -37.3800   23.9409 N   0  0  0  0  0  0
  -24.6598  -31.0853   22.1012 N   0  0  0  0  0  0
  -23.4176  -28.8217   23.3024 O   0  0  0  0  0  0
  -28.3778  -26.6946   20.0523 O   0  0  0  0  0  0
  -26.5587  -34.8933   22.4712 O   0  0  0  0  0  0
  -23.5301  -32.1445   23.7556 O   0  0  0  0  0  0
  -30.1790  -16.4868   23.7103 C   0  0  0  0  0  0
  -32.1773  -16.6557   22.3319 C   0  0  0  0  0  0
  -30.6566  -17.5197   24.5358 C   0  0  0  0  0  0
  -32.6480  -17.7003   23.1550 C   0  0  0  0  0  0
  -30.9352  -16.0360   22.6091 C   0  0  0  0  0  0
  -31.8947  -18.1345   24.2705 C   0  0  0  0  0  0
  -32.6551  -23.9552   23.7157 C   0  0  0  0  0  0
  -31.6785  -24.0214   22.5327 C   0  0  0  0  0  0
  -33.3479  -22.5938   23.8910 C   0  0  0  0  0  0
  -31.0726  -25.4234   22.3588 C   0  0  0  0  0  0
  -32.4067  -21.4383   24.2645 C   0  0  0  0  0  0
  -29.9942  -25.4560   21.2669 C   0  0  0  0  0  0
  -33.2035  -20.2136   24.7392 C   0  0  0  0  0  0
  -29.3223  -26.8245   21.1081 C   0  0  0  0  0  0
  -30.3947  -14.9417   21.8829 N   0  0  0  0  0  0
  -32.3324  -19.1241   25.1621 N   0  0  0  0  0  0
  -31.4614  -12.4152   19.0833 H   0  0  0  0  0  0
  -30.3292  -11.2713   19.7430 H   0  0  0  0  0  0
  -29.7224  -11.8486   17.3809 H   0  0  0  0  0  0
  -29.6456  -13.5449   17.7980 H   0  0  0  0  0  0
  -27.8275  -11.3161   18.7919 H   0  0  0  0  0  0
  -27.3538  -12.6592   17.7850 H   0  0  0  0  0  0
  -27.7250  -14.2539   19.6017 H   0  0  0  0  0  0
  -28.6495  -11.8972   21.3146 H   0  0  0  0  0  0
  -28.4152  -13.5187   21.8713 H   0  0  0  0  0  0
  -25.2757   -9.5685   22.4748 H   0  0  0  0  0  0
  -23.9997   -7.4635   22.7477 H   0  0  0  0  0  0
  -21.0832   -8.8755   19.8956 H   0  0  0  0  0  0
  -22.3680  -10.9654   19.6154 H   0  0  0  0  0  0
  -21.2020   -7.6149   23.9707 H   0  0  0  0  0  0
  -21.1482   -6.0527   25.9071 H   0  0  0  0  0  0
  -22.0600   -2.7606   23.2848 H   0  0  0  0  0  0
  -22.4133  -11.9882   22.4762 H   0  0  0  0  0  0
  -21.1136  -13.1256   22.2614 H   0  0  0  0  0  0
  -24.6816  -15.8529   20.5233 H   0  0  0  0  0  0
  -26.3060  -15.6193   20.1175 H   0  0  0  0  0  0
  -26.7086  -32.5575   23.1212 H   0  0  0  0  0  0
  -24.9998  -33.9796   25.0482 H   0  0  0  0  0  0
  -22.6853  -31.3092   21.4083 H   0  0  0  0  0  0
  -23.3732  -35.9673   23.3326 H   0  0  0  0  0  0
  -24.3587  -36.8915   22.2057 H   0  0  0  0  0  0
  -23.7243  -37.6544   23.6639 H   0  0  0  0  0  0
  -26.0237  -31.6117   20.5888 H   0  0  0  0  0  0
  -26.8145  -30.9118   21.9733 H   0  0  0  0  0  0
  -28.0844  -29.1677   21.1789 H   0  0  0  0  0  0
  -26.1142  -25.9979   19.0139 H   0  0  0  0  0  0
  -23.9972  -27.2845   19.0388 H   0  0  0  0  0  0
  -23.7207  -30.5967   19.4067 H   0  0  0  0  0  0
  -22.7345  -29.2402   19.8666 H   0  0  0  0  0  0
  -25.1267  -36.2011   25.0850 H   0  0  0  0  0  0
  -20.9956  -28.3249   24.1440 H   0  0  0  0  0  0
  -20.5690  -26.2283   23.3594 H   0  0  0  0  0  0
  -21.6645  -26.7481   22.1201 H   0  0  0  0  0  0
  -19.6921  -25.6316   21.1228 H   0  0  0  0  0  0
  -19.6708  -27.3224   20.6751 H   0  0  0  0  0  0
  -17.4198  -26.6682   21.4019 H   0  0  0  0  0  0
  -18.0341  -26.0086   22.9020 H   0  0  0  0  0  0
  -19.7939  -30.7250   24.2317 H   0  0  0  0  0  0
  -17.5031  -31.6289   24.5171 H   0  0  0  0  0  0
  -15.5360  -30.3028   23.7657 H   0  0  0  0  0  0
  -15.8652  -28.0873   22.7036 H   0  0  0  0  0  0
  -24.5905  -30.7046   25.7811 H   0  0  0  0  0  0
  -24.8883  -32.2860   26.4926 H   0  0  0  0  0  0
  -25.8069  -30.8881   27.0247 H   0  0  0  0  0  0
  -26.2806  -29.6845   24.1133 H   0  0  0  0  0  0
  -27.4039  -29.7282   25.4522 H   0  0  0  0  0  0
  -27.8638  -30.4395   23.9224 H   0  0  0  0  0  0
  -27.2720  -33.3606   26.2108 H   0  0  0  0  0  0
  -28.3840  -32.6888   25.0289 H   0  0  0  0  0  0
  -28.0757  -31.8404   26.5347 H   0  0  0  0  0  0
  -28.2613  -38.0100   24.7500 H   0  0  0  0  0  0
  -28.1064  -36.2633   24.6308 H   0  0  0  0  0  0
  -27.2307  -37.1491   25.8875 H   0  0  0  0  0  0
  -20.9284  -29.8744   21.6929 H   0  0  0  0  0  0
  -26.0186  -38.2882   24.1410 H   0  0  0  0  0  0
  -29.2262  -16.0336   23.9484 H   0  0  0  0  0  0
  -32.8016  -16.3367   21.5105 H   0  0  0  0  0  0
  -30.0607  -17.8311   25.3824 H   0  0  0  0  0  0
  -33.6119  -18.1266   22.9256 H   0  0  0  0  0  0
  -32.1402  -24.2223   24.6397 H   0  0  0  0  0  0
  -33.4240  -24.7148   23.5750 H   0  0  0  0  0  0
  -30.8781  -23.2956   22.6809 H   0  0  0  0  0  0
  -32.1895  -23.7279   21.6138 H   0  0  0  0  0  0
  -34.0937  -22.6991   24.6806 H   0  0  0  0  0  0
  -33.8989  -22.3371   22.9857 H   0  0  0  0  0  0
  -31.8613  -26.1388   22.1188 H   0  0  0  0  0  0
  -30.6393  -25.7598   23.3015 H   0  0  0  0  0  0
  -31.7867  -21.1732   23.4062 H   0  0  0  0  0  0
  -31.7240  -21.7601   25.0537 H   0  0  0  0  0  0
  -29.2255  -24.7180   21.5015 H   0  0  0  0  0  0
  -30.4306  -25.1566   20.3130 H   0  0  0  0  0  0
  -33.8110  -20.4964   25.6010 H   0  0  0  0  0  0
  -33.9128  -19.9058   23.9726 H   0  0  0  0  0  0
  -30.0536  -27.5965   20.8652 H   0  0  0  0  0  0
  -28.8471  -27.0996   22.0510 H   0  0  0  0  0  0
  -29.5831  -14.5116   22.3009 H   0  0  0  0  0  0
  -31.7429  -19.3132   25.9701 H   0  0  0  0  0  0
  1 25  1  0  0  0
  1 30  2  0  0  0
  1 85  1  0  0  0
  2  3  1  0  0  0
  2 25  1  0  0  0
  2 87  1  0  0  0
  2 88  1  0  0  0
  3  4  1  0  0  0
  3 89  1  0  0  0
  3 90  1  0  0  0
  4  5  1  0  0  0
  4 91  1  0  0  0
  4 92  1  0  0  0
  5  6  1  0  0  0
  5 26  1  0  0  0
  5 93  1  0  0  0
  6 25  1  0  0  0
  6 94  1  0  0  0
  6 95  1  0  0  0
  7  8  2  0  0  0
  7 26  1  0  0  0
  7 29  1  0  0  0
  8  9  1  0  0  0
  8 22  1  0  0  0
  9 10  1  0  0  0
  9 27  2  0  0  0
 10 11  2  0  0  0
 10 15  1  0  0  0
 11 12  1  0  0  0
 11 96  1  0  0  0
 12 13  2  0  0  0
 12 97  1  0  0  0
 13 14  1  0  0  0
 13 31  1  0  0  0
 14 15  2  0  0  0
 14 98  1  0  0  0
 15 99  1  0  0  0
 16 17  2  0  0  0
 16 21  1  0  0  0
 16 31  1  0  0  0
 17 18  1  0  0  0
 17100  1  0  0  0
 18 19  2  0  0  0
 18101  1  0  0  0
 19 20  1  0  0  0
 19 24  1  0  0  0
 20 21  2  0  0  0
 20102  1  0  0  0
 21 23  1  0  0  0
 22 28  1  0  0  0
 22 32  2  0  0  0
 26 27  1  0  0  0
 28103  1  0  0  0
 28104  1  0  0  0
 29105  1  0  0  0
 29106  1  0  0  0
 33 34  1  0  0  0
 33 66  1  0  0  0
 33 70  2  0  0  0
 34 36  1  0  0  0
 34 59  1  0  0  0
 34107  1  0  0  0
 35 44  2  0  0  0
 35 45  1  0  0  0
 35 68  1  0  0  0
 36 56  1  0  0  0
 36108  1  0  0  0
 37 39  1  0  0  0
 37 47  1  0  0  0
 37 66  1  0  0  0
 37109  1  0  0  0
 38 43  2  0  0  0
 38 46  1  0  0  0
 38 47  1  0  0  0
 39 64  1  0  0  0
 39 67  2  0  0  0
 40 52  1  0  0  0
 40 53  2  0  0  0
 40 58  1  0  0  0
 41110  1  0  0  0
 41111  1  0  0  0
 41112  1  0  0  0
 41 48  1  0  0  0
 42 43  1  0  0  0
 42 66  1  0  0  0
 42113  1  0  0  0
 42114  1  0  0  0
 43 44  1  0  0  0
 44115  1  0  0  0
 45 46  2  0  0  0
 45116  1  0  0  0
 46117  1  0  0  0
 47118  1  0  0  0
 47119  1  0  0  0
 48 56  1  0  0  0
 48 65  1  0  0  0
 48120  1  0  0  0
 49 50  1  0  0  0
 49 53  1  0  0  0
 49 64  1  0  0  0
 49121  1  0  0  0
 50 51  1  0  0  0
 50122  1  0  0  0
 50123  1  0  0  0
 51 52  1  0  0  0
 51124  1  0  0  0
 51125  1  0  0  0
 52126  1  0  0  0
 52127  1  0  0  0
 53 54  1  0  0  0
 54 55  2  0  0  0
 54128  1  0  0  0
 55 57  1  0  0  0
 55129  1  0  0  0
 56 69  2  0  0  0
 57 58  2  0  0  0
 57130  1  0  0  0
 58131  1  0  0  0
 59 60  1  0  0  0
 59 61  1  0  0  0
 59 62  1  0  0  0
 60132  1  0  0  0
 60133  1  0  0  0
 60134  1  0  0  0
 61135  1  0  0  0
 61136  1  0  0  0
 61137  1  0  0  0
 62138  1  0  0  0
 62139  1  0  0  0
 62140  1  0  0  0
 63 65  1  0  0  0
 63141  1  0  0  0
 63142  1  0  0  0
 63143  1  0  0  0
 64144  1  0  0  0
 65145  1  0  0  0
 68 84  1  0  0  0
 71 73  2  0  0  0
 71 75  1  0  0  0
 71146  1  0  0  0
 72 74  1  0  0  0
 72 75  2  0  0  0
 72147  1  0  0  0
 73 76  1  0  0  0
 73148  1  0  0  0
 74 76  2  0  0  0
 74149  1  0  0  0
 75 85  1  0  0  0
 76 86  1  0  0  0
 77 78  1  0  0  0
 77 79  1  0  0  0
 77150  1  0  0  0
 77151  1  0  0  0
 78 80  1  0  0  0
 78152  1  0  0  0
 78153  1  0  0  0
 79 81  1  0  0  0
 79154  1  0  0  0
 79155  1  0  0  0
 80 82  1  0  0  0
 80156  1  0  0  0
 80157  1  0  0  0
 81 83  1  0  0  0
 81158  1  0  0  0
 81159  1  0  0  0
 82 84  1  0  0  0
 82160  1  0  0  0
 82161  1  0  0  0
 83 86  1  0  0  0
 83162  1  0  0  0
 83163  1  0  0  0
 84164  1  0  0  0
 84165  1  0  0  0
 85166  1  0  0  0
 86167  1  0  0  0
M  ISO  4   1 100  68 101  84 101  85 100
M  END
> <chiral flag>
0

> <version>
0

> <s_m_source_file>
/data/baiqing/PycharmProjects/Reinvent-master-3.2/result/LINK_invent/BTK/process_docking_weight1_custom_product_contain_oxygen_bond_distance_aromatic_linkinvent_7_9_3/rearranged_h_0003.sdf

> <i_m_source_file_index>
43

> <r_mmod_Potential_Energy-OPLS-2005>
-91.3587875366211

> <r_mmod_Stretch_Energy-OPLS-2005>
31.3508548736572

> <r_mmod_Bend_Energy-OPLS-2005>
114.34204864502

> <r_mmod_Torsional_Energy-OPLS-2005>
201.948974609375

> <r_mmod_Improper_Torsional_Energy-OPLS-2005>
3.6853199005127

> <r_mmod_Van_der_Waal_Energy-OPLS-2005>
158.800903320312

> <r_mmod_Electrostatic_Energy-OPLS-2005>
-395.672241210938

> <r_mmod_Solvation_Energy-OPLS-2005>
-212.975463867188

> <b_mmod_Minimization_Converged-OPLS-2005>
0

> <r_mmod_RMS_Derivative-OPLS-2005>
2.30418109893799

$$$$
43
                    3D
 Structure written by MMmdl.
175183  0  0  1  0            999 V2000
  -30.7003  -14.3703   20.6815 C   0  0  0  0  0  0
  -30.4411  -12.2898   19.3692 C   0  0  0  0  0  0
  -29.4933  -12.5360   18.1770 C   0  0  0  0  0  0
  -28.0133  -12.3925   18.5910 C   0  0  0  0  0  0
  -27.6730  -13.1881   19.8790 C   0  0  2  0  0  0
  -28.7086  -12.8626   20.9760 C   0  0  0  0  0  0
  -25.2645  -13.8126   20.5630 C   0  0  0  0  0  0
  -24.1881  -13.0438   20.9123 C   0  0  0  0  0  0
  -24.6401  -11.6883   20.8696 C   0  0  0  0  0  0
  -23.9053  -10.4296   21.0393 C   0  0  0  0  0  0
  -24.3613   -9.4218   21.9166 C   0  0  0  0  0  0
  -23.6290   -8.2253   22.0755 C   0  0  0  0  0  0
  -22.4272   -8.0289   21.3549 C   0  0  0  0  0  0
  -21.9895   -9.0259   20.4652 C   0  0  0  0  0  0
  -22.7228  -10.2133   20.3046 C   0  0  0  0  0  0
  -21.6850   -6.0726   22.5281 C   0  0  0  0  0  0
  -21.4017   -6.5627   23.8218 C   0  0  0  0  0  0
  -21.3661   -5.6782   24.9172 C   0  0  0  0  0  0
  -21.6042   -4.3046   24.7225 C   0  0  0  0  0  0
  -21.8826   -3.8140   23.4347 C   0  0  0  0  0  0
  -21.9197   -4.6952   22.3405 C   0  0  0  0  0  0
  -22.7905  -13.5257   21.1808 C   0  0  0  0  0  0
  -22.1662   -4.2143   21.0980 F   0  0  0  0  0  0
  -21.5635   -3.4539   25.7735 F   0  0  0  0  0  0
  -30.0535  -13.1976   20.4566 N   0  0  0  0  0  0
  -26.3075  -12.9257   20.3329 N   0  0  0  0  0  0
  -25.9312  -11.6428   20.5694 N   0  0  0  0  0  0
  -22.0520  -12.8281   22.0370 N   0  0  0  0  0  0
  -25.4385  -15.1847   20.4058 N   0  0  0  0  0  0
  -31.7278  -14.7246   20.0928 O   0  0  0  0  0  0
  -21.6644   -6.8874   21.4248 O   0  0  0  0  0  0
  -22.3595  -14.5562   20.6643 O   0  0  0  0  0  0
  -24.6097  -31.8710   23.2134 C   0  0  0  0  0  0
  -25.9013  -32.4825   23.8408 C   0  0  1  0  0  0
  -27.2437  -27.4830   20.0815 C   0  0  0  0  0  0
  -25.5888  -33.8628   24.2354 N   0  0  0  0  0  0
  -23.3952  -30.4945   21.5532 C   0  0  2  0  0  0
  -24.8430  -28.9559   20.1268 C   0  0  0  0  0  0
  -22.7370  -29.4684   22.5016 C   0  0  0  0  0  0
  -18.0289  -28.1335   22.8501 C   0  0  0  0  0  0
  -24.1489  -36.7319   23.2640 C   0  0  0  0  0  0
  -25.9196  -30.8454   21.3632 C   0  0  0  0  0  0
  -25.9991  -29.4785   20.7218 C   0  0  0  0  0  0
  -27.2021  -28.7439   20.7083 C   0  0  0  0  0  0
  -26.0794  -26.9671   19.4796 C   0  0  0  0  0  0
  -24.8724  -27.6910   19.5125 C   0  0  0  0  0  0
  -23.6033  -29.8191   20.1712 C   0  0  0  0  0  0
  -25.4103  -36.3122   24.0349 C   0  0  1  0  0  0
  -20.5870  -28.3631   23.1325 C   0  0  2  0  0  0
  -20.6797  -26.9367   22.5430 C   0  0  0  0  0  0
  -19.5769  -26.6321   21.5247 C   0  0  0  0  0  0
  -18.1945  -26.7870   22.1652 C   0  0  0  0  0  0
  -19.1536  -28.8804   23.2906 C   0  0  0  0  0  0
  -18.9464  -30.1413   23.8907 C   0  0  0  0  0  0
  -17.6469  -30.6561   24.0562 C   0  0  0  0  0  0
  -25.9025  -34.9478   23.5152 C   0  0  0  0  0  0
  -16.5358  -29.9063   23.6314 C   0  0  0  0  0  0
  -16.7277  -28.6473   23.0342 C   0  0  0  0  0  0
  -26.4462  -31.6575   25.0709 C   0  0  0  0  0  0
  -25.3753  -31.3640   26.1464 C   0  0  0  0  0  0
  -27.0286  -30.3030   24.6033 C   0  0  0  0  0  0
  -27.6038  -32.4274   25.7477 C   0  0  0  0  0  0
  -27.5579  -37.1815   24.8464 C   0  0  0  0  0  0
  -21.4109  -29.3021   22.3731 N   0  0  0  0  0  0
  -26.4299  -37.3796   23.9413 N   0  0  0  0  0  0
  -24.6588  -31.0839   22.1024 N   0  0  0  0  0  0
  -23.4161  -28.8243   23.3053 O   0  0  0  0  0  0
  -28.4284  -26.8058   19.9693 O   0  0  0  0  0  0
  -26.5575  -34.8927   22.4702 O   0  0  0  0  0  0
  -23.5304  -32.1440   23.7569 O   0  0  0  0  0  0
  -22.3280  -23.3067   22.5157 C   0  0  0  0  0  0
  -23.3186  -23.6025   21.5574 C   0  0  0  0  0  0
  -22.6937  -22.8933   23.8129 C   0  0  0  0  0  0
  -25.0394  -23.1057   23.2103 C   0  0  0  0  0  0
  -24.6846  -23.5056   21.9006 C   0  0  0  0  0  0
  -24.0546  -22.7795   24.1688 C   0  0  0  0  0  0
  -25.7553  -23.7643   20.8799 C   0  0  0  0  0  0
  -24.4428  -22.3075   25.5741 C   0  0  0  0  0  0
  -28.7583  -18.4193   23.0151 C   0  0  0  0  0  0
  -27.3793  -18.6877   23.6571 C   0  0  0  0  0  0
  -28.8684  -16.9548   22.5697 C   0  0  0  0  0  0
  -27.2421  -20.0680   24.3225 C   0  0  0  0  0  0
  -30.1679  -16.5561   21.8427 C   0  0  0  0  0  0
  -28.1356  -24.4972   20.6830 C   0  0  0  0  0  0
  -25.8204  -20.3232   24.8729 C   0  0  0  0  0  0
  -28.7205  -25.8817   21.0057 C   0  0  0  0  0  0
  -26.8779  -24.2859   21.3831 N   0  0  0  0  0  0
  -30.0724  -15.1275   21.5846 N   0  0  0  0  0  0
  -25.7365  -21.5875   25.6402 N   0  3  0  0  0  0
  -25.5856  -23.5159   19.6844 O   0  0  0  0  0  0
  -31.4803  -12.4308   19.0640 H   0  0  0  0  0  0
  -30.3720  -11.2553   19.7073 H   0  0  0  0  0  0
  -29.7240  -11.8452   17.3650 H   0  0  0  0  0  0
  -29.6676  -13.5371   17.7785 H   0  0  0  0  0  0
  -27.8110  -11.3324   18.7474 H   0  0  0  0  0  0
  -27.3681  -12.7085   17.7711 H   0  0  0  0  0  0
  -27.7501  -14.2494   19.6425 H   0  0  0  0  0  0
  -28.6758  -11.7975   21.2088 H   0  0  0  0  0  0
  -28.4441  -13.3519   21.9137 H   0  0  0  0  0  0
  -25.2767   -9.5694   22.4723 H   0  0  0  0  0  0
  -24.0003   -7.4648   22.7477 H   0  0  0  0  0  0
  -21.0820   -8.8790   19.8963 H   0  0  0  0  0  0
  -22.3700  -10.9668   19.6154 H   0  0  0  0  0  0
  -21.2007   -7.6138   23.9719 H   0  0  0  0  0  0
  -21.1473   -6.0505   25.9073 H   0  0  0  0  0  0
  -22.0598   -2.7606   23.2855 H   0  0  0  0  0  0
  -22.4121  -11.9955   22.4809 H   0  0  0  0  0  0
  -21.1132  -13.1332   22.2522 H   0  0  0  0  0  0
  -24.6705  -15.8399   20.5052 H   0  0  0  0  0  0
  -26.2992  -15.6248   20.1046 H   0  0  0  0  0  0
  -26.7079  -32.5572   23.1179 H   0  0  0  0  0  0
  -25.0080  -33.9786   25.0523 H   0  0  0  0  0  0
  -22.6841  -31.3110   21.4111 H   0  0  0  0  0  0
  -23.3746  -35.9658   23.3318 H   0  0  0  0  0  0
  -24.3597  -36.8906   22.2053 H   0  0  0  0  0  0
  -23.7247  -37.6539   23.6629 H   0  0  0  0  0  0
  -26.0258  -31.6074   20.5897 H   0  0  0  0  0  0
  -26.8099  -30.9037   21.9767 H   0  0  0  0  0  0
  -28.1012  -29.1547   21.1477 H   0  0  0  0  0  0
  -26.1157  -26.0186   18.9643 H   0  0  0  0  0  0
  -23.9863  -27.2818   19.0473 H   0  0  0  0  0  0
  -23.7122  -30.5882   19.4061 H   0  0  0  0  0  0
  -22.7283  -29.2361   19.8777 H   0  0  0  0  0  0
  -25.1286  -36.1999   25.0845 H   0  0  0  0  0  0
  -20.9969  -28.3219   24.1439 H   0  0  0  0  0  0
  -20.5733  -26.2243   23.3624 H   0  0  0  0  0  0
  -21.6669  -26.7415   22.1221 H   0  0  0  0  0  0
  -19.6942  -25.6221   21.1305 H   0  0  0  0  0  0
  -19.6704  -27.3111   20.6765 H   0  0  0  0  0  0
  -17.4217  -26.6603   21.4056 H   0  0  0  0  0  0
  -18.0346  -26.0014   22.9054 H   0  0  0  0  0  0
  -19.7946  -30.7225   24.2274 H   0  0  0  0  0  0
  -17.5030  -31.6246   24.5157 H   0  0  0  0  0  0
  -15.5359  -30.2978   23.7627 H   0  0  0  0  0  0
  -15.8669  -28.0806   22.7039 H   0  0  0  0  0  0
  -24.5931  -30.6980   25.7811 H   0  0  0  0  0  0
  -24.8939  -32.2779   26.4951 H   0  0  0  0  0  0
  -25.8141  -30.8798   27.0195 H   0  0  0  0  0  0
  -26.2821  -29.6796   24.1101 H   0  0  0  0  0  0
  -27.4099  -29.7251   25.4460 H   0  0  0  0  0  0
  -27.8637  -30.4368   23.9158 H   0  0  0  0  0  0
  -27.2652  -33.3552   26.2099 H   0  0  0  0  0  0
  -28.3836  -32.6853   25.0302 H   0  0  0  0  0  0
  -28.0707  -31.8358   26.5355 H   0  0  0  0  0  0
  -28.2616  -38.0095   24.7507 H   0  0  0  0  0  0
  -28.1059  -36.2631   24.6303 H   0  0  0  0  0  0
  -27.2295  -37.1481   25.8867 H   0  0  0  0  0  0
  -20.9262  -29.8718   21.6934 H   0  0  0  0  0  0
  -26.0195  -38.2886   24.1395 H   0  0  0  0  0  0
  -21.2830  -23.3833   22.2497 H   0  0  0  0  0  0
  -23.0297  -23.9066   20.5597 H   0  0  0  0  0  0
  -21.9222  -22.6639   24.5347 H   0  0  0  0  0  0
  -26.0836  -23.0198   23.4702 H   0  0  0  0  0  0
  -24.5017  -23.1799   26.2257 H   0  0  0  0  0  0
  -23.6574  -21.6699   25.9828 H   0  0  0  0  0  0
  -28.9075  -19.0831   22.1615 H   0  0  0  0  0  0
  -29.5591  -18.6395   23.7222 H   0  0  0  0  0  0
  -26.6028  -18.5658   22.8994 H   0  0  0  0  0  0
  -27.1783  -17.9246   24.4107 H   0  0  0  0  0  0
  -28.7683  -16.3299   23.4581 H   0  0  0  0  0  0
  -28.0104  -16.7180   21.9376 H   0  0  0  0  0  0
  -27.4947  -20.8411   23.5968 H   0  0  0  0  0  0
  -27.9746  -20.1434   25.1267 H   0  0  0  0  0  0
  -31.0476  -16.7677   22.4528 H   0  0  0  0  0  0
  -30.2701  -17.1042   20.9037 H   0  0  0  0  0  0
  -28.8269  -23.7287   21.0314 H   0  0  0  0  0  0
  -28.0439  -24.3545   19.6044 H   0  0  0  0  0  0
  -25.5118  -19.5040   25.5245 H   0  0  0  0  0  0
  -25.1180  -20.3366   24.0384 H   0  0  0  0  0  0
  -29.8066  -25.7983   21.0463 H   0  0  0  0  0  0
  -28.4115  -26.2471   21.9881 H   0  0  0  0  0  0
  -26.8647  -24.4978   22.3702 H   0  0  0  0  0  0
  -29.2884  -14.6642   22.0189 H   0  0  0  0  0  0
  -25.9269  -21.3871   26.6102 H   0  0  0  0  0  0
  -26.4535  -22.2203   25.3290 H   0  0  0  0  0  0
  1 25  1  0  0  0
  1 30  2  0  0  0
  1 88  1  0  0  0
  2  3  1  0  0  0
  2 25  1  0  0  0
  2 91  1  0  0  0
  2 92  1  0  0  0
  3  4  1  0  0  0
  3 93  1  0  0  0
  3 94  1  0  0  0
  4  5  1  0  0  0
  4 95  1  0  0  0
  4 96  1  0  0  0
  5  6  1  0  0  0
  5 26  1  0  0  0
  5 97  1  0  0  0
  6 25  1  0  0  0
  6 98  1  0  0  0
  6 99  1  0  0  0
  7  8  2  0  0  0
  7 26  1  0  0  0
  7 29  1  0  0  0
  8  9  1  0  0  0
  8 22  1  0  0  0
  9 10  1  0  0  0
  9 27  2  0  0  0
 10 11  2  0  0  0
 10 15  1  0  0  0
 11 12  1  0  0  0
 11100  1  0  0  0
 12 13  2  0  0  0
 12101  1  0  0  0
 13 14  1  0  0  0
 13 31  1  0  0  0
 14 15  2  0  0  0
 14102  1  0  0  0
 15103  1  0  0  0
 16 17  2  0  0  0
 16 21  1  0  0  0
 16 31  1  0  0  0
 17 18  1  0  0  0
 17104  1  0  0  0
 18 19  2  0  0  0
 18105  1  0  0  0
 19 20  1  0  0  0
 19 24  1  0  0  0
 20 21  2  0  0  0
 20106  1  0  0  0
 21 23  1  0  0  0
 22 28  1  0  0  0
 22 32  2  0  0  0
 26 27  1  0  0  0
 28107  1  0  0  0
 28108  1  0  0  0
 29109  1  0  0  0
 29110  1  0  0  0
 33 34  1  0  0  0
 33 66  1  0  0  0
 33 70  2  0  0  0
 34 36  1  0  0  0
 34 59  1  0  0  0
 34111  1  0  0  0
 35 44  2  0  0  0
 35 45  1  0  0  0
 35 68  1  0  0  0
 36 56  1  0  0  0
 36112  1  0  0  0
 37 39  1  0  0  0
 37 47  1  0  0  0
 37 66  1  0  0  0
 37113  1  0  0  0
 38 43  2  0  0  0
 38 46  1  0  0  0
 38 47  1  0  0  0
 39 64  1  0  0  0
 39 67  2  0  0  0
 40 52  1  0  0  0
 40 53  2  0  0  0
 40 58  1  0  0  0
 41114  1  0  0  0
 41115  1  0  0  0
 41116  1  0  0  0
 41 48  1  0  0  0
 42 43  1  0  0  0
 42 66  1  0  0  0
 42117  1  0  0  0
 42118  1  0  0  0
 43 44  1  0  0  0
 44119  1  0  0  0
 45 46  2  0  0  0
 45120  1  0  0  0
 46121  1  0  0  0
 47122  1  0  0  0
 47123  1  0  0  0
 48 56  1  0  0  0
 48 65  1  0  0  0
 48124  1  0  0  0
 49 50  1  0  0  0
 49 53  1  0  0  0
 49 64  1  0  0  0
 49125  1  0  0  0
 50 51  1  0  0  0
 50126  1  0  0  0
 50127  1  0  0  0
 51 52  1  0  0  0
 51128  1  0  0  0
 51129  1  0  0  0
 52130  1  0  0  0
 52131  1  0  0  0
 53 54  1  0  0  0
 54 55  2  0  0  0
 54132  1  0  0  0
 55 57  1  0  0  0
 55133  1  0  0  0
 56 69  2  0  0  0
 57 58  2  0  0  0
 57134  1  0  0  0
 58135  1  0  0  0
 59 60  1  0  0  0
 59 61  1  0  0  0
 59 62  1  0  0  0
 60136  1  0  0  0
 60137  1  0  0  0
 60138  1  0  0  0
 61139  1  0  0  0
 61140  1  0  0  0
 61141  1  0  0  0
 62142  1  0  0  0
 62143  1  0  0  0
 62144  1  0  0  0
 63 65  1  0  0  0
 63145  1  0  0  0
 63146  1  0  0  0
 63147  1  0  0  0
 64148  1  0  0  0
 65149  1  0  0  0
 68 86  1  0  0  0
 71 72  2  0  0  0
 71 73  1  0  0  0
 71150  1  0  0  0
 72 75  1  0  0  0
 72151  1  0  0  0
 73 76  2  0  0  0
 73152  1  0  0  0
 74 75  2  0  0  0
 74 76  1  0  0  0
 74153  1  0  0  0
 75 77  1  0  0  0
 76 78  1  0  0  0
 77 87  1  0  0  0
 77 90  2  0  0  0
 78 89  1  0  0  0
 78154  1  0  0  0
 78155  1  0  0  0
 79 80  1  0  0  0
 79 81  1  0  0  0
 79156  1  0  0  0
 79157  1  0  0  0
 80 82  1  0  0  0
 80158  1  0  0  0
 80159  1  0  0  0
 81 83  1  0  0  0
 81160  1  0  0  0
 81161  1  0  0  0
 82 85  1  0  0  0
 82162  1  0  0  0
 82163  1  0  0  0
 83 88  1  0  0  0
 83164  1  0  0  0
 83165  1  0  0  0
 84 86  1  0  0  0
 84 87  1  0  0  0
 84166  1  0  0  0
 84167  1  0  0  0
 85 89  1  0  0  0
 85168  1  0  0  0
 85169  1  0  0  0
 86170  1  0  0  0
 86171  1  0  0  0
 87172  1  0  0  0
 88173  1  0  0  0
 89174  1  0  0  0
 89175  1  0  0  0
M  CHG  1  89   1
M  ISO  4   1 100  68 101  86 101  88 100
M  END
> <chiral flag>
0

> <version>
0

> <s_m_source_file>
/data/baiqing/PycharmProjects/Reinvent-master-3.2/result/LINK_invent/BTK/process_docking_weight1_custom_product_contain_oxygen_bond_distance_aromatic_linkinvent_7_9_3/rearranged_h_0003.sdf

> <i_m_source_file_index>
44

> <r_mmod_Potential_Energy-OPLS-2005>
-326.593688964844

> <r_mmod_Stretch_Energy-OPLS-2005>
32.5089302062988

> <r_mmod_Bend_Energy-OPLS-2005>
99.4016571044922

> <r_mmod_Torsional_Energy-OPLS-2005>
243.561233520508

> <r_mmod_Improper_Torsional_Energy-OPLS-2005>
2.90002512931824

> <r_mmod_Van_der_Waal_Energy-OPLS-2005>
139.328231811523

> <r_mmod_Electrostatic_Energy-OPLS-2005>
-336.835144042969

> <r_mmod_Solvation_Energy-OPLS-2005>
-516.369323730469

> <b_mmod_Minimization_Converged-OPLS-2005>
0

> <r_mmod_RMS_Derivative-OPLS-2005>
2.69736194610596

$$$$
44
                    3D
 Structure written by MMmdl.
171180  0  0  1  0            999 V2000
  -30.7820  -14.3501   20.6693 C   0  0  0  0  0  0
  -30.4124  -12.2763   19.3943 C   0  0  0  0  0  0
  -29.4806  -12.5154   18.1920 C   0  0  0  0  0  0
  -28.0058  -12.3784   18.6112 C   0  0  0  0  0  0
  -27.6673  -13.2028   19.8807 C   0  0  2  0  0  0
  -28.7069  -12.9481   20.9959 C   0  0  0  0  0  0
  -25.2614  -13.8161   20.5690 C   0  0  0  0  0  0
  -24.1852  -13.0441   20.9171 C   0  0  0  0  0  0
  -24.6395  -11.6907   20.8730 C   0  0  0  0  0  0
  -23.9057  -10.4299   21.0403 C   0  0  0  0  0  0
  -24.3610   -9.4214   21.9183 C   0  0  0  0  0  0
  -23.6290   -8.2249   22.0756 C   0  0  0  0  0  0
  -22.4274   -8.0283   21.3544 C   0  0  0  0  0  0
  -21.9906   -9.0255   20.4643 C   0  0  0  0  0  0
  -22.7231  -10.2136   20.3052 C   0  0  0  0  0  0
  -21.6847   -6.0737   22.5278 C   0  0  0  0  0  0
  -21.4015   -6.5642   23.8211 C   0  0  0  0  0  0
  -21.3658   -5.6793   24.9176 C   0  0  0  0  0  0
  -21.6041   -4.3057   24.7225 C   0  0  0  0  0  0
  -21.8821   -3.8150   23.4345 C   0  0  0  0  0  0
  -21.9197   -4.6965   22.3403 C   0  0  0  0  0  0
  -22.7875  -13.5244   21.1830 C   0  0  0  0  0  0
  -22.1663   -4.2152   21.0978 F   0  0  0  0  0  0
  -21.5628   -3.4540   25.7736 F   0  0  0  0  0  0
  -30.0509  -13.2273   20.4555 N   0  0  0  0  0  0
  -26.3056  -12.9324   20.3400 N   0  0  0  0  0  0
  -25.9323  -11.6486   20.5772 N   0  0  0  0  0  0
  -22.0507  -12.8242   22.0378 N   0  0  0  0  0  0
  -25.4357  -15.1883   20.4105 N   0  0  0  0  0  0
  -31.8083  -14.6219   20.0398 O   0  0  0  0  0  0
  -21.6638   -6.8881   21.4240 O   0  0  0  0  0  0
  -22.3570  -14.5552   20.6675 O   0  0  0  0  0  0
  -24.6081  -31.8724   23.2115 C   0  0  0  0  0  0
  -25.8997  -32.4843   23.8410 C   0  0  1  0  0  0
  -27.2416  -27.4812   20.0898 C   0  0  0  0  0  0
  -25.5869  -33.8640   24.2351 N   0  0  0  0  0  0
  -23.3951  -30.4930   21.5518 C   0  0  2  0  0  0
  -24.8434  -28.9586   20.1200 C   0  0  0  0  0  0
  -22.7381  -29.4674   22.5017 C   0  0  0  0  0  0
  -18.0265  -28.1370   22.8505 C   0  0  0  0  0  0
  -24.1484  -36.7334   23.2638 C   0  0  0  0  0  0
  -25.9179  -30.8514   21.3569 C   0  0  0  0  0  0
  -25.9988  -29.4867   20.7087 C   0  0  0  0  0  0
  -27.2023  -28.7555   20.6877 C   0  0  0  0  0  0
  -26.0718  -26.9487   19.5053 C   0  0  0  0  0  0
  -24.8721  -27.6868   19.5181 C   0  0  0  0  0  0
  -23.6020  -29.8192   20.1681 C   0  0  0  0  0  0
  -25.4104  -36.3131   24.0339 C   0  0  1  0  0  0
  -20.5854  -28.3651   23.1344 C   0  0  2  0  0  0
  -20.6756  -26.9395   22.5429 C   0  0  0  0  0  0
  -19.5732  -26.6390   21.5215 C   0  0  0  0  0  0
  -18.1906  -26.7922   22.1627 C   0  0  0  0  0  0
  -19.1515  -28.8825   23.2923 C   0  0  0  0  0  0
  -18.9445  -30.1430   23.8938 C   0  0  0  0  0  0
  -17.6451  -30.6584   24.0566 C   0  0  0  0  0  0
  -25.9022  -34.9487   23.5150 C   0  0  0  0  0  0
  -16.5342  -29.9093   23.6316 C   0  0  0  0  0  0
  -16.7261  -28.6502   23.0354 C   0  0  0  0  0  0
  -26.4451  -31.6596   25.0707 C   0  0  0  0  0  0
  -25.3734  -31.3679   26.1465 C   0  0  0  0  0  0
  -27.0273  -30.3048   24.6033 C   0  0  0  0  0  0
  -27.6049  -32.4299   25.7463 C   0  0  0  0  0  0
  -27.5588  -37.1819   24.8463 C   0  0  0  0  0  0
  -21.4113  -29.3034   22.3762 N   0  0  0  0  0  0
  -26.4303  -37.3798   23.9398 N   0  0  0  0  0  0
  -24.6584  -31.0848   22.1001 N   0  0  0  0  0  0
  -23.4178  -28.8210   23.3037 O   0  0  0  0  0  0
  -28.4320  -26.8021   20.0650 O   0  0  0  0  0  0
  -26.5596  -34.8933   22.4716 O   0  0  0  0  0  0
  -23.5287  -32.1465   23.7534 O   0  0  0  0  0  0
  -33.6030  -20.0410   21.3832 C   0  0  0  0  0  0
  -32.9295  -21.1451   21.9394 C   0  0  0  0  0  0
  -32.8946  -18.8632   21.0883 C   0  0  0  0  0  0
  -30.8375  -19.9003   21.8962 C   0  0  0  0  0  0
  -31.5420  -21.0877   22.2112 C   0  0  0  0  0  0
  -31.5104  -18.7921   21.3420 C   0  0  0  0  0  0
  -30.8765  -22.3096   22.7543 C   0  0  0  0  0  0
  -29.6537  -23.9365   25.2944 C   0  0  0  0  0  0
  -29.4681  -22.4529   24.9150 C   0  0  0  0  0  0
  -28.7059  -24.8581   24.5012 C   0  0  0  0  0  0
  -28.4947  -23.2065   22.7002 C   0  0  0  0  0  0
  -29.4663  -22.2182   23.3846 C   0  0  1  0  0  0
  -30.7443  -17.5287   20.9998 C   0  0  0  0  0  0
  -30.9796  -16.4088   22.0306 C   0  0  0  0  0  0
  -28.1472  -25.6442   22.2140 C   0  0  0  0  0  0
  -28.4423  -25.5269   20.6985 C   0  0  0  0  0  0
  -30.3328  -15.1600   21.6346 N   0  0  0  0  0  0
  -28.8367  -24.6168   23.0399 N   0  3  1  0  0  0
  -31.4161  -23.4209   22.7078 O   0  0  0  0  0  0
  -31.4557  -12.3665   19.0866 H   0  0  0  0  0  0
  -30.3036  -11.2553   19.7638 H   0  0  0  0  0  0
  -29.7072  -11.8073   17.3938 H   0  0  0  0  0  0
  -29.6562  -13.5104   17.7788 H   0  0  0  0  0  0
  -27.8079  -11.3210   18.7916 H   0  0  0  0  0  0
  -27.3524  -12.6726   17.7888 H   0  0  0  0  0  0
  -27.7261  -14.2560   19.6055 H   0  0  0  0  0  0
  -28.6646  -11.9073   21.3199 H   0  0  0  0  0  0
  -28.4615  -13.5345   21.8808 H   0  0  0  0  0  0
  -25.2750   -9.5694   22.4762 H   0  0  0  0  0  0
  -23.9995   -7.4645   22.7480 H   0  0  0  0  0  0
  -21.0841   -8.8775   19.8951 H   0  0  0  0  0  0
  -22.3688  -10.9678   19.6167 H   0  0  0  0  0  0
  -21.2003   -7.6149   23.9716 H   0  0  0  0  0  0
  -21.1477   -6.0523   25.9077 H   0  0  0  0  0  0
  -22.0601   -2.7612   23.2844 H   0  0  0  0  0  0
  -22.4101  -11.9891   22.4767 H   0  0  0  0  0  0
  -21.1123  -13.1285   22.2568 H   0  0  0  0  0  0
  -24.6752  -15.8491   20.5259 H   0  0  0  0  0  0
  -26.2977  -15.6250   20.1074 H   0  0  0  0  0  0
  -26.7075  -32.5585   23.1192 H   0  0  0  0  0  0
  -24.9973  -33.9806   25.0466 H   0  0  0  0  0  0
  -22.6813  -31.3075   21.4115 H   0  0  0  0  0  0
  -23.3742  -35.9675   23.3311 H   0  0  0  0  0  0
  -24.3576  -36.8932   22.2052 H   0  0  0  0  0  0
  -23.7248  -37.6544   23.6651 H   0  0  0  0  0  0
  -26.0164  -31.6161   20.5850 H   0  0  0  0  0  0
  -26.8105  -30.9126   21.9676 H   0  0  0  0  0  0
  -28.0998  -29.1617   21.1339 H   0  0  0  0  0  0
  -26.0885  -25.9810   19.0244 H   0  0  0  0  0  0
  -23.9834  -27.2755   19.0598 H   0  0  0  0  0  0
  -23.7046  -30.5914   19.4052 H   0  0  0  0  0  0
  -22.7284  -29.2321   19.8784 H   0  0  0  0  0  0
  -25.1281  -36.2013   25.0836 H   0  0  0  0  0  0
  -20.9944  -28.3224   24.1467 H   0  0  0  0  0  0
  -20.5663  -26.2260   23.3612 H   0  0  0  0  0  0
  -21.6628  -26.7453   22.1212 H   0  0  0  0  0  0
  -19.6893  -25.6306   21.1228 H   0  0  0  0  0  0
  -19.6674  -27.3221   20.6761 H   0  0  0  0  0  0
  -17.4182  -26.6693   21.4017 H   0  0  0  0  0  0
  -18.0290  -26.0051   22.9010 H   0  0  0  0  0  0
  -19.7921  -30.7220   24.2344 H   0  0  0  0  0  0
  -17.5013  -31.6274   24.5155 H   0  0  0  0  0  0
  -15.5339  -30.3015   23.7611 H   0  0  0  0  0  0
  -15.8654  -28.0828   22.7064 H   0  0  0  0  0  0
  -24.5885  -30.7059   25.7786 H   0  0  0  0  0  0
  -24.8942  -32.2819   26.4982 H   0  0  0  0  0  0
  -25.8079  -30.8786   27.0187 H   0  0  0  0  0  0
  -26.2790  -29.6814   24.1117 H   0  0  0  0  0  0
  -27.4096  -29.7277   25.4463 H   0  0  0  0  0  0
  -27.8607  -30.4387   23.9129 H   0  0  0  0  0  0
  -27.2692  -33.3591   26.2089 H   0  0  0  0  0  0
  -28.3830  -32.6865   25.0260 H   0  0  0  0  0  0
  -28.0752  -31.8384   26.5329 H   0  0  0  0  0  0
  -28.2608  -38.0115   24.7501 H   0  0  0  0  0  0
  -28.1075  -36.2637   24.6298 H   0  0  0  0  0  0
  -27.2296  -37.1482   25.8864 H   0  0  0  0  0  0
  -20.9259  -29.8776   21.7012 H   0  0  0  0  0  0
  -26.0204  -38.2884   24.1387 H   0  0  0  0  0  0
  -34.6635  -20.0991   21.1770 H   0  0  0  0  0  0
  -33.4906  -22.0456   22.1525 H   0  0  0  0  0  0
  -33.4138  -18.0163   20.6586 H   0  0  0  0  0  0
  -29.7728  -19.8140   22.0450 H   0  0  0  0  0  0
  -30.6878  -24.2391   25.1248 H   0  0  0  0  0  0
  -29.4827  -24.0674   26.3640 H   0  0  0  0  0  0
  -28.5189  -22.1005   25.3214 H   0  0  0  0  0  0
  -30.2381  -21.8451   25.3934 H   0  0  0  0  0  0
  -28.9407  -25.8966   24.7381 H   0  0  0  0  0  0
  -27.6712  -24.6960   24.8105 H   0  0  0  0  0  0
  -27.4675  -22.9962   23.0038 H   0  0  0  0  0  0
  -28.5290  -23.0404   21.6231 H   0  0  0  0  0  0
  -29.0714  -21.2200   23.2318 H   0  0  0  0  0  0
  -31.0554  -17.2112   20.0040 H   0  0  0  0  0  0
  -29.6782  -17.7484   20.9245 H   0  0  0  0  0  0
  -30.6005  -16.7125   23.0063 H   0  0  0  0  0  0
  -32.0494  -16.2326   22.1600 H   0  0  0  0  0  0
  -27.0716  -25.6223   22.3944 H   0  0  0  0  0  0
  -28.4988  -26.6196   22.5534 H   0  0  0  0  0  0
  -27.7573  -24.8321   20.2098 H   0  0  0  0  0  0
  -29.4445  -25.1250   20.5460 H   0  0  0  0  0  0
  -29.5001  -14.8767   22.1302 H   0  0  0  0  0  0
  -29.8279  -24.7117   22.8413 H   0  0  0  0  0  0
  1 25  1  0  0  0
  1 30  2  0  0  0
  1 87  1  0  0  0
  2  3  1  0  0  0
  2 25  1  0  0  0
  2 90  1  0  0  0
  2 91  1  0  0  0
  3  4  1  0  0  0
  3 92  1  0  0  0
  3 93  1  0  0  0
  4  5  1  0  0  0
  4 94  1  0  0  0
  4 95  1  0  0  0
  5  6  1  0  0  0
  5 26  1  0  0  0
  5 96  1  0  0  0
  6 25  1  0  0  0
  6 97  1  0  0  0
  6 98  1  0  0  0
  7  8  2  0  0  0
  7 26  1  0  0  0
  7 29  1  0  0  0
  8  9  1  0  0  0
  8 22  1  0  0  0
  9 10  1  0  0  0
  9 27  2  0  0  0
 10 11  2  0  0  0
 10 15  1  0  0  0
 11 12  1  0  0  0
 11 99  1  0  0  0
 12 13  2  0  0  0
 12100  1  0  0  0
 13 14  1  0  0  0
 13 31  1  0  0  0
 14 15  2  0  0  0
 14101  1  0  0  0
 15102  1  0  0  0
 16 17  2  0  0  0
 16 21  1  0  0  0
 16 31  1  0  0  0
 17 18  1  0  0  0
 17103  1  0  0  0
 18 19  2  0  0  0
 18104  1  0  0  0
 19 20  1  0  0  0
 19 24  1  0  0  0
 20 21  2  0  0  0
 20105  1  0  0  0
 21 23  1  0  0  0
 22 28  1  0  0  0
 22 32  2  0  0  0
 26 27  1  0  0  0
 28106  1  0  0  0
 28107  1  0  0  0
 29108  1  0  0  0
 29109  1  0  0  0
 33 34  1  0  0  0
 33 66  1  0  0  0
 33 70  2  0  0  0
 34 36  1  0  0  0
 34 59  1  0  0  0
 34110  1  0  0  0
 35 44  2  0  0  0
 35 45  1  0  0  0
 35 68  1  0  0  0
 36 56  1  0  0  0
 36111  1  0  0  0
 37 39  1  0  0  0
 37 47  1  0  0  0
 37 66  1  0  0  0
 37112  1  0  0  0
 38 43  2  0  0  0
 38 46  1  0  0  0
 38 47  1  0  0  0
 39 64  1  0  0  0
 39 67  2  0  0  0
 40 52  1  0  0  0
 40 53  2  0  0  0
 40 58  1  0  0  0
 41113  1  0  0  0
 41114  1  0  0  0
 41115  1  0  0  0
 41 48  1  0  0  0
 42 43  1  0  0  0
 42 66  1  0  0  0
 42116  1  0  0  0
 42117  1  0  0  0
 43 44  1  0  0  0
 44118  1  0  0  0
 45 46  2  0  0  0
 45119  1  0  0  0
 46120  1  0  0  0
 47121  1  0  0  0
 47122  1  0  0  0
 48 56  1  0  0  0
 48 65  1  0  0  0
 48123  1  0  0  0
 49 50  1  0  0  0
 49 53  1  0  0  0
 49 64  1  0  0  0
 49124  1  0  0  0
 50 51  1  0  0  0
 50125  1  0  0  0
 50126  1  0  0  0
 51 52  1  0  0  0
 51127  1  0  0  0
 51128  1  0  0  0
 52129  1  0  0  0
 52130  1  0  0  0
 53 54  1  0  0  0
 54 55  2  0  0  0
 54131  1  0  0  0
 55 57  1  0  0  0
 55132  1  0  0  0
 56 69  2  0  0  0
 57 58  2  0  0  0
 57133  1  0  0  0
 58134  1  0  0  0
 59 60  1  0  0  0
 59 61  1  0  0  0
 59 62  1  0  0  0
 60135  1  0  0  0
 60136  1  0  0  0
 60137  1  0  0  0
 61138  1  0  0  0
 61139  1  0  0  0
 61140  1  0  0  0
 62141  1  0  0  0
 62142  1  0  0  0
 62143  1  0  0  0
 63 65  1  0  0  0
 63144  1  0  0  0
 63145  1  0  0  0
 63146  1  0  0  0
 64147  1  0  0  0
 65148  1  0  0  0
 68 86  1  0  0  0
 71 72  2  0  0  0
 71 73  1  0  0  0
 71149  1  0  0  0
 72 75  1  0  0  0
 72150  1  0  0  0
 73 76  2  0  0  0
 73151  1  0  0  0
 74 75  2  0  0  0
 74 76  1  0  0  0
 74152  1  0  0  0
 75 77  1  0  0  0
 76 83  1  0  0  0
 77 89  2  0  0  0
 77 82  1  0  0  0
 78 79  1  0  0  0
 78 80  1  0  0  0
 78153  1  0  0  0
 78154  1  0  0  0
 79 82  1  0  0  0
 79155  1  0  0  0
 79156  1  0  0  0
 80 88  1  0  0  0
 80157  1  0  0  0
 80158  1  0  0  0
 81 82  1  0  0  0
 81 88  1  0  0  0
 81159  1  0  0  0
 81160  1  0  0  0
 82161  1  0  0  0
 83 84  1  0  0  0
 83162  1  0  0  0
 83163  1  0  0  0
 84 87  1  0  0  0
 84164  1  0  0  0
 84165  1  0  0  0
 85 86  1  0  0  0
 85166  1  0  0  0
 85167  1  0  0  0
 85 88  1  0  0  0
 86168  1  0  0  0
 86169  1  0  0  0
 87170  1  0  0  0
 88171  1  0  0  0
M  CHG  1  88   1
M  ISO  4   1 100  68 101  86 101  87 100
M  END
> <chiral flag>
0

> <version>
0

> <s_m_source_file>
/data/baiqing/PycharmProjects/Reinvent-master-3.2/result/LINK_invent/BTK/process_docking_weight1_custom_product_contain_oxygen_bond_distance_aromatic_linkinvent_7_9_3/rearranged_h_0003.sdf

> <i_m_source_file_index>
45

> <r_mmod_Potential_Energy-OPLS-2005>
-108.924057006836

> <r_mmod_Stretch_Energy-OPLS-2005>
35.0802574157715

> <r_mmod_Bend_Energy-OPLS-2005>
94.5147933959961

> <r_mmod_Torsional_Energy-OPLS-2005>
254.062957763672

> <r_mmod_Improper_Torsional_Energy-OPLS-2005>
1.81054604053497

> <r_mmod_Van_der_Waal_Energy-OPLS-2005>
167.161239624023

> <r_mmod_Electrostatic_Energy-OPLS-2005>
-254.111724853516

> <r_mmod_Solvation_Energy-OPLS-2005>
-414.359710693359

> <b_mmod_Minimization_Converged-OPLS-2005>
0

> <r_mmod_RMS_Derivative-OPLS-2005>
1.38114511966705

$$$$
45
                    3D
 Structure written by MMmdl.
156164  0  0  1  0            999 V2000
  -30.7589  -14.5074   20.6206 C   0  0  0  0  0  0
  -30.4134  -12.3596   19.4304 C   0  0  0  0  0  0
  -29.4882  -12.5271   18.2107 C   0  0  0  0  0  0
  -28.0158  -12.3715   18.6304 C   0  0  0  0  0  0
  -27.6574  -13.2241   19.8760 C   0  0  2  0  0  0
  -28.7048  -13.0519   21.0014 C   0  0  0  0  0  0
  -25.2488  -13.8164   20.5586 C   0  0  0  0  0  0
  -24.1798  -13.0426   20.9178 C   0  0  0  0  0  0
  -24.6410  -11.6916   20.8757 C   0  0  0  0  0  0
  -23.9092  -10.4288   21.0402 C   0  0  0  0  0  0
  -24.3639   -9.4211   21.9187 C   0  0  0  0  0  0
  -23.6306   -8.2253   22.0759 C   0  0  0  0  0  0
  -22.4283   -8.0296   21.3546 C   0  0  0  0  0  0
  -21.9921   -9.0275   20.4649 C   0  0  0  0  0  0
  -22.7260  -10.2143   20.3057 C   0  0  0  0  0  0
  -21.6865   -6.0753   22.5275 C   0  0  0  0  0  0
  -21.4024   -6.5652   23.8211 C   0  0  0  0  0  0
  -21.3651   -5.6797   24.9163 C   0  0  0  0  0  0
  -21.6031   -4.3062   24.7205 C   0  0  0  0  0  0
  -21.8825   -3.8158   23.4326 C   0  0  0  0  0  0
  -21.9204   -4.6982   22.3387 C   0  0  0  0  0  0
  -22.7822  -13.5231   21.1839 C   0  0  0  0  0  0
  -22.1669   -4.2172   21.0965 F   0  0  0  0  0  0
  -21.5613   -3.4544   25.7715 F   0  0  0  0  0  0
  -30.0293  -13.3627   20.4439 N   0  0  0  0  0  0
  -26.3007  -12.9406   20.3397 N   0  0  0  0  0  0
  -25.9358  -11.6550   20.5848 N   0  0  0  0  0  0
  -22.0462  -12.8234   22.0398 N   0  0  0  0  0  0
  -25.4013  -15.1852   20.3758 N   0  0  0  0  0  0
  -31.8373  -14.6819   20.0528 O   0  0  0  0  0  0
  -21.6641   -6.8902   21.4244 O   0  0  0  0  0  0
  -22.3525  -14.5551   20.6698 O   0  0  0  0  0  0
  -24.6205  -31.8660   23.2070 C   0  0  0  0  0  0
  -25.9082  -32.4814   23.8373 C   0  0  1  0  0  0
  -27.2299  -27.3786   20.1095 C   0  0  0  0  0  0
  -25.5914  -33.8602   24.2307 N   0  0  0  0  0  0
  -23.4100  -30.4919   21.5488 C   0  0  2  0  0  0
  -24.8574  -28.9575   20.1084 C   0  0  0  0  0  0
  -22.7444  -29.4666   22.4963 C   0  0  0  0  0  0
  -18.0278  -28.1406   22.8487 C   0  0  0  0  0  0
  -24.1480  -36.7300   23.2638 C   0  0  0  0  0  0
  -25.9448  -30.8160   21.3692 C   0  0  0  0  0  0
  -26.0204  -29.4456   20.7163 C   0  0  0  0  0  0
  -27.2078  -28.6655   20.7141 C   0  0  0  0  0  0
  -26.0487  -26.9371   19.4648 C   0  0  0  0  0  0
  -24.8705  -27.7058   19.4742 C   0  0  0  0  0  0
  -23.6215  -29.8297   20.1613 C   0  0  0  0  0  0
  -25.4101  -36.3088   24.0330 C   0  0  1  0  0  0
  -20.5871  -28.3693   23.1305 C   0  0  2  0  0  0
  -20.6769  -26.9428   22.5410 C   0  0  0  0  0  0
  -19.5747  -26.6404   21.5207 C   0  0  0  0  0  0
  -18.1926  -26.7950   22.1621 C   0  0  0  0  0  0
  -19.1529  -28.8863   23.2894 C   0  0  0  0  0  0
  -18.9458  -30.1459   23.8924 C   0  0  0  0  0  0
  -17.6459  -30.6606   24.0570 C   0  0  0  0  0  0
  -25.9035  -34.9459   23.5113 C   0  0  0  0  0  0
  -16.5352  -29.9115   23.6319 C   0  0  0  0  0  0
  -16.7264  -28.6529   23.0348 C   0  0  0  0  0  0
  -26.4475  -31.6616   25.0725 C   0  0  0  0  0  0
  -25.3727  -31.3769   26.1473 C   0  0  0  0  0  0
  -27.0296  -30.3046   24.6136 C   0  0  0  0  0  0
  -27.6038  -32.4346   25.7515 C   0  0  0  0  0  0
  -27.5572  -37.1807   24.8468 C   0  0  0  0  0  0
  -21.4162  -29.3058   22.3707 N   0  0  0  0  0  0
  -26.4281  -37.3778   23.9410 N   0  0  0  0  0  0
  -24.6771  -31.0731   22.0994 N   0  0  0  0  0  0
  -23.4185  -28.8207   23.3025 O   0  0  0  0  0  0
  -28.3709  -26.5771   20.1752 O   0  0  0  0  0  0
  -26.5587  -34.8921   22.4665 O   0  0  0  0  0  0
  -23.5386  -32.1430   23.7445 O   0  0  0  0  0  0
  -28.2053  -16.6351   21.3506 C   0  0  0  0  0  0
  -27.4603  -17.8071   21.1233 C   0  0  0  0  0  0
  -30.2450  -17.8671   20.8562 C   0  0  0  0  0  0
  -29.4988  -19.0647   20.6150 C   0  0  0  0  0  0
  -29.6044  -16.6330   21.1903 C   0  0  0  0  0  0
  -28.0936  -19.0026   20.7385 C   0  0  0  0  0  0
  -30.1757  -20.3675   20.1065 C   0  0  0  0  0  0
  -29.2567  -24.1742   20.5667 C   0  0  0  0  0  0
  -29.0082  -22.6609   20.2035 C   0  0  0  0  0  0
  -28.2113  -25.1477   19.9274 C   0  0  0  0  0  0
  -30.3418  -15.4399   21.5078 N   0  0  0  0  0  0
  -29.9325  -21.6589   20.8404 N   0  3  0  0  0  0
  -27.3361  -20.0919   20.4806 F   0  0  0  0  0  0
  -31.4574  -12.4439   19.1266 H   0  0  0  0  0  0
  -30.3145  -11.3563   19.8458 H   0  0  0  0  0  0
  -29.7375  -11.7923   17.4430 H   0  0  0  0  0  0
  -29.6450  -13.5078   17.7586 H   0  0  0  0  0  0
  -27.8441  -11.3146   18.8383 H   0  0  0  0  0  0
  -27.3588  -12.6267   17.7986 H   0  0  0  0  0  0
  -27.6877  -14.2664   19.5568 H   0  0  0  0  0  0
  -28.6968  -12.0278   21.3765 H   0  0  0  0  0  0
  -28.4653  -13.6749   21.8621 H   0  0  0  0  0  0
  -25.2783   -9.5716   22.4760 H   0  0  0  0  0  0
  -24.0021   -7.4663   22.7485 H   0  0  0  0  0  0
  -21.0848   -8.8812   19.8955 H   0  0  0  0  0  0
  -22.3730  -10.9690   19.6169 H   0  0  0  0  0  0
  -21.2021   -7.6163   23.9720 H   0  0  0  0  0  0
  -21.1458   -6.0518   25.9067 H   0  0  0  0  0  0
  -22.0606   -2.7622   23.2816 H   0  0  0  0  0  0
  -22.4094  -11.9919   22.4804 H   0  0  0  0  0  0
  -21.1070  -13.1231   22.2594 H   0  0  0  0  0  0
  -24.6129  -15.8190   20.4394 H   0  0  0  0  0  0
  -26.2326  -15.6175   19.9951 H   0  0  0  0  0  0
  -26.7158  -32.5518   23.1136 H   0  0  0  0  0  0
  -25.0060  -33.9753   25.0452 H   0  0  0  0  0  0
  -22.7002  -31.3102   21.4112 H   0  0  0  0  0  0
  -23.3720  -35.9655   23.3313 H   0  0  0  0  0  0
  -24.3586  -36.8902   22.2052 H   0  0  0  0  0  0
  -23.7244  -37.6511   23.6651 H   0  0  0  0  0  0
  -26.0596  -31.5779   20.5976 H   0  0  0  0  0  0
  -26.8314  -30.8722   21.9881 H   0  0  0  0  0  0
  -28.1000  -29.0351   21.1999 H   0  0  0  0  0  0
  -26.0096  -25.9909   18.9455 H   0  0  0  0  0  0
  -23.9837  -27.3327   18.9816 H   0  0  0  0  0  0
  -23.7347  -30.6072   19.4051 H   0  0  0  0  0  0
  -22.7441  -29.2556   19.8612 H   0  0  0  0  0  0
  -25.1278  -36.1931   25.0819 H   0  0  0  0  0  0
  -20.9956  -28.3276   24.1430 H   0  0  0  0  0  0
  -20.5662  -26.2317   23.3603 H   0  0  0  0  0  0
  -21.6644  -26.7474   22.1216 H   0  0  0  0  0  0
  -19.6902  -25.6308   21.1255 H   0  0  0  0  0  0
  -19.6691  -27.3201   20.6724 H   0  0  0  0  0  0
  -17.4188  -26.6675   21.4035 H   0  0  0  0  0  0
  -18.0348  -26.0109   22.9037 H   0  0  0  0  0  0
  -19.7935  -30.7256   24.2334 H   0  0  0  0  0  0
  -17.5023  -31.6291   24.5158 H   0  0  0  0  0  0
  -15.5358  -30.3026   23.7636 H   0  0  0  0  0  0
  -15.8665  -28.0852   22.7062 H   0  0  0  0  0  0
  -24.5874  -30.7141   25.7821 H   0  0  0  0  0  0
  -24.8954  -32.2958   26.4899 H   0  0  0  0  0  0
  -25.8070  -30.8949   27.0241 H   0  0  0  0  0  0
  -26.2859  -29.6845   24.1118 H   0  0  0  0  0  0
  -27.3957  -29.7259   25.4622 H   0  0  0  0  0  0
  -27.8741  -30.4336   23.9362 H   0  0  0  0  0  0
  -27.2621  -33.3616   26.2131 H   0  0  0  0  0  0
  -28.3846  -32.6963   25.0364 H   0  0  0  0  0  0
  -28.0702  -31.8443   26.5411 H   0  0  0  0  0  0
  -28.2593  -38.0098   24.7486 H   0  0  0  0  0  0
  -28.1052  -36.2621   24.6309 H   0  0  0  0  0  0
  -27.2302  -37.1492   25.8877 H   0  0  0  0  0  0
  -20.9320  -29.8791   21.6942 H   0  0  0  0  0  0
  -26.0154  -38.2851   24.1405 H   0  0  0  0  0  0
  -27.6895  -15.7454   21.6766 H   0  0  0  0  0  0
  -26.3872  -17.7915   21.2415 H   0  0  0  0  0  0
  -31.3226  -17.8888   20.7599 H   0  0  0  0  0  0
  -29.9493  -20.4857   19.0473 H   0  0  0  0  0  0
  -31.2533  -20.2018   20.1364 H   0  0  0  0  0  0
  -30.2552  -24.4692   20.2438 H   0  0  0  0  0  0
  -29.2343  -24.2972   21.6504 H   0  0  0  0  0  0
  -29.0722  -22.5659   19.1192 H   0  0  0  0  0  0
  -27.9854  -22.3962   20.4699 H   0  0  0  0  0  0
  -27.2432  -24.8134   20.3009 H   0  0  0  0  0  0
  -28.2055  -24.9980   18.8468 H   0  0  0  0  0  0
  -31.1735  -15.7047   22.0150 H   0  0  0  0  0  0
  -30.8370  -22.0985   20.8841 H   0  0  0  0  0  0
  -29.6621  -21.4697   21.7915 H   0  0  0  0  0  0
  1 25  1  0  0  0
  1 30  2  0  0  0
  1 81  1  0  0  0
  2  3  1  0  0  0
  2 25  1  0  0  0
  2 84  1  0  0  0
  2 85  1  0  0  0
  3  4  1  0  0  0
  3 86  1  0  0  0
  3 87  1  0  0  0
  4  5  1  0  0  0
  4 88  1  0  0  0
  4 89  1  0  0  0
  5  6  1  0  0  0
  5 26  1  0  0  0
  5 90  1  0  0  0
  6 25  1  0  0  0
  6 91  1  0  0  0
  6 92  1  0  0  0
  7  8  2  0  0  0
  7 26  1  0  0  0
  7 29  1  0  0  0
  8  9  1  0  0  0
  8 22  1  0  0  0
  9 10  1  0  0  0
  9 27  2  0  0  0
 10 11  2  0  0  0
 10 15  1  0  0  0
 11 12  1  0  0  0
 11 93  1  0  0  0
 12 13  2  0  0  0
 12 94  1  0  0  0
 13 14  1  0  0  0
 13 31  1  0  0  0
 14 15  2  0  0  0
 14 95  1  0  0  0
 15 96  1  0  0  0
 16 17  2  0  0  0
 16 21  1  0  0  0
 16 31  1  0  0  0
 17 18  1  0  0  0
 17 97  1  0  0  0
 18 19  2  0  0  0
 18 98  1  0  0  0
 19 20  1  0  0  0
 19 24  1  0  0  0
 20 21  2  0  0  0
 20 99  1  0  0  0
 21 23  1  0  0  0
 22 28  1  0  0  0
 22 32  2  0  0  0
 26 27  1  0  0  0
 28100  1  0  0  0
 28101  1  0  0  0
 29102  1  0  0  0
 29103  1  0  0  0
 33 34  1  0  0  0
 33 66  1  0  0  0
 33 70  2  0  0  0
 34 36  1  0  0  0
 34 59  1  0  0  0
 34104  1  0  0  0
 35 44  2  0  0  0
 35 45  1  0  0  0
 35 68  1  0  0  0
 36 56  1  0  0  0
 36105  1  0  0  0
 37 39  1  0  0  0
 37 47  1  0  0  0
 37 66  1  0  0  0
 37106  1  0  0  0
 38 43  2  0  0  0
 38 46  1  0  0  0
 38 47  1  0  0  0
 39 64  1  0  0  0
 39 67  2  0  0  0
 40 52  1  0  0  0
 40 53  2  0  0  0
 40 58  1  0  0  0
 41107  1  0  0  0
 41108  1  0  0  0
 41109  1  0  0  0
 41 48  1  0  0  0
 42 43  1  0  0  0
 42 66  1  0  0  0
 42110  1  0  0  0
 42111  1  0  0  0
 43 44  1  0  0  0
 44112  1  0  0  0
 45 46  2  0  0  0
 45113  1  0  0  0
 46114  1  0  0  0
 47115  1  0  0  0
 47116  1  0  0  0
 48 56  1  0  0  0
 48 65  1  0  0  0
 48117  1  0  0  0
 49 50  1  0  0  0
 49 53  1  0  0  0
 49 64  1  0  0  0
 49118  1  0  0  0
 50 51  1  0  0  0
 50119  1  0  0  0
 50120  1  0  0  0
 51 52  1  0  0  0
 51121  1  0  0  0
 51122  1  0  0  0
 52123  1  0  0  0
 52124  1  0  0  0
 53 54  1  0  0  0
 54 55  2  0  0  0
 54125  1  0  0  0
 55 57  1  0  0  0
 55126  1  0  0  0
 56 69  2  0  0  0
 57 58  2  0  0  0
 57127  1  0  0  0
 58128  1  0  0  0
 59 60  1  0  0  0
 59 61  1  0  0  0
 59 62  1  0  0  0
 60129  1  0  0  0
 60130  1  0  0  0
 60131  1  0  0  0
 61132  1  0  0  0
 61133  1  0  0  0
 61134  1  0  0  0
 62135  1  0  0  0
 62136  1  0  0  0
 62137  1  0  0  0
 63 65  1  0  0  0
 63138  1  0  0  0
 63139  1  0  0  0
 63140  1  0  0  0
 64141  1  0  0  0
 65142  1  0  0  0
 68 80  1  0  0  0
 71 72  2  0  0  0
 71 75  1  0  0  0
 71143  1  0  0  0
 72 76  1  0  0  0
 72144  1  0  0  0
 73 74  1  0  0  0
 73 75  2  0  0  0
 73145  1  0  0  0
 74 76  2  0  0  0
 74 77  1  0  0  0
 75 81  1  0  0  0
 76 83  1  0  0  0
 77 82  1  0  0  0
 77146  1  0  0  0
 77147  1  0  0  0
 78 79  1  0  0  0
 78 80  1  0  0  0
 78148  1  0  0  0
 78149  1  0  0  0
 79 82  1  0  0  0
 79150  1  0  0  0
 79151  1  0  0  0
 80152  1  0  0  0
 80153  1  0  0  0
 81154  1  0  0  0
 82155  1  0  0  0
 82156  1  0  0  0
M  CHG  1  82   1
M  ISO  4   1 100  68 101  80 101  81 100
M  END
> <chiral flag>
0

> <version>
0

> <s_m_source_file>
/data/baiqing/PycharmProjects/Reinvent-master-3.2/result/LINK_invent/BTK/process_docking_weight1_custom_product_contain_oxygen_bond_distance_aromatic_linkinvent_7_9_3/rearranged_h_0003.sdf

> <i_m_source_file_index>
46

> <r_mmod_Potential_Energy-OPLS-2005>
-189.446823120117

> <r_mmod_Stretch_Energy-OPLS-2005>
53.6442527770996

> <r_mmod_Bend_Energy-OPLS-2005>
132.294418334961

> <r_mmod_Torsional_Energy-OPLS-2005>
260.239593505859

> <r_mmod_Improper_Torsional_Energy-OPLS-2005>
8.66888427734375

> <r_mmod_Van_der_Waal_Energy-OPLS-2005>
143.39616394043

> <r_mmod_Electrostatic_Energy-OPLS-2005>
-347.514923095703

> <r_mmod_Solvation_Energy-OPLS-2005>
-463.506469726562

> <b_mmod_Minimization_Converged-OPLS-2005>
0

> <r_mmod_RMS_Derivative-OPLS-2005>
2.10566401481628

$$$$
46
                    3D
 Structure written by MMmdl.
170179  0  0  1  0            999 V2000
  -30.6784  -14.4562   20.4773 C   0  0  0  0  0  0
  -30.4247  -12.2589   19.4386 C   0  0  0  0  0  0
  -29.5002  -12.4515   18.2177 C   0  0  0  0  0  0
  -28.0186  -12.3251   18.6257 C   0  0  0  0  0  0
  -27.6611  -13.1821   19.8700 C   0  0  2  0  0  0
  -28.7039  -12.9903   21.0006 C   0  0  0  0  0  0
  -25.2620  -13.8082   20.5716 C   0  0  0  0  0  0
  -24.1848  -13.0415   20.9211 C   0  0  0  0  0  0
  -24.6363  -11.6865   20.8782 C   0  0  0  0  0  0
  -23.9034  -10.4280   21.0453 C   0  0  0  0  0  0
  -24.3587   -9.4188   21.9235 C   0  0  0  0  0  0
  -23.6264   -8.2223   22.0782 C   0  0  0  0  0  0
  -22.4244   -8.0288   21.3577 C   0  0  0  0  0  0
  -21.9898   -9.0251   20.4663 C   0  0  0  0  0  0
  -22.7214  -10.2130   20.3087 C   0  0  0  0  0  0
  -21.6798   -6.0777   22.5294 C   0  0  0  0  0  0
  -21.3965   -6.5678   23.8230 C   0  0  0  0  0  0
  -21.3650   -5.6820   24.9187 C   0  0  0  0  0  0
  -21.6031   -4.3082   24.7224 C   0  0  0  0  0  0
  -21.8799   -3.8190   23.4338 C   0  0  0  0  0  0
  -21.9184   -4.7019   22.3411 C   0  0  0  0  0  0
  -22.7881  -13.5269   21.1865 C   0  0  0  0  0  0
  -22.1667   -4.2219   21.0984 F   0  0  0  0  0  0
  -21.5616   -3.4552   25.7732 F   0  0  0  0  0  0
  -30.0395  -13.2600   20.4436 N   0  0  0  0  0  0
  -26.3022  -12.9202   20.3359 N   0  0  0  0  0  0
  -25.9285  -11.6401   20.5809 N   0  0  0  0  0  0
  -22.0459  -12.8297   22.0372 N   0  0  0  0  0  0
  -25.4393  -15.1803   20.4135 N   0  0  0  0  0  0
  -31.8446  -14.6177   20.1081 O   0  0  0  0  0  0
  -21.6572   -6.8912   21.4257 O   0  0  0  0  0  0
  -22.3629  -14.5621   20.6724 O   0  0  0  0  0  0
  -24.6078  -31.8738   23.2137 C   0  0  0  0  0  0
  -25.9003  -32.4848   23.8404 C   0  0  1  0  0  0
  -27.2392  -27.4802   20.0827 C   0  0  0  0  0  0
  -25.5892  -33.8646   24.2335 N   0  0  0  0  0  0
  -23.3971  -30.4955   21.5519 C   0  0  2  0  0  0
  -24.8422  -28.9645   20.1198 C   0  0  0  0  0  0
  -22.7395  -29.4658   22.4989 C   0  0  0  0  0  0
  -18.0278  -28.1358   22.8465 C   0  0  0  0  0  0
  -24.1498  -36.7326   23.2635 C   0  0  0  0  0  0
  -25.9180  -30.8506   21.3612 C   0  0  0  0  0  0
  -25.9988  -29.4864   20.7127 C   0  0  0  0  0  0
  -27.1998  -28.7496   20.6947 C   0  0  0  0  0  0
  -26.0665  -26.9686   19.4779 C   0  0  0  0  0  0
  -24.8679  -27.7032   19.5012 C   0  0  0  0  0  0
  -23.6051  -29.8274   20.1653 C   0  0  0  0  0  0
  -25.4110  -36.3112   24.0331 C   0  0  1  0  0  0
  -20.5856  -28.3640   23.1310 C   0  0  2  0  0  0
  -20.6764  -26.9401   22.5330 C   0  0  0  0  0  0
  -19.5752  -26.6453   21.5106 C   0  0  0  0  0  0
  -18.1943  -26.7922   22.1589 C   0  0  0  0  0  0
  -19.1516  -28.8811   23.2908 C   0  0  0  0  0  0
  -18.9430  -30.1405   23.8958 C   0  0  0  0  0  0
  -17.6422  -30.6530   24.0573 C   0  0  0  0  0  0
  -25.9029  -34.9493   23.5124 C   0  0  0  0  0  0
  -16.5330  -29.9039   23.6307 C   0  0  0  0  0  0
  -16.7261  -28.6466   23.0315 C   0  0  0  0  0  0
  -26.4467  -31.6590   25.0682 C   0  0  0  0  0  0
  -25.3769  -31.3668   26.1448 C   0  0  0  0  0  0
  -27.0282  -30.3032   24.6010 C   0  0  0  0  0  0
  -27.6038  -32.4303   25.7455 C   0  0  0  0  0  0
  -27.5581  -37.1814   24.8463 C   0  0  0  0  0  0
  -21.4122  -29.3060   22.3763 N   0  0  0  0  0  0
  -26.4296  -37.3782   23.9405 N   0  0  0  0  0  0
  -24.6585  -31.0858   22.1027 N   0  0  0  0  0  0
  -23.4202  -28.8152   23.2953 O   0  0  0  0  0  0
  -28.4252  -26.7835   20.0927 O   0  0  0  0  0  0
  -26.5586  -34.8932   22.4686 O   0  0  0  0  0  0
  -23.5284  -32.1500   23.7548 O   0  0  0  0  0  0
  -31.0152  -20.2463   20.3571 C   0  0  0  0  0  0
  -30.1773  -20.6081   21.4249 C   0  0  0  0  0  0
  -30.9529  -18.9428   19.8349 C   0  0  0  0  0  0
  -29.2305  -18.3548   21.4660 C   0  0  0  0  0  0
  -29.2785  -19.6690   21.9785 C   0  0  0  0  0  0
  -30.0547  -17.9944   20.3756 C   0  0  0  0  0  0
  -28.3636  -20.0941   23.0804 C   0  0  0  0  0  0
  -28.7149  -17.5530   17.5129 C   0  0  0  0  0  0
  -28.6839  -16.0492   17.4069 C   0  0  0  0  0  0
  -28.6865  -16.7112   18.7681 C   0  0  0  0  0  0
  -26.7805  -21.9567   23.6217 C   0  0  0  0  0  0
  -27.2813  -23.4150   23.5310 C   0  0  0  0  0  0
  -27.9656  -25.1925   21.8985 C   0  0  0  0  0  0
  -28.3436  -25.3971   20.4147 C   0  0  0  0  0  0
  -29.9010  -16.6473   19.6844 C   0  0  2  0  0  0
  -27.5385  -21.0819   22.7245 N   0  0  0  0  0  0
  -29.8446  -15.4996   20.5957 N   0  0  0  0  0  0
  -27.4527  -23.8245   22.1199 N   0  3  0  0  0  0
  -28.4207  -19.5973   24.2051 O   0  0  0  0  0  0
  -31.4680  -12.3572   19.1363 H   0  0  0  0  0  0
  -30.3260  -11.2499   19.8446 H   0  0  0  0  0  0
  -29.7422  -11.7189   17.4450 H   0  0  0  0  0  0
  -29.6804  -13.4261   17.7707 H   0  0  0  0  0  0
  -27.8348  -11.2709   18.8377 H   0  0  0  0  0  0
  -27.3697  -12.5825   17.7875 H   0  0  0  0  0  0
  -27.6910  -14.2182   19.5430 H   0  0  0  0  0  0
  -28.6682  -11.9721   21.3906 H   0  0  0  0  0  0
  -28.4842  -13.6386   21.8512 H   0  0  0  0  0  0
  -25.2705   -9.5636   22.4858 H   0  0  0  0  0  0
  -23.9975   -7.4588   22.7471 H   0  0  0  0  0  0
  -21.0858   -8.8732   19.8928 H   0  0  0  0  0  0
  -22.3674  -10.9689   19.6218 H   0  0  0  0  0  0
  -21.1891   -7.6175   23.9752 H   0  0  0  0  0  0
  -21.1508   -6.0550   25.9102 H   0  0  0  0  0  0
  -22.0576   -2.7661   23.2798 H   0  0  0  0  0  0
  -22.4016  -11.9962   22.4821 H   0  0  0  0  0  0
  -21.1061  -13.1362   22.2488 H   0  0  0  0  0  0
  -24.6731  -15.8363   20.5203 H   0  0  0  0  0  0
  -26.2724  -15.6011   20.0248 H   0  0  0  0  0  0
  -26.7066  -32.5586   23.1182 H   0  0  0  0  0  0
  -25.0061  -33.9841   25.0487 H   0  0  0  0  0  0
  -22.6834  -31.3100   21.4160 H   0  0  0  0  0  0
  -23.3740  -35.9682   23.3301 H   0  0  0  0  0  0
  -24.3589  -36.8923   22.2045 H   0  0  0  0  0  0
  -23.7287  -37.6547   23.6651 H   0  0  0  0  0  0
  -26.0191  -31.6158   20.5906 H   0  0  0  0  0  0
  -26.8115  -30.9109   21.9703 H   0  0  0  0  0  0
  -28.0933  -29.1450   21.1580 H   0  0  0  0  0  0
  -26.0660  -26.0229   18.9584 H   0  0  0  0  0  0
  -23.9821  -27.3004   19.0290 H   0  0  0  0  0  0
  -23.7191  -30.6011   19.4048 H   0  0  0  0  0  0
  -22.7291  -29.2502   19.8633 H   0  0  0  0  0  0
  -25.1294  -36.1960   25.0819 H   0  0  0  0  0  0
  -20.9937  -28.3113   24.1432 H   0  0  0  0  0  0
  -20.5787  -26.2163   23.3421 H   0  0  0  0  0  0
  -21.6596  -26.7508   22.1017 H   0  0  0  0  0  0
  -19.6948  -25.6431   21.1019 H   0  0  0  0  0  0
  -19.6667  -27.3371   20.6709 H   0  0  0  0  0  0
  -17.4166  -26.6641   21.4051 H   0  0  0  0  0  0
  -18.0389  -26.0032   22.8973 H   0  0  0  0  0  0
  -19.7868  -30.7226   24.2427 H   0  0  0  0  0  0
  -17.4929  -31.6197   24.5180 H   0  0  0  0  0  0
  -15.5327  -30.2952   23.7616 H   0  0  0  0  0  0
  -15.8661  -28.0797   22.7004 H   0  0  0  0  0  0
  -24.5944  -30.7009   25.7788 H   0  0  0  0  0  0
  -24.8983  -32.2813   26.4948 H   0  0  0  0  0  0
  -25.8164  -30.8805   27.0165 H   0  0  0  0  0  0
  -26.2784  -29.6791   24.1119 H   0  0  0  0  0  0
  -27.4111  -29.7256   25.4437 H   0  0  0  0  0  0
  -27.8610  -30.4340   23.9095 H   0  0  0  0  0  0
  -27.2635  -33.3568   26.2105 H   0  0  0  0  0  0
  -28.3831  -32.6910   25.0279 H   0  0  0  0  0  0
  -28.0744  -31.8381   26.5322 H   0  0  0  0  0  0
  -28.2592  -38.0113   24.7486 H   0  0  0  0  0  0
  -28.1078  -36.2633   24.6315 H   0  0  0  0  0  0
  -27.2297  -37.1495   25.8866 H   0  0  0  0  0  0
  -20.9307  -29.8875   21.7054 H   0  0  0  0  0  0
  -26.0175  -38.2852   24.1404 H   0  0  0  0  0  0
  -31.6954  -20.9730   19.9324 H   0  0  0  0  0  0
  -30.2255  -21.6160   21.8182 H   0  0  0  0  0  0
  -31.5766  -18.6843   18.9896 H   0  0  0  0  0  0
  -28.5205  -17.6464   21.8708 H   0  0  0  0  0  0
  -27.8080  -18.0964   17.2512 H   0  0  0  0  0  0
  -29.6501  -18.0561   17.2717 H   0  0  0  0  0  0
  -29.5973  -15.5620   17.0688 H   0  0  0  0  0  0
  -27.7575  -15.5876   17.0694 H   0  0  0  0  0  0
  -27.7386  -16.7439   19.3001 H   0  0  0  0  0  0
  -25.7288  -21.9140   23.3330 H   0  0  0  0  0  0
  -26.8261  -21.6091   24.6553 H   0  0  0  0  0  0
  -28.2361  -23.5121   24.0500 H   0  0  0  0  0  0
  -26.5831  -24.0870   24.0334 H   0  0  0  0  0  0
  -27.2005  -25.9023   22.2182 H   0  0  0  0  0  0
  -28.8422  -25.3800   22.5218 H   0  0  0  0  0  0
  -27.6560  -24.8736   19.7524 H   0  0  0  0  0  0
  -29.3156  -24.9393   20.2224 H   0  0  0  0  0  0
  -30.7694  -16.5417   19.0302 H   0  0  0  0  0  0
  -27.4751  -21.2429   21.7289 H   0  0  0  0  0  0
  -28.9294  -15.2730   20.9518 H   0  0  0  0  0  0
  -26.5605  -23.7300   21.6566 H   0  0  0  0  0  0
  -28.0953  -23.1777   21.6934 H   0  0  0  0  0  0
  1 25  1  0  0  0
  1 30  2  0  0  0
  1 87  1  0  0  0
  2  3  1  0  0  0
  2 25  1  0  0  0
  2 90  1  0  0  0
  2 91  1  0  0  0
  3  4  1  0  0  0
  3 92  1  0  0  0
  3 93  1  0  0  0
  4  5  1  0  0  0
  4 94  1  0  0  0
  4 95  1  0  0  0
  5  6  1  0  0  0
  5 26  1  0  0  0
  5 96  1  0  0  0
  6 25  1  0  0  0
  6 97  1  0  0  0
  6 98  1  0  0  0
  7  8  2  0  0  0
  7 26  1  0  0  0
  7 29  1  0  0  0
  8  9  1  0  0  0
  8 22  1  0  0  0
  9 10  1  0  0  0
  9 27  2  0  0  0
 10 11  2  0  0  0
 10 15  1  0  0  0
 11 12  1  0  0  0
 11 99  1  0  0  0
 12 13  2  0  0  0
 12100  1  0  0  0
 13 14  1  0  0  0
 13 31  1  0  0  0
 14 15  2  0  0  0
 14101  1  0  0  0
 15102  1  0  0  0
 16 17  2  0  0  0
 16 21  1  0  0  0
 16 31  1  0  0  0
 17 18  1  0  0  0
 17103  1  0  0  0
 18 19  2  0  0  0
 18104  1  0  0  0
 19 20  1  0  0  0
 19 24  1  0  0  0
 20 21  2  0  0  0
 20105  1  0  0  0
 21 23  1  0  0  0
 22 28  1  0  0  0
 22 32  2  0  0  0
 26 27  1  0  0  0
 28106  1  0  0  0
 28107  1  0  0  0
 29108  1  0  0  0
 29109  1  0  0  0
 33 34  1  0  0  0
 33 66  1  0  0  0
 33 70  2  0  0  0
 34 36  1  0  0  0
 34 59  1  0  0  0
 34110  1  0  0  0
 35 44  2  0  0  0
 35 45  1  0  0  0
 35 68  1  0  0  0
 36 56  1  0  0  0
 36111  1  0  0  0
 37 39  1  0  0  0
 37 47  1  0  0  0
 37 66  1  0  0  0
 37112  1  0  0  0
 38 43  2  0  0  0
 38 46  1  0  0  0
 38 47  1  0  0  0
 39 64  1  0  0  0
 39 67  2  0  0  0
 40 52  1  0  0  0
 40 53  2  0  0  0
 40 58  1  0  0  0
 41113  1  0  0  0
 41114  1  0  0  0
 41115  1  0  0  0
 41 48  1  0  0  0
 42 43  1  0  0  0
 42 66  1  0  0  0
 42116  1  0  0  0
 42117  1  0  0  0
 43 44  1  0  0  0
 44118  1  0  0  0
 45 46  2  0  0  0
 45119  1  0  0  0
 46120  1  0  0  0
 47121  1  0  0  0
 47122  1  0  0  0
 48 56  1  0  0  0
 48 65  1  0  0  0
 48123  1  0  0  0
 49 50  1  0  0  0
 49 53  1  0  0  0
 49 64  1  0  0  0
 49124  1  0  0  0
 50 51  1  0  0  0
 50125  1  0  0  0
 50126  1  0  0  0
 51 52  1  0  0  0
 51127  1  0  0  0
 51128  1  0  0  0
 52129  1  0  0  0
 52130  1  0  0  0
 53 54  1  0  0  0
 54 55  2  0  0  0
 54131  1  0  0  0
 55 57  1  0  0  0
 55132  1  0  0  0
 56 69  2  0  0  0
 57 58  2  0  0  0
 57133  1  0  0  0
 58134  1  0  0  0
 59 60  1  0  0  0
 59 61  1  0  0  0
 59 62  1  0  0  0
 60135  1  0  0  0
 60136  1  0  0  0
 60137  1  0  0  0
 61138  1  0  0  0
 61139  1  0  0  0
 61140  1  0  0  0
 62141  1  0  0  0
 62142  1  0  0  0
 62143  1  0  0  0
 63 65  1  0  0  0
 63144  1  0  0  0
 63145  1  0  0  0
 63146  1  0  0  0
 64147  1  0  0  0
 65148  1  0  0  0
 68 84  1  0  0  0
 71 72  2  0  0  0
 71 73  1  0  0  0
 71149  1  0  0  0
 72 75  1  0  0  0
 72150  1  0  0  0
 73 76  2  0  0  0
 73151  1  0  0  0
 74 75  2  0  0  0
 74 76  1  0  0  0
 74152  1  0  0  0
 75 77  1  0  0  0
 76 85  1  0  0  0
 77 86  1  0  0  0
 77 89  2  0  0  0
 78 79  1  0  0  0
 78153  1  0  0  0
 78154  1  0  0  0
 78 80  1  0  0  0
 79 80  1  0  0  0
 79155  1  0  0  0
 79156  1  0  0  0
 80 85  1  0  0  0
 80157  1  0  0  0
 81 82  1  0  0  0
 81 86  1  0  0  0
 81158  1  0  0  0
 81159  1  0  0  0
 82 88  1  0  0  0
 82160  1  0  0  0
 82161  1  0  0  0
 83 84  1  0  0  0
 83 88  1  0  0  0
 83162  1  0  0  0
 83163  1  0  0  0
 84164  1  0  0  0
 84165  1  0  0  0
 85 87  1  0  0  0
 85166  1  0  0  0
 86167  1  0  0  0
 87168  1  0  0  0
 88169  1  0  0  0
 88170  1  0  0  0
M  CHG  1  88   1
M  ISO  4   1 100  68 101  84 101  87 100
M  END
> <chiral flag>
0

> <version>
0

> <s_m_source_file>
/data/baiqing/PycharmProjects/Reinvent-master-3.2/result/LINK_invent/BTK/process_docking_weight1_custom_product_contain_oxygen_bond_distance_aromatic_linkinvent_7_9_3/rearranged_h_0003.sdf

> <i_m_source_file_index>
47

> <r_mmod_Potential_Energy-OPLS-2005>
-233.216842651367

> <r_mmod_Stretch_Energy-OPLS-2005>
31.7880172729492

> <r_mmod_Bend_Energy-OPLS-2005>
90.8202438354492

> <r_mmod_Torsional_Energy-OPLS-2005>
335.176208496094

> <r_mmod_Improper_Torsional_Energy-OPLS-2005>
12.7351236343384

> <r_mmod_Van_der_Waal_Energy-OPLS-2005>
144.551239013672

> <r_mmod_Electrostatic_Energy-OPLS-2005>
-355.614044189453

> <r_mmod_Solvation_Energy-OPLS-2005>
-507.75830078125

> <b_mmod_Minimization_Converged-OPLS-2005>
0

> <r_mmod_RMS_Derivative-OPLS-2005>
3.77359175682068

$$$$
47
                    3D
 Structure written by MMmdl.
147155  0  0  1  0            999 V2000
  -30.4199  -15.1785   20.4077 C   0  0  0  0  0  0
  -30.4434  -12.7436   19.5359 C   0  0  0  0  0  0
  -29.5361  -12.5807   18.2885 C   0  0  0  0  0  0
  -28.0756  -12.3212   18.6994 C   0  0  0  0  0  0
  -27.6183  -13.2694   19.8376 C   0  0  2  0  0  0
  -28.6491  -13.3686   20.9817 C   0  0  0  0  0  0
  -25.2398  -13.8251   20.5735 C   0  0  0  0  0  0
  -24.1742  -13.0447   20.9244 C   0  0  0  0  0  0
  -24.6393  -11.6938   20.8752 C   0  0  0  0  0  0
  -23.9093  -10.4302   21.0411 C   0  0  0  0  0  0
  -24.3638   -9.4215   21.9178 C   0  0  0  0  0  0
  -23.6314   -8.2250   22.0747 C   0  0  0  0  0  0
  -22.4291   -8.0289   21.3545 C   0  0  0  0  0  0
  -21.9935   -9.0272   20.4646 C   0  0  0  0  0  0
  -22.7267  -10.2147   20.3058 C   0  0  0  0  0  0
  -21.6856   -6.0747   22.5280 C   0  0  0  0  0  0
  -21.4015   -6.5644   23.8214 C   0  0  0  0  0  0
  -21.3661   -5.6794   24.9171 C   0  0  0  0  0  0
  -21.6039   -4.3058   24.7224 C   0  0  0  0  0  0
  -21.8813   -3.8150   23.4345 C   0  0  0  0  0  0
  -21.9193   -4.6969   22.3401 C   0  0  0  0  0  0
  -22.7759  -13.5193   21.1916 C   0  0  0  0  0  0
  -22.1662   -4.2155   21.0985 F   0  0  0  0  0  0
  -21.5633   -3.4541   25.7739 F   0  0  0  0  0  0
  -29.9007  -13.8606   20.3858 N   0  0  0  0  0  0
  -26.2826  -12.9509   20.3243 N   0  0  0  0  0  0
  -25.9327  -11.6621   20.5714 N   0  0  0  0  0  0
  -22.0442  -12.8163   22.0481 N   0  0  0  0  0  0
  -25.4065  -15.1986   20.4180 N   0  0  0  0  0  0
  -31.6195  -15.2546   20.1039 O   0  0  0  0  0  0
  -21.6645   -6.8893   21.4244 O   0  0  0  0  0  0
  -22.3433  -14.5506   20.6779 O   0  0  0  0  0  0
  -24.6577  -31.8292   23.1741 C   0  0  0  0  0  0
  -25.9272  -32.4616   23.8213 C   0  0  1  0  0  0
  -27.2156  -26.9802   20.1894 C   0  0  0  0  0  0
  -25.5943  -33.8437   24.2122 N   0  0  0  0  0  0
  -23.4723  -30.4436   21.5204 C   0  0  2  0  0  0
  -24.9261  -28.8409   20.1091 C   0  0  0  0  0  0
  -22.7641  -29.4482   22.4765 C   0  0  0  0  0  0
  -18.0337  -28.1353   22.8534 C   0  0  0  0  0  0
  -24.1490  -36.7222   23.2652 C   0  0  0  0  0  0
  -26.0372  -30.6537   21.3993 C   0  0  0  0  0  0
  -26.1055  -29.2485   20.7451 C   0  0  0  0  0  0
  -27.2468  -28.3367   20.7623 C   0  0  0  0  0  0
  -26.0136  -26.7108   19.4999 C   0  0  0  0  0  0
  -24.9029  -27.5926   19.4648 C   0  0  0  0  0  0
  -23.7123  -29.7661   20.1432 C   0  0  0  0  0  0
  -25.4128  -36.2998   24.0319 C   0  0  1  0  0  0
  -20.5951  -28.3754   23.1160 C   0  0  2  0  0  0
  -20.6836  -26.9471   22.5281 C   0  0  0  0  0  0
  -19.5714  -26.6366   21.5196 C   0  0  0  0  0  0
  -18.1980  -26.7843   22.1789 C   0  0  0  0  0  0
  -19.1590  -28.8895   23.2811 C   0  0  0  0  0  0
  -18.9494  -30.1508   23.8787 C   0  0  0  0  0  0
  -17.6489  -30.6615   24.0459 C   0  0  0  0  0  0
  -25.9082  -34.9368   23.5047 C   0  0  0  0  0  0
  -16.5377  -29.9067   23.6299 C   0  0  0  0  0  0
  -16.7308  -28.6436   23.0417 C   0  0  0  0  0  0
  -26.4548  -31.6536   25.0708 C   0  0  0  0  0  0
  -25.3699  -31.3755   26.1372 C   0  0  0  0  0  0
  -27.0436  -30.2919   24.6397 C   0  0  0  0  0  0
  -27.6056  -32.4326   25.7501 C   0  0  0  0  0  0
  -27.5575  -37.1775   24.8477 C   0  0  0  0  0  0
  -21.4311  -29.3114   22.3557 N   0  0  0  0  0  0
  -26.4285  -37.3721   23.9410 N   0  0  0  0  0  0
  -24.7432  -31.0015   22.0853 N   0  0  0  0  0  0
  -23.4211  -28.7982   23.2937 O   0  0  0  0  0  0
  -28.2297  -25.9091   20.2855 O   0  0  0  0  0  0
  -26.5698  -34.8894   22.4640 O   0  0  0  0  0  0
  -23.5656  -32.1229   23.6866 O   0  0  0  0  0  0
  -30.0405  -20.3927   19.7329 C   0  0  0  0  0  0
  -28.2858  -20.2223   21.2111 C   0  0  0  0  0  0
  -30.2556  -18.9213   19.7784 C   0  0  0  0  0  0
  -28.4911  -18.7521   21.2474 C   0  0  0  0  0  0
  -29.0404  -21.1948   20.4368 C   0  0  0  0  0  0
  -29.4970  -17.9531   20.5530 C   0  0  0  0  0  0
  -29.0415  -22.9312   20.5599 C   0  0  0  0  0  0
  -27.9942  -24.3010   20.1489 C   0  0  0  0  0  0
  -29.5703  -16.3507   20.6420 N   0  0  0  0  0  0
  -31.4677  -12.9427   19.2166 H   0  0  0  0  0  0
  -30.4922  -11.8132   20.1030 H   0  0  0  0  0  0
  -29.8993  -11.7719   17.6550 H   0  0  0  0  0  0
  -29.5855  -13.4889   17.6849 H   0  0  0  0  0  0
  -28.0020  -11.2856   19.0331 H   0  0  0  0  0  0
  -27.4168  -12.4120   17.8353 H   0  0  0  0  0  0
  -27.5552  -14.2570   19.3783 H   0  0  0  0  0  0
  -28.7834  -12.4042   21.4725 H   0  0  0  0  0  0
  -28.2980  -14.0594   21.7504 H   0  0  0  0  0  0
  -25.2785   -9.5675   22.4752 H   0  0  0  0  0  0
  -24.0022   -7.4631   22.7451 H   0  0  0  0  0  0
  -21.0874   -8.8790   19.8948 H   0  0  0  0  0  0
  -22.3731  -10.9684   19.6165 H   0  0  0  0  0  0
  -21.2004   -7.6150   23.9716 H   0  0  0  0  0  0
  -21.1490   -6.0530   25.9075 H   0  0  0  0  0  0
  -22.0591   -2.7617   23.2846 H   0  0  0  0  0  0
  -22.4099  -11.9825   22.4840 H   0  0  0  0  0  0
  -21.1061  -13.1149   22.2726 H   0  0  0  0  0  0
  -24.6370  -15.8508   20.5231 H   0  0  0  0  0  0
  -26.2500  -15.6372   20.0746 H   0  0  0  0  0  0
  -26.7333  -32.5197   23.0929 H   0  0  0  0  0  0
  -25.0036  -33.9524   25.0241 H   0  0  0  0  0  0
  -22.7860  -31.2764   21.3532 H   0  0  0  0  0  0
  -23.3768  -35.9540   23.3304 H   0  0  0  0  0  0
  -24.3563  -36.8864   22.2066 H   0  0  0  0  0  0
  -23.7229  -37.6408   23.6699 H   0  0  0  0  0  0
  -26.2124  -31.3977   20.6219 H   0  0  0  0  0  0
  -26.8992  -30.7092   22.0515 H   0  0  0  0  0  0
  -28.1398  -28.6440   21.2902 H   0  0  0  0  0  0
  -25.9044  -25.7572   19.0039 H   0  0  0  0  0  0
  -24.0074  -27.2838   18.9412 H   0  0  0  0  0  0
  -23.8760  -30.5395   19.3916 H   0  0  0  0  0  0
  -22.8224  -29.2248   19.8171 H   0  0  0  0  0  0
  -25.1316  -36.1821   25.0814 H   0  0  0  0  0  0
  -21.0055  -28.3306   24.1266 H   0  0  0  0  0  0
  -20.5885  -26.2365   23.3497 H   0  0  0  0  0  0
  -21.6658  -26.7513   22.0941 H   0  0  0  0  0  0
  -19.6884  -25.6277   21.1232 H   0  0  0  0  0  0
  -19.6496  -27.3175   20.6705 H   0  0  0  0  0  0
  -17.4132  -26.6403   21.4344 H   0  0  0  0  0  0
  -18.0613  -26.0055   22.9317 H   0  0  0  0  0  0
  -19.7980  -30.7371   24.2072 H   0  0  0  0  0  0
  -17.5033  -31.6342   24.4949 H   0  0  0  0  0  0
  -15.5372  -30.2968   23.7612 H   0  0  0  0  0  0
  -15.8706  -28.0693   22.7248 H   0  0  0  0  0  0
  -24.5888  -30.7090   25.7689 H   0  0  0  0  0  0
  -24.8860  -32.2931   26.4734 H   0  0  0  0  0  0
  -25.7935  -30.8964   27.0211 H   0  0  0  0  0  0
  -26.3083  -29.6604   24.1385 H   0  0  0  0  0  0
  -27.3985  -29.7261   25.5027 H   0  0  0  0  0  0
  -27.9023  -30.4130   23.9782 H   0  0  0  0  0  0
  -27.2645  -33.3663   26.2005 H   0  0  0  0  0  0
  -28.3906  -32.6842   25.0348 H   0  0  0  0  0  0
  -28.0700  -31.8506   26.5480 H   0  0  0  0  0  0
  -28.2590  -38.0071   24.7496 H   0  0  0  0  0  0
  -28.1063  -36.2594   24.6329 H   0  0  0  0  0  0
  -27.2283  -37.1454   25.8877 H   0  0  0  0  0  0
  -20.9532  -29.8939   21.6821 H   0  0  0  0  0  0
  -26.0147  -38.2790   24.1409 H   0  0  0  0  0  0
  -30.7419  -20.9456   19.1256 H   0  0  0  0  0  0
  -27.5153  -20.6130   21.8621 H   0  0  0  0  0  0
  -31.0611  -18.5335   19.1705 H   0  0  0  0  0  0
  -27.8148  -18.2083   21.8916 H   0  0  0  0  0  0
  -29.9867  -23.1912   20.0848 H   0  0  0  0  0  0
  -29.2406  -23.0836   21.6200 H   0  0  0  0  0  0
  -27.0590  -24.1235   20.6812 H   0  0  0  0  0  0
  -27.7400  -24.1585   19.0980 H   0  0  0  0  0  0
  -28.6928  -15.9915   20.9849 H   0  0  0  0  0  0
  1 25  1  0  0  0
  1 30  2  0  0  0
  1 79  1  0  0  0
  2  3  1  0  0  0
  2 25  1  0  0  0
  2 80  1  0  0  0
  2 81  1  0  0  0
  3  4  1  0  0  0
  3 82  1  0  0  0
  3 83  1  0  0  0
  4  5  1  0  0  0
  4 84  1  0  0  0
  4 85  1  0  0  0
  5  6  1  0  0  0
  5 26  1  0  0  0
  5 86  1  0  0  0
  6 25  1  0  0  0
  6 87  1  0  0  0
  6 88  1  0  0  0
  7  8  2  0  0  0
  7 26  1  0  0  0
  7 29  1  0  0  0
  8  9  1  0  0  0
  8 22  1  0  0  0
  9 10  1  0  0  0
  9 27  2  0  0  0
 10 11  2  0  0  0
 10 15  1  0  0  0
 11 12  1  0  0  0
 11 89  1  0  0  0
 12 13  2  0  0  0
 12 90  1  0  0  0
 13 14  1  0  0  0
 13 31  1  0  0  0
 14 15  2  0  0  0
 14 91  1  0  0  0
 15 92  1  0  0  0
 16 17  2  0  0  0
 16 21  1  0  0  0
 16 31  1  0  0  0
 17 18  1  0  0  0
 17 93  1  0  0  0
 18 19  2  0  0  0
 18 94  1  0  0  0
 19 20  1  0  0  0
 19 24  1  0  0  0
 20 21  2  0  0  0
 20 95  1  0  0  0
 21 23  1  0  0  0
 22 28  1  0  0  0
 22 32  2  0  0  0
 26 27  1  0  0  0
 28 96  1  0  0  0
 28 97  1  0  0  0
 29 98  1  0  0  0
 29 99  1  0  0  0
 33 34  1  0  0  0
 33 66  1  0  0  0
 33 70  2  0  0  0
 34 36  1  0  0  0
 34 59  1  0  0  0
 34100  1  0  0  0
 35 44  2  0  0  0
 35 45  1  0  0  0
 35 68  1  0  0  0
 36 56  1  0  0  0
 36101  1  0  0  0
 37 39  1  0  0  0
 37 47  1  0  0  0
 37 66  1  0  0  0
 37102  1  0  0  0
 38 43  2  0  0  0
 38 46  1  0  0  0
 38 47  1  0  0  0
 39 64  1  0  0  0
 39 67  2  0  0  0
 40 52  1  0  0  0
 40 53  2  0  0  0
 40 58  1  0  0  0
 41103  1  0  0  0
 41104  1  0  0  0
 41105  1  0  0  0
 41 48  1  0  0  0
 42 43  1  0  0  0
 42 66  1  0  0  0
 42106  1  0  0  0
 42107  1  0  0  0
 43 44  1  0  0  0
 44108  1  0  0  0
 45 46  2  0  0  0
 45109  1  0  0  0
 46110  1  0  0  0
 47111  1  0  0  0
 47112  1  0  0  0
 48 56  1  0  0  0
 48 65  1  0  0  0
 48113  1  0  0  0
 49 50  1  0  0  0
 49 53  1  0  0  0
 49 64  1  0  0  0
 49114  1  0  0  0
 50 51  1  0  0  0
 50115  1  0  0  0
 50116  1  0  0  0
 51 52  1  0  0  0
 51117  1  0  0  0
 51118  1  0  0  0
 52119  1  0  0  0
 52120  1  0  0  0
 53 54  1  0  0  0
 54 55  2  0  0  0
 54121  1  0  0  0
 55 57  1  0  0  0
 55122  1  0  0  0
 56 69  2  0  0  0
 57 58  2  0  0  0
 57123  1  0  0  0
 58124  1  0  0  0
 59 60  1  0  0  0
 59 61  1  0  0  0
 59 62  1  0  0  0
 60125  1  0  0  0
 60126  1  0  0  0
 60127  1  0  0  0
 61128  1  0  0  0
 61129  1  0  0  0
 61130  1  0  0  0
 62131  1  0  0  0
 62132  1  0  0  0
 62133  1  0  0  0
 63 65  1  0  0  0
 63134  1  0  0  0
 63135  1  0  0  0
 63136  1  0  0  0
 64137  1  0  0  0
 65138  1  0  0  0
 68 78  1  0  0  0
 71 73  2  0  0  0
 71 75  1  0  0  0
 71139  1  0  0  0
 72 74  1  0  0  0
 72 75  2  0  0  0
 72140  1  0  0  0
 73 76  1  0  0  0
 73141  1  0  0  0
 74 76  2  0  0  0
 74142  1  0  0  0
 75 77  1  0  0  0
 76 79  1  0  0  0
 77 78  1  0  0  0
 77143  1  0  0  0
 77144  1  0  0  0
 78145  1  0  0  0
 78146  1  0  0  0
 79147  1  0  0  0
M  ISO  4   1 100  68 101  78 101  79 100
M  END
> <chiral flag>
0

> <version>
0

> <s_m_source_file>
/data/baiqing/PycharmProjects/Reinvent-master-3.2/result/LINK_invent/BTK/process_docking_weight1_custom_product_contain_oxygen_bond_distance_aromatic_linkinvent_7_9_3/rearranged_h_0003.sdf

> <i_m_source_file_index>
48

> <r_mmod_Potential_Energy-OPLS-2005>
1025.51647949219

> <r_mmod_Stretch_Energy-OPLS-2005>
450.272552490234

> <r_mmod_Bend_Energy-OPLS-2005>
407.48046875

> <r_mmod_Torsional_Energy-OPLS-2005>
218.750228881836

> <r_mmod_Improper_Torsional_Energy-OPLS-2005>
5.29044628143311

> <r_mmod_Van_der_Waal_Energy-OPLS-2005>
127.384757995605

> <r_mmod_Electrostatic_Energy-OPLS-2005>
-353.050445556641

> <r_mmod_Solvation_Energy-OPLS-2005>
-210.476058959961

> <b_mmod_Minimization_Converged-OPLS-2005>
0

> <r_mmod_RMS_Derivative-OPLS-2005>
2.94189381599426

$$$$
48
                    3D
 Structure written by MMmdl.
173183  0  0  1  0            999 V2000
  -28.5592  -19.0732   20.5104 C   0  0  0  0  0  0
  -29.6587  -15.6924   19.7014 C   0  0  0  0  0  0
  -29.4558  -14.2590   18.7518 C   0  0  0  0  0  0
  -28.5002  -13.1613   19.2478 C   0  0  0  0  0  0
  -27.5228  -14.0560   20.0133 C   0  0  2  0  0  0
  -28.0756  -15.4501   20.9113 C   0  0  0  0  0  0
  -25.1260  -13.9834   20.6366 C   0  0  0  0  0  0
  -24.1525  -13.0943   20.9538 C   0  0  0  0  0  0
  -24.7253  -11.7860   20.8633 C   0  0  0  0  0  0
  -24.0022  -10.4782   21.0082 C   0  0  0  0  0  0
  -24.4151   -9.4661   21.9029 C   0  0  0  0  0  0
  -23.6655   -8.2735   22.0709 C   0  0  0  0  0  0
  -22.4666   -8.0609   21.3486 C   0  0  0  0  0  0
  -22.0490   -9.0661   20.4555 C   0  0  0  0  0  0
  -22.8042  -10.2480   20.2879 C   0  0  0  0  0  0
  -21.7068   -6.0937   22.5279 C   0  0  0  0  0  0
  -21.4156   -6.5755   23.8219 C   0  0  0  0  0  0
  -21.3615   -5.6862   24.9153 C   0  0  0  0  0  0
  -21.6036   -4.3120   24.7221 C   0  0  0  0  0  0
  -21.8782   -3.8239   23.4316 C   0  0  0  0  0  0
  -21.9274   -4.7117   22.3389 C   0  0  0  0  0  0
  -22.7305  -13.4933   21.1917 C   0  0  0  0  0  0
  -22.1734   -4.2272   21.0969 F   0  0  0  0  0  0
  -21.5593   -3.4562   25.7702 F   0  0  0  0  0  0
  -28.5545  -17.0527   20.2950 N   0  0  0  0  0  0
  -26.2927  -13.3023   20.4675 N   0  0  0  0  0  0
  -26.0543  -11.9222   20.5809 N   0  0  0  0  0  0
  -21.9992  -12.7783   22.0363 N   0  0  0  0  0  0
  -25.1083  -15.3570   20.4445 N   0  0  0  0  0  0
  -29.8144  -18.5553   20.4320 O   0  0  0  0  0  0
  -21.6886   -6.9213   21.4309 O   0  0  0  0  0  0
  -22.2824  -14.5113   20.6705 O   0  0  0  0  0  0
  -24.9096  -31.1405   22.8689 C   0  0  0  0  0  0
  -26.0096  -32.1326   23.6033 C   0  0  1  0  0  0
  -28.4732  -25.0736   19.4785 C   0  0  0  0  0  0
  -25.5065  -33.5579   23.8839 N   0  0  0  0  0  0
  -23.5645  -29.1036   21.5204 C   0  0  2  0  0  0
  -24.9994  -25.9812   20.2457 C   0  0  0  0  0  0
  -22.5391  -29.2265   22.5813 C   0  0  0  0  0  0
  -17.9438  -28.1550   22.7982 C   0  0  0  0  0  0
  -24.1440  -36.6191   23.2798 C   0  0  0  0  0  0
  -26.6772  -28.9654   21.8388 C   0  0  0  0  0  0
  -27.0288  -27.0631   21.0931 C   0  0  0  0  0  0
  -28.3905  -26.3586   20.6615 C   0  0  0  0  0  0
  -26.9489  -24.2280   18.6774 C   0  0  0  0  0  0
  -25.2572  -24.7137   19.2264 C   0  0  0  0  0  0
  -23.3014  -27.2091   20.7086 C   0  0  0  0  0  0
  -25.4112  -36.1293   24.0028 C   0  0  1  0  0  0
  -20.4343  -28.3558   23.1531 C   0  0  2  0  0  0
  -20.4495  -26.8500   22.8562 C   0  0  0  0  0  0
  -19.5315  -26.4560   21.6973 C   0  0  0  0  0  0
  -18.0860  -26.8131   22.0837 C   0  0  0  0  0  0
  -19.0510  -28.9020   23.2553 C   0  0  0  0  0  0
  -18.8936  -30.1605   23.8687 C   0  0  0  0  0  0
  -17.6031  -30.6727   24.0687 C   0  0  0  0  0  0
  -25.9093  -34.7697   23.3934 C   0  0  0  0  0  0
  -16.4898  -29.9295   23.6418 C   0  0  0  0  0  0
  -16.6564  -28.6857   23.0051 C   0  0  0  0  0  0
  -26.5233  -31.6166   25.0205 C   0  0  0  0  0  0
  -25.3712  -31.3756   26.0230 C   0  0  0  0  0  0
  -27.3114  -30.3088   24.8878 C   0  0  0  0  0  0
  -27.5266  -32.5844   25.7094 C   0  0  0  0  0  0
  -27.5434  -37.1127   24.8589 C   0  0  0  0  0  0
  -21.2616  -29.1289   22.2343 N   0  0  0  0  0  0
  -26.4002  -37.2412   23.9556 N   0  0  0  0  0  0
  -25.0850  -29.8482   22.0962 N   0  0  0  0  0  0
  -22.8739  -29.1599   23.7377 O   0  0  0  0  0  0
  -29.4467  -25.1886   18.6027 O   0  0  0  0  0  0
  -26.6830  -34.8409   22.4406 O   0  0  0  0  0  0
  -23.8120  -31.6914   23.1099 O   0  0  0  0  0  0
  -27.5750  -25.6180   15.2703 C   0  0  0  0  0  0
  -26.5298  -23.5637   15.7340 C   0  0  0  0  0  0
  -28.8370  -25.0209   15.4955 C   0  0  0  0  0  0
  -27.8534  -22.9594   15.9297 C   0  0  0  0  0  0
  -26.2457  -27.8104   18.9665 C   0  0  0  0  0  0
  -26.7767  -26.4077   18.9895 C   0  0  0  0  0  0
  -25.9842  -25.2376   22.2363 C   0  0  0  0  0  0
  -26.4087  -25.0268   15.8364 C   0  0  0  0  0  0
  -28.8541  -23.8945   16.3231 C   0  0  0  0  0  0
  -25.2821  -28.1935   20.1061 C   0  0  0  0  0  0
  -25.1340  -27.0160   22.1785 C   0  0  0  0  0  0
  -26.8465  -24.2992   20.9136 C   0  0  0  0  0  0
  -22.7386  -25.4624   15.8468 C   0  0  0  0  0  0
  -24.1060  -25.1423   15.3759 C   0  0  0  0  0  0
  -22.9172  -26.4369   17.0221 C   0  0  0  0  0  0
  -25.1192  -26.0148   16.1354 C   0  0  1  0  0  0
  -24.4618  -27.9103   18.4837 C   0  0  0  0  0  0
  -29.6039  -23.9457   17.7522 C   0  0  0  0  0  0
  -24.9449  -27.2440   23.6748 C   0  0  0  0  0  0
  -27.6787  -21.4299   20.6982 N   0  0  0  0  0  0
  -24.3527  -26.5389   17.4876 N   0  3  1  0  0  0
  -23.8065  -26.6895   24.0528 F   0  0  0  0  0  0
  -25.9038  -26.5892   24.3251 F   0  0  0  0  0  0
  -25.0585  -28.4047   24.2038 F   0  0  0  0  0  0
  -30.2761  -16.3099   19.0480 H   0  0  0  0  0  0
  -30.4264  -15.4682   20.4555 H   0  0  0  0  0  0
  -30.4354  -13.8384   18.5180 H   0  0  0  0  0  0
  -29.0673  -14.6256   17.8029 H   0  0  0  0  0  0
  -28.9911  -12.4696   19.9308 H   0  0  0  0  0  0
  -28.0603  -12.5821   18.4324 H   0  0  0  0  0  0
  -27.1304  -14.6003   19.1455 H   0  0  0  0  0  0
  -28.7308  -15.0704   21.7094 H   0  0  0  0  0  0
  -27.2876  -15.7529   21.6007 H   0  0  0  0  0  0
  -25.3170   -9.6206   22.4802 H   0  0  0  0  0  0
  -24.0230   -7.5293   22.7613 H   0  0  0  0  0  0
  -21.1337   -8.9287   19.8943 H   0  0  0  0  0  0
  -22.4365  -10.9942   19.5942 H   0  0  0  0  0  0
  -21.2143   -7.6247   23.9796 H   0  0  0  0  0  0
  -21.1444   -6.0539   25.9043 H   0  0  0  0  0  0
  -22.0543   -2.7705   23.2806 H   0  0  0  0  0  0
  -22.3810  -11.9701   22.5002 H   0  0  0  0  0  0
  -21.0532  -13.0610   22.2544 H   0  0  0  0  0  0
  -24.2648  -15.9212   20.5044 H   0  0  0  0  0  0
  -25.9296  -15.8922   20.1967 H   0  0  0  0  0  0
  -26.8729  -32.2203   22.9441 H   0  0  0  0  0  0
  -24.8115  -33.5569   24.6090 H   0  0  0  0  0  0
  -23.3279  -29.7833   20.6973 H   0  0  0  0  0  0
  -23.3451  -35.8737   23.2915 H   0  0  0  0  0  0
  -24.3665  -36.8249   22.2371 H   0  0  0  0  0  0
  -23.7464  -37.5309   23.7280 H   0  0  0  0  0  0
  -27.3030  -29.5622   21.2017 H   0  0  0  0  0  0
  -27.2713  -28.9342   22.7285 H   0  0  0  0  0  0
  -29.2846  -26.8669   20.8753 H   0  0  0  0  0  0
  -27.0790  -23.7934   17.8239 H   0  0  0  0  0  0
  -24.4835  -23.9768   19.1523 H   0  0  0  0  0  0
  -22.8996  -26.6073   21.5150 H   0  0  0  0  0  0
  -22.4123  -27.0615   20.0462 H   0  0  0  0  0  0
  -25.1475  -35.9630   25.0431 H   0  0  0  0  0  0
  -20.7705  -28.4351   24.1925 H   0  0  0  0  0  0
  -20.0284  -26.3948   23.7608 H   0  0  0  0  0  0
  -21.4348  -26.4101   22.8346 H   0  0  0  0  0  0
  -19.5678  -25.3717   21.5380 H   0  0  0  0  0  0
  -19.8348  -26.9307   20.7620 H   0  0  0  0  0  0
  -17.4601  -26.8006   21.1896 H   0  0  0  0  0  0
  -17.6694  -26.0353   22.7310 H   0  0  0  0  0  0
  -19.7667  -30.7280   24.1787 H   0  0  0  0  0  0
  -17.4785  -31.6354   24.5439 H   0  0  0  0  0  0
  -15.4948  -30.3352   23.7822 H   0  0  0  0  0  0
  -15.8023  -28.1411   22.6330 H   0  0  0  0  0  0
  -24.6311  -30.6668   25.6457 H   0  0  0  0  0  0
  -24.8531  -32.3016   26.2855 H   0  0  0  0  0  0
  -25.7815  -30.9615   26.9408 H   0  0  0  0  0  0
  -26.7533  -29.4597   24.6064 H   0  0  0  0  0  0
  -27.6821  -29.9888   25.8628 H   0  0  0  0  0  0
  -28.1699  -30.3966   24.2239 H   0  0  0  0  0  0
  -27.0596  -33.5537   25.9444 H   0  0  0  0  0  0
  -28.3997  -32.7492   25.0740 H   0  0  0  0  0  0
  -27.9107  -32.1537   26.6426 H   0  0  0  0  0  0
  -28.2091  -37.9688   24.7309 H   0  0  0  0  0  0
  -28.1114  -36.2027   24.6536 H   0  0  0  0  0  0
  -27.2243  -37.1091   25.9017 H   0  0  0  0  0  0
  -21.0292  -29.1748   21.2455 H   0  0  0  0  0  0
  -25.9325  -38.1231   24.1159 H   0  0  0  0  0  0
  -27.5260  -26.5652   14.7791 H   0  0  0  0  0  0
  -25.6711  -22.9067   15.8531 H   0  0  0  0  0  0
  -29.7639  -25.4291   15.1085 H   0  0  0  0  0  0
  -27.9699  -21.9344   16.2734 H   0  0  0  0  0  0
  -26.5506  -28.3408   18.0429 H   0  0  0  0  0  0
  -27.1564  -26.3239   17.9669 H   0  0  0  0  0  0
  -25.9455  -24.6291   23.1319 H   0  0  0  0  0  0
  -22.1843  -24.5585   16.1726 H   0  0  0  0  0  0
  -22.2372  -25.9181   14.9839 H   0  0  0  0  0  0
  -24.2437  -25.1421   14.2831 H   0  0  0  0  0  0
  -24.0940  -24.1125   15.6950 H   0  0  0  0  0  0
  -22.2041  -26.1394   17.8165 H   0  0  0  0  0  0
  -22.6660  -27.3662   16.5033 H   0  0  0  0  0  0
  -25.2360  -26.8832   15.4895 H   0  0  0  0  0  0
  -24.6354  -28.6573   17.6716 H   0  0  0  0  0  0
  -23.4568  -28.2496   18.6715 H   0  0  0  0  0  0
  -30.6900  -23.9895   17.6718 H   0  0  0  0  0  0
  -29.3675  -22.9956   18.3108 H   0  0  0  0  0  0
  -28.6227  -21.7164   20.4739 H   0  0  0  0  0  0
  -24.4518  -25.7617   18.1222 H   0  0  0  0  0  0
  1 25  1  0  0  0
  1 30  2  0  0  0
  1 90  1  0  0  0
  2  3  1  0  0  0
  2 25  1  0  0  0
  2 95  1  0  0  0
  2 96  1  0  0  0
  3  4  1  0  0  0
  3 97  1  0  0  0
  3 98  1  0  0  0
  4  5  1  0  0  0
  4 99  1  0  0  0
  4100  1  0  0  0
  5  6  1  0  0  0
  5 26  1  0  0  0
  5101  1  0  0  0
  6 25  1  0  0  0
  6102  1  0  0  0
  6103  1  0  0  0
  7  8  2  0  0  0
  7 26  1  0  0  0
  7 29  1  0  0  0
  8  9  1  0  0  0
  8 22  1  0  0  0
  9 10  1  0  0  0
  9 27  2  0  0  0
 10 11  2  0  0  0
 10 15  1  0  0  0
 11 12  1  0  0  0
 11104  1  0  0  0
 12 13  2  0  0  0
 12105  1  0  0  0
 13 14  1  0  0  0
 13 31  1  0  0  0
 14 15  2  0  0  0
 14106  1  0  0  0
 15107  1  0  0  0
 16 17  2  0  0  0
 16 21  1  0  0  0
 16 31  1  0  0  0
 17 18  1  0  0  0
 17108  1  0  0  0
 18 19  2  0  0  0
 18109  1  0  0  0
 19 20  1  0  0  0
 19 24  1  0  0  0
 20 21  2  0  0  0
 20110  1  0  0  0
 21 23  1  0  0  0
 22 28  1  0  0  0
 22 32  2  0  0  0
 26 27  1  0  0  0
 28111  1  0  0  0
 28112  1  0  0  0
 29113  1  0  0  0
 29114  1  0  0  0
 33 34  1  0  0  0
 33 66  1  0  0  0
 33 70  2  0  0  0
 34 36  1  0  0  0
 34 59  1  0  0  0
 34115  1  0  0  0
 35 44  2  0  0  0
 35 45  1  0  0  0
 35 68  1  0  0  0
 36 56  1  0  0  0
 36116  1  0  0  0
 37 39  1  0  0  0
 37 47  1  0  0  0
 37 66  1  0  0  0
 37117  1  0  0  0
 38 43  2  0  0  0
 38 46  1  0  0  0
 38 47  1  0  0  0
 39 64  1  0  0  0
 39 67  2  0  0  0
 40 52  1  0  0  0
 40 53  2  0  0  0
 40 58  1  0  0  0
 41118  1  0  0  0
 41119  1  0  0  0
 41120  1  0  0  0
 41 48  1  0  0  0
 42 43  1  0  0  0
 42 66  1  0  0  0
 42121  1  0  0  0
 42122  1  0  0  0
 43 44  1  0  0  0
 44123  1  0  0  0
 45 46  2  0  0  0
 45124  1  0  0  0
 46125  1  0  0  0
 47126  1  0  0  0
 47127  1  0  0  0
 48 56  1  0  0  0
 48 65  1  0  0  0
 48128  1  0  0  0
 49 50  1  0  0  0
 49 53  1  0  0  0
 49 64  1  0  0  0
 49129  1  0  0  0
 50 51  1  0  0  0
 50130  1  0  0  0
 50131  1  0  0  0
 51 52  1  0  0  0
 51132  1  0  0  0
 51133  1  0  0  0
 52134  1  0  0  0
 52135  1  0  0  0
 53 54  1  0  0  0
 54 55  2  0  0  0
 54136  1  0  0  0
 55 57  1  0  0  0
 55137  1  0  0  0
 56 69  2  0  0  0
 57 58  2  0  0  0
 57138  1  0  0  0
 58139  1  0  0  0
 59 60  1  0  0  0
 59 61  1  0  0  0
 59 62  1  0  0  0
 60140  1  0  0  0
 60141  1  0  0  0
 60142  1  0  0  0
 61143  1  0  0  0
 61144  1  0  0  0
 61145  1  0  0  0
 62146  1  0  0  0
 62147  1  0  0  0
 62148  1  0  0  0
 63 65  1  0  0  0
 63149  1  0  0  0
 63150  1  0  0  0
 63151  1  0  0  0
 64152  1  0  0  0
 65153  1  0  0  0
 68 88  1  0  0  0
 71 73  2  0  0  0
 71 78  1  0  0  0
 71154  1  0  0  0
 72 74  1  0  0  0
 72 78  2  0  0  0
 72155  1  0  0  0
 73 79  1  0  0  0
 73156  1  0  0  0
 74 79  2  0  0  0
 74157  1  0  0  0
 75 76  2  0  0  0
 75 80  1  0  0  0
 75158  1  0  0  0
 76 82  1  0  0  0
 76159  1  0  0  0
 77 81  1  0  0  0
 77 82  2  0  0  0
 77160  1  0  0  0
 78 86  1  0  0  0
 79 88  1  0  0  0
 80 81  2  0  0  0
 80 87  1  0  0  0
 81 89  1  0  0  0
 82 90  1  0  0  0
 83 84  1  0  0  0
 83 85  1  0  0  0
 83161  1  0  0  0
 83162  1  0  0  0
 84 86  1  0  0  0
 84163  1  0  0  0
 84164  1  0  0  0
 85 91  1  0  0  0
 85165  1  0  0  0
 85166  1  0  0  0
 86 91  1  0  0  0
 86167  1  0  0  0
 87168  1  0  0  0
 87169  1  0  0  0
 87 91  1  0  0  0
 88170  1  0  0  0
 88171  1  0  0  0
 89 92  1  0  0  0
 89 93  1  0  0  0
 89 94  1  0  0  0
 90172  1  0  0  0
 91173  1  0  0  0
M  CHG  1  91   1
M  ISO  4   1 100  68 101  88 101  90 100
M  END
> <chiral flag>
0

> <version>
0

> <s_m_source_file>
/data/baiqing/PycharmProjects/Reinvent-master-3.2/result/LINK_invent/BTK/process_docking_weight1_custom_product_contain_oxygen_bond_distance_aromatic_linkinvent_7_9_3/rearranged_h_0003.sdf

> <i_m_source_file_index>
49

> <r_mmod_Potential_Energy-OPLS-2005>
45069.125

> <r_mmod_Stretch_Energy-OPLS-2005>
21095.2734375

> <r_mmod_Bend_Energy-OPLS-2005>
2489.7001953125

> <r_mmod_Torsional_Energy-OPLS-2005>
779.154907226562

> <r_mmod_Improper_Torsional_Energy-OPLS-2005>
75.903076171875

> <r_mmod_Van_der_Waal_Energy-OPLS-2005>
5210.1484375

> <r_mmod_Electrostatic_Energy-OPLS-2005>
-235.904769897461

> <r_mmod_Solvation_Energy-OPLS-2005>
-495.226196289062

> <b_mmod_Minimization_Converged-OPLS-2005>
0

> <r_mmod_RMS_Derivative-OPLS-2005>
67.5911331176758

$$$$
49
                    3D
 Structure written by MMmdl.
157165  0  0  1  0            999 V2000
  -30.8131  -14.3048   20.7405 C   0  0  0  0  0  0
  -30.4112  -12.2895   19.3768 C   0  0  0  0  0  0
  -29.4739  -12.5370   18.1833 C   0  0  0  0  0  0
  -28.0036  -12.3814   18.6081 C   0  0  0  0  0  0
  -27.6667  -13.2028   19.8786 C   0  0  2  0  0  0
  -28.7046  -12.9482   20.9937 C   0  0  0  0  0  0
  -25.2608  -13.8161   20.5675 C   0  0  0  0  0  0
  -24.1848  -13.0441   20.9160 C   0  0  0  0  0  0
  -24.6393  -11.6907   20.8723 C   0  0  0  0  0  0
  -23.9054  -10.4297   21.0401 C   0  0  0  0  0  0
  -24.3607   -9.4217   21.9183 C   0  0  0  0  0  0
  -23.6286   -8.2251   22.0756 C   0  0  0  0  0  0
  -22.4270   -8.0282   21.3545 C   0  0  0  0  0  0
  -21.9903   -9.0252   20.4646 C   0  0  0  0  0  0
  -22.7224  -10.2136   20.3054 C   0  0  0  0  0  0
  -21.6850   -6.0735   22.5281 C   0  0  0  0  0  0
  -21.4011   -6.5638   23.8215 C   0  0  0  0  0  0
  -21.3661   -5.6792   24.9177 C   0  0  0  0  0  0
  -21.6046   -4.3054   24.7228 C   0  0  0  0  0  0
  -21.8819   -3.8146   23.4349 C   0  0  0  0  0  0
  -21.9191   -4.6961   22.3404 C   0  0  0  0  0  0
  -22.7872  -13.5244   21.1832 C   0  0  0  0  0  0
  -22.1659   -4.2147   21.0980 F   0  0  0  0  0  0
  -21.5634   -3.4538   25.7739 F   0  0  0  0  0  0
  -30.0545  -13.2162   20.4600 N   0  0  0  0  0  0
  -26.3048  -12.9325   20.3382 N   0  0  0  0  0  0
  -25.9318  -11.6484   20.5755 N   0  0  0  0  0  0
  -22.0513  -12.8238   22.0394 N   0  0  0  0  0  0
  -25.4347  -15.1876   20.4088 N   0  0  0  0  0  0
  -31.7584  -14.6777   20.0379 O   0  0  0  0  0  0
  -21.6637   -6.8877   21.4242 O   0  0  0  0  0  0
  -22.3554  -14.5548   20.6684 O   0  0  0  0  0  0
  -24.6098  -31.8703   23.2137 C   0  0  0  0  0  0
  -25.9008  -32.4837   23.8422 C   0  0  1  0  0  0
  -27.2364  -27.4790   20.0864 C   0  0  0  0  0  0
  -25.5884  -33.8636   24.2354 N   0  0  0  0  0  0
  -23.3966  -30.4930   21.5531 C   0  0  2  0  0  0
  -24.8449  -28.9637   20.1141 C   0  0  0  0  0  0
  -22.7386  -29.4660   22.5014 C   0  0  0  0  0  0
  -18.0264  -28.1370   22.8500 C   0  0  0  0  0  0
  -24.1479  -36.7326   23.2642 C   0  0  0  0  0  0
  -25.9206  -30.8485   21.3609 C   0  0  0  0  0  0
  -26.0014  -29.4859   20.7086 C   0  0  0  0  0  0
  -27.2029  -28.7481   20.6967 C   0  0  0  0  0  0
  -26.0711  -26.9579   19.4897 C   0  0  0  0  0  0
  -24.8718  -27.6957   19.5043 C   0  0  0  0  0  0
  -23.6030  -29.8239   20.1672 C   0  0  0  0  0  0
  -25.4099  -36.3124   24.0344 C   0  0  1  0  0  0
  -20.5851  -28.3648   23.1334 C   0  0  2  0  0  0
  -20.6752  -26.9390   22.5426 C   0  0  0  0  0  0
  -19.5734  -26.6382   21.5217 C   0  0  0  0  0  0
  -18.1910  -26.7923   22.1621 C   0  0  0  0  0  0
  -19.1513  -28.8826   23.2913 C   0  0  0  0  0  0
  -18.9443  -30.1435   23.8917 C   0  0  0  0  0  0
  -17.6447  -30.6582   24.0565 C   0  0  0  0  0  0
  -25.9025  -34.9484   23.5146 C   0  0  0  0  0  0
  -16.5339  -29.9083   23.6324 C   0  0  0  0  0  0
  -16.7254  -28.6495   23.0355 C   0  0  0  0  0  0
  -26.4464  -31.6600   25.0731 C   0  0  0  0  0  0
  -25.3747  -31.3662   26.1482 C   0  0  0  0  0  0
  -27.0308  -30.3059   24.6070 C   0  0  0  0  0  0
  -27.6038  -32.4319   25.7491 C   0  0  0  0  0  0
  -27.5583  -37.1811   24.8463 C   0  0  0  0  0  0
  -21.4117  -29.3021   22.3748 N   0  0  0  0  0  0
  -26.4291  -37.3804   23.9416 N   0  0  0  0  0  0
  -24.6604  -31.0835   22.1019 N   0  0  0  0  0  0
  -23.4173  -28.8202   23.3045 O   0  0  0  0  0  0
  -28.3826  -26.7311   20.0918 O   0  0  0  0  0  0
  -26.5586  -34.8925   22.4705 O   0  0  0  0  0  0
  -23.5302  -32.1436   23.7555 O   0  0  0  0  0  0
  -29.8420  -17.6599   23.4830 C   0  0  0  0  0  0
  -31.1649  -18.1269   21.4929 C   0  0  0  0  0  0
  -29.3109  -18.9624   23.4312 C   0  0  0  0  0  0
  -30.6283  -19.4288   21.4387 C   0  0  0  0  0  0
  -30.7834  -17.2428   22.5220 C   0  0  0  0  0  0
  -29.7016  -19.8624   22.4193 C   0  0  0  0  0  0
  -31.3881  -15.8540   22.6015 C   0  0  0  0  0  0
  -28.8408  -23.3929   21.8112 C   0  0  0  0  0  0
  -29.0005  -24.4709   20.7281 C   0  0  0  0  0  0
  -29.4921  -22.0552   21.4461 C   0  0  0  0  0  0
  -28.4208  -25.8153   21.1824 C   0  0  0  0  0  0
  -30.5682  -14.8496   21.9364 N   0  0  0  0  0  0
  -29.1490  -21.1229   22.4642 O   0  0  0  0  0  0
  -31.4525  -12.3941   19.0663 H   0  0  0  0  0  0
  -30.3116  -11.2621   19.7304 H   0  0  0  0  0  0
  -29.7038  -11.8436   17.3730 H   0  0  0  0  0  0
  -29.6390  -13.5396   17.7862 H   0  0  0  0  0  0
  -27.8178  -11.3220   18.7900 H   0  0  0  0  0  0
  -27.3432  -12.6695   17.7893 H   0  0  0  0  0  0
  -27.7257  -14.2568   19.6054 H   0  0  0  0  0  0
  -28.6557  -11.9112   21.3293 H   0  0  0  0  0  0
  -28.4503  -13.5510   21.8654 H   0  0  0  0  0  0
  -25.2750   -9.5699   22.4759 H   0  0  0  0  0  0
  -23.9995   -7.4648   22.7481 H   0  0  0  0  0  0
  -21.0835   -8.8768   19.8953 H   0  0  0  0  0  0
  -22.3676  -10.9675   19.6166 H   0  0  0  0  0  0
  -21.2002   -7.6148   23.9716 H   0  0  0  0  0  0
  -21.1485   -6.0523   25.9081 H   0  0  0  0  0  0
  -22.0598   -2.7610   23.2847 H   0  0  0  0  0  0
  -22.4121  -11.9891   22.4773 H   0  0  0  0  0  0
  -21.1139  -13.1281   22.2611 H   0  0  0  0  0  0
  -24.6755  -15.8505   20.5229 H   0  0  0  0  0  0
  -26.3020  -15.6245   20.1204 H   0  0  0  0  0  0
  -26.7082  -32.5567   23.1198 H   0  0  0  0  0  0
  -25.0045  -33.9807   25.0504 H   0  0  0  0  0  0
  -22.6823  -31.3076   21.4162 H   0  0  0  0  0  0
  -23.3744  -35.9654   23.3299 H   0  0  0  0  0  0
  -24.3573  -36.8947   22.2057 H   0  0  0  0  0  0
  -23.7222  -37.6523   23.6662 H   0  0  0  0  0  0
  -26.0259  -31.6162   20.5929 H   0  0  0  0  0  0
  -26.8111  -30.9047   21.9750 H   0  0  0  0  0  0
  -28.0968  -29.1432   21.1586 H   0  0  0  0  0  0
  -26.0936  -25.9827   19.0234 H   0  0  0  0  0  0
  -23.9818  -27.2863   19.0466 H   0  0  0  0  0  0
  -23.7032  -30.5987   19.4064 H   0  0  0  0  0  0
  -22.7288  -29.2387   19.8765 H   0  0  0  0  0  0
  -25.1266  -36.2002   25.0838 H   0  0  0  0  0  0
  -20.9942  -28.3214   24.1457 H   0  0  0  0  0  0
  -20.5660  -26.2249   23.3603 H   0  0  0  0  0  0
  -21.6624  -26.7438   22.1219 H   0  0  0  0  0  0
  -19.6893  -25.6298   21.1233 H   0  0  0  0  0  0
  -19.6677  -27.3197   20.6750 H   0  0  0  0  0  0
  -17.4187  -26.6683   21.4015 H   0  0  0  0  0  0
  -18.0292  -26.0053   22.9002 H   0  0  0  0  0  0
  -19.7922  -30.7244   24.2292 H   0  0  0  0  0  0
  -17.5007  -31.6263   24.5166 H   0  0  0  0  0  0
  -15.5340  -30.2995   23.7634 H   0  0  0  0  0  0
  -15.8651  -28.0817   22.7069 H   0  0  0  0  0  0
  -24.5941  -30.6991   25.7813 H   0  0  0  0  0  0
  -24.8914  -32.2795   26.4957 H   0  0  0  0  0  0
  -25.8128  -30.8822   27.0220 H   0  0  0  0  0  0
  -26.2841  -29.6803   24.1169 H   0  0  0  0  0  0
  -27.4153  -29.7308   25.4503 H   0  0  0  0  0  0
  -27.8638  -30.4410   23.9166 H   0  0  0  0  0  0
  -27.2665  -33.3614   26.2087 H   0  0  0  0  0  0
  -28.3838  -32.6883   25.0312 H   0  0  0  0  0  0
  -28.0718  -31.8433   26.5391 H   0  0  0  0  0  0
  -28.2591  -38.0120   24.7546 H   0  0  0  0  0  0
  -28.1092  -36.2656   24.6257 H   0  0  0  0  0  0
  -27.2303  -37.1417   25.8865 H   0  0  0  0  0  0
  -20.9267  -29.8746   21.6980 H   0  0  0  0  0  0
  -26.0188  -38.2881   24.1435 H   0  0  0  0  0  0
  -29.5330  -16.9878   24.2719 H   0  0  0  0  0  0
  -31.8801  -17.8115   20.7451 H   0  0  0  0  0  0
  -28.5993  -19.2760   24.1823 H   0  0  0  0  0  0
  -30.9536  -20.0774   20.6386 H   0  0  0  0  0  0
  -31.4924  -15.5706   23.6497 H   0  0  0  0  0  0
  -32.4040  -15.8715   22.2018 H   0  0  0  0  0  0
  -27.7782  -23.2322   21.9988 H   0  0  0  0  0  0
  -29.2669  -23.7498   22.7498 H   0  0  0  0  0  0
  -28.4921  -24.1431   19.8202 H   0  0  0  0  0  0
  -30.0527  -24.5958   20.4698 H   0  0  0  0  0  0
  -30.5734  -22.1853   21.3810 H   0  0  0  0  0  0
  -29.1282  -21.7031   20.4794 H   0  0  0  0  0  0
  -29.0295  -26.2401   21.9811 H   0  0  0  0  0  0
  -27.4281  -25.6476   21.6086 H   0  0  0  0  0  0
  -29.8095  -14.4513   22.4683 H   0  0  0  0  0  0
  1 25  1  0  0  0
  1 30  2  0  0  0
  1 82  1  0  0  0
  2  3  1  0  0  0
  2 25  1  0  0  0
  2 84  1  0  0  0
  2 85  1  0  0  0
  3  4  1  0  0  0
  3 86  1  0  0  0
  3 87  1  0  0  0
  4  5  1  0  0  0
  4 88  1  0  0  0
  4 89  1  0  0  0
  5  6  1  0  0  0
  5 26  1  0  0  0
  5 90  1  0  0  0
  6 25  1  0  0  0
  6 91  1  0  0  0
  6 92  1  0  0  0
  7  8  2  0  0  0
  7 26  1  0  0  0
  7 29  1  0  0  0
  8  9  1  0  0  0
  8 22  1  0  0  0
  9 10  1  0  0  0
  9 27  2  0  0  0
 10 11  2  0  0  0
 10 15  1  0  0  0
 11 12  1  0  0  0
 11 93  1  0  0  0
 12 13  2  0  0  0
 12 94  1  0  0  0
 13 14  1  0  0  0
 13 31  1  0  0  0
 14 15  2  0  0  0
 14 95  1  0  0  0
 15 96  1  0  0  0
 16 17  2  0  0  0
 16 21  1  0  0  0
 16 31  1  0  0  0
 17 18  1  0  0  0
 17 97  1  0  0  0
 18 19  2  0  0  0
 18 98  1  0  0  0
 19 20  1  0  0  0
 19 24  1  0  0  0
 20 21  2  0  0  0
 20 99  1  0  0  0
 21 23  1  0  0  0
 22 28  1  0  0  0
 22 32  2  0  0  0
 26 27  1  0  0  0
 28100  1  0  0  0
 28101  1  0  0  0
 29102  1  0  0  0
 29103  1  0  0  0
 33 34  1  0  0  0
 33 66  1  0  0  0
 33 70  2  0  0  0
 34 36  1  0  0  0
 34 59  1  0  0  0
 34104  1  0  0  0
 35 44  2  0  0  0
 35 45  1  0  0  0
 35 68  1  0  0  0
 36 56  1  0  0  0
 36105  1  0  0  0
 37 39  1  0  0  0
 37 47  1  0  0  0
 37 66  1  0  0  0
 37106  1  0  0  0
 38 43  2  0  0  0
 38 46  1  0  0  0
 38 47  1  0  0  0
 39 64  1  0  0  0
 39 67  2  0  0  0
 40 52  1  0  0  0
 40 53  2  0  0  0
 40 58  1  0  0  0
 41107  1  0  0  0
 41108  1  0  0  0
 41109  1  0  0  0
 41 48  1  0  0  0
 42 43  1  0  0  0
 42 66  1  0  0  0
 42110  1  0  0  0
 42111  1  0  0  0
 43 44  1  0  0  0
 44112  1  0  0  0
 45 46  2  0  0  0
 45113  1  0  0  0
 46114  1  0  0  0
 47115  1  0  0  0
 47116  1  0  0  0
 48 56  1  0  0  0
 48 65  1  0  0  0
 48117  1  0  0  0
 49 50  1  0  0  0
 49 53  1  0  0  0
 49 64  1  0  0  0
 49118  1  0  0  0
 50 51  1  0  0  0
 50119  1  0  0  0
 50120  1  0  0  0
 51 52  1  0  0  0
 51121  1  0  0  0
 51122  1  0  0  0
 52123  1  0  0  0
 52124  1  0  0  0
 53 54  1  0  0  0
 54 55  2  0  0  0
 54125  1  0  0  0
 55 57  1  0  0  0
 55126  1  0  0  0
 56 69  2  0  0  0
 57 58  2  0  0  0
 57127  1  0  0  0
 58128  1  0  0  0
 59 60  1  0  0  0
 59 61  1  0  0  0
 59 62  1  0  0  0
 60129  1  0  0  0
 60130  1  0  0  0
 60131  1  0  0  0
 61132  1  0  0  0
 61133  1  0  0  0
 61134  1  0  0  0
 62135  1  0  0  0
 62136  1  0  0  0
 62137  1  0  0  0
 63 65  1  0  0  0
 63138  1  0  0  0
 63139  1  0  0  0
 63140  1  0  0  0
 64141  1  0  0  0
 65142  1  0  0  0
 68 81  1  0  0  0
 71 73  2  0  0  0
 71 75  1  0  0  0
 71143  1  0  0  0
 72 74  1  0  0  0
 72 75  2  0  0  0
 72144  1  0  0  0
 73 76  1  0  0  0
 73145  1  0  0  0
 74 76  2  0  0  0
 74146  1  0  0  0
 75 77  1  0  0  0
 76 83  1  0  0  0
 77 82  1  0  0  0
 77147  1  0  0  0
 77148  1  0  0  0
 78 79  1  0  0  0
 78 80  1  0  0  0
 78149  1  0  0  0
 78150  1  0  0  0
 79 81  1  0  0  0
 79151  1  0  0  0
 79152  1  0  0  0
 80 83  1  0  0  0
 80153  1  0  0  0
 80154  1  0  0  0
 81155  1  0  0  0
 81156  1  0  0  0
 82157  1  0  0  0
M  ISO  4   1 100  68 101  81 101  82 100
M  END
> <chiral flag>
0

> <version>
0

> <s_m_source_file>
/data/baiqing/PycharmProjects/Reinvent-master-3.2/result/LINK_invent/BTK/process_docking_weight1_custom_product_contain_oxygen_bond_distance_aromatic_linkinvent_7_9_3/rearranged_h_0003.sdf

> <i_m_source_file_index>
50

> <r_mmod_Potential_Energy-OPLS-2005>
-125.427665710449

> <r_mmod_Stretch_Energy-OPLS-2005>
30.2882747650146

> <r_mmod_Bend_Energy-OPLS-2005>
86.7461776733398

> <r_mmod_Torsional_Energy-OPLS-2005>
223.161834716797

> <r_mmod_Improper_Torsional_Energy-OPLS-2005>
3.34977674484253

> <r_mmod_Van_der_Waal_Energy-OPLS-2005>
153.613952636719

> <r_mmod_Electrostatic_Energy-OPLS-2005>
-422.427764892578

> <r_mmod_Solvation_Energy-OPLS-2005>
-207.903198242188

> <b_mmod_Minimization_Converged-OPLS-2005>
0

> <r_mmod_RMS_Derivative-OPLS-2005>
0.652379631996155

$$$$
50
                    3D
 Structure written by MMmdl.
158167  0  0  1  0            999 V2000
  -30.7236  -14.3842   20.5216 C   0  0  0  0  0  0
  -30.4048  -12.2429   19.4028 C   0  0  0  0  0  0
  -29.4820  -12.5015   18.1981 C   0  0  0  0  0  0
  -27.9966  -12.3905   18.6032 C   0  0  0  0  0  0
  -27.6529  -13.2041   19.8746 C   0  0  2  0  0  0
  -28.7040  -12.9846   20.9919 C   0  0  0  0  0  0
  -25.2644  -13.8145   20.5945 C   0  0  0  0  0  0
  -24.1924  -13.0504   20.9435 C   0  0  0  0  0  0
  -24.6442  -11.6946   20.8833 C   0  0  0  0  0  0
  -23.9135  -10.4321   21.0469 C   0  0  0  0  0  0
  -24.3695   -9.4217   21.9203 C   0  0  0  0  0  0
  -23.6393   -8.2269   22.0782 C   0  0  0  0  0  0
  -22.4308   -8.0330   21.3589 C   0  0  0  0  0  0
  -21.9977   -9.0356   20.4685 C   0  0  0  0  0  0
  -22.7292  -10.2232   20.3120 C   0  0  0  0  0  0
  -21.6739   -6.0816   22.5310 C   0  0  0  0  0  0
  -21.3912   -6.5698   23.8276 C   0  0  0  0  0  0
  -21.3668   -5.6815   24.9247 C   0  0  0  0  0  0
  -21.6064   -4.3087   24.7232 C   0  0  0  0  0  0
  -21.8807   -3.8193   23.4318 C   0  0  0  0  0  0
  -21.9200   -4.7069   22.3422 C   0  0  0  0  0  0
  -22.7979  -13.5325   21.1990 C   0  0  0  0  0  0
  -22.1690   -4.2327   21.0998 F   0  0  0  0  0  0
  -21.5663   -3.4545   25.7729 F   0  0  0  0  0  0
  -30.0423  -13.2231   20.4311 N   0  0  0  0  0  0
  -26.2983  -12.9286   20.3452 N   0  0  0  0  0  0
  -25.9298  -11.6430   20.5728 N   0  0  0  0  0  0
  -22.0894  -12.8578   22.1000 N   0  0  0  0  0  0
  -25.4548  -15.1827   20.4476 N   0  0  0  0  0  0
  -31.9002  -14.5211   20.1822 O   0  0  0  0  0  0
  -21.6591   -6.8967   21.4253 O   0  0  0  0  0  0
  -22.3550  -14.5416   20.6560 O   0  0  0  0  0  0
  -24.6157  -31.8698   23.2171 C   0  0  0  0  0  0
  -25.9051  -32.4846   23.8473 C   0  0  1  0  0  0
  -27.2073  -27.4209   20.1112 C   0  0  0  0  0  0
  -25.5900  -33.8628   24.2387 N   0  0  0  0  0  0
  -23.4045  -30.5012   21.5540 C   0  0  2  0  0  0
  -24.8516  -28.9854   20.1012 C   0  0  0  0  0  0
  -22.7421  -29.4683   22.4941 C   0  0  0  0  0  0
  -18.0300  -28.1373   22.8513 C   0  0  0  0  0  0
  -24.1468  -36.7303   23.2643 C   0  0  0  0  0  0
  -25.9372  -30.8323   21.3766 C   0  0  0  0  0  0
  -26.0153  -29.4745   20.7109 C   0  0  0  0  0  0
  -27.2015  -28.7008   20.7107 C   0  0  0  0  0  0
  -26.0382  -26.9753   19.4496 C   0  0  0  0  0  0
  -24.8620  -27.7361   19.4595 C   0  0  0  0  0  0
  -23.6142  -29.8499   20.1629 C   0  0  0  0  0  0
  -25.4091  -36.3113   24.0349 C   0  0  1  0  0  0
  -20.5891  -28.3676   23.1283 C   0  0  2  0  0  0
  -20.6774  -26.9399   22.5407 C   0  0  0  0  0  0
  -19.5742  -26.6375   21.5213 C   0  0  0  0  0  0
  -18.1931  -26.7917   22.1636 C   0  0  0  0  0  0
  -19.1555  -28.8840   23.2897 C   0  0  0  0  0  0
  -18.9479  -30.1445   23.8902 C   0  0  0  0  0  0
  -17.6475  -30.6578   24.0573 C   0  0  0  0  0  0
  -25.9020  -34.9471   23.5158 C   0  0  0  0  0  0
  -16.5368  -29.9074   23.6332 C   0  0  0  0  0  0
  -16.7283  -28.6493   23.0353 C   0  0  0  0  0  0
  -26.4473  -31.6627   25.0804 C   0  0  0  0  0  0
  -25.3745  -31.3743   26.1570 C   0  0  0  0  0  0
  -27.0325  -30.3066   24.6196 C   0  0  0  0  0  0
  -27.6041  -32.4363   25.7571 C   0  0  0  0  0  0
  -27.5561  -37.1813   24.8462 C   0  0  0  0  0  0
  -21.4143  -29.3048   22.3669 N   0  0  0  0  0  0
  -26.4273  -37.3799   23.9414 N   0  0  0  0  0  0
  -24.6711  -31.0793   22.1084 N   0  0  0  0  0  0
  -23.4177  -28.8194   23.2975 O   0  0  0  0  0  0
  -28.2878  -26.5655   20.2452 O   0  0  0  0  0  0
  -26.5562  -34.8913   22.4701 O   0  0  0  0  0  0
  -23.5346  -32.1439   23.7563 O   0  0  0  0  0  0
  -29.2177  -20.0824   20.8136 C   0  0  0  0  0  0
  -27.5929  -19.2994   19.1780 C   0  0  0  0  0  0
  -29.8224  -18.8057   20.8185 C   0  0  0  0  0  0
  -28.2122  -18.0380   19.1573 C   0  0  0  0  0  0
  -28.1147  -20.3501   19.9751 C   0  0  0  0  0  0
  -29.3588  -17.8031   19.9420 C   0  0  0  0  0  0
  -27.9980  -24.1138   19.7589 C   0  0  0  0  0  0
  -28.6028  -24.6658   21.9668 C   0  0  0  0  0  0
  -28.2484  -23.1667   21.8523 C   0  0  0  0  0  0
  -27.8889  -25.2604   20.7631 C   0  0  1  0  0  0
  -27.4421  -21.7208   19.8494 C   0  0  0  0  0  0
  -30.1622  -16.5444   19.7162 C   0  0  0  0  0  0
  -28.0734  -22.9356   20.4065 N   0  0  0  0  0  0
  -29.9117  -15.4345   20.6206 N   0  0  0  0  0  0
  -27.9061  -24.2704   18.5385 O   0  0  0  0  0  0
  -31.4528  -12.3079   19.0970 H   0  0  0  0  0  0
  -30.2634  -11.2334   19.7882 H   0  0  0  0  0  0
  -29.7042  -11.8095   17.3903 H   0  0  0  0  0  0
  -29.6750  -13.4953   17.7879 H   0  0  0  0  0  0
  -27.7638  -11.3394   18.7630 H   0  0  0  0  0  0
  -27.3567  -12.7185   17.7766 H   0  0  0  0  0  0
  -27.6724  -14.2539   19.5670 H   0  0  0  0  0  0
  -28.6596  -11.9688   21.3844 H   0  0  0  0  0  0
  -28.5006  -13.6480   21.8386 H   0  0  0  0  0  0
  -25.2900   -9.5847   22.4750 H   0  0  0  0  0  0
  -24.0127   -7.4740   22.7590 H   0  0  0  0  0  0
  -21.0842   -8.9050   19.8995 H   0  0  0  0  0  0
  -22.3745  -10.9837   19.6339 H   0  0  0  0  0  0
  -21.1744   -7.6169   23.9885 H   0  0  0  0  0  0
  -21.1505   -6.0503   25.9203 H   0  0  0  0  0  0
  -22.0543   -2.7703   23.2782 H   0  0  0  0  0  0
  -22.5247  -12.1282   22.6452 H   0  0  0  0  0  0
  -21.1575  -13.1700   22.3347 H   0  0  0  0  0  0
  -24.7369  -15.8813   20.6043 H   0  0  0  0  0  0
  -26.3541  -15.5574   20.2034 H   0  0  0  0  0  0
  -26.7117  -32.5547   23.1233 H   0  0  0  0  0  0
  -25.0126  -33.9826   25.0580 H   0  0  0  0  0  0
  -22.6961  -31.3221   21.4229 H   0  0  0  0  0  0
  -23.3729  -35.9637   23.3340 H   0  0  0  0  0  0
  -24.3556  -36.8873   22.2050 H   0  0  0  0  0  0
  -23.7228  -37.6517   23.6630 H   0  0  0  0  0  0
  -26.0579  -31.6058   20.6179 H   0  0  0  0  0  0
  -26.8213  -30.8749   22.0028 H   0  0  0  0  0  0
  -28.0881  -29.0610   21.2150 H   0  0  0  0  0  0
  -26.0155  -26.0157   18.9534 H   0  0  0  0  0  0
  -23.9732  -27.3619   18.9687 H   0  0  0  0  0  0
  -23.7263  -30.6348   19.4133 H   0  0  0  0  0  0
  -22.7369  -29.2762   19.8614 H   0  0  0  0  0  0
  -25.1265  -36.1990   25.0845 H   0  0  0  0  0  0
  -21.0034  -28.3259   24.1378 H   0  0  0  0  0  0
  -20.5649  -26.2301   23.3609 H   0  0  0  0  0  0
  -21.6637  -26.7398   22.1208 H   0  0  0  0  0  0
  -19.6876  -25.6283   21.1240 H   0  0  0  0  0  0
  -19.6663  -27.3189   20.6742 H   0  0  0  0  0  0
  -17.4191  -26.6711   21.4036 H   0  0  0  0  0  0
  -18.0308  -26.0051   22.9020 H   0  0  0  0  0  0
  -19.7953  -30.7278   24.2248 H   0  0  0  0  0  0
  -17.5026  -31.6256   24.5171 H   0  0  0  0  0  0
  -15.5360  -30.2970   23.7632 H   0  0  0  0  0  0
  -15.8706  -28.0802   22.7043 H   0  0  0  0  0  0
  -24.5906  -30.7094   25.7936 H   0  0  0  0  0  0
  -24.8966  -32.2909   26.5026 H   0  0  0  0  0  0
  -25.8119  -30.8926   27.0324 H   0  0  0  0  0  0
  -26.2889  -29.6830   24.1227 H   0  0  0  0  0  0
  -27.4058  -29.7304   25.4673 H   0  0  0  0  0  0
  -27.8735  -30.4393   23.9392 H   0  0  0  0  0  0
  -27.2628  -33.3622   26.2204 H   0  0  0  0  0  0
  -28.3824  -32.6989   25.0401 H   0  0  0  0  0  0
  -28.0738  -31.8472   26.5453 H   0  0  0  0  0  0
  -28.2592  -38.0100   24.7494 H   0  0  0  0  0  0
  -28.1046  -36.2625   24.6302 H   0  0  0  0  0  0
  -27.2278  -37.1480   25.8868 H   0  0  0  0  0  0
  -20.9283  -29.8811   21.6951 H   0  0  0  0  0  0
  -26.0159  -38.2867   24.1441 H   0  0  0  0  0  0
  -29.6656  -20.8513   21.4202 H   0  0  0  0  0  0
  -26.7445  -19.4661   18.5286 H   0  0  0  0  0  0
  -30.6911  -18.6225   21.4339 H   0  0  0  0  0  0
  -27.8520  -17.2716   18.4869 H   0  0  0  0  0  0
  -29.6795  -24.8158   21.8961 H   0  0  0  0  0  0
  -28.2585  -25.0822   22.9141 H   0  0  0  0  0  0
  -27.3106  -22.9452   22.3641 H   0  0  0  0  0  0
  -29.0157  -22.5581   22.3169 H   0  0  0  0  0  0
  -26.8418  -25.2696   21.0755 H   0  0  0  0  0  0
  -26.4371  -21.6482   20.2639 H   0  0  0  0  0  0
  -27.2912  -21.8689   18.7786 H   0  0  0  0  0  0
  -31.2183  -16.8237   19.7277 H   0  0  0  0  0  0
  -29.9198  -16.1634   18.7148 H   0  0  0  0  0  0
  -28.9492  -15.1750   20.7862 H   0  0  0  0  0  0
  1 25  1  0  0  0
  1 30  2  0  0  0
  1 84  1  0  0  0
  2  3  1  0  0  0
  2 25  1  0  0  0
  2 86  1  0  0  0
  2 87  1  0  0  0
  3  4  1  0  0  0
  3 88  1  0  0  0
  3 89  1  0  0  0
  4  5  1  0  0  0
  4 90  1  0  0  0
  4 91  1  0  0  0
  5  6  1  0  0  0
  5 26  1  0  0  0
  5 92  1  0  0  0
  6 25  1  0  0  0
  6 93  1  0  0  0
  6 94  1  0  0  0
  7  8  2  0  0  0
  7 26  1  0  0  0
  7 29  1  0  0  0
  8  9  1  0  0  0
  8 22  1  0  0  0
  9 10  1  0  0  0
  9 27  2  0  0  0
 10 11  2  0  0  0
 10 15  1  0  0  0
 11 12  1  0  0  0
 11 95  1  0  0  0
 12 13  2  0  0  0
 12 96  1  0  0  0
 13 14  1  0  0  0
 13 31  1  0  0  0
 14 15  2  0  0  0
 14 97  1  0  0  0
 15 98  1  0  0  0
 16 17  2  0  0  0
 16 21  1  0  0  0
 16 31  1  0  0  0
 17 18  1  0  0  0
 17 99  1  0  0  0
 18 19  2  0  0  0
 18100  1  0  0  0
 19 20  1  0  0  0
 19 24  1  0  0  0
 20 21  2  0  0  0
 20101  1  0  0  0
 21 23  1  0  0  0
 22 28  1  0  0  0
 22 32  2  0  0  0
 26 27  1  0  0  0
 28102  1  0  0  0
 28103  1  0  0  0
 29104  1  0  0  0
 29105  1  0  0  0
 33 34  1  0  0  0
 33 66  1  0  0  0
 33 70  2  0  0  0
 34 36  1  0  0  0
 34 59  1  0  0  0
 34106  1  0  0  0
 35 44  2  0  0  0
 35 45  1  0  0  0
 35 68  1  0  0  0
 36 56  1  0  0  0
 36107  1  0  0  0
 37 39  1  0  0  0
 37 47  1  0  0  0
 37 66  1  0  0  0
 37108  1  0  0  0
 38 43  2  0  0  0
 38 46  1  0  0  0
 38 47  1  0  0  0
 39 64  1  0  0  0
 39 67  2  0  0  0
 40 52  1  0  0  0
 40 53  2  0  0  0
 40 58  1  0  0  0
 41109  1  0  0  0
 41110  1  0  0  0
 41111  1  0  0  0
 41 48  1  0  0  0
 42 43  1  0  0  0
 42 66  1  0  0  0
 42112  1  0  0  0
 42113  1  0  0  0
 43 44  1  0  0  0
 44114  1  0  0  0
 45 46  2  0  0  0
 45115  1  0  0  0
 46116  1  0  0  0
 47117  1  0  0  0
 47118  1  0  0  0
 48 56  1  0  0  0
 48 65  1  0  0  0
 48119  1  0  0  0
 49 50  1  0  0  0
 49 53  1  0  0  0
 49 64  1  0  0  0
 49120  1  0  0  0
 50 51  1  0  0  0
 50121  1  0  0  0
 50122  1  0  0  0
 51 52  1  0  0  0
 51123  1  0  0  0
 51124  1  0  0  0
 52125  1  0  0  0
 52126  1  0  0  0
 53 54  1  0  0  0
 54 55  2  0  0  0
 54127  1  0  0  0
 55 57  1  0  0  0
 55128  1  0  0  0
 56 69  2  0  0  0
 57 58  2  0  0  0
 57129  1  0  0  0
 58130  1  0  0  0
 59 60  1  0  0  0
 59 61  1  0  0  0
 59 62  1  0  0  0
 60131  1  0  0  0
 60132  1  0  0  0
 60133  1  0  0  0
 61134  1  0  0  0
 61135  1  0  0  0
 61136  1  0  0  0
 62137  1  0  0  0
 62138  1  0  0  0
 62139  1  0  0  0
 63 65  1  0  0  0
 63140  1  0  0  0
 63141  1  0  0  0
 63142  1  0  0  0
 64143  1  0  0  0
 65144  1  0  0  0
 68 80  1  0  0  0
 71 73  2  0  0  0
 71 75  1  0  0  0
 71145  1  0  0  0
 72 74  1  0  0  0
 72 75  2  0  0  0
 72146  1  0  0  0
 73 76  1  0  0  0
 73147  1  0  0  0
 74 76  2  0  0  0
 74148  1  0  0  0
 75 81  1  0  0  0
 76 82  1  0  0  0
 77 80  1  0  0  0
 77 83  1  0  0  0
 77 85  2  0  0  0
 78 79  1  0  0  0
 78 80  1  0  0  0
 78149  1  0  0  0
 78150  1  0  0  0
 79 83  1  0  0  0
 79151  1  0  0  0
 79152  1  0  0  0
 80153  1  0  0  0
 81 83  1  0  0  0
 81154  1  0  0  0
 81155  1  0  0  0
 82 84  1  0  0  0
 82156  1  0  0  0
 82157  1  0  0  0
 84158  1  0  0  0
M  ISO  4   1 100  68 101  80 101  84 100
M  END
> <chiral flag>
0

> <version>
0

> <s_m_source_file>
/data/baiqing/PycharmProjects/Reinvent-master-3.2/result/LINK_invent/BTK/process_docking_weight1_custom_product_contain_oxygen_bond_distance_aromatic_linkinvent_7_9_3/rearranged_h_0003.sdf

> <i_m_source_file_index>
51

> <r_mmod_Potential_Energy-OPLS-2005>
51.3634376525879

> <r_mmod_Stretch_Energy-OPLS-2005>
37.7335891723633

> <r_mmod_Bend_Energy-OPLS-2005>
146.346038818359

> <r_mmod_Torsional_Energy-OPLS-2005>
281.632904052734

> <r_mmod_Improper_Torsional_Energy-OPLS-2005>
18.3427047729492

> <r_mmod_Van_der_Waal_Energy-OPLS-2005>
164.843383789062

> <r_mmod_Electrostatic_Energy-OPLS-2005>
-391.634643554688

> <r_mmod_Solvation_Energy-OPLS-2005>
-233.86393737793

> <b_mmod_Minimization_Converged-OPLS-2005>
0

> <r_mmod_RMS_Derivative-OPLS-2005>
10.3635654449463

$$$$
51
                    3D
 Structure written by MMmdl.
151159  0  0  1  0            999 V2000
  -30.6084  -14.6551   20.5124 C   0  0  0  0  0  0
  -30.4381  -12.4059   19.4552 C   0  0  0  0  0  0
  -29.5130  -12.5297   18.2233 C   0  0  0  0  0  0
  -28.0343  -12.3554   18.6287 C   0  0  0  0  0  0
  -27.6527  -13.2157   19.8622 C   0  0  2  0  0  0
  -28.6938  -13.0704   20.9947 C   0  0  0  0  0  0
  -25.2575  -13.8162   20.5668 C   0  0  0  0  0  0
  -24.1836  -13.0433   20.9185 C   0  0  0  0  0  0
  -24.6398  -11.6888   20.8719 C   0  0  0  0  0  0
  -23.9067  -10.4277   21.0386 C   0  0  0  0  0  0
  -24.3624   -9.4201   21.9169 C   0  0  0  0  0  0
  -23.6296   -8.2250   22.0754 C   0  0  0  0  0  0
  -22.4291   -8.0282   21.3533 C   0  0  0  0  0  0
  -21.9909   -9.0259   20.4638 C   0  0  0  0  0  0
  -22.7243  -10.2130   20.3029 C   0  0  0  0  0  0
  -21.6865   -6.0736   22.5276 C   0  0  0  0  0  0
  -21.4021   -6.5636   23.8215 C   0  0  0  0  0  0
  -21.3672   -5.6778   24.9173 C   0  0  0  0  0  0
  -21.6053   -4.3046   24.7221 C   0  0  0  0  0  0
  -21.8831   -3.8138   23.4344 C   0  0  0  0  0  0
  -21.9197   -4.6959   22.3393 C   0  0  0  0  0  0
  -22.7859  -13.5238   21.1846 C   0  0  0  0  0  0
  -22.1664   -4.2138   21.0975 F   0  0  0  0  0  0
  -21.5633   -3.4538   25.7738 F   0  0  0  0  0  0
  -30.0079  -13.4241   20.4358 N   0  0  0  0  0  0
  -26.2991  -12.9329   20.3283 N   0  0  0  0  0  0
  -25.9322  -11.6483   20.5695 N   0  0  0  0  0  0
  -22.0510  -12.8211   22.0389 N   0  0  0  0  0  0
  -25.4303  -15.1893   20.4092 N   0  0  0  0  0  0
  -31.7733  -14.8155   20.1370 O   0  0  0  0  0  0
  -21.6656   -6.8877   21.4238 O   0  0  0  0  0  0
  -22.3530  -14.5548   20.6691 O   0  0  0  0  0  0
  -24.6264  -31.8606   23.2054 C   0  0  0  0  0  0
  -25.9111  -32.4778   23.8372 C   0  0  1  0  0  0
  -27.2181  -27.3157   20.1303 C   0  0  0  0  0  0
  -25.5934  -33.8577   24.2301 N   0  0  0  0  0  0
  -23.4190  -30.4872   21.5478 C   0  0  2  0  0  0
  -24.8643  -28.9437   20.1110 C   0  0  0  0  0  0
  -22.7472  -29.4634   22.4935 C   0  0  0  0  0  0
  -18.0289  -28.1386   22.8493 C   0  0  0  0  0  0
  -24.1492  -36.7296   23.2639 C   0  0  0  0  0  0
  -25.9610  -30.7906   21.3779 C   0  0  0  0  0  0
  -26.0332  -29.4182   20.7205 C   0  0  0  0  0  0
  -27.2140  -28.6167   20.7202 C   0  0  0  0  0  0
  -26.0319  -26.9040   19.4816 C   0  0  0  0  0  0
  -24.8669  -27.6917   19.4796 C   0  0  0  0  0  0
  -23.6330  -29.8252   20.1610 C   0  0  0  0  0  0
  -25.4118  -36.3085   24.0334 C   0  0  1  0  0  0
  -20.5888  -28.3687   23.1281 C   0  0  2  0  0  0
  -20.6778  -26.9414   22.5403 C   0  0  0  0  0  0
  -19.5754  -26.6385   21.5210 C   0  0  0  0  0  0
  -18.1932  -26.7930   22.1619 C   0  0  0  0  0  0
  -19.1540  -28.8858   23.2880 C   0  0  0  0  0  0
  -18.9463  -30.1456   23.8894 C   0  0  0  0  0  0
  -17.6462  -30.6588   24.0568 C   0  0  0  0  0  0
  -25.9058  -34.9449   23.5116 C   0  0  0  0  0  0
  -16.5351  -29.9076   23.6332 C   0  0  0  0  0  0
  -16.7279  -28.6493   23.0357 C   0  0  0  0  0  0
  -26.4498  -31.6569   25.0731 C   0  0  0  0  0  0
  -25.3736  -31.3703   26.1460 C   0  0  0  0  0  0
  -27.0330  -30.2987   24.6187 C   0  0  0  0  0  0
  -27.6067  -32.4290   25.7497 C   0  0  0  0  0  0
  -27.5588  -37.1805   24.8466 C   0  0  0  0  0  0
  -21.4187  -29.3051   22.3669 N   0  0  0  0  0  0
  -26.4298  -37.3778   23.9408 N   0  0  0  0  0  0
  -24.6869  -31.0636   22.0997 N   0  0  0  0  0  0
  -23.4185  -28.8180   23.3021 O   0  0  0  0  0  0
  -28.3216  -26.4501   20.1840 O   0  0  0  0  0  0
  -26.5613  -34.8913   22.4677 O   0  0  0  0  0  0
  -23.5428  -32.1402   23.7384 O   0  0  0  0  0  0
  -28.8029  -19.4159   20.9558 C   0  0  0  0  0  0
  -31.1491  -19.2837   20.4615 C   0  0  0  0  0  0
  -28.7574  -17.9844   21.0011 C   0  0  0  0  0  0
  -31.1029  -17.8604   20.4995 C   0  0  0  0  0  0
  -30.0104  -20.1086   20.6831 C   0  0  0  0  0  0
  -29.9019  -17.1611   20.7731 C   0  0  0  0  0  0
  -29.2568  -24.0291   20.4332 C   0  0  0  0  0  0
  -30.2057  -21.6742   20.6531 C   0  0  0  0  0  0
  -28.0307  -25.0194   20.4774 C   0  0  0  0  0  0
  -29.7788  -15.6994   20.8483 N   0  0  0  0  0  0
  -29.0878  -22.6762   20.6170 N   0  0  0  0  0  0
  -30.3813  -24.4984   20.2346 O   0  0  0  0  0  0
  -31.4811  -12.5359   19.1599 H   0  0  0  0  0  0
  -30.3697  -11.4064   19.8862 H   0  0  0  0  0  0
  -29.7842  -11.7944   17.4662 H   0  0  0  0  0  0
  -29.6542  -13.5087   17.7600 H   0  0  0  0  0  0
  -27.8717  -11.2983   18.8418 H   0  0  0  0  0  0
  -27.3848  -12.5965   17.7861 H   0  0  0  0  0  0
  -27.6682  -14.2536   19.5267 H   0  0  0  0  0  0
  -28.7090  -12.0470   21.3741 H   0  0  0  0  0  0
  -28.4291  -13.6974   21.8482 H   0  0  0  0  0  0
  -25.2772   -9.5698   22.4733 H   0  0  0  0  0  0
  -24.0023   -7.4645   22.7463 H   0  0  0  0  0  0
  -21.0863   -8.8765   19.8933 H   0  0  0  0  0  0
  -22.3701  -10.9670   19.6138 H   0  0  0  0  0  0
  -21.2005   -7.6144   23.9711 H   0  0  0  0  0  0
  -21.1489   -6.0514   25.9080 H   0  0  0  0  0  0
  -22.0591   -2.7593   23.2853 H   0  0  0  0  0  0
  -22.4134  -11.9892   22.4803 H   0  0  0  0  0  0
  -21.1123  -13.1206   22.2571 H   0  0  0  0  0  0
  -24.6598  -15.8416   20.5084 H   0  0  0  0  0  0
  -26.2706  -15.6270   20.0538 H   0  0  0  0  0  0
  -26.7185  -32.5448   23.1122 H   0  0  0  0  0  0
  -25.0105  -33.9722   25.0456 H   0  0  0  0  0  0
  -22.7136  -31.3084   21.4075 H   0  0  0  0  0  0
  -23.3749  -35.9631   23.3306 H   0  0  0  0  0  0
  -24.3588  -36.8905   22.2051 H   0  0  0  0  0  0
  -23.7244  -37.6503   23.6651 H   0  0  0  0  0  0
  -26.0963  -31.5539   20.6098 H   0  0  0  0  0  0
  -26.8393  -30.8363   22.0094 H   0  0  0  0  0  0
  -28.1073  -28.9749   21.2114 H   0  0  0  0  0  0
  -25.9751  -25.9603   18.9630 H   0  0  0  0  0  0
  -23.9764  -27.3278   18.9853 H   0  0  0  0  0  0
  -23.7520  -30.6050   19.4079 H   0  0  0  0  0  0
  -22.7513  -29.2581   19.8570 H   0  0  0  0  0  0
  -25.1300  -36.1950   25.0827 H   0  0  0  0  0  0
  -20.9991  -28.3267   24.1393 H   0  0  0  0  0  0
  -20.5695  -26.2301   23.3606 H   0  0  0  0  0  0
  -21.6647  -26.7452   22.1186 H   0  0  0  0  0  0
  -19.6916  -25.6293   21.1245 H   0  0  0  0  0  0
  -19.6691  -27.3196   20.6744 H   0  0  0  0  0  0
  -17.4203  -26.6685   21.4020 H   0  0  0  0  0  0
  -18.0331  -26.0066   22.9017 H   0  0  0  0  0  0
  -19.7934  -30.7283   24.2259 H   0  0  0  0  0  0
  -17.5007  -31.6269   24.5162 H   0  0  0  0  0  0
  -15.5347  -30.2978   23.7666 H   0  0  0  0  0  0
  -15.8677  -28.0818   22.7071 H   0  0  0  0  0  0
  -24.5902  -30.7066   25.7783 H   0  0  0  0  0  0
  -24.8931  -32.2864   26.4919 H   0  0  0  0  0  0
  -25.8053  -30.8848   27.0221 H   0  0  0  0  0  0
  -26.2888  -29.6742   24.1228 H   0  0  0  0  0  0
  -27.4034  -29.7254   25.4700 H   0  0  0  0  0  0
  -27.8771  -30.4276   23.9402 H   0  0  0  0  0  0
  -27.2706  -33.3593   26.2091 H   0  0  0  0  0  0
  -28.3872  -32.6840   25.0316 H   0  0  0  0  0  0
  -28.0744  -31.8398   26.5396 H   0  0  0  0  0  0
  -28.2604  -38.0107   24.7514 H   0  0  0  0  0  0
  -28.1083  -36.2630   24.6288 H   0  0  0  0  0  0
  -27.2302  -37.1459   25.8870 H   0  0  0  0  0  0
  -20.9360  -29.8749   21.6861 H   0  0  0  0  0  0
  -26.0183  -38.2858   24.1387 H   0  0  0  0  0  0
  -27.8995  -19.9747   21.1522 H   0  0  0  0  0  0
  -32.1007  -19.7563   20.2633 H   0  0  0  0  0  0
  -27.8059  -17.5194   21.2190 H   0  0  0  0  0  0
  -32.0166  -17.3128   20.3192 H   0  0  0  0  0  0
  -30.8422  -21.8794   19.7905 H   0  0  0  0  0  0
  -30.8194  -21.9233   21.5215 H   0  0  0  0  0  0
  -27.6035  -24.9659   21.4799 H   0  0  0  0  0  0
  -27.2893  -24.5971   19.8032 H   0  0  0  0  0  0
  -28.8583  -15.3756   21.1041 H   0  0  0  0  0  0
  -28.1516  -22.3333   20.7904 H   0  0  0  0  0  0
  1 25  1  0  0  0
  1 30  2  0  0  0
  1 80  1  0  0  0
  2  3  1  0  0  0
  2 25  1  0  0  0
  2 83  1  0  0  0
  2 84  1  0  0  0
  3  4  1  0  0  0
  3 85  1  0  0  0
  3 86  1  0  0  0
  4  5  1  0  0  0
  4 87  1  0  0  0
  4 88  1  0  0  0
  5  6  1  0  0  0
  5 26  1  0  0  0
  5 89  1  0  0  0
  6 25  1  0  0  0
  6 90  1  0  0  0
  6 91  1  0  0  0
  7  8  2  0  0  0
  7 26  1  0  0  0
  7 29  1  0  0  0
  8  9  1  0  0  0
  8 22  1  0  0  0
  9 10  1  0  0  0
  9 27  2  0  0  0
 10 11  2  0  0  0
 10 15  1  0  0  0
 11 12  1  0  0  0
 11 92  1  0  0  0
 12 13  2  0  0  0
 12 93  1  0  0  0
 13 14  1  0  0  0
 13 31  1  0  0  0
 14 15  2  0  0  0
 14 94  1  0  0  0
 15 95  1  0  0  0
 16 17  2  0  0  0
 16 21  1  0  0  0
 16 31  1  0  0  0
 17 18  1  0  0  0
 17 96  1  0  0  0
 18 19  2  0  0  0
 18 97  1  0  0  0
 19 20  1  0  0  0
 19 24  1  0  0  0
 20 21  2  0  0  0
 20 98  1  0  0  0
 21 23  1  0  0  0
 22 28  1  0  0  0
 22 32  2  0  0  0
 26 27  1  0  0  0
 28 99  1  0  0  0
 28100  1  0  0  0
 29101  1  0  0  0
 29102  1  0  0  0
 33 34  1  0  0  0
 33 66  1  0  0  0
 33 70  2  0  0  0
 34 36  1  0  0  0
 34 59  1  0  0  0
 34103  1  0  0  0
 35 44  2  0  0  0
 35 45  1  0  0  0
 35 68  1  0  0  0
 36 56  1  0  0  0
 36104  1  0  0  0
 37 39  1  0  0  0
 37 47  1  0  0  0
 37 66  1  0  0  0
 37105  1  0  0  0
 38 43  2  0  0  0
 38 46  1  0  0  0
 38 47  1  0  0  0
 39 64  1  0  0  0
 39 67  2  0  0  0
 40 52  1  0  0  0
 40 53  2  0  0  0
 40 58  1  0  0  0
 41106  1  0  0  0
 41107  1  0  0  0
 41108  1  0  0  0
 41 48  1  0  0  0
 42 43  1  0  0  0
 42 66  1  0  0  0
 42109  1  0  0  0
 42110  1  0  0  0
 43 44  1  0  0  0
 44111  1  0  0  0
 45 46  2  0  0  0
 45112  1  0  0  0
 46113  1  0  0  0
 47114  1  0  0  0
 47115  1  0  0  0
 48 56  1  0  0  0
 48 65  1  0  0  0
 48116  1  0  0  0
 49 50  1  0  0  0
 49 53  1  0  0  0
 49 64  1  0  0  0
 49117  1  0  0  0
 50 51  1  0  0  0
 50118  1  0  0  0
 50119  1  0  0  0
 51 52  1  0  0  0
 51120  1  0  0  0
 51121  1  0  0  0
 52122  1  0  0  0
 52123  1  0  0  0
 53 54  1  0  0  0
 54 55  2  0  0  0
 54124  1  0  0  0
 55 57  1  0  0  0
 55125  1  0  0  0
 56 69  2  0  0  0
 57 58  2  0  0  0
 57126  1  0  0  0
 58127  1  0  0  0
 59 60  1  0  0  0
 59 61  1  0  0  0
 59 62  1  0  0  0
 60128  1  0  0  0
 60129  1  0  0  0
 60130  1  0  0  0
 61131  1  0  0  0
 61132  1  0  0  0
 61133  1  0  0  0
 62134  1  0  0  0
 62135  1  0  0  0
 62136  1  0  0  0
 63 65  1  0  0  0
 63137  1  0  0  0
 63138  1  0  0  0
 63139  1  0  0  0
 64140  1  0  0  0
 65141  1  0  0  0
 68 79  1  0  0  0
 71 73  2  0  0  0
 71 75  1  0  0  0
 71142  1  0  0  0
 72 74  1  0  0  0
 72 75  2  0  0  0
 72143  1  0  0  0
 73 76  1  0  0  0
 73144  1  0  0  0
 74 76  2  0  0  0
 74145  1  0  0  0
 75 78  1  0  0  0
 76 80  1  0  0  0
 77 79  1  0  0  0
 77 81  1  0  0  0
 77 82  2  0  0  0
 78 81  1  0  0  0
 78146  1  0  0  0
 78147  1  0  0  0
 79148  1  0  0  0
 79149  1  0  0  0
 80150  1  0  0  0
 81151  1  0  0  0
M  ISO  4   1 100  68 101  79 101  80 100
M  END
> <chiral flag>
0

> <version>
0

> <s_m_source_file>
/data/baiqing/PycharmProjects/Reinvent-master-3.2/result/LINK_invent/BTK/process_docking_weight1_custom_product_contain_oxygen_bond_distance_aromatic_linkinvent_7_9_3/rearranged_h_0003.sdf

> <i_m_source_file_index>
52

> <r_mmod_Potential_Energy-OPLS-2005>
-10.758228302002

> <r_mmod_Stretch_Energy-OPLS-2005>
80.0377807617188

> <r_mmod_Bend_Energy-OPLS-2005>
141.744247436523

> <r_mmod_Torsional_Energy-OPLS-2005>
213.916030883789

> <r_mmod_Improper_Torsional_Energy-OPLS-2005>
4.45218467712402

> <r_mmod_Van_der_Waal_Energy-OPLS-2005>
144.756072998047

> <r_mmod_Electrostatic_Energy-OPLS-2005>
-400.868408203125

> <r_mmod_Solvation_Energy-OPLS-2005>
-247.765075683594

> <b_mmod_Minimization_Converged-OPLS-2005>
0

> <r_mmod_RMS_Derivative-OPLS-2005>
2.93701672554016

$$$$
52
                    3D
 Structure written by MMmdl.
169177  0  0  1  0            999 V2000
  -30.6567  -14.5752   20.5251 C   0  0  0  0  0  0
  -30.4372  -12.3618   19.4323 C   0  0  0  0  0  0
  -29.4979  -12.4756   18.2126 C   0  0  0  0  0  0
  -28.0239  -12.3153   18.6356 C   0  0  0  0  0  0
  -27.6508  -13.2039   19.8525 C   0  0  2  0  0  0
  -28.6948  -13.0558   20.9797 C   0  0  0  0  0  0
  -25.2559  -13.8156   20.5649 C   0  0  0  0  0  0
  -24.1826  -13.0443   20.9197 C   0  0  0  0  0  0
  -24.6373  -11.6911   20.8751 C   0  0  0  0  0  0
  -23.9041  -10.4300   21.0420 C   0  0  0  0  0  0
  -24.3606   -9.4225   21.9197 C   0  0  0  0  0  0
  -23.6284   -8.2264   22.0773 C   0  0  0  0  0  0
  -22.4270   -8.0295   21.3555 C   0  0  0  0  0  0
  -21.9913   -9.0273   20.4656 C   0  0  0  0  0  0
  -22.7236  -10.2135   20.3068 C   0  0  0  0  0  0
  -21.6842   -6.0753   22.5290 C   0  0  0  0  0  0
  -21.4004   -6.5652   23.8231 C   0  0  0  0  0  0
  -21.3650   -5.6799   24.9193 C   0  0  0  0  0  0
  -21.6051   -4.3068   24.7235 C   0  0  0  0  0  0
  -21.8811   -3.8163   23.4366 C   0  0  0  0  0  0
  -21.9192   -4.6970   22.3421 C   0  0  0  0  0  0
  -22.7852  -13.5264   21.1845 C   0  0  0  0  0  0
  -22.1661   -4.2154   21.0988 F   0  0  0  0  0  0
  -21.5631   -3.4562   25.7754 F   0  0  0  0  0  0
  -30.0127  -13.3773   20.4098 N   0  0  0  0  0  0
  -26.2964  -12.9317   20.3264 N   0  0  0  0  0  0
  -25.9275  -11.6485   20.5749 N   0  0  0  0  0  0
  -22.0459  -12.8238   22.0380 N   0  0  0  0  0  0
  -25.4317  -15.1870   20.4066 N   0  0  0  0  0  0
  -31.8250  -14.7315   20.1653 O   0  0  0  0  0  0
  -21.6645   -6.8896   21.4252 O   0  0  0  0  0  0
  -22.3551  -14.5578   20.6702 O   0  0  0  0  0  0
  -24.6184  -31.8629   23.2085 C   0  0  0  0  0  0
  -25.9050  -32.4802   23.8380 C   0  0  1  0  0  0
  -27.2359  -27.3900   20.0911 C   0  0  0  0  0  0
  -25.5845  -33.8580   24.2279 N   0  0  0  0  0  0
  -23.4091  -30.4859   21.5534 C   0  0  2  0  0  0
  -24.8538  -28.9440   20.1133 C   0  0  0  0  0  0
  -22.7446  -29.4624   22.5018 C   0  0  0  0  0  0
  -18.0272  -28.1379   22.8551 C   0  0  0  0  0  0
  -24.1479  -36.7345   23.2635 C   0  0  0  0  0  0
  -25.9407  -30.8106   21.3689 C   0  0  0  0  0  0
  -26.0140  -29.4417   20.7160 C   0  0  0  0  0  0
  -27.2025  -28.6691   20.7059 C   0  0  0  0  0  0
  -26.0499  -26.9114   19.4864 C   0  0  0  0  0  0
  -24.8647  -27.6774   19.5025 C   0  0  0  0  0  0
  -23.6165  -29.8174   20.1681 C   0  0  0  0  0  0
  -25.4104  -36.3079   24.0309 C   0  0  1  0  0  0
  -20.5868  -28.3648   23.1370 C   0  0  2  0  0  0
  -20.6766  -26.9382   22.5465 C   0  0  0  0  0  0
  -19.5731  -26.6380   21.5276 C   0  0  0  0  0  0
  -18.1897  -26.7950   22.1665 C   0  0  0  0  0  0
  -19.1528  -28.8840   23.2940 C   0  0  0  0  0  0
  -18.9448  -30.1465   23.8916 C   0  0  0  0  0  0
  -17.6438  -30.6579   24.0600 C   0  0  0  0  0  0
  -25.9032  -34.9448   23.5121 C   0  0  0  0  0  0
  -16.5324  -29.9089   23.6337 C   0  0  0  0  0  0
  -16.7266  -28.6518   23.0342 C   0  0  0  0  0  0
  -26.4449  -31.6602   25.0734 C   0  0  0  0  0  0
  -25.3680  -31.3732   26.1461 C   0  0  0  0  0  0
  -27.0332  -30.3041   24.6174 C   0  0  0  0  0  0
  -27.6007  -32.4381   25.7482 C   0  0  0  0  0  0
  -27.5598  -37.1798   24.8442 C   0  0  0  0  0  0
  -21.4167  -29.2994   22.3775 N   0  0  0  0  0  0
  -26.4293  -37.3764   23.9401 N   0  0  0  0  0  0
  -24.6742  -31.0706   22.1008 N   0  0  0  0  0  0
  -23.4237  -28.8162   23.3053 O   0  0  0  0  0  0
  -28.4231  -26.6706   20.1155 O   0  0  0  0  0  0
  -26.5634  -34.8916   22.4696 O   0  0  0  0  0  0
  -23.5360  -32.1441   23.7435 O   0  0  0  0  0  0
  -32.4901  -22.2084   17.7155 C   0  0  0  0  0  0
  -32.9641  -22.2115   19.0402 C   0  0  0  0  0  0
  -31.8924  -21.0454   17.1900 C   0  0  0  0  0  0
  -32.8176  -21.0648   19.8452 C   0  0  0  0  0  0
  -31.7488  -19.8957   17.9935 C   0  0  0  0  0  0
  -32.1742  -19.9079   19.3410 C   0  0  0  0  0  0
  -29.4728  -20.4995   21.1078 C   0  0  0  0  0  0
  -29.3617  -19.2364   20.1790 C   0  0  0  0  0  0
  -30.2827  -16.9961   21.3315 C   0  0  0  0  0  0
  -28.4206  -21.6464   20.8885 C   0  0  0  0  0  0
  -28.1945  -24.1459   20.4490 C   0  0  0  0  0  0
  -28.5621  -25.3534   19.5192 C   0  0  0  0  0  0
  -31.9339  -18.7075   20.2609 C   0  0  1  0  0  0
  -30.4833  -18.1106   20.2261 C   0  0  2  0  0  0
  -29.8823  -15.6240   20.9037 N   0  0  0  0  0  0
  -28.9019  -22.8521   20.1315 N   0  3  0  0  0  0
  -32.9093  -17.7049   20.0444 O   0  0  0  0  0  0
  -31.4727  -12.4985   19.1135 H   0  0  0  0  0  0
  -30.3904  -11.3681   19.8768 H   0  0  0  0  0  0
  -29.7543  -11.7178   17.4697 H   0  0  0  0  0  0
  -29.6332  -13.4416   17.7273 H   0  0  0  0  0  0
  -27.8659  -11.2642   18.8877 H   0  0  0  0  0  0
  -27.3617  -12.5243   17.7944 H   0  0  0  0  0  0
  -27.6734  -14.2338   19.4976 H   0  0  0  0  0  0
  -28.6958  -12.0396   21.3756 H   0  0  0  0  0  0
  -28.4456  -13.7014   21.8229 H   0  0  0  0  0  0
  -25.2746   -9.5710   22.4790 H   0  0  0  0  0  0
  -23.9997   -7.4656   22.7499 H   0  0  0  0  0  0
  -21.0853   -8.8782   19.8951 H   0  0  0  0  0  0
  -22.3705  -10.9684   19.6182 H   0  0  0  0  0  0
  -21.1990   -7.6160   23.9724 H   0  0  0  0  0  0
  -21.1476   -6.0547   25.9091 H   0  0  0  0  0  0
  -22.0597   -2.7621   23.2871 H   0  0  0  0  0  0
  -22.4056  -11.9888   22.4750 H   0  0  0  0  0  0
  -21.1074  -13.1270   22.2558 H   0  0  0  0  0  0
  -24.6686  -15.8460   20.5288 H   0  0  0  0  0  0
  -26.2776  -15.6239   20.0593 H   0  0  0  0  0  0
  -26.7142  -32.5519   23.1176 H   0  0  0  0  0  0
  -24.9781  -33.9668   25.0275 H   0  0  0  0  0  0
  -22.6971  -31.3014   21.4213 H   0  0  0  0  0  0
  -23.3700  -35.9714   23.3249 H   0  0  0  0  0  0
  -24.3547  -36.9054   22.2061 H   0  0  0  0  0  0
  -23.7309  -37.6549   23.6738 H   0  0  0  0  0  0
  -26.0473  -31.5700   20.5930 H   0  0  0  0  0  0
  -26.8268  -30.8663   21.9899 H   0  0  0  0  0  0
  -28.0975  -29.0440   21.1797 H   0  0  0  0  0  0
  -26.0149  -25.9452   19.0055 H   0  0  0  0  0  0
  -23.9661  -27.2883   19.0404 H   0  0  0  0  0  0
  -23.7232  -30.5956   19.4132 H   0  0  0  0  0  0
  -22.7401  -29.2382   19.8809 H   0  0  0  0  0  0
  -25.1289  -36.1932   25.0809 H   0  0  0  0  0  0
  -20.9941  -28.3248   24.1508 H   0  0  0  0  0  0
  -20.5780  -26.2192   23.3618 H   0  0  0  0  0  0
  -21.6610  -26.7509   22.1183 H   0  0  0  0  0  0
  -19.6857  -25.6309   21.1246 H   0  0  0  0  0  0
  -19.6694  -27.3232   20.6843 H   0  0  0  0  0  0
  -17.4187  -26.6741   21.4021 H   0  0  0  0  0  0
  -18.0253  -26.0080   22.9036 H   0  0  0  0  0  0
  -19.7907  -30.7298   24.2271 H   0  0  0  0  0  0
  -17.4974  -31.6273   24.5191 H   0  0  0  0  0  0
  -15.5321  -30.2967   23.7669 H   0  0  0  0  0  0
  -15.8665  -28.0873   22.6984 H   0  0  0  0  0  0
  -24.5789  -30.7193   25.7747 H   0  0  0  0  0  0
  -24.8899  -32.2862   26.5023 H   0  0  0  0  0  0
  -25.7923  -30.8778   27.0196 H   0  0  0  0  0  0
  -26.2940  -29.6733   24.1220 H   0  0  0  0  0  0
  -27.4065  -29.7373   25.4703 H   0  0  0  0  0  0
  -27.8760  -30.4336   23.9385 H   0  0  0  0  0  0
  -27.2659  -33.3710   26.2063 H   0  0  0  0  0  0
  -28.3800  -32.6932   25.0281 H   0  0  0  0  0  0
  -28.0710  -31.8510   26.5399 H   0  0  0  0  0  0
  -28.2554  -38.0150   24.7535 H   0  0  0  0  0  0
  -28.1154  -36.2665   24.6221 H   0  0  0  0  0  0
  -27.2279  -37.1422   25.8827 H   0  0  0  0  0  0
  -20.9323  -29.8700   21.6982 H   0  0  0  0  0  0
  -26.0168  -38.2839   24.1386 H   0  0  0  0  0  0
  -32.5907  -23.0938   17.1043 H   0  0  0  0  0  0
  -33.4368  -23.0971   19.4436 H   0  0  0  0  0  0
  -31.5370  -21.0399   16.1668 H   0  0  0  0  0  0
  -33.1747  -21.0884   20.8675 H   0  0  0  0  0  0
  -31.2746  -19.0156   17.5819 H   0  0  0  0  0  0
  -30.4603  -20.9490   21.0659 H   0  0  0  0  0  0
  -29.3787  -20.1555   22.1373 H   0  0  0  0  0  0
  -29.3158  -19.6101   19.1548 H   0  0  0  0  0  0
  -28.3897  -18.7666   20.3351 H   0  0  0  0  0  0
  -29.5276  -17.3391   22.0386 H   0  0  0  0  0  0
  -31.1869  -16.8949   21.9330 H   0  0  0  0  0  0
  -28.1109  -21.9863   21.8778 H   0  0  0  0  0  0
  -27.5156  -21.2543   20.4201 H   0  0  0  0  0  0
  -27.1154  -23.9959   20.4195 H   0  0  0  0  0  0
  -28.4361  -24.4191   21.4769 H   0  0  0  0  0  0
  -28.0635  -25.2838   18.5512 H   0  0  0  0  0  0
  -29.6231  -25.2747   19.2870 H   0  0  0  0  0  0
  -32.0972  -19.0644   21.2807 H   0  0  0  0  0  0
  -30.3828  -17.5994   19.2656 H   0  0  0  0  0  0
  -28.9137  -15.3876   21.0597 H   0  0  0  0  0  0
  -28.8156  -22.6523   19.1445 H   0  0  0  0  0  0
  -29.8857  -22.9736   20.3146 H   0  0  0  0  0  0
  -32.6879  -17.2425   19.2427 H   0  0  0  0  0  0
  1 25  1  0  0  0
  1 30  2  0  0  0
  1 85  1  0  0  0
  2  3  1  0  0  0
  2 25  1  0  0  0
  2 88  1  0  0  0
  2 89  1  0  0  0
  3  4  1  0  0  0
  3 90  1  0  0  0
  3 91  1  0  0  0
  4  5  1  0  0  0
  4 92  1  0  0  0
  4 93  1  0  0  0
  5  6  1  0  0  0
  5 26  1  0  0  0
  5 94  1  0  0  0
  6 25  1  0  0  0
  6 95  1  0  0  0
  6 96  1  0  0  0
  7  8  2  0  0  0
  7 26  1  0  0  0
  7 29  1  0  0  0
  8  9  1  0  0  0
  8 22  1  0  0  0
  9 10  1  0  0  0
  9 27  2  0  0  0
 10 11  2  0  0  0
 10 15  1  0  0  0
 11 12  1  0  0  0
 11 97  1  0  0  0
 12 13  2  0  0  0
 12 98  1  0  0  0
 13 14  1  0  0  0
 13 31  1  0  0  0
 14 15  2  0  0  0
 14 99  1  0  0  0
 15100  1  0  0  0
 16 17  2  0  0  0
 16 21  1  0  0  0
 16 31  1  0  0  0
 17 18  1  0  0  0
 17101  1  0  0  0
 18 19  2  0  0  0
 18102  1  0  0  0
 19 20  1  0  0  0
 19 24  1  0  0  0
 20 21  2  0  0  0
 20103  1  0  0  0
 21 23  1  0  0  0
 22 28  1  0  0  0
 22 32  2  0  0  0
 26 27  1  0  0  0
 28104  1  0  0  0
 28105  1  0  0  0
 29106  1  0  0  0
 29107  1  0  0  0
 33 34  1  0  0  0
 33 66  1  0  0  0
 33 70  2  0  0  0
 34 36  1  0  0  0
 34 59  1  0  0  0
 34108  1  0  0  0
 35 44  2  0  0  0
 35 45  1  0  0  0
 35 68  1  0  0  0
 36 56  1  0  0  0
 36109  1  0  0  0
 37 39  1  0  0  0
 37 47  1  0  0  0
 37 66  1  0  0  0
 37110  1  0  0  0
 38 43  2  0  0  0
 38 46  1  0  0  0
 38 47  1  0  0  0
 39 64  1  0  0  0
 39 67  2  0  0  0
 40 52  1  0  0  0
 40 53  2  0  0  0
 40 58  1  0  0  0
 41111  1  0  0  0
 41112  1  0  0  0
 41113  1  0  0  0
 41 48  1  0  0  0
 42 43  1  0  0  0
 42 66  1  0  0  0
 42114  1  0  0  0
 42115  1  0  0  0
 43 44  1  0  0  0
 44116  1  0  0  0
 45 46  2  0  0  0
 45117  1  0  0  0
 46118  1  0  0  0
 47119  1  0  0  0
 47120  1  0  0  0
 48 56  1  0  0  0
 48 65  1  0  0  0
 48121  1  0  0  0
 49 50  1  0  0  0
 49 53  1  0  0  0
 49 64  1  0  0  0
 49122  1  0  0  0
 50 51  1  0  0  0
 50123  1  0  0  0
 50124  1  0  0  0
 51 52  1  0  0  0
 51125  1  0  0  0
 51126  1  0  0  0
 52127  1  0  0  0
 52128  1  0  0  0
 53 54  1  0  0  0
 54 55  2  0  0  0
 54129  1  0  0  0
 55 57  1  0  0  0
 55130  1  0  0  0
 56 69  2  0  0  0
 57 58  2  0  0  0
 57131  1  0  0  0
 58132  1  0  0  0
 59 60  1  0  0  0
 59 61  1  0  0  0
 59 62  1  0  0  0
 60133  1  0  0  0
 60134  1  0  0  0
 60135  1  0  0  0
 61136  1  0  0  0
 61137  1  0  0  0
 61138  1  0  0  0
 62139  1  0  0  0
 62140  1  0  0  0
 62141  1  0  0  0
 63 65  1  0  0  0
 63142  1  0  0  0
 63143  1  0  0  0
 63144  1  0  0  0
 64145  1  0  0  0
 65146  1  0  0  0
 68 82  1  0  0  0
 71 72  2  0  0  0
 71 73  1  0  0  0
 71147  1  0  0  0
 72 74  1  0  0  0
 72148  1  0  0  0
 73 75  2  0  0  0
 73149  1  0  0  0
 74 76  2  0  0  0
 74150  1  0  0  0
 75 76  1  0  0  0
 75151  1  0  0  0
 76 83  1  0  0  0
 77 78  1  0  0  0
 77 80  1  0  0  0
 77152  1  0  0  0
 77153  1  0  0  0
 78154  1  0  0  0
 78155  1  0  0  0
 78 84  1  0  0  0
 79 84  1  0  0  0
 79 85  1  0  0  0
 79156  1  0  0  0
 79157  1  0  0  0
 80 86  1  0  0  0
 80158  1  0  0  0
 80159  1  0  0  0
 81 82  1  0  0  0
 81 86  1  0  0  0
 81160  1  0  0  0
 81161  1  0  0  0
 82162  1  0  0  0
 82163  1  0  0  0
 83 84  1  0  0  0
 83 87  1  0  0  0
 83164  1  0  0  0
 84165  1  0  0  0
 85166  1  0  0  0
 86167  1  0  0  0
 86168  1  0  0  0
 87169  1  0  0  0
M  CHG  1  86   1
M  ISO  4   1 100  68 101  82 101  85 100
M  END
> <chiral flag>
0

> <version>
0

> <s_m_source_file>
/data/baiqing/PycharmProjects/Reinvent-master-3.2/result/LINK_invent/BTK/process_docking_weight1_custom_product_contain_oxygen_bond_distance_aromatic_linkinvent_7_9_3/rearranged_h_0003.sdf

> <i_m_source_file_index>
53

> <r_mmod_Potential_Energy-OPLS-2005>
-104.646858215332

> <r_mmod_Stretch_Energy-OPLS-2005>
58.4371528625488

> <r_mmod_Bend_Energy-OPLS-2005>
135.476608276367

> <r_mmod_Torsional_Energy-OPLS-2005>
246.243927001953

> <r_mmod_Improper_Torsional_Energy-OPLS-2005>
3.82404518127441

> <r_mmod_Van_der_Waal_Energy-OPLS-2005>
139.661514282227

> <r_mmod_Electrostatic_Energy-OPLS-2005>
-242.31103515625

> <r_mmod_Solvation_Energy-OPLS-2005>
-474.000122070312

> <b_mmod_Minimization_Converged-OPLS-2005>
0

> <r_mmod_RMS_Derivative-OPLS-2005>
4.80132961273193

$$$$
53
                    3D
 Structure written by MMmdl.
143150  0  0  1  0            999 V2000
  -30.3355  -15.5533   20.3377 C   0  0  0  0  0  0
  -30.4278  -13.0206   19.5356 C   0  0  0  0  0  0
  -29.5464  -12.6353   18.3151 C   0  0  0  0  0  0
  -28.1142  -12.2965   18.7563 C   0  0  0  0  0  0
  -27.5983  -13.2998   19.8136 C   0  0  2  0  0  0
  -28.6188  -13.6020   20.9348 C   0  0  0  0  0  0
  -25.2335  -13.8272   20.5783 C   0  0  0  0  0  0
  -24.1716  -13.0431   20.9280 C   0  0  0  0  0  0
  -24.6407  -11.6939   20.8763 C   0  0  0  0  0  0
  -23.9108  -10.4290   21.0398 C   0  0  0  0  0  0
  -24.3646   -9.4204   21.9179 C   0  0  0  0  0  0
  -23.6308   -8.2245   22.0753 C   0  0  0  0  0  0
  -22.4289   -8.0285   21.3544 C   0  0  0  0  0  0
  -21.9934   -9.0259   20.4644 C   0  0  0  0  0  0
  -22.7275  -10.2132   20.3050 C   0  0  0  0  0  0
  -21.6858   -6.0738   22.5278 C   0  0  0  0  0  0
  -21.4019   -6.5642   23.8212 C   0  0  0  0  0  0
  -21.3660   -5.6794   24.9173 C   0  0  0  0  0  0
  -21.6043   -4.3057   24.7224 C   0  0  0  0  0  0
  -21.8819   -3.8148   23.4345 C   0  0  0  0  0  0
  -21.9194   -4.6965   22.3402 C   0  0  0  0  0  0
  -22.7731  -13.5167   21.1917 C   0  0  0  0  0  0
  -22.1662   -4.2150   21.0979 F   0  0  0  0  0  0
  -21.5626   -3.4540   25.7737 F   0  0  0  0  0  0
  -29.8047  -14.1993   20.2827 N   0  0  0  0  0  0
  -26.2777  -12.9589   20.3227 N   0  0  0  0  0  0
  -25.9352  -11.6669   20.5705 N   0  0  0  0  0  0
  -22.0396  -12.8145   22.0471 N   0  0  0  0  0  0
  -25.3934  -15.2012   20.4226 N   0  0  0  0  0  0
  -31.5687  -15.5024   20.1771 O   0  0  0  0  0  0
  -21.6647   -6.8885   21.4242 O   0  0  0  0  0  0
  -22.3406  -14.5465   20.6752 O   0  0  0  0  0  0
  -24.6800  -31.8038   23.1543 C   0  0  0  0  0  0
  -25.9399  -32.4487   23.8074 C   0  0  1  0  0  0
  -27.2247  -26.7418   20.2123 C   0  0  0  0  0  0
  -25.5993  -33.8310   24.1966 N   0  0  0  0  0  0
  -23.5038  -30.4073   21.5074 C   0  0  2  0  0  0
  -24.9602  -28.7545   20.1181 C   0  0  0  0  0  0
  -22.7746  -29.4338   22.4723 C   0  0  0  0  0  0
  -18.0336  -28.1422   22.8456 C   0  0  0  0  0  0
  -24.1495  -36.7162   23.2653 C   0  0  0  0  0  0
  -26.0826  -30.5501   21.4119 C   0  0  0  0  0  0
  -26.1487  -29.1190   20.7619 C   0  0  0  0  0  0
  -27.2682  -28.1399   20.7756 C   0  0  0  0  0  0
  -26.0029  -26.5744   19.5148 C   0  0  0  0  0  0
  -24.9238  -27.5069   19.4714 C   0  0  0  0  0  0
  -23.7552  -29.7060   20.1417 C   0  0  0  0  0  0
  -25.4144  -36.2907   24.0285 C   0  0  1  0  0  0
  -20.5969  -28.3778   23.1151 C   0  0  2  0  0  0
  -20.6806  -26.9441   22.5404 C   0  0  0  0  0  0
  -19.5783  -26.6372   21.5218 C   0  0  0  0  0  0
  -18.1963  -26.7949   22.1618 C   0  0  0  0  0  0
  -19.1601  -28.8923   23.2785 C   0  0  0  0  0  0
  -18.9509  -30.1507   23.8830 C   0  0  0  0  0  0
  -17.6500  -30.6605   24.0552 C   0  0  0  0  0  0
  -25.9122  -34.9297   23.4960 C   0  0  0  0  0  0
  -16.5389  -29.9089   23.6351 C   0  0  0  0  0  0
  -16.7316  -28.6511   23.0366 C   0  0  0  0  0  0
  -26.4590  -31.6507   25.0681 C   0  0  0  0  0  0
  -25.3664  -31.3815   26.1302 C   0  0  0  0  0  0
  -27.0517  -30.2851   24.6551 C   0  0  0  0  0  0
  -27.6045  -32.4359   25.7497 C   0  0  0  0  0  0
  -27.5563  -37.1737   24.8467 C   0  0  0  0  0  0
  -21.4398  -29.3031   22.3473 N   0  0  0  0  0  0
  -26.4272  -37.3665   23.9408 N   0  0  0  0  0  0
  -24.7786  -30.9523   22.0774 N   0  0  0  0  0  0
  -23.4209  -28.7935   23.3052 O   0  0  0  0  0  0
  -28.2041  -25.5512   20.2801 O   0  0  0  0  0  0
  -26.5758  -34.8869   22.4574 O   0  0  0  0  0  0
  -23.5828  -32.1094   23.6523 O   0  0  0  0  0  0
  -28.7651  -20.2674   20.2904 C   0  0  0  0  0  0
  -29.0007  -22.1779   20.3080 C   0  0  0  0  0  0
  -29.8051  -18.6520   20.3467 C   0  0  0  0  0  0
  -28.0034  -23.8204   20.2032 C   0  0  0  0  0  0
  -29.5782  -16.9027   20.3825 N   0  0  0  0  0  0
  -31.4268  -13.2705   19.1767 H   0  0  0  0  0  0
  -30.5690  -12.1647   20.1980 H   0  0  0  0  0  0
  -29.9845  -11.7945   17.7757 H   0  0  0  0  0  0
  -29.5210  -13.4708   17.6137 H   0  0  0  0  0  0
  -28.1271  -11.2932   19.1840 H   0  0  0  0  0  0
  -27.4439  -12.2569   17.8969 H   0  0  0  0  0  0
  -27.4709  -14.2301   19.2582 H   0  0  0  0  0  0
  -28.8604  -12.7103   21.5153 H   0  0  0  0  0  0
  -28.2012  -14.3242   21.6380 H   0  0  0  0  0  0
  -25.2785   -9.5679   22.4764 H   0  0  0  0  0  0
  -24.0009   -7.4638   22.7481 H   0  0  0  0  0  0
  -21.0862   -8.8785   19.8952 H   0  0  0  0  0  0
  -22.3730  -10.9673   19.6163 H   0  0  0  0  0  0
  -21.2015   -7.6151   23.9715 H   0  0  0  0  0  0
  -21.1481   -6.0525   25.9076 H   0  0  0  0  0  0
  -22.0596   -2.7611   23.2846 H   0  0  0  0  0  0
  -22.4039  -11.9821   22.4865 H   0  0  0  0  0  0
  -21.1004  -13.1141   22.2671 H   0  0  0  0  0  0
  -24.6207  -15.8487   20.5359 H   0  0  0  0  0  0
  -26.2324  -15.6443   20.0726 H   0  0  0  0  0  0
  -26.7477  -32.4971   23.0784 H   0  0  0  0  0  0
  -25.0059  -33.9354   25.0062 H   0  0  0  0  0  0
  -22.8274  -31.2439   21.3201 H   0  0  0  0  0  0
  -23.3774  -35.9475   23.3272 H   0  0  0  0  0  0
  -24.3562  -36.8864   22.2076 H   0  0  0  0  0  0
  -23.7238  -37.6325   23.6753 H   0  0  0  0  0  0
  -26.2810  -31.2776   20.6238 H   0  0  0  0  0  0
  -26.9354  -30.6164   22.0750 H   0  0  0  0  0  0
  -28.1647  -28.4248   21.3080 H   0  0  0  0  0  0
  -25.8443  -25.6278   19.0182 H   0  0  0  0  0  0
  -24.0252  -27.2191   18.9430 H   0  0  0  0  0  0
  -23.9278  -30.4668   19.3796 H   0  0  0  0  0  0
  -22.8607  -29.1707   19.8189 H   0  0  0  0  0  0
  -25.1351  -36.1675   25.0775 H   0  0  0  0  0  0
  -21.0052  -28.3402   24.1277 H   0  0  0  0  0  0
  -20.5676  -26.2401   23.3662 H   0  0  0  0  0  0
  -21.6667  -26.7393   22.1218 H   0  0  0  0  0  0
  -19.6942  -25.6265   21.1292 H   0  0  0  0  0  0
  -19.6728  -27.3145   20.6718 H   0  0  0  0  0  0
  -17.4233  -26.6692   21.4021 H   0  0  0  0  0  0
  -18.0352  -26.0108   22.9031 H   0  0  0  0  0  0
  -19.7986  -30.7339   24.2170 H   0  0  0  0  0  0
  -17.5053  -31.6279   24.5166 H   0  0  0  0  0  0
  -15.5388  -30.2971   23.7716 H   0  0  0  0  0  0
  -15.8715  -28.0809   22.7122 H   0  0  0  0  0  0
  -24.5873  -30.7140   25.7600 H   0  0  0  0  0  0
  -24.8826  -32.3036   26.4537 H   0  0  0  0  0  0
  -25.7846  -30.9101   27.0204 H   0  0  0  0  0  0
  -26.3228  -29.6473   24.1543 H   0  0  0  0  0  0
  -27.3966  -29.7288   25.5278 H   0  0  0  0  0  0
  -27.9198  -30.3989   24.0055 H   0  0  0  0  0  0
  -27.2593  -33.3729   26.1879 H   0  0  0  0  0  0
  -28.3955  -32.6809   25.0396 H   0  0  0  0  0  0
  -28.0603  -31.8616   26.5574 H   0  0  0  0  0  0
  -28.2553  -38.0057   24.7511 H   0  0  0  0  0  0
  -28.1085  -36.2580   24.6299 H   0  0  0  0  0  0
  -27.2276  -37.1380   25.8868 H   0  0  0  0  0  0
  -20.9695  -29.8687   21.6544 H   0  0  0  0  0  0
  -26.0103  -38.2714   24.1421 H   0  0  0  0  0  0
  -28.1541  -20.1192   19.3998 H   0  0  0  0  0  0
  -28.0571  -20.1169   21.1057 H   0  0  0  0  0  0
  -29.7448  -22.3205   19.5244 H   0  0  0  0  0  0
  -29.5730  -22.3235   21.2244 H   0  0  0  0  0  0
  -30.4440  -18.8018   21.2176 H   0  0  0  0  0  0
  -30.4945  -18.7676   19.5099 H   0  0  0  0  0  0
  -27.2299  -23.6732   20.9571 H   0  0  0  0  0  0
  -27.4624  -23.7113   19.2633 H   0  0  0  0  0  0
  -28.5926  -16.6942   20.4591 H   0  0  0  0  0  0
  1 25  1  0  0  0
  1 30  2  0  0  0
  1 75  1  0  0  0
  2  3  1  0  0  0
  2 25  1  0  0  0
  2 76  1  0  0  0
  2 77  1  0  0  0
  3  4  1  0  0  0
  3 78  1  0  0  0
  3 79  1  0  0  0
  4  5  1  0  0  0
  4 80  1  0  0  0
  4 81  1  0  0  0
  5  6  1  0  0  0
  5 26  1  0  0  0
  5 82  1  0  0  0
  6 25  1  0  0  0
  6 83  1  0  0  0
  6 84  1  0  0  0
  7  8  2  0  0  0
  7 26  1  0  0  0
  7 29  1  0  0  0
  8  9  1  0  0  0
  8 22  1  0  0  0
  9 10  1  0  0  0
  9 27  2  0  0  0
 10 11  2  0  0  0
 10 15  1  0  0  0
 11 12  1  0  0  0
 11 85  1  0  0  0
 12 13  2  0  0  0
 12 86  1  0  0  0
 13 14  1  0  0  0
 13 31  1  0  0  0
 14 15  2  0  0  0
 14 87  1  0  0  0
 15 88  1  0  0  0
 16 17  2  0  0  0
 16 21  1  0  0  0
 16 31  1  0  0  0
 17 18  1  0  0  0
 17 89  1  0  0  0
 18 19  2  0  0  0
 18 90  1  0  0  0
 19 20  1  0  0  0
 19 24  1  0  0  0
 20 21  2  0  0  0
 20 91  1  0  0  0
 21 23  1  0  0  0
 22 28  1  0  0  0
 22 32  2  0  0  0
 26 27  1  0  0  0
 28 92  1  0  0  0
 28 93  1  0  0  0
 29 94  1  0  0  0
 29 95  1  0  0  0
 33 34  1  0  0  0
 33 66  1  0  0  0
 33 70  2  0  0  0
 34 36  1  0  0  0
 34 59  1  0  0  0
 34 96  1  0  0  0
 35 44  2  0  0  0
 35 45  1  0  0  0
 35 68  1  0  0  0
 36 56  1  0  0  0
 36 97  1  0  0  0
 37 39  1  0  0  0
 37 47  1  0  0  0
 37 66  1  0  0  0
 37 98  1  0  0  0
 38 43  2  0  0  0
 38 46  1  0  0  0
 38 47  1  0  0  0
 39 64  1  0  0  0
 39 67  2  0  0  0
 40 52  1  0  0  0
 40 53  2  0  0  0
 40 58  1  0  0  0
 41 99  1  0  0  0
 41100  1  0  0  0
 41101  1  0  0  0
 41 48  1  0  0  0
 42 43  1  0  0  0
 42 66  1  0  0  0
 42102  1  0  0  0
 42103  1  0  0  0
 43 44  1  0  0  0
 44104  1  0  0  0
 45 46  2  0  0  0
 45105  1  0  0  0
 46106  1  0  0  0
 47107  1  0  0  0
 47108  1  0  0  0
 48 56  1  0  0  0
 48 65  1  0  0  0
 48109  1  0  0  0
 49 50  1  0  0  0
 49 53  1  0  0  0
 49 64  1  0  0  0
 49110  1  0  0  0
 50 51  1  0  0  0
 50111  1  0  0  0
 50112  1  0  0  0
 51 52  1  0  0  0
 51113  1  0  0  0
 51114  1  0  0  0
 52115  1  0  0  0
 52116  1  0  0  0
 53 54  1  0  0  0
 54 55  2  0  0  0
 54117  1  0  0  0
 55 57  1  0  0  0
 55118  1  0  0  0
 56 69  2  0  0  0
 57 58  2  0  0  0
 57119  1  0  0  0
 58120  1  0  0  0
 59 60  1  0  0  0
 59 61  1  0  0  0
 59 62  1  0  0  0
 60121  1  0  0  0
 60122  1  0  0  0
 60123  1  0  0  0
 61124  1  0  0  0
 61125  1  0  0  0
 61126  1  0  0  0
 62127  1  0  0  0
 62128  1  0  0  0
 62129  1  0  0  0
 63 65  1  0  0  0
 63130  1  0  0  0
 63131  1  0  0  0
 63132  1  0  0  0
 64133  1  0  0  0
 65134  1  0  0  0
 68 74  1  0  0  0
 71 72  1  0  0  0
 71 73  1  0  0  0
 71135  1  0  0  0
 71136  1  0  0  0
 72 74  1  0  0  0
 72137  1  0  0  0
 72138  1  0  0  0
 73 75  1  0  0  0
 73139  1  0  0  0
 73140  1  0  0  0
 74141  1  0  0  0
 74142  1  0  0  0
 75143  1  0  0  0
M  ISO  4   1 100  68 101  74 101  75 100
M  END
> <chiral flag>
0

> <version>
0

> <s_m_source_file>
/data/baiqing/PycharmProjects/Reinvent-master-3.2/result/LINK_invent/BTK/process_docking_weight1_custom_product_contain_oxygen_bond_distance_aromatic_linkinvent_7_9_3/rearranged_h_0003.sdf

> <i_m_source_file_index>
54

> <r_mmod_Potential_Energy-OPLS-2005>
2236.59155273438

> <r_mmod_Stretch_Energy-OPLS-2005>
1088.18041992188

> <r_mmod_Bend_Energy-OPLS-2005>
600.093139648438

> <r_mmod_Torsional_Energy-OPLS-2005>
206.369812011719

> <r_mmod_Improper_Torsional_Energy-OPLS-2005>
3.66827178001404

> <r_mmod_Van_der_Waal_Energy-OPLS-2005>
110.215888977051

> <r_mmod_Electrostatic_Energy-OPLS-2005>
-352.887237548828

> <r_mmod_Solvation_Energy-OPLS-2005>
-215.827575683594

> <b_mmod_Minimization_Converged-OPLS-2005>
0

> <r_mmod_RMS_Derivative-OPLS-2005>
0.268112510442734

$$$$
54
                    3D
 Structure written by MMmdl.
153161  0  0  1  0            999 V2000
  -30.5204  -15.1125   20.3863 C   0  0  0  0  0  0
  -30.4276  -12.7026   19.5145 C   0  0  0  0  0  0
  -29.5222  -12.5423   18.2714 C   0  0  0  0  0  0
  -28.0665  -12.2929   18.7012 C   0  0  0  0  0  0
  -27.6127  -13.2639   19.8217 C   0  0  2  0  0  0
  -28.6492  -13.3998   20.9555 C   0  0  0  0  0  0
  -25.2403  -13.8243   20.5759 C   0  0  0  0  0  0
  -24.1734  -13.0443   20.9246 C   0  0  0  0  0  0
  -24.6377  -11.6935   20.8762 C   0  0  0  0  0  0
  -23.9082  -10.4296   21.0411 C   0  0  0  0  0  0
  -24.3634   -9.4208   21.9184 C   0  0  0  0  0  0
  -23.6310   -8.2242   22.0758 C   0  0  0  0  0  0
  -22.4286   -8.0287   21.3551 C   0  0  0  0  0  0
  -21.9923   -9.0264   20.4656 C   0  0  0  0  0  0
  -22.7254  -10.2138   20.3064 C   0  0  0  0  0  0
  -21.6852   -6.0745   22.5282 C   0  0  0  0  0  0
  -21.4021   -6.5646   23.8218 C   0  0  0  0  0  0
  -21.3663   -5.6797   24.9179 C   0  0  0  0  0  0
  -21.6040   -4.3057   24.7224 C   0  0  0  0  0  0
  -21.8816   -3.8155   23.4342 C   0  0  0  0  0  0
  -21.9188   -4.6974   22.3403 C   0  0  0  0  0  0
  -22.7753  -13.5205   21.1888 C   0  0  0  0  0  0
  -22.1652   -4.2162   21.0976 F   0  0  0  0  0  0
  -21.5628   -3.4541   25.7738 F   0  0  0  0  0  0
  -29.8995  -13.8477   20.3296 N   0  0  0  0  0  0
  -26.2814  -12.9494   20.3220 N   0  0  0  0  0  0
  -25.9309  -11.6610   20.5721 N   0  0  0  0  0  0
  -22.0400  -12.8201   22.0442 N   0  0  0  0  0  0
  -25.4076  -15.1980   20.4241 N   0  0  0  0  0  0
  -31.7430  -15.0798   20.1938 O   0  0  0  0  0  0
  -21.6642   -6.8891   21.4244 O   0  0  0  0  0  0
  -22.3438  -14.5505   20.6725 O   0  0  0  0  0  0
  -24.6551  -31.8332   23.1788 C   0  0  0  0  0  0
  -25.9278  -32.4632   23.8224 C   0  0  1  0  0  0
  -27.2137  -27.0193   20.1652 C   0  0  0  0  0  0
  -25.5975  -33.8443   24.2131 N   0  0  0  0  0  0
  -23.4641  -30.4501   21.5269 C   0  0  2  0  0  0
  -24.9137  -28.8538   20.1129 C   0  0  0  0  0  0
  -22.7632  -29.4496   22.4816 C   0  0  0  0  0  0
  -18.0324  -28.1396   22.8473 C   0  0  0  0  0  0
  -24.1492  -36.7223   23.2645 C   0  0  0  0  0  0
  -26.0292  -30.6686   21.3959 C   0  0  0  0  0  0
  -26.0970  -29.2688   20.7363 C   0  0  0  0  0  0
  -27.2461  -28.3713   20.7390 C   0  0  0  0  0  0
  -26.0005  -26.7327   19.5019 C   0  0  0  0  0  0
  -24.8846  -27.6028   19.4786 C   0  0  0  0  0  0
  -23.6975  -29.7732   20.1496 C   0  0  0  0  0  0
  -25.4127  -36.2991   24.0306 C   0  0  1  0  0  0
  -20.5942  -28.3739   23.1202 C   0  0  2  0  0  0
  -20.6797  -26.9426   22.5402 C   0  0  0  0  0  0
  -19.5766  -26.6368   21.5217 C   0  0  0  0  0  0
  -18.1949  -26.7930   22.1627 C   0  0  0  0  0  0
  -19.1581  -28.8887   23.2826 C   0  0  0  0  0  0
  -18.9492  -30.1482   23.8852 C   0  0  0  0  0  0
  -17.6483  -30.6587   24.0557 C   0  0  0  0  0  0
  -25.9087  -34.9372   23.5036 C   0  0  0  0  0  0
  -16.5376  -29.9074   23.6337 C   0  0  0  0  0  0
  -16.7307  -28.6497   23.0353 C   0  0  0  0  0  0
  -26.4553  -31.6546   25.0718 C   0  0  0  0  0  0
  -25.3703  -31.3779   26.1392 C   0  0  0  0  0  0
  -27.0449  -30.2922   24.6407 C   0  0  0  0  0  0
  -27.6051  -32.4353   25.7516 C   0  0  0  0  0  0
  -27.5572  -37.1760   24.8463 C   0  0  0  0  0  0
  -21.4314  -29.3048   22.3563 N   0  0  0  0  0  0
  -26.4277  -37.3717   23.9411 N   0  0  0  0  0  0
  -24.7367  -31.0085   22.0876 N   0  0  0  0  0  0
  -23.4223  -28.8051   23.3014 O   0  0  0  0  0  0
  -28.2348  -25.9620   20.2293 O   0  0  0  0  0  0
  -26.5689  -34.8898   22.4626 O   0  0  0  0  0  0
  -23.5642  -32.1267   23.6937 O   0  0  0  0  0  0
  -29.2571  -17.1752   19.3282 C   0  0  0  0  0  0
  -30.4668  -17.6014   21.2431 C   0  0  0  0  0  0
  -28.5624  -18.6720   19.4568 C   0  0  0  0  0  0
  -29.7580  -19.0943   21.3955 C   0  0  0  0  0  0
  -28.9225  -22.9323   20.2728 C   0  0  0  0  0  0
  -28.4212  -21.2519   20.2680 C   0  0  0  0  0  0
  -27.9359  -24.3808   20.1233 C   0  0  0  0  0  0
  -29.8430  -16.4096   20.5053 N   0  0  0  0  0  0
  -29.2649  -19.8423   20.1587 N   0  3  0  0  0  0
  -31.4579  -12.8644   19.1936 H   0  0  0  0  0  0
  -30.4445  -11.7854   20.1060 H   0  0  0  0  0  0
  -29.8774  -11.7219   17.6452 H   0  0  0  0  0  0
  -29.5757  -13.4422   17.6573 H   0  0  0  0  0  0
  -28.0079  -11.2665   19.0656 H   0  0  0  0  0  0
  -27.3955  -12.3517   17.8431 H   0  0  0  0  0  0
  -27.5426  -14.2397   19.3401 H   0  0  0  0  0  0
  -28.7781  -12.4601   21.4952 H   0  0  0  0  0  0
  -28.3153  -14.1382   21.6864 H   0  0  0  0  0  0
  -25.2778   -9.5690   22.4765 H   0  0  0  0  0  0
  -24.0017   -7.4638   22.7483 H   0  0  0  0  0  0
  -21.0844   -8.8795   19.8978 H   0  0  0  0  0  0
  -22.3703  -10.9688   19.6186 H   0  0  0  0  0  0
  -21.2021   -7.6159   23.9731 H   0  0  0  0  0  0
  -21.1485   -6.0523   25.9084 H   0  0  0  0  0  0
  -22.0588   -2.7619   23.2834 H   0  0  0  0  0  0
  -22.4023  -11.9891   22.4873 H   0  0  0  0  0  0
  -21.1033  -13.1261   22.2664 H   0  0  0  0  0  0
  -24.6433  -15.8519   20.5592 H   0  0  0  0  0  0
  -26.2681  -15.6455   20.1384 H   0  0  0  0  0  0
  -26.7346  -32.5193   23.0946 H   0  0  0  0  0  0
  -25.0079  -33.9535   25.0253 H   0  0  0  0  0  0
  -22.7719  -31.2789   21.3643 H   0  0  0  0  0  0
  -23.3762  -35.9544   23.3282 H   0  0  0  0  0  0
  -24.3573  -36.8894   22.2065 H   0  0  0  0  0  0
  -23.7245  -37.6404   23.6714 H   0  0  0  0  0  0
  -26.2046  -31.4169   20.6218 H   0  0  0  0  0  0
  -26.8914  -30.7166   22.0496 H   0  0  0  0  0  0
  -28.1445  -28.6875   21.2504 H   0  0  0  0  0  0
  -25.8766  -25.7780   19.0145 H   0  0  0  0  0  0
  -23.9827  -27.2771   18.9798 H   0  0  0  0  0  0
  -23.8494  -30.5455   19.3945 H   0  0  0  0  0  0
  -22.8080  -29.2264   19.8320 H   0  0  0  0  0  0
  -25.1317  -36.1796   25.0794 H   0  0  0  0  0  0
  -21.0040  -28.3343   24.1324 H   0  0  0  0  0  0
  -20.5679  -26.2359   23.3641 H   0  0  0  0  0  0
  -21.6659  -26.7403   22.1208 H   0  0  0  0  0  0
  -19.6918  -25.6268   21.1268 H   0  0  0  0  0  0
  -19.6691  -27.3162   20.6734 H   0  0  0  0  0  0
  -17.4217  -26.6689   21.4029 H   0  0  0  0  0  0
  -18.0337  -26.0079   22.9031 H   0  0  0  0  0  0
  -19.7965  -30.7317   24.2190 H   0  0  0  0  0  0
  -17.5031  -31.6258   24.5177 H   0  0  0  0  0  0
  -15.5372  -30.2957   23.7676 H   0  0  0  0  0  0
  -15.8714  -28.0799   22.7079 H   0  0  0  0  0  0
  -24.5860  -30.7161   25.7700 H   0  0  0  0  0  0
  -24.8920  -32.2982   26.4754 H   0  0  0  0  0  0
  -25.7945  -30.8970   27.0216 H   0  0  0  0  0  0
  -26.3109  -29.6597   24.1396 H   0  0  0  0  0  0
  -27.3994  -29.7279   25.5045 H   0  0  0  0  0  0
  -27.9046  -30.4123   23.9811 H   0  0  0  0  0  0
  -27.2604  -33.3668   26.2021 H   0  0  0  0  0  0
  -28.3893  -32.6900   25.0372 H   0  0  0  0  0  0
  -28.0693  -31.8538   26.5494 H   0  0  0  0  0  0
  -28.2566  -38.0078   24.7515 H   0  0  0  0  0  0
  -28.1091  -36.2604   24.6276 H   0  0  0  0  0  0
  -27.2292  -37.1392   25.8867 H   0  0  0  0  0  0
  -20.9550  -29.8753   21.6716 H   0  0  0  0  0  0
  -26.0131  -38.2777   24.1423 H   0  0  0  0  0  0
  -30.0512  -17.2476   18.5835 H   0  0  0  0  0  0
  -28.5185  -16.5152   18.8730 H   0  0  0  0  0  0
  -30.6862  -17.2514   22.2525 H   0  0  0  0  0  0
  -31.4486  -17.7614   20.7954 H   0  0  0  0  0  0
  -27.6036  -18.5359   19.9591 H   0  0  0  0  0  0
  -28.3017  -19.0056   18.4523 H   0  0  0  0  0  0
  -30.4538  -19.7553   21.9137 H   0  0  0  0  0  0
  -28.9105  -18.9920   22.0735 H   0  0  0  0  0  0
  -29.6757  -23.0164   19.4894 H   0  0  0  0  0  0
  -29.4846  -23.0587   21.1975 H   0  0  0  0  0  0
  -27.7595  -21.2012   19.4028 H   0  0  0  0  0  0
  -27.7440  -21.1214   21.1118 H   0  0  0  0  0  0
  -27.1091  -24.2281   20.8173 H   0  0  0  0  0  0
  -27.4828  -24.2714   19.1387 H   0  0  0  0  0  0
  -30.0771  -20.0492   19.5967 H   0  0  0  0  0  0
  1 25  1  0  0  0
  1 30  2  0  0  0
  1 78  1  0  0  0
  2  3  1  0  0  0
  2 25  1  0  0  0
  2 80  1  0  0  0
  2 81  1  0  0  0
  3  4  1  0  0  0
  3 82  1  0  0  0
  3 83  1  0  0  0
  4  5  1  0  0  0
  4 84  1  0  0  0
  4 85  1  0  0  0
  5  6  1  0  0  0
  5 26  1  0  0  0
  5 86  1  0  0  0
  6 25  1  0  0  0
  6 87  1  0  0  0
  6 88  1  0  0  0
  7  8  2  0  0  0
  7 26  1  0  0  0
  7 29  1  0  0  0
  8  9  1  0  0  0
  8 22  1  0  0  0
  9 10  1  0  0  0
  9 27  2  0  0  0
 10 11  2  0  0  0
 10 15  1  0  0  0
 11 12  1  0  0  0
 11 89  1  0  0  0
 12 13  2  0  0  0
 12 90  1  0  0  0
 13 14  1  0  0  0
 13 31  1  0  0  0
 14 15  2  0  0  0
 14 91  1  0  0  0
 15 92  1  0  0  0
 16 17  2  0  0  0
 16 21  1  0  0  0
 16 31  1  0  0  0
 17 18  1  0  0  0
 17 93  1  0  0  0
 18 19  2  0  0  0
 18 94  1  0  0  0
 19 20  1  0  0  0
 19 24  1  0  0  0
 20 21  2  0  0  0
 20 95  1  0  0  0
 21 23  1  0  0  0
 22 28  1  0  0  0
 22 32  2  0  0  0
 26 27  1  0  0  0
 28 96  1  0  0  0
 28 97  1  0  0  0
 29 98  1  0  0  0
 29 99  1  0  0  0
 33 34  1  0  0  0
 33 66  1  0  0  0
 33 70  2  0  0  0
 34 36  1  0  0  0
 34 59  1  0  0  0
 34100  1  0  0  0
 35 44  2  0  0  0
 35 45  1  0  0  0
 35 68  1  0  0  0
 36 56  1  0  0  0
 36101  1  0  0  0
 37 39  1  0  0  0
 37 47  1  0  0  0
 37 66  1  0  0  0
 37102  1  0  0  0
 38 43  2  0  0  0
 38 46  1  0  0  0
 38 47  1  0  0  0
 39 64  1  0  0  0
 39 67  2  0  0  0
 40 52  1  0  0  0
 40 53  2  0  0  0
 40 58  1  0  0  0
 41103  1  0  0  0
 41104  1  0  0  0
 41105  1  0  0  0
 41 48  1  0  0  0
 42 43  1  0  0  0
 42 66  1  0  0  0
 42106  1  0  0  0
 42107  1  0  0  0
 43 44  1  0  0  0
 44108  1  0  0  0
 45 46  2  0  0  0
 45109  1  0  0  0
 46110  1  0  0  0
 47111  1  0  0  0
 47112  1  0  0  0
 48 56  1  0  0  0
 48 65  1  0  0  0
 48113  1  0  0  0
 49 50  1  0  0  0
 49 53  1  0  0  0
 49 64  1  0  0  0
 49114  1  0  0  0
 50 51  1  0  0  0
 50115  1  0  0  0
 50116  1  0  0  0
 51 52  1  0  0  0
 51117  1  0  0  0
 51118  1  0  0  0
 52119  1  0  0  0
 52120  1  0  0  0
 53 54  1  0  0  0
 54 55  2  0  0  0
 54121  1  0  0  0
 55 57  1  0  0  0
 55122  1  0  0  0
 56 69  2  0  0  0
 57 58  2  0  0  0
 57123  1  0  0  0
 58124  1  0  0  0
 59 60  1  0  0  0
 59 61  1  0  0  0
 59 62  1  0  0  0
 60125  1  0  0  0
 60126  1  0  0  0
 60127  1  0  0  0
 61128  1  0  0  0
 61129  1  0  0  0
 61130  1  0  0  0
 62131  1  0  0  0
 62132  1  0  0  0
 62133  1  0  0  0
 63 65  1  0  0  0
 63134  1  0  0  0
 63135  1  0  0  0
 63136  1  0  0  0
 64137  1  0  0  0
 65138  1  0  0  0
 68 77  1  0  0  0
 71 73  1  0  0  0
 71 78  1  0  0  0
 71139  1  0  0  0
 71140  1  0  0  0
 72 74  1  0  0  0
 72 78  1  0  0  0
 72141  1  0  0  0
 72142  1  0  0  0
 73 79  1  0  0  0
 73143  1  0  0  0
 73144  1  0  0  0
 74 79  1  0  0  0
 74145  1  0  0  0
 74146  1  0  0  0
 75 76  1  0  0  0
 75 77  1  0  0  0
 75147  1  0  0  0
 75148  1  0  0  0
 76149  1  0  0  0
 76150  1  0  0  0
 76 79  1  0  0  0
 77151  1  0  0  0
 77152  1  0  0  0
 79153  1  0  0  0
M  CHG  1  79   1
M  ISO  4   1 100  68 101  77 101  78 100
M  END
> <chiral flag>
0

> <version>
0

> <s_m_source_file>
/data/baiqing/PycharmProjects/Reinvent-master-3.2/result/LINK_invent/BTK/process_docking_weight1_custom_product_contain_oxygen_bond_distance_aromatic_linkinvent_7_9_3/rearranged_h_0003.sdf

> <i_m_source_file_index>
55

> <r_mmod_Potential_Energy-OPLS-2005>
980.024353027344

> <r_mmod_Stretch_Energy-OPLS-2005>
406.484008789062

> <r_mmod_Bend_Energy-OPLS-2005>
399.727111816406

> <r_mmod_Torsional_Energy-OPLS-2005>
382.632385253906

> <r_mmod_Improper_Torsional_Energy-OPLS-2005>
7.66755390167236

> <r_mmod_Van_der_Waal_Energy-OPLS-2005>
115.77515411377

> <r_mmod_Electrostatic_Energy-OPLS-2005>
-195.852340698242

> <r_mmod_Solvation_Energy-OPLS-2005>
-457.321044921875

> <b_mmod_Minimization_Converged-OPLS-2005>
0

> <r_mmod_RMS_Derivative-OPLS-2005>
1.55493271350861

$$$$
55
                    3D
 Structure written by MMmdl.
156164  0  0  1  0            999 V2000
  -30.7640  -14.4044   20.6637 C   0  0  0  0  0  0
  -30.4119  -12.3081   19.4034 C   0  0  0  0  0  0
  -29.4823  -12.5268   18.1958 C   0  0  0  0  0  0
  -28.0106  -12.3697   18.6146 C   0  0  0  0  0  0
  -27.6616  -13.2062   19.8726 C   0  0  2  0  0  0
  -28.7007  -12.9827   20.9943 C   0  0  0  0  0  0
  -25.2564  -13.8153   20.5612 C   0  0  0  0  0  0
  -24.1829  -13.0434   20.9174 C   0  0  0  0  0  0
  -24.6390  -11.6906   20.8740 C   0  0  0  0  0  0
  -23.9067  -10.4284   21.0410 C   0  0  0  0  0  0
  -24.3611   -9.4206   21.9192 C   0  0  0  0  0  0
  -23.6281   -8.2251   22.0773 C   0  0  0  0  0  0
  -22.4266   -8.0290   21.3561 C   0  0  0  0  0  0
  -21.9903   -9.0272   20.4669 C   0  0  0  0  0  0
  -22.7241  -10.2138   20.3073 C   0  0  0  0  0  0
  -21.6853   -6.0733   22.5278 C   0  0  0  0  0  0
  -21.4015   -6.5637   23.8215 C   0  0  0  0  0  0
  -21.3663   -5.6795   24.9177 C   0  0  0  0  0  0
  -21.6044   -4.3065   24.7228 C   0  0  0  0  0  0
  -21.8819   -3.8149   23.4355 C   0  0  0  0  0  0
  -21.9193   -4.6958   22.3405 C   0  0  0  0  0  0
  -22.7852  -13.5244   21.1843 C   0  0  0  0  0  0
  -22.1659   -4.2138   21.0988 F   0  0  0  0  0  0
  -21.5622   -3.4551   25.7748 F   0  0  0  0  0  0
  -30.0422  -13.2697   20.4548 N   0  0  0  0  0  0
  -26.3018  -12.9339   20.3323 N   0  0  0  0  0  0
  -25.9317  -11.6493   20.5737 N   0  0  0  0  0  0
  -22.0483  -12.8257   22.0395 N   0  0  0  0  0  0
  -25.4198  -15.1864   20.3896 N   0  0  0  0  0  0
  -31.7948  -14.6673   20.0389 O   0  0  0  0  0  0
  -21.6651   -6.8873   21.4243 O   0  0  0  0  0  0
  -22.3551  -14.5562   20.6705 O   0  0  0  0  0  0
  -24.6159  -31.8703   23.2111 C   0  0  0  0  0  0
  -25.9056  -32.4834   23.8392 C   0  0  1  0  0  0
  -27.2319  -27.4451   20.0852 C   0  0  0  0  0  0
  -25.5923  -33.8628   24.2327 N   0  0  0  0  0  0
  -23.4009  -30.4934   21.5520 C   0  0  2  0  0  0
  -24.8462  -28.9573   20.1173 C   0  0  0  0  0  0
  -22.7419  -29.4653   22.4994 C   0  0  0  0  0  0
  -18.0293  -28.1358   22.8482 C   0  0  0  0  0  0
  -24.1490  -36.7308   23.2633 C   0  0  0  0  0  0
  -25.9310  -30.8355   21.3642 C   0  0  0  0  0  0
  -26.0096  -29.4727   20.7076 C   0  0  0  0  0  0
  -27.2089  -28.7237   20.6863 C   0  0  0  0  0  0
  -26.0552  -26.9368   19.4986 C   0  0  0  0  0  0
  -24.8622  -27.6859   19.5141 C   0  0  0  0  0  0
  -23.6082  -29.8240   20.1677 C   0  0  0  0  0  0
  -25.4111  -36.3109   24.0337 C   0  0  1  0  0  0
  -20.5869  -28.3643   23.1323 C   0  0  2  0  0  0
  -20.6802  -26.9391   22.5392 C   0  0  0  0  0  0
  -19.5750  -26.6334   21.5223 C   0  0  0  0  0  0
  -18.1936  -26.7888   22.1645 C   0  0  0  0  0  0
  -19.1534  -28.8817   23.2909 C   0  0  0  0  0  0
  -18.9451  -30.1421   23.8922 C   0  0  0  0  0  0
  -17.6446  -30.6554   24.0563 C   0  0  0  0  0  0
  -25.9046  -34.9475   23.5117 C   0  0  0  0  0  0
  -16.5339  -29.9049   23.6338 C   0  0  0  0  0  0
  -16.7277  -28.6480   23.0332 C   0  0  0  0  0  0
  -26.4495  -31.6613   25.0723 C   0  0  0  0  0  0
  -25.3751  -31.3730   26.1466 C   0  0  0  0  0  0
  -27.0335  -30.3052   24.6111 C   0  0  0  0  0  0
  -27.6069  -32.4333   25.7497 C   0  0  0  0  0  0
  -27.5586  -37.1802   24.8471 C   0  0  0  0  0  0
  -21.4153  -29.3030   22.3754 N   0  0  0  0  0  0
  -26.4308  -37.3785   23.9413 N   0  0  0  0  0  0
  -24.6668  -31.0812   22.1012 N   0  0  0  0  0  0
  -23.4200  -28.8191   23.3013 O   0  0  0  0  0  0
  -28.3786  -26.6842   20.0741 O   0  0  0  0  0  0
  -26.5586  -34.8928   22.4669 O   0  0  0  0  0  0
  -23.5356  -32.1453   23.7525 O   0  0  0  0  0  0
  -28.1708  -18.1599   21.3546 C   0  0  0  0  0  0
  -30.4409  -18.9085   21.8061 C   0  0  0  0  0  0
  -28.6141  -16.8182   21.3375 C   0  0  0  0  0  0
  -30.8826  -17.5669   21.7966 C   0  0  0  0  0  0
  -29.0760  -19.2177   21.6110 C   0  0  0  0  0  0
  -29.9707  -16.5111   21.5719 C   0  0  0  0  0  0
  -28.5622  -20.6431   21.8610 C   0  0  0  0  0  0
  -28.5983  -24.1768   20.2259 C   0  0  0  0  0  0
  -28.4510  -23.0198   21.2499 C   0  0  0  0  0  0
  -28.3171  -25.5310   20.9254 C   0  0  0  0  0  0
  -30.3986  -15.1620   21.7072 N   0  0  0  0  0  0
  -28.7790  -21.6428   20.7818 N   0  3  0  0  0  0
  -31.4569  -12.4017   19.0994 H   0  0  0  0  0  0
  -30.3062  -11.2890   19.7797 H   0  0  0  0  0  0
  -29.7208  -11.8174   17.4027 H   0  0  0  0  0  0
  -29.6444  -13.5212   17.7771 H   0  0  0  0  0  0
  -27.8291  -11.3111   18.8099 H   0  0  0  0  0  0
  -27.3553  -12.6438   17.7874 H   0  0  0  0  0  0
  -27.7106  -14.2538   19.5791 H   0  0  0  0  0  0
  -28.6620  -11.9487   21.3395 H   0  0  0  0  0  0
  -28.4502  -13.5924   21.8630 H   0  0  0  0  0  0
  -25.2750   -9.5677   22.4768 H   0  0  0  0  0  0
  -23.9992   -7.4637   22.7497 H   0  0  0  0  0  0
  -21.0832   -8.8799   19.8965 H   0  0  0  0  0  0
  -22.3709  -10.9684   19.6187 H   0  0  0  0  0  0
  -21.2006   -7.6142   23.9716 H   0  0  0  0  0  0
  -21.1485   -6.0521   25.9075 H   0  0  0  0  0  0
  -22.0591   -2.7609   23.2865 H   0  0  0  0  0  0
  -22.4079  -11.9919   22.4796 H   0  0  0  0  0  0
  -21.1106  -13.1314   22.2610 H   0  0  0  0  0  0
  -24.6401  -15.8293   20.4694 H   0  0  0  0  0  0
  -26.2484  -15.6132   19.9966 H   0  0  0  0  0  0
  -26.7108  -32.5548   23.1142 H   0  0  0  0  0  0
  -25.0145  -33.9792   25.0516 H   0  0  0  0  0  0
  -22.6875  -31.3092   21.4140 H   0  0  0  0  0  0
  -23.3755  -35.9641   23.3327 H   0  0  0  0  0  0
  -24.3582  -36.8903   22.2045 H   0  0  0  0  0  0
  -23.7256  -37.6522   23.6636 H   0  0  0  0  0  0
  -26.0452  -31.6029   20.5971 H   0  0  0  0  0  0
  -26.8200  -30.8866   21.9832 H   0  0  0  0  0  0
  -28.1094  -29.1136   21.1397 H   0  0  0  0  0  0
  -26.0648  -25.9626   19.0318 H   0  0  0  0  0  0
  -23.9640  -27.2822   19.0645 H   0  0  0  0  0  0
  -23.7163  -30.6016   19.4101 H   0  0  0  0  0  0
  -22.7315  -29.2446   19.8717 H   0  0  0  0  0  0
  -25.1281  -36.1972   25.0831 H   0  0  0  0  0  0
  -20.9954  -28.3214   24.1452 H   0  0  0  0  0  0
  -20.5795  -26.2228   23.3564 H   0  0  0  0  0  0
  -21.6647  -26.7503   22.1105 H   0  0  0  0  0  0
  -19.6938  -25.6232   21.1282 H   0  0  0  0  0  0
  -19.6690  -27.3124   20.6730 H   0  0  0  0  0  0
  -17.4192  -26.6592   21.4059 H   0  0  0  0  0  0
  -18.0373  -26.0064   22.9090 H   0  0  0  0  0  0
  -19.7938  -30.7233   24.2301 H   0  0  0  0  0  0
  -17.5008  -31.6237   24.5166 H   0  0  0  0  0  0
  -15.5347  -30.2931   23.7663 H   0  0  0  0  0  0
  -15.8679  -28.0797   22.7021 H   0  0  0  0  0  0
  -24.5902  -30.7112   25.7808 H   0  0  0  0  0  0
  -24.8965  -32.2890   26.4928 H   0  0  0  0  0  0
  -25.8083  -30.8881   27.0216 H   0  0  0  0  0  0
  -26.2881  -29.6805   24.1176 H   0  0  0  0  0  0
  -27.4128  -29.7313   25.4577 H   0  0  0  0  0  0
  -27.8712  -30.4384   23.9257 H   0  0  0  0  0  0
  -27.2672  -33.3610   26.2110 H   0  0  0  0  0  0
  -28.3859  -32.6923   25.0317 H   0  0  0  0  0  0
  -28.0758  -31.8436   26.5384 H   0  0  0  0  0  0
  -28.2588  -38.0104   24.7493 H   0  0  0  0  0  0
  -28.1071  -36.2621   24.6299 H   0  0  0  0  0  0
  -27.2297  -37.1488   25.8872 H   0  0  0  0  0  0
  -20.9303  -29.8797   21.7033 H   0  0  0  0  0  0
  -26.0196  -38.2868   24.1403 H   0  0  0  0  0  0
  -27.1146  -18.3642   21.2400 H   0  0  0  0  0  0
  -31.1511  -19.6929   22.0306 H   0  0  0  0  0  0
  -27.8923  -16.0248   21.2092 H   0  0  0  0  0  0
  -31.9244  -17.3551   21.9984 H   0  0  0  0  0  0
  -29.0444  -20.9945   22.7743 H   0  0  0  0  0  0
  -27.4970  -20.5988   22.0910 H   0  0  0  0  0  0
  -27.9039  -24.0339   19.3968 H   0  0  0  0  0  0
  -29.6038  -24.1890   19.8064 H   0  0  0  0  0  0
  -27.4252  -23.0210   21.6235 H   0  0  0  0  0  0
  -29.0883  -23.2442   22.1063 H   0  0  0  0  0  0
  -29.0567  -25.6785   21.7144 H   0  0  0  0  0  0
  -27.3571  -25.4652   21.4431 H   0  0  0  0  0  0
  -31.0952  -15.0678   22.4330 H   0  0  0  0  0  0
  -28.2014  -21.3944   19.9954 H   0  0  0  0  0  0
  -29.7421  -21.6078   20.4876 H   0  0  0  0  0  0
  1 25  1  0  0  0
  1 30  2  0  0  0
  1 81  1  0  0  0
  2  3  1  0  0  0
  2 25  1  0  0  0
  2 83  1  0  0  0
  2 84  1  0  0  0
  3  4  1  0  0  0
  3 85  1  0  0  0
  3 86  1  0  0  0
  4  5  1  0  0  0
  4 87  1  0  0  0
  4 88  1  0  0  0
  5  6  1  0  0  0
  5 26  1  0  0  0
  5 89  1  0  0  0
  6 25  1  0  0  0
  6 90  1  0  0  0
  6 91  1  0  0  0
  7  8  2  0  0  0
  7 26  1  0  0  0
  7 29  1  0  0  0
  8  9  1  0  0  0
  8 22  1  0  0  0
  9 10  1  0  0  0
  9 27  2  0  0  0
 10 11  2  0  0  0
 10 15  1  0  0  0
 11 12  1  0  0  0
 11 92  1  0  0  0
 12 13  2  0  0  0
 12 93  1  0  0  0
 13 14  1  0  0  0
 13 31  1  0  0  0
 14 15  2  0  0  0
 14 94  1  0  0  0
 15 95  1  0  0  0
 16 17  2  0  0  0
 16 21  1  0  0  0
 16 31  1  0  0  0
 17 18  1  0  0  0
 17 96  1  0  0  0
 18 19  2  0  0  0
 18 97  1  0  0  0
 19 20  1  0  0  0
 19 24  1  0  0  0
 20 21  2  0  0  0
 20 98  1  0  0  0
 21 23  1  0  0  0
 22 28  1  0  0  0
 22 32  2  0  0  0
 26 27  1  0  0  0
 28 99  1  0  0  0
 28100  1  0  0  0
 29101  1  0  0  0
 29102  1  0  0  0
 33 34  1  0  0  0
 33 66  1  0  0  0
 33 70  2  0  0  0
 34 36  1  0  0  0
 34 59  1  0  0  0
 34103  1  0  0  0
 35 44  2  0  0  0
 35 45  1  0  0  0
 35 68  1  0  0  0
 36 56  1  0  0  0
 36104  1  0  0  0
 37 39  1  0  0  0
 37 47  1  0  0  0
 37 66  1  0  0  0
 37105  1  0  0  0
 38 43  2  0  0  0
 38 46  1  0  0  0
 38 47  1  0  0  0
 39 64  1  0  0  0
 39 67  2  0  0  0
 40 52  1  0  0  0
 40 53  2  0  0  0
 40 58  1  0  0  0
 41106  1  0  0  0
 41107  1  0  0  0
 41108  1  0  0  0
 41 48  1  0  0  0
 42 43  1  0  0  0
 42 66  1  0  0  0
 42109  1  0  0  0
 42110  1  0  0  0
 43 44  1  0  0  0
 44111  1  0  0  0
 45 46  2  0  0  0
 45112  1  0  0  0
 46113  1  0  0  0
 47114  1  0  0  0
 47115  1  0  0  0
 48 56  1  0  0  0
 48 65  1  0  0  0
 48116  1  0  0  0
 49 50  1  0  0  0
 49 53  1  0  0  0
 49 64  1  0  0  0
 49117  1  0  0  0
 50 51  1  0  0  0
 50118  1  0  0  0
 50119  1  0  0  0
 51 52  1  0  0  0
 51120  1  0  0  0
 51121  1  0  0  0
 52122  1  0  0  0
 52123  1  0  0  0
 53 54  1  0  0  0
 54 55  2  0  0  0
 54124  1  0  0  0
 55 57  1  0  0  0
 55125  1  0  0  0
 56 69  2  0  0  0
 57 58  2  0  0  0
 57126  1  0  0  0
 58127  1  0  0  0
 59 60  1  0  0  0
 59 61  1  0  0  0
 59 62  1  0  0  0
 60128  1  0  0  0
 60129  1  0  0  0
 60130  1  0  0  0
 61131  1  0  0  0
 61132  1  0  0  0
 61133  1  0  0  0
 62134  1  0  0  0
 62135  1  0  0  0
 62136  1  0  0  0
 63 65  1  0  0  0
 63137  1  0  0  0
 63138  1  0  0  0
 63139  1  0  0  0
 64140  1  0  0  0
 65141  1  0  0  0
 68 80  1  0  0  0
 71 73  2  0  0  0
 71 75  1  0  0  0
 71142  1  0  0  0
 72 74  1  0  0  0
 72 75  2  0  0  0
 72143  1  0  0  0
 73 76  1  0  0  0
 73144  1  0  0  0
 74 76  2  0  0  0
 74145  1  0  0  0
 75 77  1  0  0  0
 76 81  1  0  0  0
 77 82  1  0  0  0
 77146  1  0  0  0
 77147  1  0  0  0
 78 79  1  0  0  0
 78 80  1  0  0  0
 78148  1  0  0  0
 78149  1  0  0  0
 79 82  1  0  0  0
 79150  1  0  0  0
 79151  1  0  0  0
 80152  1  0  0  0
 80153  1  0  0  0
 81154  1  0  0  0
 82155  1  0  0  0
 82156  1  0  0  0
M  CHG  1  82   1
M  ISO  4   1 100  68 101  80 101  81 100
M  END
> <chiral flag>
0

> <version>
0

> <s_m_source_file>
/data/baiqing/PycharmProjects/Reinvent-master-3.2/result/LINK_invent/BTK/process_docking_weight1_custom_product_contain_oxygen_bond_distance_aromatic_linkinvent_7_9_3/rearranged_h_0003.sdf

> <i_m_source_file_index>
56

> <r_mmod_Potential_Energy-OPLS-2005>
-196.190368652344

> <r_mmod_Stretch_Energy-OPLS-2005>
35.6467056274414

> <r_mmod_Bend_Energy-OPLS-2005>
100.445503234863

> <r_mmod_Torsional_Energy-OPLS-2005>
287.154571533203

> <r_mmod_Improper_Torsional_Energy-OPLS-2005>
9.43102264404297

> <r_mmod_Van_der_Waal_Energy-OPLS-2005>
140.592468261719

> <r_mmod_Electrostatic_Energy-OPLS-2005>
-302.904388427734

> <r_mmod_Solvation_Energy-OPLS-2005>
-475.400085449219

> <b_mmod_Minimization_Converged-OPLS-2005>
0

> <r_mmod_RMS_Derivative-OPLS-2005>
2.99270963668823

$$$$
56
                    3D
 Structure written by MMmdl.
169179  0  0  1  0            999 V2000
  -30.6890  -14.4227   20.5879 C   0  0  0  0  0  0
  -30.4149  -12.2707   19.4302 C   0  0  0  0  0  0
  -29.4957  -12.5147   18.2144 C   0  0  0  0  0  0
  -28.0130  -12.3765   18.6106 C   0  0  0  0  0  0
  -27.6633  -13.1964   19.8834 C   0  0  2  0  0  0
  -28.6960  -12.9457   21.0071 C   0  0  0  0  0  0
  -25.2593  -13.8155   20.5652 C   0  0  0  0  0  0
  -24.1849  -13.0442   20.9123 C   0  0  0  0  0  0
  -24.6385  -11.6897   20.8707 C   0  0  0  0  0  0
  -23.9033  -10.4300   21.0375 C   0  0  0  0  0  0
  -24.3610   -9.4236   21.9163 C   0  0  0  0  0  0
  -23.6301   -8.2272   22.0752 C   0  0  0  0  0  0
  -22.4275   -8.0295   21.3550 C   0  0  0  0  0  0
  -21.9891   -9.0244   20.4635 C   0  0  0  0  0  0
  -22.7200  -10.2131   20.3025 C   0  0  0  0  0  0
  -21.6869   -6.0758   22.5284 C   0  0  0  0  0  0
  -21.4046   -6.5666   23.8221 C   0  0  0  0  0  0
  -21.3659   -5.6809   24.9177 C   0  0  0  0  0  0
  -21.6037   -4.3065   24.7214 C   0  0  0  0  0  0
  -21.8822   -3.8164   23.4335 C   0  0  0  0  0  0
  -21.9204   -4.6993   22.3399 C   0  0  0  0  0  0
  -22.7873  -13.5234   21.1803 C   0  0  0  0  0  0
  -22.1654   -4.2181   21.0972 F   0  0  0  0  0  0
  -21.5607   -3.4537   25.7719 F   0  0  0  0  0  0
  -30.0370  -13.2377   20.4699 N   0  0  0  0  0  0
  -26.3025  -12.9298   20.3384 N   0  0  0  0  0  0
  -25.9316  -11.6461   20.5785 N   0  0  0  0  0  0
  -22.0538  -12.8237   22.0367 N   0  0  0  0  0  0
  -25.4291  -15.1890   20.4092 N   0  0  0  0  0  0
  -31.8133  -14.6362   20.1241 O   0  0  0  0  0  0
  -21.6660   -6.8886   21.4235 O   0  0  0  0  0  0
  -22.3565  -14.5562   20.6670 O   0  0  0  0  0  0
  -24.6142  -31.8665   23.2074 C   0  0  0  0  0  0
  -25.9034  -32.4818   23.8368 C   0  0  1  0  0  0
  -27.2532  -27.4414   20.0871 C   0  0  0  0  0  0
  -25.5889  -33.8613   24.2305 N   0  0  0  0  0  0
  -23.4004  -30.4887   21.5475 C   0  0  2  0  0  0
  -24.8477  -28.9452   20.1214 C   0  0  0  0  0  0
  -22.7388  -29.4655   22.4984 C   0  0  0  0  0  0
  -18.0272  -28.1379   22.8499 C   0  0  0  0  0  0
  -24.1484  -36.7315   23.2639 C   0  0  0  0  0  0
  -25.9254  -30.8363   21.3512 C   0  0  0  0  0  0
  -26.0051  -29.4663   20.7089 C   0  0  0  0  0  0
  -27.2055  -28.7230   20.6850 C   0  0  0  0  0  0
  -26.0703  -26.9241   19.5096 C   0  0  0  0  0  0
  -24.8746  -27.6718   19.5243 C   0  0  0  0  0  0
  -23.6078  -29.8123   20.1649 C   0  0  0  0  0  0
  -25.4105  -36.3108   24.0335 C   0  0  1  0  0  0
  -20.5852  -28.3650   23.1320 C   0  0  2  0  0  0
  -20.6739  -26.9383   22.5413 C   0  0  0  0  0  0
  -19.5725  -26.6390   21.5200 C   0  0  0  0  0  0
  -18.1910  -26.7934   22.1618 C   0  0  0  0  0  0
  -19.1519  -28.8831   23.2914 C   0  0  0  0  0  0
  -18.9453  -30.1441   23.8928 C   0  0  0  0  0  0
  -17.6456  -30.6583   24.0575 C   0  0  0  0  0  0
  -25.9032  -34.9476   23.5119 C   0  0  0  0  0  0
  -16.5346  -29.9090   23.6326 C   0  0  0  0  0  0
  -16.7262  -28.6503   23.0349 C   0  0  0  0  0  0
  -26.4459  -31.6609   25.0704 C   0  0  0  0  0  0
  -25.3724  -31.3709   26.1453 C   0  0  0  0  0  0
  -27.0275  -30.3067   24.6040 C   0  0  0  0  0  0
  -27.6052  -32.4302   25.7471 C   0  0  0  0  0  0
  -27.5576  -37.1809   24.8472 C   0  0  0  0  0  0
  -21.4119  -29.3031   22.3731 N   0  0  0  0  0  0
  -26.4292  -37.3792   23.9412 N   0  0  0  0  0  0
  -24.6654  -31.0783   22.0955 N   0  0  0  0  0  0
  -23.4175  -28.8198   23.3010 O   0  0  0  0  0  0
  -28.4770  -26.8009   20.0696 O   0  0  0  0  0  0
  -26.5602  -34.8932   22.4687 O   0  0  0  0  0  0
  -23.5338  -32.1399   23.7492 O   0  0  0  0  0  0
  -28.0563  -20.3045   19.7648 C   0  0  0  0  0  0
  -28.1634  -21.6083   20.3001 C   0  0  0  0  0  0
  -30.4789  -20.1863   19.4475 C   0  0  0  0  0  0
  -30.5630  -21.4874   19.9835 C   0  0  0  0  0  0
  -29.2000  -19.5890   19.3221 C   0  0  0  0  0  0
  -29.4370  -22.1960   20.3900 C   0  0  0  0  0  0
  -31.8005  -22.3041   20.2038 C   0  0  0  0  0  0
  -28.1165  -19.1708   16.3861 C   0  0  0  0  0  0
  -29.6188  -19.1889   16.2770 C   0  0  0  0  0  0
  -31.2107  -23.6591   20.6486 C   0  0  0  0  0  0
  -28.9389  -18.1735   17.1771 C   0  0  0  0  0  0
  -30.0306  -17.1269   19.2003 C   0  0  0  0  0  0
  -28.8185  -24.5754   21.0026 C   0  0  0  0  0  0
  -30.0817  -16.8490   20.7274 C   0  0  0  0  0  0
  -28.6389  -25.4207   19.7188 C   0  0  0  0  0  0
  -29.0184  -18.1917   18.7119 C   0  0  1  0  0  0
  -29.7721  -23.4672   20.8776 N   0  0  0  0  0  0
  -29.9136  -15.4237   21.0331 N   0  0  0  0  0  0
  -31.4608  -12.3632   19.1386 H   0  0  0  0  0  0
  -30.2983  -11.2502   19.8019 H   0  0  0  0  0  0
  -29.7379  -11.8281   17.4026 H   0  0  0  0  0  0
  -29.6697  -13.5166   17.8215 H   0  0  0  0  0  0
  -27.8043  -11.3182   18.7708 H   0  0  0  0  0  0
  -27.3738  -12.6848   17.7828 H   0  0  0  0  0  0
  -27.7155  -14.2483   19.6070 H   0  0  0  0  0  0
  -28.6536  -11.9066   21.3380 H   0  0  0  0  0  0
  -28.4564  -13.5392   21.8910 H   0  0  0  0  0  0
  -25.2761   -9.5777   22.4712 H   0  0  0  0  0  0
  -24.0043   -7.4702   22.7490 H   0  0  0  0  0  0
  -21.0814   -8.8714   19.8958 H   0  0  0  0  0  0
  -22.3610  -10.9649   19.6126 H   0  0  0  0  0  0
  -21.2059   -7.6178   23.9727 H   0  0  0  0  0  0
  -21.1467   -6.0538   25.9079 H   0  0  0  0  0  0
  -22.0600   -2.7629   23.2804 H   0  0  0  0  0  0
  -22.4163  -11.9863   22.4698 H   0  0  0  0  0  0
  -21.1178  -13.1276   22.2629 H   0  0  0  0  0  0
  -24.6558  -15.8386   20.5119 H   0  0  0  0  0  0
  -26.2874  -15.6350   20.1124 H   0  0  0  0  0  0
  -26.7111  -32.5529   23.1139 H   0  0  0  0  0  0
  -25.0056  -33.9769   25.0457 H   0  0  0  0  0  0
  -22.6896  -31.3049   21.4047 H   0  0  0  0  0  0
  -23.3740  -35.9653   23.3313 H   0  0  0  0  0  0
  -24.3581  -36.8913   22.2052 H   0  0  0  0  0  0
  -23.7239  -37.6527   23.6640 H   0  0  0  0  0  0
  -26.0220  -31.5940   20.5723 H   0  0  0  0  0  0
  -26.8198  -30.9047   21.9576 H   0  0  0  0  0  0
  -28.1056  -29.1375   21.1176 H   0  0  0  0  0  0
  -26.0452  -25.9605   19.0256 H   0  0  0  0  0  0
  -23.9836  -27.2606   19.0713 H   0  0  0  0  0  0
  -23.7107  -30.5822   19.3987 H   0  0  0  0  0  0
  -22.7329  -29.2272   19.8754 H   0  0  0  0  0  0
  -25.1276  -36.1975   25.0824 H   0  0  0  0  0  0
  -20.9966  -28.3205   24.1428 H   0  0  0  0  0  0
  -20.5609  -26.2252   23.3589 H   0  0  0  0  0  0
  -21.6609  -26.7392   22.1217 H   0  0  0  0  0  0
  -19.6874  -25.6308   21.1204 H   0  0  0  0  0  0
  -19.6679  -27.3215   20.6743 H   0  0  0  0  0  0
  -17.4167  -26.6694   21.4029 H   0  0  0  0  0  0
  -18.0321  -26.0072   22.9011 H   0  0  0  0  0  0
  -19.7933  -30.7248   24.2304 H   0  0  0  0  0  0
  -17.5015  -31.6268   24.5169 H   0  0  0  0  0  0
  -15.5349  -30.3005   23.7638 H   0  0  0  0  0  0
  -15.8660  -28.0839   22.7046 H   0  0  0  0  0  0
  -24.5940  -30.6997   25.7800 H   0  0  0  0  0  0
  -24.8858  -32.2856   26.4855 H   0  0  0  0  0  0
  -25.8084  -30.8939   27.0241 H   0  0  0  0  0  0
  -26.2797  -29.6857   24.1103 H   0  0  0  0  0  0
  -27.4091  -29.7276   25.4459 H   0  0  0  0  0  0
  -27.8604  -30.4419   23.9136 H   0  0  0  0  0  0
  -27.2717  -33.3634   26.2018 H   0  0  0  0  0  0
  -28.3893  -32.6794   25.0309 H   0  0  0  0  0  0
  -28.0672  -31.8425   26.5414 H   0  0  0  0  0  0
  -28.2606  -38.0094   24.7502 H   0  0  0  0  0  0
  -28.1052  -36.2627   24.6309 H   0  0  0  0  0  0
  -27.2296  -37.1471   25.8876 H   0  0  0  0  0  0
  -20.9257  -29.8791   21.6998 H   0  0  0  0  0  0
  -26.0186  -38.2869   24.1415 H   0  0  0  0  0  0
  -27.0764  -19.8590   19.6826 H   0  0  0  0  0  0
  -27.2783  -22.1263   20.6375 H   0  0  0  0  0  0
  -31.3703  -19.6694   19.1215 H   0  0  0  0  0  0
  -32.3993  -22.3953   19.2972 H   0  0  0  0  0  0
  -32.4109  -21.8525   20.9874 H   0  0  0  0  0  0
  -27.5597  -18.7859   15.5334 H   0  0  0  0  0  0
  -27.6405  -19.9947   16.9148 H   0  0  0  0  0  0
  -30.1305  -20.0407   16.7188 H   0  0  0  0  0  0
  -30.0532  -18.8221   15.3478 H   0  0  0  0  0  0
  -31.3534  -24.3944   19.8572 H   0  0  0  0  0  0
  -31.7087  -24.0461   21.5385 H   0  0  0  0  0  0
  -28.8874  -17.1618   16.7782 H   0  0  0  0  0  0
  -29.7842  -16.2022   18.6760 H   0  0  0  0  0  0
  -31.0351  -17.3727   18.8554 H   0  0  0  0  0  0
  -27.8525  -24.2320   21.3726 H   0  0  0  0  0  0
  -29.2164  -25.2188   21.7874 H   0  0  0  0  0  0
  -31.0266  -17.2041   21.1426 H   0  0  0  0  0  0
  -29.2949  -17.3989   21.2459 H   0  0  0  0  0  0
  -27.8821  -24.9993   19.0605 H   0  0  0  0  0  0
  -29.5553  -25.3974   19.1283 H   0  0  0  0  0  0
  -28.0417  -17.8431   19.0480 H   0  0  0  0  0  0
  -29.0200  -15.1462   21.4142 H   0  0  0  0  0  0
  1 25  1  0  0  0
  1 30  2  0  0  0
  1 88  1  0  0  0
  2  3  1  0  0  0
  2 25  1  0  0  0
  2 89  1  0  0  0
  2 90  1  0  0  0
  3  4  1  0  0  0
  3 91  1  0  0  0
  3 92  1  0  0  0
  4  5  1  0  0  0
  4 93  1  0  0  0
  4 94  1  0  0  0
  5  6  1  0  0  0
  5 26  1  0  0  0
  5 95  1  0  0  0
  6 25  1  0  0  0
  6 96  1  0  0  0
  6 97  1  0  0  0
  7  8  2  0  0  0
  7 26  1  0  0  0
  7 29  1  0  0  0
  8  9  1  0  0  0
  8 22  1  0  0  0
  9 10  1  0  0  0
  9 27  2  0  0  0
 10 11  2  0  0  0
 10 15  1  0  0  0
 11 12  1  0  0  0
 11 98  1  0  0  0
 12 13  2  0  0  0
 12 99  1  0  0  0
 13 14  1  0  0  0
 13 31  1  0  0  0
 14 15  2  0  0  0
 14100  1  0  0  0
 15101  1  0  0  0
 16 17  2  0  0  0
 16 21  1  0  0  0
 16 31  1  0  0  0
 17 18  1  0  0  0
 17102  1  0  0  0
 18 19  2  0  0  0
 18103  1  0  0  0
 19 20  1  0  0  0
 19 24  1  0  0  0
 20 21  2  0  0  0
 20104  1  0  0  0
 21 23  1  0  0  0
 22 28  1  0  0  0
 22 32  2  0  0  0
 26 27  1  0  0  0
 28105  1  0  0  0
 28106  1  0  0  0
 29107  1  0  0  0
 29108  1  0  0  0
 33 34  1  0  0  0
 33 66  1  0  0  0
 33 70  2  0  0  0
 34 36  1  0  0  0
 34 59  1  0  0  0
 34109  1  0  0  0
 35 44  2  0  0  0
 35 45  1  0  0  0
 35 68  1  0  0  0
 36 56  1  0  0  0
 36110  1  0  0  0
 37 39  1  0  0  0
 37 47  1  0  0  0
 37 66  1  0  0  0
 37111  1  0  0  0
 38 43  2  0  0  0
 38 46  1  0  0  0
 38 47  1  0  0  0
 39 64  1  0  0  0
 39 67  2  0  0  0
 40 52  1  0  0  0
 40 53  2  0  0  0
 40 58  1  0  0  0
 41112  1  0  0  0
 41113  1  0  0  0
 41114  1  0  0  0
 41 48  1  0  0  0
 42 43  1  0  0  0
 42 66  1  0  0  0
 42115  1  0  0  0
 42116  1  0  0  0
 43 44  1  0  0  0
 44117  1  0  0  0
 45 46  2  0  0  0
 45118  1  0  0  0
 46119  1  0  0  0
 47120  1  0  0  0
 47121  1  0  0  0
 48 56  1  0  0  0
 48 65  1  0  0  0
 48122  1  0  0  0
 49 50  1  0  0  0
 49 53  1  0  0  0
 49 64  1  0  0  0
 49123  1  0  0  0
 50 51  1  0  0  0
 50124  1  0  0  0
 50125  1  0  0  0
 51 52  1  0  0  0
 51126  1  0  0  0
 51127  1  0  0  0
 52128  1  0  0  0
 52129  1  0  0  0
 53 54  1  0  0  0
 54 55  2  0  0  0
 54130  1  0  0  0
 55 57  1  0  0  0
 55131  1  0  0  0
 56 69  2  0  0  0
 57 58  2  0  0  0
 57132  1  0  0  0
 58133  1  0  0  0
 59 60  1  0  0  0
 59 61  1  0  0  0
 59 62  1  0  0  0
 60134  1  0  0  0
 60135  1  0  0  0
 60136  1  0  0  0
 61137  1  0  0  0
 61138  1  0  0  0
 61139  1  0  0  0
 62140  1  0  0  0
 62141  1  0  0  0
 62142  1  0  0  0
 63 65  1  0  0  0
 63143  1  0  0  0
 63144  1  0  0  0
 63145  1  0  0  0
 64146  1  0  0  0
 65147  1  0  0  0
 68 85  1  0  0  0
 71 72  2  0  0  0
 71 75  1  0  0  0
 71148  1  0  0  0
 72 76  1  0  0  0
 72149  1  0  0  0
 73 74  1  0  0  0
 73 75  2  0  0  0
 73150  1  0  0  0
 74 76  2  0  0  0
 74 77  1  0  0  0
 75 86  1  0  0  0
 76 87  1  0  0  0
 77 80  1  0  0  0
 77151  1  0  0  0
 77152  1  0  0  0
 78 79  1  0  0  0
 78153  1  0  0  0
 78154  1  0  0  0
 78 81  1  0  0  0
 79 81  1  0  0  0
 79155  1  0  0  0
 79156  1  0  0  0
 80 87  1  0  0  0
 80157  1  0  0  0
 80158  1  0  0  0
 81 86  1  0  0  0
 81159  1  0  0  0
 82 84  1  0  0  0
 82160  1  0  0  0
 82161  1  0  0  0
 82 86  1  0  0  0
 83 85  1  0  0  0
 83 87  1  0  0  0
 83162  1  0  0  0
 83163  1  0  0  0
 84 88  1  0  0  0
 84164  1  0  0  0
 84165  1  0  0  0
 85166  1  0  0  0
 85167  1  0  0  0
 86168  1  0  0  0
 88169  1  0  0  0
M  ISO  4   1 100  68 101  85 101  88 100
M  END
> <chiral flag>
0

> <version>
0

> <s_m_source_file>
/data/baiqing/PycharmProjects/Reinvent-master-3.2/result/LINK_invent/BTK/process_docking_weight1_custom_product_contain_oxygen_bond_distance_aromatic_linkinvent_7_9_3/rearranged_h_0003.sdf

> <i_m_source_file_index>
57

> <r_mmod_Potential_Energy-OPLS-2005>
39.6651725769043

> <r_mmod_Stretch_Energy-OPLS-2005>
38.442066192627

> <r_mmod_Bend_Energy-OPLS-2005>
168.408554077148

> <r_mmod_Torsional_Energy-OPLS-2005>
257.827972412109

> <r_mmod_Improper_Torsional_Energy-OPLS-2005>
7.82697248458862

> <r_mmod_Van_der_Waal_Energy-OPLS-2005>
144.597900390625

> <r_mmod_Electrostatic_Energy-OPLS-2005>
-359.585784912109

> <r_mmod_Solvation_Energy-OPLS-2005>
-228.619369506836

> <b_mmod_Minimization_Converged-OPLS-2005>
0

> <r_mmod_RMS_Derivative-OPLS-2005>
3.10056281089783

$$$$
57
                    3D
 Structure written by MMmdl.
158167  0  0  1  0            999 V2000
  -30.6172  -14.7509   20.4374 C   0  0  0  0  0  0
  -30.4320  -12.4488   19.4939 C   0  0  0  0  0  0
  -29.5218  -12.5089   18.2470 C   0  0  0  0  0  0
  -28.0459  -12.3318   18.6525 C   0  0  0  0  0  0
  -27.6469  -13.2354   19.8503 C   0  0  2  0  0  0
  -28.6861  -13.1743   20.9936 C   0  0  0  0  0  0
  -25.2532  -13.8203   20.5677 C   0  0  0  0  0  0
  -24.1818  -13.0447   20.9185 C   0  0  0  0  0  0
  -24.6410  -11.6920   20.8715 C   0  0  0  0  0  0
  -23.9072  -10.4299   21.0395 C   0  0  0  0  0  0
  -24.3620   -9.4214   21.9170 C   0  0  0  0  0  0
  -23.6294   -8.2248   22.0737 C   0  0  0  0  0  0
  -22.4276   -8.0281   21.3528 C   0  0  0  0  0  0
  -21.9917   -9.0260   20.4640 C   0  0  0  0  0  0
  -22.7248  -10.2140   20.3048 C   0  0  0  0  0  0
  -21.6853   -6.0730   22.5280 C   0  0  0  0  0  0
  -21.4013   -6.5625   23.8215 C   0  0  0  0  0  0
  -21.3666   -5.6775   24.9171 C   0  0  0  0  0  0
  -21.6047   -4.3035   24.7223 C   0  0  0  0  0  0
  -21.8819   -3.8133   23.4335 C   0  0  0  0  0  0
  -21.9196   -4.6956   22.3397 C   0  0  0  0  0  0
  -22.7836  -13.5235   21.1837 C   0  0  0  0  0  0
  -22.1668   -4.2145   21.0969 F   0  0  0  0  0  0
  -21.5645   -3.4522   25.7735 F   0  0  0  0  0  0
  -29.9966  -13.5190   20.4247 N   0  0  0  0  0  0
  -26.2963  -12.9422   20.3242 N   0  0  0  0  0  0
  -25.9344  -11.6562   20.5705 N   0  0  0  0  0  0
  -22.0453  -12.8238   22.0386 N   0  0  0  0  0  0
  -25.4211  -15.1928   20.4118 N   0  0  0  0  0  0
  -31.7897  -14.8414   20.0585 O   0  0  0  0  0  0
  -21.6624   -6.8881   21.4246 O   0  0  0  0  0  0
  -22.3513  -14.5534   20.6676 O   0  0  0  0  0  0
  -24.6298  -31.8546   23.1979 C   0  0  0  0  0  0
  -25.9116  -32.4771   23.8306 C   0  0  1  0  0  0
  -27.2269  -27.2572   20.1307 C   0  0  0  0  0  0
  -25.5910  -33.8561   24.2255 N   0  0  0  0  0  0
  -23.4285  -30.4776   21.5399 C   0  0  2  0  0  0
  -24.8773  -28.9207   20.1103 C   0  0  0  0  0  0
  -22.7515  -29.4615   22.4923 C   0  0  0  0  0  0
  -18.0303  -28.1372   22.8530 C   0  0  0  0  0  0
  -24.1480  -36.7261   23.2642 C   0  0  0  0  0  0
  -25.9739  -30.7663   21.3802 C   0  0  0  0  0  0
  -26.0480  -29.3882   20.7215 C   0  0  0  0  0  0
  -27.2206  -28.5669   20.7235 C   0  0  0  0  0  0
  -26.0362  -26.8646   19.4780 C   0  0  0  0  0  0
  -24.8774  -27.6670   19.4784 C   0  0  0  0  0  0
  -23.6483  -29.8096   20.1567 C   0  0  0  0  0  0
  -25.4109  -36.3085   24.0352 C   0  0  1  0  0  0
  -20.5917  -28.3676   23.1302 C   0  0  2  0  0  0
  -20.6784  -26.9390   22.5434 C   0  0  0  0  0  0
  -19.5741  -26.6383   21.5241 C   0  0  0  0  0  0
  -18.1930  -26.7930   22.1650 C   0  0  0  0  0  0
  -19.1558  -28.8837   23.2920 C   0  0  0  0  0  0
  -18.9473  -30.1449   23.8924 C   0  0  0  0  0  0
  -17.6469  -30.6588   24.0560 C   0  0  0  0  0  0
  -25.9053  -34.9456   23.5118 C   0  0  0  0  0  0
  -16.5362  -29.9089   23.6326 C   0  0  0  0  0  0
  -16.7292  -28.6487   23.0395 C   0  0  0  0  0  0
  -26.4461  -31.6604   25.0699 C   0  0  0  0  0  0
  -25.3716  -31.3773   26.1467 C   0  0  0  0  0  0
  -27.0263  -30.3022   24.6156 C   0  0  0  0  0  0
  -27.6002  -32.4366   25.7458 C   0  0  0  0  0  0
  -27.5589  -37.1792   24.8467 C   0  0  0  0  0  0
  -21.4216  -29.3033   22.3675 N   0  0  0  0  0  0
  -26.4274  -37.3796   23.9446 N   0  0  0  0  0  0
  -24.6956  -31.0523   22.0946 N   0  0  0  0  0  0
  -23.4230  -28.8179   23.3018 O   0  0  0  0  0  0
  -28.3301  -26.3708   20.2113 O   0  0  0  0  0  0
  -26.5615  -34.8923   22.4684 O   0  0  0  0  0  0
  -23.5459  -32.1333   23.7319 O   0  0  0  0  0  0
  -29.9450  -18.4367   17.9199 C   0  0  0  0  0  0
  -29.6041  -19.6582   18.5339 C   0  0  0  0  0  0
  -30.0917  -17.2522   18.6646 C   0  0  0  0  0  0
  -29.5601  -18.5143   20.6759 C   0  0  0  0  0  0
  -29.4389  -19.7720   19.9336 C   0  0  0  0  0  0
  -29.8860  -17.2262   20.0628 C   0  0  0  0  0  0
  -29.0071  -21.1527   20.5549 C   0  0  0  0  0  0
  -31.2353  -23.8737   19.4549 C   0  0  0  0  0  0
  -30.5748  -24.3604   20.7333 C   0  0  0  0  0  0
  -30.5631  -22.5300   19.1603 C   0  0  0  0  0  0
  -29.1518  -23.8039   20.6449 C   0  0  1  0  0  0
  -28.2019  -24.8967   19.9022 C   0  0  0  0  0  0
  -29.3853  -22.4040   20.0384 N   0  0  0  0  0  0
  -29.8878  -15.8976   20.7388 N   0  0  0  0  0  0
  -28.2996  -21.0996   21.5650 O   0  0  0  0  0  0
  -31.4801  -12.5498   19.2057 H   0  0  0  0  0  0
  -30.3543  -11.4725   19.9758 H   0  0  0  0  0  0
  -29.8128  -11.7403   17.5301 H   0  0  0  0  0  0
  -29.6548  -13.4648   17.7370 H   0  0  0  0  0  0
  -27.9043  -11.2840   18.9207 H   0  0  0  0  0  0
  -27.3932  -12.5200   17.7990 H   0  0  0  0  0  0
  -27.6436  -14.2556   19.4640 H   0  0  0  0  0  0
  -28.7161  -12.1813   21.4447 H   0  0  0  0  0  0
  -28.4118  -13.8647   21.7929 H   0  0  0  0  0  0
  -25.2771   -9.5704   22.4733 H   0  0  0  0  0  0
  -24.0017   -7.4642   22.7457 H   0  0  0  0  0  0
  -21.0844   -8.8798   19.8944 H   0  0  0  0  0  0
  -22.3714  -10.9682   19.6151 H   0  0  0  0  0  0
  -21.1987   -7.6133   23.9730 H   0  0  0  0  0  0
  -21.1497   -6.0482   25.9081 H   0  0  0  0  0  0
  -22.0590   -2.7600   23.2822 H   0  0  0  0  0  0
  -22.4065  -11.9926   22.4831 H   0  0  0  0  0  0
  -21.1074  -13.1293   22.2565 H   0  0  0  0  0  0
  -24.6479  -15.8411   20.5141 H   0  0  0  0  0  0
  -26.2710  -15.6396   20.0914 H   0  0  0  0  0  0
  -26.7192  -32.5428   23.1046 H   0  0  0  0  0  0
  -25.0063  -33.9672   25.0414 H   0  0  0  0  0  0
  -22.7262  -31.3014   21.3973 H   0  0  0  0  0  0
  -23.3774  -35.9557   23.3279 H   0  0  0  0  0  0
  -24.3590  -36.8898   22.2062 H   0  0  0  0  0  0
  -23.7184  -37.6439   23.6656 H   0  0  0  0  0  0
  -26.1221  -31.5314   20.6170 H   0  0  0  0  0  0
  -26.8469  -30.8096   22.0181 H   0  0  0  0  0  0
  -28.1107  -28.9187   21.2268 H   0  0  0  0  0  0
  -25.9708  -25.9135   18.9719 H   0  0  0  0  0  0
  -23.9855  -27.3045   18.9864 H   0  0  0  0  0  0
  -23.7760  -30.5834   19.3986 H   0  0  0  0  0  0
  -22.7647  -29.2467   19.8512 H   0  0  0  0  0  0
  -25.1309  -36.1905   25.0847 H   0  0  0  0  0  0
  -21.0025  -28.3227   24.1417 H   0  0  0  0  0  0
  -20.5688  -26.2271   23.3639 H   0  0  0  0  0  0
  -21.6654  -26.7426   22.1221 H   0  0  0  0  0  0
  -19.6878  -25.6303   21.1252 H   0  0  0  0  0  0
  -19.6660  -27.3207   20.6780 H   0  0  0  0  0  0
  -17.4217  -26.6728   21.4029 H   0  0  0  0  0  0
  -18.0280  -26.0056   22.9019 H   0  0  0  0  0  0
  -19.7948  -30.7263   24.2304 H   0  0  0  0  0  0
  -17.5028  -31.6279   24.5149 H   0  0  0  0  0  0
  -15.5367  -30.2998   23.7626 H   0  0  0  0  0  0
  -15.8699  -28.0798   22.7127 H   0  0  0  0  0  0
  -24.5833  -30.7162   25.7841 H   0  0  0  0  0  0
  -24.8953  -32.2949   26.4936 H   0  0  0  0  0  0
  -25.8082  -30.8928   27.0217 H   0  0  0  0  0  0
  -26.2788  -29.6837   24.1162 H   0  0  0  0  0  0
  -27.3927  -29.7234   25.4643 H   0  0  0  0  0  0
  -27.8710  -30.4307   23.9382 H   0  0  0  0  0  0
  -27.2567  -33.3676   26.1987 H   0  0  0  0  0  0
  -28.3801  -32.6942   25.0275 H   0  0  0  0  0  0
  -28.0649  -31.8523   26.5410 H   0  0  0  0  0  0
  -28.2616  -38.0084   24.7600 H   0  0  0  0  0  0
  -28.1099  -36.2653   24.6216 H   0  0  0  0  0  0
  -27.2342  -37.1370   25.8870 H   0  0  0  0  0  0
  -20.9371  -29.8745   21.6895 H   0  0  0  0  0  0
  -26.0164  -38.2872   24.1461 H   0  0  0  0  0  0
  -30.0704  -18.4039   16.8456 H   0  0  0  0  0  0
  -29.4491  -20.5117   17.8923 H   0  0  0  0  0  0
  -30.3189  -16.3421   18.1263 H   0  0  0  0  0  0
  -29.3782  -18.5439   21.7412 H   0  0  0  0  0  0
  -32.3199  -23.7849   19.5519 H   0  0  0  0  0  0
  -31.0408  -24.5790   18.6447 H   0  0  0  0  0  0
  -30.6201  -25.4434   20.8523 H   0  0  0  0  0  0
  -31.0830  -23.9192   21.5929 H   0  0  0  0  0  0
  -31.2808  -21.7274   19.3391 H   0  0  0  0  0  0
  -30.2730  -22.4953   18.1103 H   0  0  0  0  0  0
  -28.7765  -23.6905   21.6629 H   0  0  0  0  0  0
  -27.1830  -24.5676   20.1040 H   0  0  0  0  0  0
  -28.3379  -24.8001   18.8239 H   0  0  0  0  0  0
  -29.0856  -15.7319   21.3286 H   0  0  0  0  0  0
  1 25  1  0  0  0
  1 30  2  0  0  0
  1 84  1  0  0  0
  2  3  1  0  0  0
  2 25  1  0  0  0
  2 86  1  0  0  0
  2 87  1  0  0  0
  3  4  1  0  0  0
  3 88  1  0  0  0
  3 89  1  0  0  0
  4  5  1  0  0  0
  4 90  1  0  0  0
  4 91  1  0  0  0
  5  6  1  0  0  0
  5 26  1  0  0  0
  5 92  1  0  0  0
  6 25  1  0  0  0
  6 93  1  0  0  0
  6 94  1  0  0  0
  7  8  2  0  0  0
  7 26  1  0  0  0
  7 29  1  0  0  0
  8  9  1  0  0  0
  8 22  1  0  0  0
  9 10  1  0  0  0
  9 27  2  0  0  0
 10 11  2  0  0  0
 10 15  1  0  0  0
 11 12  1  0  0  0
 11 95  1  0  0  0
 12 13  2  0  0  0
 12 96  1  0  0  0
 13 14  1  0  0  0
 13 31  1  0  0  0
 14 15  2  0  0  0
 14 97  1  0  0  0
 15 98  1  0  0  0
 16 17  2  0  0  0
 16 21  1  0  0  0
 16 31  1  0  0  0
 17 18  1  0  0  0
 17 99  1  0  0  0
 18 19  2  0  0  0
 18100  1  0  0  0
 19 20  1  0  0  0
 19 24  1  0  0  0
 20 21  2  0  0  0
 20101  1  0  0  0
 21 23  1  0  0  0
 22 28  1  0  0  0
 22 32  2  0  0  0
 26 27  1  0  0  0
 28102  1  0  0  0
 28103  1  0  0  0
 29104  1  0  0  0
 29105  1  0  0  0
 33 34  1  0  0  0
 33 66  1  0  0  0
 33 70  2  0  0  0
 34 36  1  0  0  0
 34 59  1  0  0  0
 34106  1  0  0  0
 35 44  2  0  0  0
 35 45  1  0  0  0
 35 68  1  0  0  0
 36 56  1  0  0  0
 36107  1  0  0  0
 37 39  1  0  0  0
 37 47  1  0  0  0
 37 66  1  0  0  0
 37108  1  0  0  0
 38 43  2  0  0  0
 38 46  1  0  0  0
 38 47  1  0  0  0
 39 64  1  0  0  0
 39 67  2  0  0  0
 40 52  1  0  0  0
 40 53  2  0  0  0
 40 58  1  0  0  0
 41109  1  0  0  0
 41110  1  0  0  0
 41111  1  0  0  0
 41 48  1  0  0  0
 42 43  1  0  0  0
 42 66  1  0  0  0
 42112  1  0  0  0
 42113  1  0  0  0
 43 44  1  0  0  0
 44114  1  0  0  0
 45 46  2  0  0  0
 45115  1  0  0  0
 46116  1  0  0  0
 47117  1  0  0  0
 47118  1  0  0  0
 48 56  1  0  0  0
 48 65  1  0  0  0
 48119  1  0  0  0
 49 50  1  0  0  0
 49 53  1  0  0  0
 49 64  1  0  0  0
 49120  1  0  0  0
 50 51  1  0  0  0
 50121  1  0  0  0
 50122  1  0  0  0
 51 52  1  0  0  0
 51123  1  0  0  0
 51124  1  0  0  0
 52125  1  0  0  0
 52126  1  0  0  0
 53 54  1  0  0  0
 54 55  2  0  0  0
 54127  1  0  0  0
 55 57  1  0  0  0
 55128  1  0  0  0
 56 69  2  0  0  0
 57 58  2  0  0  0
 57129  1  0  0  0
 58130  1  0  0  0
 59 60  1  0  0  0
 59 61  1  0  0  0
 59 62  1  0  0  0
 60131  1  0  0  0
 60132  1  0  0  0
 60133  1  0  0  0
 61134  1  0  0  0
 61135  1  0  0  0
 61136  1  0  0  0
 62137  1  0  0  0
 62138  1  0  0  0
 62139  1  0  0  0
 63 65  1  0  0  0
 63140  1  0  0  0
 63141  1  0  0  0
 63142  1  0  0  0
 64143  1  0  0  0
 65144  1  0  0  0
 68 82  1  0  0  0
 71 72  2  0  0  0
 71 73  1  0  0  0
 71145  1  0  0  0
 72 75  1  0  0  0
 72146  1  0  0  0
 73 76  2  0  0  0
 73147  1  0  0  0
 74 75  2  0  0  0
 74 76  1  0  0  0
 74148  1  0  0  0
 75 77  1  0  0  0
 76 84  1  0  0  0
 77 83  1  0  0  0
 77 85  2  0  0  0
 78 79  1  0  0  0
 78 80  1  0  0  0
 78149  1  0  0  0
 78150  1  0  0  0
 79 81  1  0  0  0
 79151  1  0  0  0
 79152  1  0  0  0
 80 83  1  0  0  0
 80153  1  0  0  0
 80154  1  0  0  0
 81 82  1  0  0  0
 81 83  1  0  0  0
 81155  1  0  0  0
 82156  1  0  0  0
 82157  1  0  0  0
 84158  1  0  0  0
M  ISO  4   1 100  68 101  82 101  84 100
M  END
> <chiral flag>
0

> <version>
0

> <s_m_source_file>
/data/baiqing/PycharmProjects/Reinvent-master-3.2/result/LINK_invent/BTK/process_docking_weight1_custom_product_contain_oxygen_bond_distance_aromatic_linkinvent_7_9_3/rearranged_h_0003.sdf

> <i_m_source_file_index>
58

> <r_mmod_Potential_Energy-OPLS-2005>
335.264831542969

> <r_mmod_Stretch_Energy-OPLS-2005>
140.065719604492

> <r_mmod_Bend_Energy-OPLS-2005>
191.08512878418

> <r_mmod_Torsional_Energy-OPLS-2005>
342.160400390625

> <r_mmod_Improper_Torsional_Energy-OPLS-2005>
6.79321002960205

> <r_mmod_Van_der_Waal_Energy-OPLS-2005>
141.992935180664

> <r_mmod_Electrostatic_Energy-OPLS-2005>
-347.476745605469

> <r_mmod_Solvation_Energy-OPLS-2005>
-226.892684936523

> <b_mmod_Minimization_Converged-OPLS-2005>
0

> <r_mmod_RMS_Derivative-OPLS-2005>
3.16797733306885

$$$$
58
                    3D
 Structure written by MMmdl.
144152  0  0  1  0            999 V2000
  -30.2491  -15.7690   20.3185 C   0  0  0  0  0  0
  -30.4165  -13.1824   19.5389 C   0  0  0  0  0  0
  -29.5561  -12.6883   18.3366 C   0  0  0  0  0  0
  -28.1400  -12.3025   18.7870 C   0  0  0  0  0  0
  -27.5914  -13.3204   19.8100 C   0  0  2  0  0  0
  -28.5996  -13.7101   20.9197 C   0  0  0  0  0  0
  -25.2302  -13.8299   20.5812 C   0  0  0  0  0  0
  -24.1705  -13.0432   20.9298 C   0  0  0  0  0  0
  -24.6425  -11.6949   20.8764 C   0  0  0  0  0  0
  -23.9129  -10.4292   21.0393 C   0  0  0  0  0  0
  -24.3660   -9.4205   21.9178 C   0  0  0  0  0  0
  -23.6316   -8.2248   22.0754 C   0  0  0  0  0  0
  -22.4296   -8.0290   21.3545 C   0  0  0  0  0  0
  -21.9945   -9.0266   20.4644 C   0  0  0  0  0  0
  -22.7293  -10.2135   20.3047 C   0  0  0  0  0  0
  -21.6860   -6.0742   22.5279 C   0  0  0  0  0  0
  -21.4020   -6.5644   23.8213 C   0  0  0  0  0  0
  -21.3660   -5.6795   24.9174 C   0  0  0  0  0  0
  -21.6043   -4.3057   24.7223 C   0  0  0  0  0  0
  -21.8818   -3.8151   23.4344 C   0  0  0  0  0  0
  -21.9195   -4.6969   22.3401 C   0  0  0  0  0  0
  -22.7713  -13.5153   21.1928 C   0  0  0  0  0  0
  -22.1662   -4.2154   21.0979 F   0  0  0  0  0  0
  -21.5627   -3.4540   25.7735 F   0  0  0  0  0  0
  -29.7500  -14.3765   20.2532 N   0  0  0  0  0  0
  -26.2766  -12.9654   20.3247 N   0  0  0  0  0  0
  -25.9376  -11.6711   20.5692 N   0  0  0  0  0  0
  -22.0381  -12.8128   22.0480 N   0  0  0  0  0  0
  -25.3868  -15.2043   20.4253 N   0  0  0  0  0  0
  -31.4896  -15.6885   20.1870 O   0  0  0  0  0  0
  -21.6650   -6.8891   21.4243 O   0  0  0  0  0  0
  -22.3385  -14.5450   20.6762 O   0  0  0  0  0  0
  -24.6936  -31.7881   23.1428 C   0  0  0  0  0  0
  -25.9467  -32.4408   23.8014 C   0  0  1  0  0  0
  -27.2314  -26.6000   20.2259 C   0  0  0  0  0  0
  -25.6003  -33.8239   24.1889 N   0  0  0  0  0  0
  -23.5248  -30.3852   21.4992 C   0  0  2  0  0  0
  -24.9837  -28.7043   20.1217 C   0  0  0  0  0  0
  -22.7812  -29.4252   22.4682 C   0  0  0  0  0  0
  -18.0345  -28.1427   22.8448 C   0  0  0  0  0  0
  -24.1496  -36.7128   23.2656 C   0  0  0  0  0  0
  -26.1099  -30.4873   21.4229 C   0  0  0  0  0  0
  -26.1749  -29.0406   20.7752 C   0  0  0  0  0  0
  -27.2793  -28.0201   20.7903 C   0  0  0  0  0  0
  -26.0052  -26.4991   19.5134 C   0  0  0  0  0  0
  -24.9440  -27.4606   19.4663 C   0  0  0  0  0  0
  -23.7849  -29.6724   20.1393 C   0  0  0  0  0  0
  -25.4150  -36.2860   24.0273 C   0  0  1  0  0  0
  -20.5986  -28.3792   23.1121 C   0  0  2  0  0  0
  -20.6806  -26.9441   22.5405 C   0  0  0  0  0  0
  -19.5784  -26.6367   21.5217 C   0  0  0  0  0  0
  -18.1967  -26.7952   22.1618 C   0  0  0  0  0  0
  -19.1614  -28.8936   23.2762 C   0  0  0  0  0  0
  -18.9518  -30.1517   23.8813 C   0  0  0  0  0  0
  -17.6507  -30.6607   24.0547 C   0  0  0  0  0  0
  -25.9137  -34.9253   23.4926 C   0  0  0  0  0  0
  -16.5395  -29.9086   23.6353 C   0  0  0  0  0  0
  -16.7324  -28.6509   23.0369 C   0  0  0  0  0  0
  -26.4611  -31.6488   25.0681 C   0  0  0  0  0  0
  -25.3648  -31.3836   26.1276 C   0  0  0  0  0  0
  -27.0562  -30.2813   24.6660 C   0  0  0  0  0  0
  -27.6036  -32.4377   25.7508 C   0  0  0  0  0  0
  -27.5560  -37.1721   24.8466 C   0  0  0  0  0  0
  -21.4449  -29.3019   22.3429 N   0  0  0  0  0  0
  -26.4267  -37.3633   23.9406 N   0  0  0  0  0  0
  -24.8007  -30.9224   22.0738 N   0  0  0  0  0  0
  -23.4206  -28.7870   23.3076 O   0  0  0  0  0  0
  -28.1813  -25.3340   20.2925 O   0  0  0  0  0  0
  -26.5793  -34.8851   22.4554 O   0  0  0  0  0  0
  -23.5932  -32.1003   23.6316 O   0  0  0  0  0  0
  -31.2233  -20.8510   20.4443 C   0  0  0  0  0  0
  -30.3278  -21.9742   20.3863 C   0  0  0  0  0  0
  -30.8973  -19.4510   20.4170 C   0  0  0  0  0  0
  -28.6498  -20.2656   20.2683 C   0  0  0  0  0  0
  -28.9175  -21.8849   20.2883 C   0  0  0  0  0  0
  -29.5860  -18.9200   20.3295 C   0  0  0  0  0  0
  -27.9553  -23.5403   20.1946 C   0  0  0  0  0  0
  -29.4678  -17.1584   20.3338 N   0  0  0  0  0  0
  -31.3972  -13.4683   19.1574 H   0  0  0  0  0  0
  -30.6150  -12.3654   20.2348 H   0  0  0  0  0  0
  -30.0382  -11.8449   17.8404 H   0  0  0  0  0  0
  -29.4933  -13.4857   17.5947 H   0  0  0  0  0  0
  -28.1920  -11.3161   19.2495 H   0  0  0  0  0  0
  -27.4721  -12.2092   17.9298 H   0  0  0  0  0  0
  -27.4353  -14.2232   19.2177 H   0  0  0  0  0  0
  -28.8922  -12.8505   21.5245 H   0  0  0  0  0  0
  -28.1402  -14.4228   21.6061 H   0  0  0  0  0  0
  -25.2799   -9.5677   22.4764 H   0  0  0  0  0  0
  -24.0015   -7.4641   22.7480 H   0  0  0  0  0  0
  -21.0874   -8.8796   19.8951 H   0  0  0  0  0  0
  -22.3752  -10.9677   19.6160 H   0  0  0  0  0  0
  -21.2015   -7.6152   23.9718 H   0  0  0  0  0  0
  -21.1481   -6.0525   25.9077 H   0  0  0  0  0  0
  -22.0595   -2.7612   23.2843 H   0  0  0  0  0  0
  -22.4028  -11.9810   22.4881 H   0  0  0  0  0  0
  -21.0984  -13.1116   22.2673 H   0  0  0  0  0  0
  -24.6121  -15.8494   20.5375 H   0  0  0  0  0  0
  -26.2233  -15.6482   20.0710 H   0  0  0  0  0  0
  -26.7560  -32.4853   23.0732 H   0  0  0  0  0  0
  -25.0040  -33.9259   24.9969 H   0  0  0  0  0  0
  -22.8560  -31.2251   21.3001 H   0  0  0  0  0  0
  -23.3778  -35.9436   23.3259 H   0  0  0  0  0  0
  -24.3559  -36.8857   22.2082 H   0  0  0  0  0  0
  -23.7237  -37.6279   23.6781 H   0  0  0  0  0  0
  -26.3235  -31.2052   20.6299 H   0  0  0  0  0  0
  -26.9566  -30.5591   22.0929 H   0  0  0  0  0  0
  -28.1740  -28.2884   21.3341 H   0  0  0  0  0  0
  -25.8210  -25.5639   19.0038 H   0  0  0  0  0  0
  -24.0480  -27.1923   18.9234 H   0  0  0  0  0  0
  -23.9691  -30.4280   19.3747 H   0  0  0  0  0  0
  -22.8876  -29.1444   19.8122 H   0  0  0  0  0  0
  -25.1366  -36.1607   25.0763 H   0  0  0  0  0  0
  -21.0064  -28.3426   24.1249 H   0  0  0  0  0  0
  -20.5660  -26.2419   23.3677 H   0  0  0  0  0  0
  -21.6666  -26.7367   22.1230 H   0  0  0  0  0  0
  -19.6938  -25.6255   21.1303 H   0  0  0  0  0  0
  -19.6730  -27.3129   20.6710 H   0  0  0  0  0  0
  -17.4236  -26.6693   21.4021 H   0  0  0  0  0  0
  -18.0352  -26.0116   22.9034 H   0  0  0  0  0  0
  -19.7994  -30.7354   24.2146 H   0  0  0  0  0  0
  -17.5057  -31.6278   24.5166 H   0  0  0  0  0  0
  -15.5392  -30.2961   23.7726 H   0  0  0  0  0  0
  -15.8725  -28.0800   22.7132 H   0  0  0  0  0  0
  -24.5864  -30.7155   25.7572 H   0  0  0  0  0  0
  -24.8806  -32.3067   26.4469 H   0  0  0  0  0  0
  -25.7799  -30.9150   27.0207 H   0  0  0  0  0  0
  -26.3300  -29.6394   24.1665 H   0  0  0  0  0  0
  -27.3958  -29.7305   25.5442 H   0  0  0  0  0  0
  -27.9292  -30.3914   24.0226 H   0  0  0  0  0  0
  -27.2557  -33.3759   26.1844 H   0  0  0  0  0  0
  -28.3970  -32.6810   25.0429 H   0  0  0  0  0  0
  -28.0570  -31.8672   26.5625 H   0  0  0  0  0  0
  -28.2540  -38.0050   24.7512 H   0  0  0  0  0  0
  -28.1093  -36.2570   24.6297 H   0  0  0  0  0  0
  -27.2273  -37.1358   25.8868 H   0  0  0  0  0  0
  -20.9779  -29.8658   21.6465 H   0  0  0  0  0  0
  -26.0084  -38.2675   24.1421 H   0  0  0  0  0  0
  -32.2755  -21.0887   20.5173 H   0  0  0  0  0  0
  -30.7626  -22.9641   20.4154 H   0  0  0  0  0  0
  -31.7198  -18.7513   20.4730 H   0  0  0  0  0  0
  -27.5975  -20.0310   20.1940 H   0  0  0  0  0  0
  -27.1705  -23.3778   20.9334 H   0  0  0  0  0  0
  -27.4334  -23.4350   19.2435 H   0  0  0  0  0  0
  -28.4908  -16.9030   20.3508 H   0  0  0  0  0  0
  1 25  1  0  0  0
  1 30  2  0  0  0
  1 78  1  0  0  0
  2  3  1  0  0  0
  2 25  1  0  0  0
  2 79  1  0  0  0
  2 80  1  0  0  0
  3  4  1  0  0  0
  3 81  1  0  0  0
  3 82  1  0  0  0
  4  5  1  0  0  0
  4 83  1  0  0  0
  4 84  1  0  0  0
  5  6  1  0  0  0
  5 26  1  0  0  0
  5 85  1  0  0  0
  6 25  1  0  0  0
  6 86  1  0  0  0
  6 87  1  0  0  0
  7  8  2  0  0  0
  7 26  1  0  0  0
  7 29  1  0  0  0
  8  9  1  0  0  0
  8 22  1  0  0  0
  9 10  1  0  0  0
  9 27  2  0  0  0
 10 11  2  0  0  0
 10 15  1  0  0  0
 11 12  1  0  0  0
 11 88  1  0  0  0
 12 13  2  0  0  0
 12 89  1  0  0  0
 13 14  1  0  0  0
 13 31  1  0  0  0
 14 15  2  0  0  0
 14 90  1  0  0  0
 15 91  1  0  0  0
 16 17  2  0  0  0
 16 21  1  0  0  0
 16 31  1  0  0  0
 17 18  1  0  0  0
 17 92  1  0  0  0
 18 19  2  0  0  0
 18 93  1  0  0  0
 19 20  1  0  0  0
 19 24  1  0  0  0
 20 21  2  0  0  0
 20 94  1  0  0  0
 21 23  1  0  0  0
 22 28  1  0  0  0
 22 32  2  0  0  0
 26 27  1  0  0  0
 28 95  1  0  0  0
 28 96  1  0  0  0
 29 97  1  0  0  0
 29 98  1  0  0  0
 33 34  1  0  0  0
 33 66  1  0  0  0
 33 70  2  0  0  0
 34 36  1  0  0  0
 34 59  1  0  0  0
 34 99  1  0  0  0
 35 44  2  0  0  0
 35 45  1  0  0  0
 35 68  1  0  0  0
 36 56  1  0  0  0
 36100  1  0  0  0
 37 39  1  0  0  0
 37 47  1  0  0  0
 37 66  1  0  0  0
 37101  1  0  0  0
 38 43  2  0  0  0
 38 46  1  0  0  0
 38 47  1  0  0  0
 39 64  1  0  0  0
 39 67  2  0  0  0
 40 52  1  0  0  0
 40 53  2  0  0  0
 40 58  1  0  0  0
 41102  1  0  0  0
 41103  1  0  0  0
 41104  1  0  0  0
 41 48  1  0  0  0
 42 43  1  0  0  0
 42 66  1  0  0  0
 42105  1  0  0  0
 42106  1  0  0  0
 43 44  1  0  0  0
 44107  1  0  0  0
 45 46  2  0  0  0
 45108  1  0  0  0
 46109  1  0  0  0
 47110  1  0  0  0
 47111  1  0  0  0
 48 56  1  0  0  0
 48 65  1  0  0  0
 48112  1  0  0  0
 49 50  1  0  0  0
 49 53  1  0  0  0
 49 64  1  0  0  0
 49113  1  0  0  0
 50 51  1  0  0  0
 50114  1  0  0  0
 50115  1  0  0  0
 51 52  1  0  0  0
 51116  1  0  0  0
 51117  1  0  0  0
 52118  1  0  0  0
 52119  1  0  0  0
 53 54  1  0  0  0
 54 55  2  0  0  0
 54120  1  0  0  0
 55 57  1  0  0  0
 55121  1  0  0  0
 56 69  2  0  0  0
 57 58  2  0  0  0
 57122  1  0  0  0
 58123  1  0  0  0
 59 60  1  0  0  0
 59 61  1  0  0  0
 59 62  1  0  0  0
 60124  1  0  0  0
 60125  1  0  0  0
 60126  1  0  0  0
 61127  1  0  0  0
 61128  1  0  0  0
 61129  1  0  0  0
 62130  1  0  0  0
 62131  1  0  0  0
 62132  1  0  0  0
 63 65  1  0  0  0
 63133  1  0  0  0
 63134  1  0  0  0
 63135  1  0  0  0
 64136  1  0  0  0
 65137  1  0  0  0
 68 77  1  0  0  0
 71 72  2  0  0  0
 71 73  1  0  0  0
 71138  1  0  0  0
 72 75  1  0  0  0
 72139  1  0  0  0
 73 76  2  0  0  0
 73140  1  0  0  0
 74 75  2  0  0  0
 74 76  1  0  0  0
 74141  1  0  0  0
 75 77  1  0  0  0
 76 78  1  0  0  0
 77142  1  0  0  0
 77143  1  0  0  0
 78144  1  0  0  0
M  ISO  4   1 100  68 101  77 101  78 100
M  END
> <chiral flag>
0

> <version>
0

> <s_m_source_file>
/data/baiqing/PycharmProjects/Reinvent-master-3.2/result/LINK_invent/BTK/process_docking_weight1_custom_product_contain_oxygen_bond_distance_aromatic_linkinvent_7_9_3/rearranged_h_0003.sdf

> <i_m_source_file_index>
59

> <r_mmod_Potential_Energy-OPLS-2005>
2813.380859375

> <r_mmod_Stretch_Energy-OPLS-2005>
1256.92761230469

> <r_mmod_Bend_Energy-OPLS-2005>
641.894226074219

> <r_mmod_Torsional_Energy-OPLS-2005>
222.88850402832

> <r_mmod_Improper_Torsional_Energy-OPLS-2005>
4.12787246704102

> <r_mmod_Van_der_Waal_Energy-OPLS-2005>
126.438247680664

> <r_mmod_Electrostatic_Energy-OPLS-2005>
-346.341064453125

> <r_mmod_Solvation_Energy-OPLS-2005>
-213.760787963867

> <b_mmod_Minimization_Converged-OPLS-2005>
0

> <r_mmod_RMS_Derivative-OPLS-2005>
0.157229289412498

$$$$
59
                    3D
 Structure written by MMmdl.
180190  0  0  1  0            999 V2000
  -30.6914  -14.4175   20.5631 C   0  0  0  0  0  0
  -30.4184  -12.2753   19.3953 C   0  0  0  0  0  0
  -29.4785  -12.4929   18.1906 C   0  0  0  0  0  0
  -28.0011  -12.3554   18.6087 C   0  0  0  0  0  0
  -27.6570  -13.1787   19.8772 C   0  0  2  0  0  0
  -28.7036  -12.9433   20.9909 C   0  0  0  0  0  0
  -25.2616  -13.8093   20.5718 C   0  0  0  0  0  0
  -24.1847  -13.0417   20.9308 C   0  0  0  0  0  0
  -24.6358  -11.6872   20.8819 C   0  0  0  0  0  0
  -23.9000  -10.4265   21.0438 C   0  0  0  0  0  0
  -24.3564   -9.4182   21.9205 C   0  0  0  0  0  0
  -23.6243   -8.2213   22.0755 C   0  0  0  0  0  0
  -22.4249   -8.0255   21.3519 C   0  0  0  0  0  0
  -21.9882   -9.0233   20.4625 C   0  0  0  0  0  0
  -22.7198  -10.2109   20.3048 C   0  0  0  0  0  0
  -21.6832   -6.0723   22.5263 C   0  0  0  0  0  0
  -21.3984   -6.5636   23.8188 C   0  0  0  0  0  0
  -21.3668   -5.6805   24.9171 C   0  0  0  0  0  0
  -21.6043   -4.3063   24.7237 C   0  0  0  0  0  0
  -21.8810   -3.8145   23.4367 C   0  0  0  0  0  0
  -21.9171   -4.6947   22.3411 C   0  0  0  0  0  0
  -22.7866  -13.5257   21.1915 C   0  0  0  0  0  0
  -22.1639   -4.2128   21.0991 F   0  0  0  0  0  0
  -21.5655   -3.4567   25.7764 F   0  0  0  0  0  0
  -30.0304  -13.2395   20.4298 N   0  0  0  0  0  0
  -26.2988  -12.9171   20.3398 N   0  0  0  0  0  0
  -25.9264  -11.6380   20.5831 N   0  0  0  0  0  0
  -22.0480  -12.8230   22.0446 N   0  0  0  0  0  0
  -25.4405  -15.1775   20.3934 N   0  0  0  0  0  0
  -31.8371  -14.6109   20.1432 O   0  0  0  0  0  0
  -21.6605   -6.8866   21.4224 O   0  0  0  0  0  0
  -22.3606  -14.5574   20.6730 O   0  0  0  0  0  0
  -24.6130  -31.8693   23.2113 C   0  0  0  0  0  0
  -25.9038  -32.4827   23.8386 C   0  0  1  0  0  0
  -27.2294  -27.4561   20.0947 C   0  0  0  0  0  0
  -25.5891  -33.8625   24.2316 N   0  0  0  0  0  0
  -23.3990  -30.4926   21.5510 C   0  0  2  0  0  0
  -24.8461  -28.9572   20.1163 C   0  0  0  0  0  0
  -22.7384  -29.4673   22.4997 C   0  0  0  0  0  0
  -18.0269  -28.1371   22.8494 C   0  0  0  0  0  0
  -24.1498  -36.7327   23.2635 C   0  0  0  0  0  0
  -25.9245  -30.8414   21.3607 C   0  0  0  0  0  0
  -26.0033  -29.4745   20.7139 C   0  0  0  0  0  0
  -27.2011  -28.7273   20.7085 C   0  0  0  0  0  0
  -26.0643  -26.9471   19.4900 C   0  0  0  0  0  0
  -24.8698  -27.6911   19.5042 C   0  0  0  0  0  0
  -23.6058  -29.8211   20.1665 C   0  0  0  0  0  0
  -25.4117  -36.3116   24.0333 C   0  0  1  0  0  0
  -20.5861  -28.3658   23.1320 C   0  0  2  0  0  0
  -20.6770  -26.9398   22.5411 C   0  0  0  0  0  0
  -19.5748  -26.6382   21.5212 C   0  0  0  0  0  0
  -18.1928  -26.7914   22.1627 C   0  0  0  0  0  0
  -19.1516  -28.8830   23.2908 C   0  0  0  0  0  0
  -18.9443  -30.1438   23.8919 C   0  0  0  0  0  0
  -17.6447  -30.6584   24.0565 C   0  0  0  0  0  0
  -25.9032  -34.9482   23.5113 C   0  0  0  0  0  0
  -16.5340  -29.9093   23.6323 C   0  0  0  0  0  0
  -16.7258  -28.6502   23.0358 C   0  0  0  0  0  0
  -26.4462  -31.6603   25.0711 C   0  0  0  0  0  0
  -25.3721  -31.3717   26.1454 C   0  0  0  0  0  0
  -27.0286  -30.3048   24.6071 C   0  0  0  0  0  0
  -27.6034  -32.4320   25.7481 C   0  0  0  0  0  0
  -27.5583  -37.1821   24.8462 C   0  0  0  0  0  0
  -21.4112  -29.3035   22.3734 N   0  0  0  0  0  0
  -26.4307  -37.3796   23.9388 N   0  0  0  0  0  0
  -24.6633  -31.0809   22.0994 N   0  0  0  0  0  0
  -23.4164  -28.8223   23.3046 O   0  0  0  0  0  0
  -28.3712  -26.7009   20.0729 O   0  0  0  0  0  0
  -26.5603  -34.8928   22.4683 O   0  0  0  0  0  0
  -23.5325  -32.1436   23.7515 O   0  0  0  0  0  0
  -25.0238  -20.6837   17.7398 C   0  0  0  0  0  0
  -26.3578  -20.2332   17.7362 C   0  0  0  0  0  0
  -24.6283  -21.6986   18.6301 C   0  0  0  0  0  0
  -27.2902  -20.7832   18.6399 C   0  0  0  0  0  0
  -25.5624  -22.2556   19.5240 C   0  0  0  0  0  0
  -26.8948  -21.7859   19.5552 C   0  0  0  0  0  0
  -26.4072  -20.3882   23.6952 C   0  0  0  0  0  0
  -26.4400  -21.4579   22.5951 C   0  0  0  0  0  0
  -26.7699  -18.9845   23.1556 C   0  0  0  0  0  0
  -28.6151  -20.2505   21.9445 C   0  0  0  0  0  0
  -30.1106  -16.0526   22.2426 C   0  0  0  0  0  0
  -29.5713  -16.4131   19.8396 C   0  0  0  0  0  0
  -28.9733  -17.0134   22.6725 C   0  0  0  0  0  0
  -29.1926  -17.8067   20.3405 C   0  0  0  0  0  0
  -27.8543  -21.6025   21.9631 C   0  0  1  0  0  0
  -27.6594  -19.0334   21.8798 C   0  0  1  0  0  0
  -28.5872  -25.9596   21.2748 C   0  0  0  0  0  0
  -28.8945  -24.4828   20.9741 C   0  0  0  0  0  0
  -27.8901  -22.3388   20.5779 C   0  0  2  0  0  0
  -29.9074  -15.4582   20.9139 N   0  0  0  0  0  0
  -28.3239  -17.7336   21.5424 N   0  3  0  0  0  0
  -27.6906  -23.7418   20.7645 O   0  0  0  0  0  0
  -31.4606  -12.3802   19.0872 H   0  0  0  0  0  0
  -30.3216  -11.2574   19.7759 H   0  0  0  0  0  0
  -29.7023  -11.7742   17.4009 H   0  0  0  0  0  0
  -29.6486  -13.4828   17.7625 H   0  0  0  0  0  0
  -27.8048  -11.2988   18.7934 H   0  0  0  0  0  0
  -27.3480  -12.6486   17.7856 H   0  0  0  0  0  0
  -27.6963  -14.2215   19.5862 H   0  0  0  0  0  0
  -28.6718  -11.9063   21.3315 H   0  0  0  0  0  0
  -28.4803  -13.5483   21.8706 H   0  0  0  0  0  0
  -25.2698   -9.5688   22.4794 H   0  0  0  0  0  0
  -23.9942   -7.4621   22.7500 H   0  0  0  0  0  0
  -21.0803   -8.8733   19.8957 H   0  0  0  0  0  0
  -22.3645  -10.9641   19.6156 H   0  0  0  0  0  0
  -21.1942   -7.6139   23.9675 H   0  0  0  0  0  0
  -21.1508   -6.0557   25.9069 H   0  0  0  0  0  0
  -22.0577   -2.7605   23.2879 H   0  0  0  0  0  0
  -22.4061  -11.9852   22.4767 H   0  0  0  0  0  0
  -21.1091  -13.1230   22.2650 H   0  0  0  0  0  0
  -24.5895  -15.7262   20.3368 H   0  0  0  0  0  0
  -26.1037  -15.4469   19.6785 H   0  0  0  0  0  0
  -26.7114  -32.5542   23.1157 H   0  0  0  0  0  0
  -25.0033  -33.9786   25.0456 H   0  0  0  0  0  0
  -22.6871  -31.3087   21.4103 H   0  0  0  0  0  0
  -23.3749  -35.9668   23.3299 H   0  0  0  0  0  0
  -24.3595  -36.8949   22.2047 H   0  0  0  0  0  0
  -23.7272  -37.6542   23.6651 H   0  0  0  0  0  0
  -26.0271  -31.6055   20.5894 H   0  0  0  0  0  0
  -26.8164  -30.8999   21.9720 H   0  0  0  0  0  0
  -28.0959  -29.1181   21.1716 H   0  0  0  0  0  0
  -26.0819  -25.9726   19.0212 H   0  0  0  0  0  0
  -23.9804  -27.2866   19.0418 H   0  0  0  0  0  0
  -23.7056  -30.5926   19.4017 H   0  0  0  0  0  0
  -22.7312  -29.2354   19.8776 H   0  0  0  0  0  0
  -25.1300  -36.1974   25.0829 H   0  0  0  0  0  0
  -20.9946  -28.3229   24.1448 H   0  0  0  0  0  0
  -20.5681  -26.2266   23.3596 H   0  0  0  0  0  0
  -21.6642  -26.7464   22.1200 H   0  0  0  0  0  0
  -19.6916  -25.6297   21.1243 H   0  0  0  0  0  0
  -19.6695  -27.3196   20.6743 H   0  0  0  0  0  0
  -17.4197  -26.6658   21.4039 H   0  0  0  0  0  0
  -18.0340  -26.0057   22.9017 H   0  0  0  0  0  0
  -19.7924  -30.7243   24.2306 H   0  0  0  0  0  0
  -17.5013  -31.6269   24.5153 H   0  0  0  0  0  0
  -15.5349  -30.3005   23.7632 H   0  0  0  0  0  0
  -15.8658  -28.0828   22.7072 H   0  0  0  0  0  0
  -24.5883  -30.7084   25.7789 H   0  0  0  0  0  0
  -24.8920  -32.2877   26.4899 H   0  0  0  0  0  0
  -25.8059  -30.8878   27.0210 H   0  0  0  0  0  0
  -26.2828  -29.6826   24.1111 H   0  0  0  0  0  0
  -27.4050  -29.7272   25.4520 H   0  0  0  0  0  0
  -27.8658  -30.4374   23.9218 H   0  0  0  0  0  0
  -27.2648  -33.3601   26.2095 H   0  0  0  0  0  0
  -28.3830  -32.6918   25.0312 H   0  0  0  0  0  0
  -28.0714  -31.8422   26.5370 H   0  0  0  0  0  0
  -28.2619  -38.0103   24.7487 H   0  0  0  0  0  0
  -28.1067  -36.2632   24.6321 H   0  0  0  0  0  0
  -27.2283  -37.1508   25.8865 H   0  0  0  0  0  0
  -20.9266  -29.8744   21.6951 H   0  0  0  0  0  0
  -26.0195  -38.2879   24.1365 H   0  0  0  0  0  0
  -24.3036  -20.2502   17.0607 H   0  0  0  0  0  0
  -26.6623  -19.4563   17.0459 H   0  0  0  0  0  0
  -23.6046  -22.0457   18.6378 H   0  0  0  0  0  0
  -28.3106  -20.4295   18.6259 H   0  0  0  0  0  0
  -25.2486  -23.0241   20.2176 H   0  0  0  0  0  0
  -25.4270  -20.3558   24.1738 H   0  0  0  0  0  0
  -27.1146  -20.6783   24.4747 H   0  0  0  0  0  0
  -26.1134  -22.4222   22.9855 H   0  0  0  0  0  0
  -25.6957  -21.1666   21.8590 H   0  0  0  0  0  0
  -25.8609  -18.4223   22.9306 H   0  0  0  0  0  0
  -27.2555  -18.4501   23.9718 H   0  0  0  0  0  0
  -29.2140  -20.1597   22.8525 H   0  0  0  0  0  0
  -29.3325  -20.2734   21.1289 H   0  0  0  0  0  0
  -30.2327  -15.2714   22.9967 H   0  0  0  0  0  0
  -31.0527  -16.6049   22.2259 H   0  0  0  0  0  0
  -30.3866  -16.5138   19.1206 H   0  0  0  0  0  0
  -28.7319  -16.0330   19.2633 H   0  0  0  0  0  0
  -29.3737  -17.7204   23.4021 H   0  0  0  0  0  0
  -28.1983  -16.4452   23.1879 H   0  0  0  0  0  0
  -28.7025  -18.3526   19.5344 H   0  0  0  0  0  0
  -30.1120  -18.3427   20.5765 H   0  0  0  0  0  0
  -28.4356  -22.2133   22.6553 H   0  0  0  0  0  0
  -26.9839  -19.2155   21.0421 H   0  0  0  0  0  0
  -29.4461  -26.4112   21.7718 H   0  0  0  0  0  0
  -27.7531  -26.0210   21.9766 H   0  0  0  0  0  0
  -29.4302  -24.0638   21.8264 H   0  0  0  0  0  0
  -29.5659  -24.4038   20.1170 H   0  0  0  0  0  0
  -28.8783  -22.2044   20.1327 H   0  0  0  0  0  0
  -27.5637  -17.1243   21.2731 H   0  0  0  0  0  0
  1 25  1  0  0  0
  1 30  2  0  0  0
  1 90  1  0  0  0
  2  3  1  0  0  0
  2 25  1  0  0  0
  2 93  1  0  0  0
  2 94  1  0  0  0
  3  4  1  0  0  0
  3 95  1  0  0  0
  3 96  1  0  0  0
  4  5  1  0  0  0
  4 97  1  0  0  0
  4 98  1  0  0  0
  5  6  1  0  0  0
  5 26  1  0  0  0
  5 99  1  0  0  0
  6 25  1  0  0  0
  6100  1  0  0  0
  6101  1  0  0  0
  7  8  2  0  0  0
  7 26  1  0  0  0
  7 29  1  0  0  0
  8  9  1  0  0  0
  8 22  1  0  0  0
  9 10  1  0  0  0
  9 27  2  0  0  0
 10 11  2  0  0  0
 10 15  1  0  0  0
 11 12  1  0  0  0
 11102  1  0  0  0
 12 13  2  0  0  0
 12103  1  0  0  0
 13 14  1  0  0  0
 13 31  1  0  0  0
 14 15  2  0  0  0
 14104  1  0  0  0
 15105  1  0  0  0
 16 17  2  0  0  0
 16 21  1  0  0  0
 16 31  1  0  0  0
 17 18  1  0  0  0
 17106  1  0  0  0
 18 19  2  0  0  0
 18107  1  0  0  0
 19 20  1  0  0  0
 19 24  1  0  0  0
 20 21  2  0  0  0
 20108  1  0  0  0
 21 23  1  0  0  0
 22 28  1  0  0  0
 22 32  2  0  0  0
 26 27  1  0  0  0
 28109  1  0  0  0
 28110  1  0  0  0
 29111  1  0  0  0
 29112  1  0  0  0
 33 34  1  0  0  0
 33 66  1  0  0  0
 33 70  2  0  0  0
 34 36  1  0  0  0
 34 59  1  0  0  0
 34113  1  0  0  0
 35 44  2  0  0  0
 35 45  1  0  0  0
 35 68  1  0  0  0
 36 56  1  0  0  0
 36114  1  0  0  0
 37 39  1  0  0  0
 37 47  1  0  0  0
 37 66  1  0  0  0
 37115  1  0  0  0
 38 43  2  0  0  0
 38 46  1  0  0  0
 38 47  1  0  0  0
 39 64  1  0  0  0
 39 67  2  0  0  0
 40 52  1  0  0  0
 40 53  2  0  0  0
 40 58  1  0  0  0
 41116  1  0  0  0
 41117  1  0  0  0
 41118  1  0  0  0
 41 48  1  0  0  0
 42 43  1  0  0  0
 42 66  1  0  0  0
 42119  1  0  0  0
 42120  1  0  0  0
 43 44  1  0  0  0
 44121  1  0  0  0
 45 46  2  0  0  0
 45122  1  0  0  0
 46123  1  0  0  0
 47124  1  0  0  0
 47125  1  0  0  0
 48 56  1  0  0  0
 48 65  1  0  0  0
 48126  1  0  0  0
 49 50  1  0  0  0
 49 53  1  0  0  0
 49 64  1  0  0  0
 49127  1  0  0  0
 50 51  1  0  0  0
 50128  1  0  0  0
 50129  1  0  0  0
 51 52  1  0  0  0
 51130  1  0  0  0
 51131  1  0  0  0
 52132  1  0  0  0
 52133  1  0  0  0
 53 54  1  0  0  0
 54 55  2  0  0  0
 54134  1  0  0  0
 55 57  1  0  0  0
 55135  1  0  0  0
 56 69  2  0  0  0
 57 58  2  0  0  0
 57136  1  0  0  0
 58137  1  0  0  0
 59 60  1  0  0  0
 59 61  1  0  0  0
 59 62  1  0  0  0
 60138  1  0  0  0
 60139  1  0  0  0
 60140  1  0  0  0
 61141  1  0  0  0
 61142  1  0  0  0
 61143  1  0  0  0
 62144  1  0  0  0
 62145  1  0  0  0
 62146  1  0  0  0
 63 65  1  0  0  0
 63147  1  0  0  0
 63148  1  0  0  0
 63149  1  0  0  0
 64150  1  0  0  0
 65151  1  0  0  0
 68 87  1  0  0  0
 71 72  2  0  0  0
 71 73  1  0  0  0
 71152  1  0  0  0
 72 74  1  0  0  0
 72153  1  0  0  0
 73 75  2  0  0  0
 73154  1  0  0  0
 74 76  2  0  0  0
 74155  1  0  0  0
 75 76  1  0  0  0
 75156  1  0  0  0
 76 89  1  0  0  0
 77 78  1  0  0  0
 77 79  1  0  0  0
 77157  1  0  0  0
 77158  1  0  0  0
 78159  1  0  0  0
 78160  1  0  0  0
 78 85  1  0  0  0
 79161  1  0  0  0
 79162  1  0  0  0
 79 86  1  0  0  0
 80 85  1  0  0  0
 80 86  1  0  0  0
 80163  1  0  0  0
 80164  1  0  0  0
 81 83  1  0  0  0
 81 90  1  0  0  0
 81165  1  0  0  0
 81166  1  0  0  0
 82 84  1  0  0  0
 82 90  1  0  0  0
 82167  1  0  0  0
 82168  1  0  0  0
 83169  1  0  0  0
 83170  1  0  0  0
 83 91  1  0  0  0
 84 91  1  0  0  0
 84171  1  0  0  0
 84172  1  0  0  0
 85 89  1  0  0  0
 85173  1  0  0  0
 86 91  1  0  0  0
 86174  1  0  0  0
 87 88  1  0  0  0
 87175  1  0  0  0
 87176  1  0  0  0
 88 92  1  0  0  0
 88177  1  0  0  0
 88178  1  0  0  0
 89 92  1  0  0  0
 89179  1  0  0  0
 91180  1  0  0  0
M  CHG  1  91   1
M  ISO  4   1 100  68 101  87 101  90 100
M  END
> <chiral flag>
0

> <version>
0

> <s_m_source_file>
/data/baiqing/PycharmProjects/Reinvent-master-3.2/result/LINK_invent/BTK/process_docking_weight1_custom_product_contain_oxygen_bond_distance_aromatic_linkinvent_7_9_3/rearranged_h_0003.sdf

> <i_m_source_file_index>
60

> <r_mmod_Potential_Energy-OPLS-2005>
205.780517578125

> <r_mmod_Stretch_Energy-OPLS-2005>
40.4444732666016

> <r_mmod_Bend_Energy-OPLS-2005>
103.901962280273

> <r_mmod_Torsional_Energy-OPLS-2005>
495.003784179688

> <r_mmod_Improper_Torsional_Energy-OPLS-2005>
14.5326023101807

> <r_mmod_Van_der_Waal_Energy-OPLS-2005>
164.793441772461

> <r_mmod_Electrostatic_Energy-OPLS-2005>
-202.95849609375

> <r_mmod_Solvation_Energy-OPLS-2005>
-420.762390136719

> <b_mmod_Minimization_Converged-OPLS-2005>
0

> <r_mmod_RMS_Derivative-OPLS-2005>
3.49917554855347

$$$$
60
                    3D
 Structure written by MMmdl.
161170  0  0  1  0            999 V2000
  -30.7007  -14.4679   20.4876 C   0  0  0  0  0  0
  -30.4101  -12.2750   19.4415 C   0  0  0  0  0  0
  -29.4950  -12.4837   18.2157 C   0  0  0  0  0  0
  -28.0150  -12.3567   18.6238 C   0  0  0  0  0  0
  -27.6575  -13.2083   19.8728 C   0  0  2  0  0  0
  -28.7006  -13.0217   21.0017 C   0  0  0  0  0  0
  -25.2567  -13.8168   20.5702 C   0  0  0  0  0  0
  -24.1822  -13.0443   20.9192 C   0  0  0  0  0  0
  -24.6383  -11.6910   20.8743 C   0  0  0  0  0  0
  -23.9054  -10.4295   21.0410 C   0  0  0  0  0  0
  -24.3610   -9.4210   21.9183 C   0  0  0  0  0  0
  -23.6293   -8.2241   22.0751 C   0  0  0  0  0  0
  -22.4275   -8.0277   21.3545 C   0  0  0  0  0  0
  -21.9912   -9.0249   20.4647 C   0  0  0  0  0  0
  -22.7231  -10.2134   20.3056 C   0  0  0  0  0  0
  -21.6849   -6.0741   22.5285 C   0  0  0  0  0  0
  -21.4015   -6.5642   23.8217 C   0  0  0  0  0  0
  -21.3658   -5.6797   24.9179 C   0  0  0  0  0  0
  -21.6038   -4.3058   24.7227 C   0  0  0  0  0  0
  -21.8817   -3.8150   23.4347 C   0  0  0  0  0  0
  -21.9193   -4.6971   22.3405 C   0  0  0  0  0  0
  -22.7841  -13.5229   21.1861 C   0  0  0  0  0  0
  -22.1666   -4.2158   21.0984 F   0  0  0  0  0  0
  -21.5623   -3.4541   25.7738 F   0  0  0  0  0  0
  -30.0333  -13.2860   20.4405 N   0  0  0  0  0  0
  -26.3003  -12.9340   20.3378 N   0  0  0  0  0  0
  -25.9312  -11.6499   20.5785 N   0  0  0  0  0  0
  -22.0494  -12.8212   22.0417 N   0  0  0  0  0  0
  -25.4277  -15.1891   20.4118 N   0  0  0  0  0  0
  -31.8769  -14.5869   20.1373 O   0  0  0  0  0  0
  -21.6634   -6.8880   21.4245 O   0  0  0  0  0  0
  -22.3520  -14.5540   20.6725 O   0  0  0  0  0  0
  -24.6149  -31.8676   23.2092 C   0  0  0  0  0  0
  -25.9046  -32.4812   23.8387 C   0  0  1  0  0  0
  -27.2335  -27.4344   20.0899 C   0  0  0  0  0  0
  -25.5905  -33.8609   24.2326 N   0  0  0  0  0  0
  -23.4020  -30.4913   21.5506 C   0  0  2  0  0  0
  -24.8451  -28.9564   20.1153 C   0  0  0  0  0  0
  -22.7412  -29.4658   22.4998 C   0  0  0  0  0  0
  -18.0273  -28.1362   22.8497 C   0  0  0  0  0  0
  -24.1491  -36.7321   23.2639 C   0  0  0  0  0  0
  -25.9310  -30.8325   21.3615 C   0  0  0  0  0  0
  -26.0058  -29.4672   20.7084 C   0  0  0  0  0  0
  -27.2013  -28.7144   20.6898 C   0  0  0  0  0  0
  -26.0498  -26.9352   19.4969 C   0  0  0  0  0  0
  -24.8623  -27.6902   19.5071 C   0  0  0  0  0  0
  -23.6080  -29.8232   20.1651 C   0  0  0  0  0  0
  -25.4107  -36.3105   24.0342 C   0  0  1  0  0  0
  -20.5865  -28.3654   23.1318 C   0  0  2  0  0  0
  -20.6763  -26.9392   22.5416 C   0  0  0  0  0  0
  -19.5740  -26.6379   21.5213 C   0  0  0  0  0  0
  -18.1918  -26.7910   22.1624 C   0  0  0  0  0  0
  -19.1523  -28.8823   23.2905 C   0  0  0  0  0  0
  -18.9448  -30.1429   23.8914 C   0  0  0  0  0  0
  -17.6452  -30.6571   24.0560 C   0  0  0  0  0  0
  -25.9033  -34.9471   23.5132 C   0  0  0  0  0  0
  -16.5343  -29.9075   23.6315 C   0  0  0  0  0  0
  -16.7264  -28.6488   23.0347 C   0  0  0  0  0  0
  -26.4472  -31.6583   25.0713 C   0  0  0  0  0  0
  -25.3749  -31.3677   26.1471 C   0  0  0  0  0  0
  -27.0295  -30.3027   24.6076 C   0  0  0  0  0  0
  -27.6051  -32.4299   25.7470 C   0  0  0  0  0  0
  -27.5583  -37.1813   24.8464 C   0  0  0  0  0  0
  -21.4141  -29.3028   22.3733 N   0  0  0  0  0  0
  -26.4294  -37.3791   23.9408 N   0  0  0  0  0  0
  -24.6676  -31.0783   22.0985 N   0  0  0  0  0  0
  -23.4188  -28.8205   23.3039 O   0  0  0  0  0  0
  -28.4198  -26.7271   20.1001 O   0  0  0  0  0  0
  -26.5595  -34.8928   22.4693 O   0  0  0  0  0  0
  -23.5344  -32.1427   23.7492 O   0  0  0  0  0  0
  -30.8045  -20.3259   20.5931 C   0  0  0  0  0  0
  -28.3968  -19.9993   20.6003 C   0  0  0  0  0  0
  -30.9910  -18.9508   20.3400 C   0  0  0  0  0  0
  -28.5816  -18.6199   20.3544 C   0  0  0  0  0  0
  -29.5040  -20.8767   20.6697 C   0  0  0  0  0  0
  -29.8799  -18.0955   20.1791 C   0  0  0  0  0  0
  -29.2895  -22.3604   20.8719 C   0  0  0  0  0  0
  -30.7212  -24.1489   17.9436 C   0  0  0  0  0  0
  -30.7773  -25.2007   19.0413 C   0  0  0  0  0  0
  -30.4669  -22.8485   18.7052 C   0  0  0  0  0  0
  -29.7784  -24.6981   20.0947 C   0  0  1  0  0  0
  -30.0864  -16.6797   19.6503 C   0  0  0  0  0  0
  -28.3731  -25.3118   19.8731 C   0  0  0  0  0  0
  -29.7944  -23.2269   19.9535 N   0  0  0  0  0  0
  -29.9123  -15.5543   20.5812 N   0  0  0  0  0  0
  -28.6539  -22.7384   21.8592 O   0  0  0  0  0  0
  -31.4602  -12.3391   19.1505 H   0  0  0  0  0  0
  -30.2756  -11.2725   19.8514 H   0  0  0  0  0  0
  -29.7307  -11.7548   17.4399 H   0  0  0  0  0  0
  -29.6746  -13.4674   17.7770 H   0  0  0  0  0  0
  -27.8203  -11.3024   18.8253 H   0  0  0  0  0  0
  -27.3698  -12.6303   17.7889 H   0  0  0  0  0  0
  -27.6899  -14.2493   19.5532 H   0  0  0  0  0  0
  -28.6645  -12.0035   21.3919 H   0  0  0  0  0  0
  -28.4854  -13.6748   21.8492 H   0  0  0  0  0  0
  -25.2765   -9.5682   22.4747 H   0  0  0  0  0  0
  -24.0006   -7.4629   22.7467 H   0  0  0  0  0  0
  -21.0846   -8.8763   19.8948 H   0  0  0  0  0  0
  -22.3694  -10.9669   19.6154 H   0  0  0  0  0  0
  -21.2008   -7.6154   23.9726 H   0  0  0  0  0  0
  -21.1481   -6.0529   25.9084 H   0  0  0  0  0  0
  -22.0596   -2.7615   23.2844 H   0  0  0  0  0  0
  -22.4121  -11.9870   22.4789 H   0  0  0  0  0  0
  -21.1110  -13.1215   22.2647 H   0  0  0  0  0  0
  -24.6594  -15.8418   20.5240 H   0  0  0  0  0  0
  -26.2765  -15.6310   20.0840 H   0  0  0  0  0  0
  -26.7121  -32.5516   23.1152 H   0  0  0  0  0  0
  -25.0059  -33.9764   25.0475 H   0  0  0  0  0  0
  -22.6913  -31.3085   21.4117 H   0  0  0  0  0  0
  -23.3744  -35.9663   23.3300 H   0  0  0  0  0  0
  -24.3591  -36.8934   22.2054 H   0  0  0  0  0  0
  -23.7260  -37.6535   23.6650 H   0  0  0  0  0  0
  -26.0466  -31.5978   20.5929 H   0  0  0  0  0  0
  -26.8187  -30.8823   21.9804 H   0  0  0  0  0  0
  -28.1003  -29.1065   21.1450 H   0  0  0  0  0  0
  -26.0215  -25.9691   19.0155 H   0  0  0  0  0  0
  -23.9706  -27.2912   19.0435 H   0  0  0  0  0  0
  -23.7160  -30.5972   19.4044 H   0  0  0  0  0  0
  -22.7313  -29.2432   19.8702 H   0  0  0  0  0  0
  -25.1283  -36.1970   25.0837 H   0  0  0  0  0  0
  -20.9958  -28.3214   24.1438 H   0  0  0  0  0  0
  -20.5659  -26.2265   23.3603 H   0  0  0  0  0  0
  -21.6634  -26.7427   22.1211 H   0  0  0  0  0  0
  -19.6901  -25.6298   21.1221 H   0  0  0  0  0  0
  -19.6669  -27.3209   20.6756 H   0  0  0  0  0  0
  -17.4191  -26.6669   21.4021 H   0  0  0  0  0  0
  -18.0309  -26.0036   22.9003 H   0  0  0  0  0  0
  -19.7923  -30.7236   24.2298 H   0  0  0  0  0  0
  -17.5004  -31.6251   24.5159 H   0  0  0  0  0  0
  -15.5343  -30.2982   23.7619 H   0  0  0  0  0  0
  -15.8667  -28.0808   22.7059 H   0  0  0  0  0  0
  -24.5925  -30.7016   25.7817 H   0  0  0  0  0  0
  -24.8936  -32.2822   26.4943 H   0  0  0  0  0  0
  -25.8119  -30.8837   27.0215 H   0  0  0  0  0  0
  -26.2823  -29.6787   24.1156 H   0  0  0  0  0  0
  -27.4099  -29.7257   25.4515 H   0  0  0  0  0  0
  -27.8645  -30.4346   23.9192 H   0  0  0  0  0  0
  -27.2676  -33.3594   26.2067 H   0  0  0  0  0  0
  -28.3845  -32.6864   25.0284 H   0  0  0  0  0  0
  -28.0735  -31.8411   26.5367 H   0  0  0  0  0  0
  -28.2600  -38.0109   24.7507 H   0  0  0  0  0  0
  -28.1078  -36.2641   24.6287 H   0  0  0  0  0  0
  -27.2303  -37.1466   25.8868 H   0  0  0  0  0  0
  -20.9305  -29.8756   21.6959 H   0  0  0  0  0  0
  -26.0183  -38.2872   24.1394 H   0  0  0  0  0  0
  -31.6705  -20.9642   20.6955 H   0  0  0  0  0  0
  -27.3941  -20.3946   20.6910 H   0  0  0  0  0  0
  -31.9955  -18.5681   20.2165 H   0  0  0  0  0  0
  -27.7171  -17.9805   20.2375 H   0  0  0  0  0  0
  -31.6283  -24.1154   17.3384 H   0  0  0  0  0  0
  -29.8850  -24.3570   17.2734 H   0  0  0  0  0  0
  -30.5575  -26.2042   18.6745 H   0  0  0  0  0  0
  -31.7804  -25.2253   19.4702 H   0  0  0  0  0  0
  -31.4228  -22.3739   18.9260 H   0  0  0  0  0  0
  -29.8714  -22.1499   18.1154 H   0  0  0  0  0  0
  -30.1300  -24.9716   21.0912 H   0  0  0  0  0  0
  -31.0559  -16.6536   19.1488 H   0  0  0  0  0  0
  -29.3659  -16.5298   18.8452 H   0  0  0  0  0  0
  -27.6506  -24.8603   20.5548 H   0  0  0  0  0  0
  -28.0421  -25.1000   18.8559 H   0  0  0  0  0  0
  -28.9758  -15.3952   20.9164 H   0  0  0  0  0  0
  1 25  1  0  0  0
  1 30  2  0  0  0
  1 85  1  0  0  0
  2  3  1  0  0  0
  2 25  1  0  0  0
  2 87  1  0  0  0
  2 88  1  0  0  0
  3  4  1  0  0  0
  3 89  1  0  0  0
  3 90  1  0  0  0
  4  5  1  0  0  0
  4 91  1  0  0  0
  4 92  1  0  0  0
  5  6  1  0  0  0
  5 26  1  0  0  0
  5 93  1  0  0  0
  6 25  1  0  0  0
  6 94  1  0  0  0
  6 95  1  0  0  0
  7  8  2  0  0  0
  7 26  1  0  0  0
  7 29  1  0  0  0
  8  9  1  0  0  0
  8 22  1  0  0  0
  9 10  1  0  0  0
  9 27  2  0  0  0
 10 11  2  0  0  0
 10 15  1  0  0  0
 11 12  1  0  0  0
 11 96  1  0  0  0
 12 13  2  0  0  0
 12 97  1  0  0  0
 13 14  1  0  0  0
 13 31  1  0  0  0
 14 15  2  0  0  0
 14 98  1  0  0  0
 15 99  1  0  0  0
 16 17  2  0  0  0
 16 21  1  0  0  0
 16 31  1  0  0  0
 17 18  1  0  0  0
 17100  1  0  0  0
 18 19  2  0  0  0
 18101  1  0  0  0
 19 20  1  0  0  0
 19 24  1  0  0  0
 20 21  2  0  0  0
 20102  1  0  0  0
 21 23  1  0  0  0
 22 28  1  0  0  0
 22 32  2  0  0  0
 26 27  1  0  0  0
 28103  1  0  0  0
 28104  1  0  0  0
 29105  1  0  0  0
 29106  1  0  0  0
 33 34  1  0  0  0
 33 66  1  0  0  0
 33 70  2  0  0  0
 34 36  1  0  0  0
 34 59  1  0  0  0
 34107  1  0  0  0
 35 44  2  0  0  0
 35 45  1  0  0  0
 35 68  1  0  0  0
 36 56  1  0  0  0
 36108  1  0  0  0
 37 39  1  0  0  0
 37 47  1  0  0  0
 37 66  1  0  0  0
 37109  1  0  0  0
 38 43  2  0  0  0
 38 46  1  0  0  0
 38 47  1  0  0  0
 39 64  1  0  0  0
 39 67  2  0  0  0
 40 52  1  0  0  0
 40 53  2  0  0  0
 40 58  1  0  0  0
 41110  1  0  0  0
 41111  1  0  0  0
 41112  1  0  0  0
 41 48  1  0  0  0
 42 43  1  0  0  0
 42 66  1  0  0  0
 42113  1  0  0  0
 42114  1  0  0  0
 43 44  1  0  0  0
 44115  1  0  0  0
 45 46  2  0  0  0
 45116  1  0  0  0
 46117  1  0  0  0
 47118  1  0  0  0
 47119  1  0  0  0
 48 56  1  0  0  0
 48 65  1  0  0  0
 48120  1  0  0  0
 49 50  1  0  0  0
 49 53  1  0  0  0
 49 64  1  0  0  0
 49121  1  0  0  0
 50 51  1  0  0  0
 50122  1  0  0  0
 50123  1  0  0  0
 51 52  1  0  0  0
 51124  1  0  0  0
 51125  1  0  0  0
 52126  1  0  0  0
 52127  1  0  0  0
 53 54  1  0  0  0
 54 55  2  0  0  0
 54128  1  0  0  0
 55 57  1  0  0  0
 55129  1  0  0  0
 56 69  2  0  0  0
 57 58  2  0  0  0
 57130  1  0  0  0
 58131  1  0  0  0
 59 60  1  0  0  0
 59 61  1  0  0  0
 59 62  1  0  0  0
 60132  1  0  0  0
 60133  1  0  0  0
 60134  1  0  0  0
 61135  1  0  0  0
 61136  1  0  0  0
 61137  1  0  0  0
 62138  1  0  0  0
 62139  1  0  0  0
 62140  1  0  0  0
 63 65  1  0  0  0
 63141  1  0  0  0
 63142  1  0  0  0
 63143  1  0  0  0
 64144  1  0  0  0
 65145  1  0  0  0
 68 83  1  0  0  0
 71 73  2  0  0  0
 71 75  1  0  0  0
 71146  1  0  0  0
 72 74  1  0  0  0
 72 75  2  0  0  0
 72147  1  0  0  0
 73 76  1  0  0  0
 73148  1  0  0  0
 74 76  2  0  0  0
 74149  1  0  0  0
 75 77  1  0  0  0
 76 82  1  0  0  0
 77 84  1  0  0  0
 77 86  2  0  0  0
 78 79  1  0  0  0
 78 80  1  0  0  0
 78150  1  0  0  0
 78151  1  0  0  0
 79 81  1  0  0  0
 79152  1  0  0  0
 79153  1  0  0  0
 80 84  1  0  0  0
 80154  1  0  0  0
 80155  1  0  0  0
 81 83  1  0  0  0
 81 84  1  0  0  0
 81156  1  0  0  0
 82 85  1  0  0  0
 82157  1  0  0  0
 82158  1  0  0  0
 83159  1  0  0  0
 83160  1  0  0  0
 85161  1  0  0  0
M  ISO  4   1 100  68 101  83 101  85 100
M  END
> <chiral flag>
0

> <version>
0

> <s_m_source_file>
/data/baiqing/PycharmProjects/Reinvent-master-3.2/result/LINK_invent/BTK/process_docking_weight1_custom_product_contain_oxygen_bond_distance_aromatic_linkinvent_7_9_3/rearranged_h_0003.sdf

> <i_m_source_file_index>
61

> <r_mmod_Potential_Energy-OPLS-2005>
71.9881439208984

> <r_mmod_Stretch_Energy-OPLS-2005>
37.7173919677734

> <r_mmod_Bend_Energy-OPLS-2005>
117.204399108887

> <r_mmod_Torsional_Energy-OPLS-2005>
332.864166259766

> <r_mmod_Improper_Torsional_Energy-OPLS-2005>
12.8330030441284

> <r_mmod_Van_der_Waal_Energy-OPLS-2005>
153.551696777344

> <r_mmod_Electrostatic_Energy-OPLS-2005>
-369.693542480469

> <r_mmod_Solvation_Energy-OPLS-2005>
-229.395309448242

> <b_mmod_Minimization_Converged-OPLS-2005>
0

> <r_mmod_RMS_Derivative-OPLS-2005>
1.16625022888184

$$$$
61
                    3D
 Structure written by MMmdl.
153161  0  0  1  0            999 V2000
  -30.4655  -15.1565   20.3862 C   0  0  0  0  0  0
  -30.4598  -12.7193   19.5263 C   0  0  0  0  0  0
  -29.5426  -12.5323   18.2898 C   0  0  0  0  0  0
  -28.0937  -12.2604   18.7384 C   0  0  0  0  0  0
  -27.6334  -13.2466   19.8410 C   0  0  2  0  0  0
  -28.6751  -13.3652   20.9766 C   0  0  0  0  0  0
  -25.2483  -13.8187   20.5725 C   0  0  0  0  0  0
  -24.1808  -13.0446   20.9238 C   0  0  0  0  0  0
  -24.6372  -11.6889   20.8754 C   0  0  0  0  0  0
  -23.9031  -10.4276   21.0395 C   0  0  0  0  0  0
  -24.3578   -9.4197   21.9187 C   0  0  0  0  0  0
  -23.6255   -8.2236   22.0764 C   0  0  0  0  0  0
  -22.4249   -8.0256   21.3546 C   0  0  0  0  0  0
  -21.9862   -9.0229   20.4660 C   0  0  0  0  0  0
  -22.7178  -10.2111   20.3067 C   0  0  0  0  0  0
  -21.6855   -6.0693   22.5262 C   0  0  0  0  0  0
  -21.4008   -6.5607   23.8190 C   0  0  0  0  0  0
  -21.3661   -5.6776   24.9161 C   0  0  0  0  0  0
  -21.6054   -4.3037   24.7228 C   0  0  0  0  0  0
  -21.8826   -3.8108   23.4352 C   0  0  0  0  0  0
  -21.9193   -4.6916   22.3399 C   0  0  0  0  0  0
  -22.7811  -13.5193   21.1908 C   0  0  0  0  0  0
  -22.1673   -4.2088   21.0987 F   0  0  0  0  0  0
  -21.5638   -3.4543   25.7754 F   0  0  0  0  0  0
  -29.9193  -13.8517   20.3540 N   0  0  0  0  0  0
  -26.2926  -12.9416   20.3289 N   0  0  0  0  0  0
  -25.9336  -11.6538   20.5797 N   0  0  0  0  0  0
  -22.0491  -12.8192   22.0436 N   0  0  0  0  0  0
  -25.4199  -15.1929   20.4096 N   0  0  0  0  0  0
  -31.6785  -15.2153   20.1524 O   0  0  0  0  0  0
  -21.6644   -6.8834   21.4217 O   0  0  0  0  0  0
  -22.3493  -14.5510   20.6730 O   0  0  0  0  0  0
  -24.6594  -31.8186   23.1876 C   0  0  0  0  0  0
  -25.9366  -32.4375   23.8334 C   0  0  1  0  0  0
  -27.2202  -27.0136   20.1584 C   0  0  0  0  0  0
  -25.6086  -33.8204   24.2248 N   0  0  0  0  0  0
  -23.4613  -30.4367   21.5302 C   0  0  2  0  0  0
  -24.9138  -28.8456   20.1073 C   0  0  0  0  0  0
  -22.7661  -29.4407   22.4915 C   0  0  0  0  0  0
  -18.0272  -28.1277   22.8497 C   0  0  0  0  0  0
  -24.1486  -36.6912   23.2688 C   0  0  0  0  0  0
  -26.0377  -30.6477   21.4135 C   0  0  0  0  0  0
  -26.0977  -29.2662   20.7240 C   0  0  0  0  0  0
  -27.2508  -28.3760   20.7128 C   0  0  0  0  0  0
  -26.0008  -26.7131   19.5168 C   0  0  0  0  0  0
  -24.8872  -27.5891   19.4796 C   0  0  0  0  0  0
  -23.6904  -29.7514   20.1554 C   0  0  0  0  0  0
  -25.4111  -36.2742   24.0398 C   0  0  1  0  0  0
  -20.5897  -28.3591   23.1195 C   0  0  2  0  0  0
  -20.6657  -26.9275   22.5385 C   0  0  0  0  0  0
  -19.5663  -26.6330   21.5132 C   0  0  0  0  0  0
  -18.1862  -26.7826   22.1596 C   0  0  0  0  0  0
  -19.1547  -28.8798   23.2794 C   0  0  0  0  0  0
  -18.9468  -30.1394   23.8804 C   0  0  0  0  0  0
  -17.6465  -30.6514   24.0476 C   0  0  0  0  0  0
  -25.9142  -34.9146   23.5141 C   0  0  0  0  0  0
  -16.5349  -29.8952   23.6346 C   0  0  0  0  0  0
  -16.7261  -28.6331   23.0459 C   0  0  0  0  0  0
  -26.4740  -31.6226   25.0798 C   0  0  0  0  0  0
  -25.4139  -31.3222   26.1639 C   0  0  0  0  0  0
  -27.0670  -30.2568   24.6587 C   0  0  0  0  0  0
  -27.6263  -32.4078   25.7497 C   0  0  0  0  0  0
  -27.5528  -37.1557   24.8581 C   0  0  0  0  0  0
  -21.4370  -29.2859   22.3597 N   0  0  0  0  0  0
  -26.4221  -37.3519   23.9543 N   0  0  0  0  0  0
  -24.7366  -30.9996   22.0900 N   0  0  0  0  0  0
  -23.4256  -28.8094   23.3204 O   0  0  0  0  0  0
  -28.2592  -25.9789   20.2812 O   0  0  0  0  0  0
  -26.5746  -34.8695   22.4727 O   0  0  0  0  0  0
  -23.5721  -32.1150   23.7074 O   0  0  0  0  0  0
  -30.5788  -19.1530   20.7461 C   0  0  0  0  0  0
  -28.5510  -18.8251   19.4944 C   0  0  0  0  0  0
  -30.0731  -20.6905   21.1105 C   0  0  0  0  0  0
  -28.0828  -20.3952   19.7843 C   0  0  0  0  0  0
  -29.4676  -17.9986   20.5421 C   0  0  1  0  0  0
  -28.6304  -22.9597   20.7053 C   0  0  0  0  0  0
  -28.2536  -24.4245   19.8374 C   0  0  0  0  0  0
  -29.6189  -16.3463   20.4896 N   0  0  0  0  0  0
  -29.1157  -21.4731   20.1745 N   0  3  1  0  0  0
  -31.4875  -12.8964   19.2091 H   0  0  0  0  0  0
  -30.4974  -11.7961   20.1096 H   0  0  0  0  0  0
  -29.9017  -11.7094   17.6721 H   0  0  0  0  0  0
  -29.5709  -13.4237   17.6657 H   0  0  0  0  0  0
  -28.0693  -11.2473   19.1437 H   0  0  0  0  0  0
  -27.4109  -12.2708   17.8911 H   0  0  0  0  0  0
  -27.5699  -14.2184   19.3532 H   0  0  0  0  0  0
  -28.8244  -12.4084   21.4789 H   0  0  0  0  0  0
  -28.3416  -14.0633   21.7440 H   0  0  0  0  0  0
  -25.2728   -9.5698   22.4755 H   0  0  0  0  0  0
  -23.9982   -7.4638   22.7496 H   0  0  0  0  0  0
  -21.0790   -8.8712   19.8971 H   0  0  0  0  0  0
  -22.3610  -10.9642   19.6175 H   0  0  0  0  0  0
  -21.1995   -7.6123   23.9656 H   0  0  0  0  0  0
  -21.1488   -6.0533   25.9063 H   0  0  0  0  0  0
  -22.0605   -2.7566   23.2883 H   0  0  0  0  0  0
  -22.4118  -11.9827   22.4800 H   0  0  0  0  0  0
  -21.1131  -13.1225   22.2722 H   0  0  0  0  0  0
  -24.6458  -15.8446   20.5127 H   0  0  0  0  0  0
  -26.2390  -15.6103   19.9898 H   0  0  0  0  0  0
  -26.7457  -32.4856   23.1053 H   0  0  0  0  0  0
  -25.0105  -33.9251   25.0309 H   0  0  0  0  0  0
  -22.7628  -31.2593   21.3650 H   0  0  0  0  0  0
  -23.3788  -35.9190   23.3358 H   0  0  0  0  0  0
  -24.3614  -36.8494   22.2103 H   0  0  0  0  0  0
  -23.7163  -37.6099   23.6686 H   0  0  0  0  0  0
  -26.2937  -31.4218   20.6896 H   0  0  0  0  0  0
  -26.8675  -30.6231   22.1084 H   0  0  0  0  0  0
  -28.1587  -28.7175   21.1923 H   0  0  0  0  0  0
  -25.8456  -25.7394   19.0829 H   0  0  0  0  0  0
  -23.9808  -27.2440   18.9999 H   0  0  0  0  0  0
  -23.8094  -30.5132   19.3876 H   0  0  0  0  0  0
  -22.8112  -29.1759   19.8617 H   0  0  0  0  0  0
  -25.1240  -36.1513   25.0878 H   0  0  0  0  0  0
  -20.9911  -28.3083   24.1337 H   0  0  0  0  0  0
  -20.5320  -26.2205   23.3600 H   0  0  0  0  0  0
  -21.6525  -26.7100   22.1309 H   0  0  0  0  0  0
  -19.6772  -25.6272   21.1057 H   0  0  0  0  0  0
  -19.6527  -27.3218   20.6736 H   0  0  0  0  0  0
  -17.4097  -26.6598   21.4024 H   0  0  0  0  0  0
  -18.0279  -25.9904   22.8955 H   0  0  0  0  0  0
  -19.7963  -30.7199   24.2119 H   0  0  0  0  0  0
  -17.5018  -31.6204   24.5049 H   0  0  0  0  0  0
  -15.5331  -30.2815   23.7724 H   0  0  0  0  0  0
  -15.8647  -28.0556   22.7359 H   0  0  0  0  0  0
  -24.6484  -30.6273   25.8175 H   0  0  0  0  0  0
  -24.9157  -32.2201   26.5290 H   0  0  0  0  0  0
  -25.8805  -30.8464   27.0301 H   0  0  0  0  0  0
  -26.3336  -29.6107   24.1743 H   0  0  0  0  0  0
  -27.4286  -29.7014   25.5282 H   0  0  0  0  0  0
  -27.9291  -30.3641   23.9988 H   0  0  0  0  0  0
  -27.2891  -33.3470   26.1916 H   0  0  0  0  0  0
  -28.4112  -32.6484   25.0293 H   0  0  0  0  0  0
  -28.0928  -31.8316   26.5526 H   0  0  0  0  0  0
  -28.2574  -37.9832   24.7589 H   0  0  0  0  0  0
  -28.1005  -36.2353   24.6432 H   0  0  0  0  0  0
  -27.2298  -37.1218   25.9016 H   0  0  0  0  0  0
  -20.9745  -29.8366   21.6513 H   0  0  0  0  0  0
  -26.0023  -38.2552   24.1616 H   0  0  0  0  0  0
  -31.2437  -18.8533   21.5632 H   0  0  0  0  0  0
  -31.2302  -19.2036   19.8672 H   0  0  0  0  0  0
  -29.0413  -18.8025   18.5180 H   0  0  0  0  0  0
  -27.6210  -18.2689   19.3481 H   0  0  0  0  0  0
  -29.5924  -20.6348   22.0942 H   0  0  0  0  0  0
  -30.9505  -21.3228   21.2819 H   0  0  0  0  0  0
  -27.3009  -20.3704   20.5495 H   0  0  0  0  0  0
  -27.5760  -20.7513   18.8800 H   0  0  0  0  0  0
  -28.8907  -18.0577   21.4720 H   0  0  0  0  0  0
  -27.7784  -22.7841   21.3772 H   0  0  0  0  0  0
  -29.4405  -23.2646   21.3755 H   0  0  0  0  0  0
  -28.9587  -24.4374   19.0089 H   0  0  0  0  0  0
  -27.2979  -24.2201   19.3558 H   0  0  0  0  0  0
  -28.6947  -15.9669   20.6357 H   0  0  0  0  0  0
  -29.6635  -21.6445   19.3379 H   0  0  0  0  0  0
  1 25  1  0  0  0
  1 30  2  0  0  0
  1 78  1  0  0  0
  2  3  1  0  0  0
  2 25  1  0  0  0
  2 80  1  0  0  0
  2 81  1  0  0  0
  3  4  1  0  0  0
  3 82  1  0  0  0
  3 83  1  0  0  0
  4  5  1  0  0  0
  4 84  1  0  0  0
  4 85  1  0  0  0
  5  6  1  0  0  0
  5 26  1  0  0  0
  5 86  1  0  0  0
  6 25  1  0  0  0
  6 87  1  0  0  0
  6 88  1  0  0  0
  7  8  2  0  0  0
  7 26  1  0  0  0
  7 29  1  0  0  0
  8  9  1  0  0  0
  8 22  1  0  0  0
  9 10  1  0  0  0
  9 27  2  0  0  0
 10 11  2  0  0  0
 10 15  1  0  0  0
 11 12  1  0  0  0
 11 89  1  0  0  0
 12 13  2  0  0  0
 12 90  1  0  0  0
 13 14  1  0  0  0
 13 31  1  0  0  0
 14 15  2  0  0  0
 14 91  1  0  0  0
 15 92  1  0  0  0
 16 17  2  0  0  0
 16 21  1  0  0  0
 16 31  1  0  0  0
 17 18  1  0  0  0
 17 93  1  0  0  0
 18 19  2  0  0  0
 18 94  1  0  0  0
 19 20  1  0  0  0
 19 24  1  0  0  0
 20 21  2  0  0  0
 20 95  1  0  0  0
 21 23  1  0  0  0
 22 28  1  0  0  0
 22 32  2  0  0  0
 26 27  1  0  0  0
 28 96  1  0  0  0
 28 97  1  0  0  0
 29 98  1  0  0  0
 29 99  1  0  0  0
 33 34  1  0  0  0
 33 66  1  0  0  0
 33 70  2  0  0  0
 34 36  1  0  0  0
 34 59  1  0  0  0
 34100  1  0  0  0
 35 44  2  0  0  0
 35 45  1  0  0  0
 35 68  1  0  0  0
 36 56  1  0  0  0
 36101  1  0  0  0
 37 39  1  0  0  0
 37 47  1  0  0  0
 37 66  1  0  0  0
 37102  1  0  0  0
 38 43  2  0  0  0
 38 46  1  0  0  0
 38 47  1  0  0  0
 39 64  1  0  0  0
 39 67  2  0  0  0
 40 52  1  0  0  0
 40 53  2  0  0  0
 40 58  1  0  0  0
 41103  1  0  0  0
 41104  1  0  0  0
 41105  1  0  0  0
 41 48  1  0  0  0
 42 43  1  0  0  0
 42 66  1  0  0  0
 42106  1  0  0  0
 42107  1  0  0  0
 43 44  1  0  0  0
 44108  1  0  0  0
 45 46  2  0  0  0
 45109  1  0  0  0
 46110  1  0  0  0
 47111  1  0  0  0
 47112  1  0  0  0
 48 56  1  0  0  0
 48 65  1  0  0  0
 48113  1  0  0  0
 49 50  1  0  0  0
 49 53  1  0  0  0
 49 64  1  0  0  0
 49114  1  0  0  0
 50 51  1  0  0  0
 50115  1  0  0  0
 50116  1  0  0  0
 51 52  1  0  0  0
 51117  1  0  0  0
 51118  1  0  0  0
 52119  1  0  0  0
 52120  1  0  0  0
 53 54  1  0  0  0
 54 55  2  0  0  0
 54121  1  0  0  0
 55 57  1  0  0  0
 55122  1  0  0  0
 56 69  2  0  0  0
 57 58  2  0  0  0
 57123  1  0  0  0
 58124  1  0  0  0
 59 60  1  0  0  0
 59 61  1  0  0  0
 59 62  1  0  0  0
 60125  1  0  0  0
 60126  1  0  0  0
 60127  1  0  0  0
 61128  1  0  0  0
 61129  1  0  0  0
 61130  1  0  0  0
 62131  1  0  0  0
 62132  1  0  0  0
 62133  1  0  0  0
 63 65  1  0  0  0
 63134  1  0  0  0
 63135  1  0  0  0
 63136  1  0  0  0
 64137  1  0  0  0
 65138  1  0  0  0
 68 77  1  0  0  0
 71 73  1  0  0  0
 71 75  1  0  0  0
 71139  1  0  0  0
 71140  1  0  0  0
 72 74  1  0  0  0
 72 75  1  0  0  0
 72141  1  0  0  0
 72142  1  0  0  0
 73 79  1  0  0  0
 73143  1  0  0  0
 73144  1  0  0  0
 74 79  1  0  0  0
 74145  1  0  0  0
 74146  1  0  0  0
 75 78  1  0  0  0
 75147  1  0  0  0
 76 77  1  0  0  0
 76148  1  0  0  0
 76149  1  0  0  0
 76 79  1  0  0  0
 77150  1  0  0  0
 77151  1  0  0  0
 78152  1  0  0  0
 79153  1  0  0  0
M  CHG  1  79   1
M  ISO  4   1 100  68 101  77 101  78 100
M  END
> <chiral flag>
0

> <version>
0

> <s_m_source_file>
/data/baiqing/PycharmProjects/Reinvent-master-3.2/result/LINK_invent/BTK/process_docking_weight1_custom_product_contain_oxygen_bond_distance_aromatic_linkinvent_7_9_3/rearranged_h_0003.sdf

> <i_m_source_file_index>
62

> <r_mmod_Potential_Energy-OPLS-2005>
907.49267578125

> <r_mmod_Stretch_Energy-OPLS-2005>
422.123931884766

> <r_mmod_Bend_Energy-OPLS-2005>
452.849731445312

> <r_mmod_Torsional_Energy-OPLS-2005>
236.023727416992

> <r_mmod_Improper_Torsional_Energy-OPLS-2005>
4.44967126846313

> <r_mmod_Van_der_Waal_Energy-OPLS-2005>
109.575119018555

> <r_mmod_Electrostatic_Energy-OPLS-2005>
-210.960876464844

> <r_mmod_Solvation_Energy-OPLS-2005>
-454.601898193359

> <b_mmod_Minimization_Converged-OPLS-2005>
0

> <r_mmod_RMS_Derivative-OPLS-2005>
8.72944927215576

$$$$
62
                    3D
 Structure written by MMmdl.
163172  0  0  1  0            999 V2000
  -30.7522  -14.4130   20.6419 C   0  0  0  0  0  0
  -30.4169  -12.3002   19.4084 C   0  0  0  0  0  0
  -29.4883  -12.5202   18.1992 C   0  0  0  0  0  0
  -28.0123  -12.3773   18.6146 C   0  0  0  0  0  0
  -27.6655  -13.2070   19.8794 C   0  0  2  0  0  0
  -28.7059  -12.9698   20.9970 C   0  0  0  0  0  0
  -25.2599  -13.8161   20.5676 C   0  0  0  0  0  0
  -24.1845  -13.0438   20.9170 C   0  0  0  0  0  0
  -24.6399  -11.6906   20.8732 C   0  0  0  0  0  0
  -23.9064  -10.4292   21.0400 C   0  0  0  0  0  0
  -24.3613   -9.4208   21.9179 C   0  0  0  0  0  0
  -23.6290   -8.2243   22.0755 C   0  0  0  0  0  0
  -22.4274   -8.0279   21.3544 C   0  0  0  0  0  0
  -21.9911   -9.0253   20.4642 C   0  0  0  0  0  0
  -22.7240  -10.2132   20.3051 C   0  0  0  0  0  0
  -21.6855   -6.0737   22.5284 C   0  0  0  0  0  0
  -21.4012   -6.5642   23.8216 C   0  0  0  0  0  0
  -21.3657   -5.6795   24.9181 C   0  0  0  0  0  0
  -21.6046   -4.3057   24.7232 C   0  0  0  0  0  0
  -21.8819   -3.8146   23.4354 C   0  0  0  0  0  0
  -21.9192   -4.6962   22.3411 C   0  0  0  0  0  0
  -22.7870  -13.5240   21.1840 C   0  0  0  0  0  0
  -22.1664   -4.2146   21.0987 F   0  0  0  0  0  0
  -21.5627   -3.4537   25.7745 F   0  0  0  0  0  0
  -30.0436  -13.2672   20.4525 N   0  0  0  0  0  0
  -26.3043  -12.9335   20.3383 N   0  0  0  0  0  0
  -25.9324  -11.6491   20.5760 N   0  0  0  0  0  0
  -22.0512  -12.8224   22.0394 N   0  0  0  0  0  0
  -25.4329  -15.1875   20.4087 N   0  0  0  0  0  0
  -31.8157  -14.6480   20.0610 O   0  0  0  0  0  0
  -21.6643   -6.8875   21.4243 O   0  0  0  0  0  0
  -22.3557  -14.5551   20.6702 O   0  0  0  0  0  0
  -24.6153  -31.8690   23.2133 C   0  0  0  0  0  0
  -25.9054  -32.4822   23.8415 C   0  0  1  0  0  0
  -27.2295  -27.4324   20.0850 C   0  0  0  0  0  0
  -25.5921  -33.8621   24.2347 N   0  0  0  0  0  0
  -23.4015  -30.4960   21.5549 C   0  0  2  0  0  0
  -24.8441  -28.9684   20.1137 C   0  0  0  0  0  0
  -22.7410  -29.4669   22.5004 C   0  0  0  0  0  0
  -18.0268  -28.1381   22.8495 C   0  0  0  0  0  0
  -24.1493  -36.7313   23.2638 C   0  0  0  0  0  0
  -25.9324  -30.8346   21.3654 C   0  0  0  0  0  0
  -26.0073  -29.4706   20.7095 C   0  0  0  0  0  0
  -27.2007  -28.7102   20.6930 C   0  0  0  0  0  0
  -26.0428  -26.9587   19.4710 C   0  0  0  0  0  0
  -24.8569  -27.7108   19.4930 C   0  0  0  0  0  0
  -23.6072  -29.8351   20.1676 C   0  0  0  0  0  0
  -25.4102  -36.3104   24.0347 C   0  0  1  0  0  0
  -20.5859  -28.3667   23.1324 C   0  0  2  0  0  0
  -20.6758  -26.9400   22.5425 C   0  0  0  0  0  0
  -19.5739  -26.6387   21.5215 C   0  0  0  0  0  0
  -18.1915  -26.7931   22.1618 C   0  0  0  0  0  0
  -19.1518  -28.8840   23.2908 C   0  0  0  0  0  0
  -18.9444  -30.1445   23.8923 C   0  0  0  0  0  0
  -17.6447  -30.6594   24.0565 C   0  0  0  0  0  0
  -25.9036  -34.9472   23.5138 C   0  0  0  0  0  0
  -16.5337  -29.9096   23.6325 C   0  0  0  0  0  0
  -16.7258  -28.6509   23.0352 C   0  0  0  0  0  0
  -26.4477  -31.6589   25.0734 C   0  0  0  0  0  0
  -25.3750  -31.3685   26.1485 C   0  0  0  0  0  0
  -27.0292  -30.3035   24.6092 C   0  0  0  0  0  0
  -27.6054  -32.4295   25.7503 C   0  0  0  0  0  0
  -27.5586  -37.1800   24.8456 C   0  0  0  0  0  0
  -21.4138  -29.3036   22.3737 N   0  0  0  0  0  0
  -26.4284  -37.3790   23.9422 N   0  0  0  0  0  0
  -24.6686  -31.0797   22.1032 N   0  0  0  0  0  0
  -23.4184  -28.8196   23.3030 O   0  0  0  0  0  0
  -28.4028  -26.6932   20.1196 O   0  0  0  0  0  0
  -26.5593  -34.8923   22.4694 O   0  0  0  0  0  0
  -23.5349  -32.1441   23.7537 O   0  0  0  0  0  0
  -29.0272  -18.2967   21.3957 C   0  0  0  0  0  0
  -31.1093  -18.3981   20.1402 C   0  0  0  0  0  0
  -28.5459  -19.4148   20.6835 C   0  0  0  0  0  0
  -30.6252  -19.5133   19.4215 C   0  0  0  0  0  0
  -30.3095  -17.7764   21.1242 C   0  0  0  0  0  0
  -29.3339  -20.0234   19.6806 C   0  0  0  0  0  0
  -28.5967  -24.9395   18.4211 C   0  0  0  0  0  0
  -29.2960  -24.4550   20.7359 C   0  0  0  0  0  0
  -28.3595  -23.4395   18.1679 C   0  0  0  0  0  0
  -29.0567  -22.9371   20.5093 C   0  0  0  0  0  0
  -28.3130  -25.2751   19.8898 C   0  0  1  0  0  0
  -30.8265  -16.5686   21.8992 C   0  0  0  0  0  0
  -28.7313  -21.1223   18.8023 C   0  0  0  0  0  0
  -30.2198  -15.2967   21.4977 N   0  0  0  0  0  0
  -29.1336  -22.5348   19.0720 N   0  3  1  0  0  0
  -31.4610  -12.3932   19.1043 H   0  0  0  0  0  0
  -30.3106  -11.2837   19.7903 H   0  0  0  0  0  0
  -29.7233  -11.8081   17.4069 H   0  0  0  0  0  0
  -29.6592  -13.5126   17.7792 H   0  0  0  0  0  0
  -27.8222  -11.3199   18.8017 H   0  0  0  0  0  0
  -27.3597  -12.6611   17.7887 H   0  0  0  0  0  0
  -27.7181  -14.2590   19.5963 H   0  0  0  0  0  0
  -28.6741  -11.9300   21.3269 H   0  0  0  0  0  0
  -28.4566  -13.5574   21.8807 H   0  0  0  0  0  0
  -25.2759   -9.5687   22.4749 H   0  0  0  0  0  0
  -24.0000   -7.4642   22.7482 H   0  0  0  0  0  0
  -21.0842   -8.8779   19.8947 H   0  0  0  0  0  0
  -22.3705  -10.9671   19.6158 H   0  0  0  0  0  0
  -21.2009   -7.6152   23.9718 H   0  0  0  0  0  0
  -21.1479   -6.0528   25.9083 H   0  0  0  0  0  0
  -22.0599   -2.7606   23.2866 H   0  0  0  0  0  0
  -22.4127  -11.9877   22.4773 H   0  0  0  0  0  0
  -21.1128  -13.1242   22.2591 H   0  0  0  0  0  0
  -24.6679  -15.8452   20.5130 H   0  0  0  0  0  0
  -26.2922  -15.6247   20.0987 H   0  0  0  0  0  0
  -26.7122  -32.5537   23.1177 H   0  0  0  0  0  0
  -25.0080  -33.9784   25.0499 H   0  0  0  0  0  0
  -22.6885  -31.3124   21.4209 H   0  0  0  0  0  0
  -23.3759  -35.9642   23.3272 H   0  0  0  0  0  0
  -24.3606  -36.8952   22.2060 H   0  0  0  0  0  0
  -23.7239  -37.6508   23.6667 H   0  0  0  0  0  0
  -26.0423  -31.6011   20.5968 H   0  0  0  0  0  0
  -26.8224  -30.8877   21.9810 H   0  0  0  0  0  0
  -28.0971  -29.0945   21.1596 H   0  0  0  0  0  0
  -25.9984  -26.0088   18.9612 H   0  0  0  0  0  0
  -23.9641  -27.3208   19.0237 H   0  0  0  0  0  0
  -23.7152  -30.6134   19.4110 H   0  0  0  0  0  0
  -22.7298  -29.2573   19.8712 H   0  0  0  0  0  0
  -25.1267  -36.1965   25.0840 H   0  0  0  0  0  0
  -20.9946  -28.3232   24.1446 H   0  0  0  0  0  0
  -20.5650  -26.2270   23.3612 H   0  0  0  0  0  0
  -21.6630  -26.7445   22.1223 H   0  0  0  0  0  0
  -19.6898  -25.6300   21.1238 H   0  0  0  0  0  0
  -19.6683  -27.3201   20.6746 H   0  0  0  0  0  0
  -17.4184  -26.6697   21.4014 H   0  0  0  0  0  0
  -18.0300  -26.0072   22.9011 H   0  0  0  0  0  0
  -19.7915  -30.7252   24.2315 H   0  0  0  0  0  0
  -17.4999  -31.6276   24.5161 H   0  0  0  0  0  0
  -15.5337  -30.3002   23.7643 H   0  0  0  0  0  0
  -15.8654  -28.0833   22.7061 H   0  0  0  0  0  0
  -24.5947  -30.6997   25.7835 H   0  0  0  0  0  0
  -24.8917  -32.2833   26.4924 H   0  0  0  0  0  0
  -25.8125  -30.8877   27.0245 H   0  0  0  0  0  0
  -26.2823  -29.6818   24.1143 H   0  0  0  0  0  0
  -27.4055  -29.7247   25.4536 H   0  0  0  0  0  0
  -27.8666  -30.4350   23.9236 H   0  0  0  0  0  0
  -27.2668  -33.3569   26.2135 H   0  0  0  0  0  0
  -28.3846  -32.6893   25.0325 H   0  0  0  0  0  0
  -28.0747  -31.8387   26.5380 H   0  0  0  0  0  0
  -28.2566  -38.0135   24.7550 H   0  0  0  0  0  0
  -28.1119  -36.2667   24.6209 H   0  0  0  0  0  0
  -27.2321  -37.1368   25.8863 H   0  0  0  0  0  0
  -20.9297  -29.8765   21.6968 H   0  0  0  0  0  0
  -26.0172  -38.2860   24.1452 H   0  0  0  0  0  0
  -28.4029  -17.8327   22.1473 H   0  0  0  0  0  0
  -32.0948  -18.0101   19.9196 H   0  0  0  0  0  0
  -27.5481  -19.7782   20.8888 H   0  0  0  0  0  0
  -31.2401  -19.9511   18.6470 H   0  0  0  0  0  0
  -27.9523  -25.5214   17.7622 H   0  0  0  0  0  0
  -29.6199  -25.2136   18.1594 H   0  0  0  0  0  0
  -30.3247  -24.7212   20.4911 H   0  0  0  0  0  0
  -29.1617  -24.6896   21.7919 H   0  0  0  0  0  0
  -28.5935  -23.2057   17.1281 H   0  0  0  0  0  0
  -27.2932  -23.2404   18.2910 H   0  0  0  0  0  0
  -28.0770  -22.6649   20.9044 H   0  0  0  0  0  0
  -29.7874  -22.3681   21.0856 H   0  0  0  0  0  0
  -27.3294  -24.9058   20.1824 H   0  0  0  0  0  0
  -30.6132  -16.7253   22.9573 H   0  0  0  0  0  0
  -31.9152  -16.5220   21.8282 H   0  0  0  0  0  0
  -27.6454  -21.0444   18.8777 H   0  0  0  0  0  0
  -28.9655  -20.8846   17.7633 H   0  0  0  0  0  0
  -29.3485  -15.0408   21.9372 H   0  0  0  0  0  0
  -30.1039  -22.6062   18.8034 H   0  0  0  0  0  0
  1 25  1  0  0  0
  1 30  2  0  0  0
  1 84  1  0  0  0
  2  3  1  0  0  0
  2 25  1  0  0  0
  2 86  1  0  0  0
  2 87  1  0  0  0
  3  4  1  0  0  0
  3 88  1  0  0  0
  3 89  1  0  0  0
  4  5  1  0  0  0
  4 90  1  0  0  0
  4 91  1  0  0  0
  5  6  1  0  0  0
  5 26  1  0  0  0
  5 92  1  0  0  0
  6 25  1  0  0  0
  6 93  1  0  0  0
  6 94  1  0  0  0
  7  8  2  0  0  0
  7 26  1  0  0  0
  7 29  1  0  0  0
  8  9  1  0  0  0
  8 22  1  0  0  0
  9 10  1  0  0  0
  9 27  2  0  0  0
 10 11  2  0  0  0
 10 15  1  0  0  0
 11 12  1  0  0  0
 11 95  1  0  0  0
 12 13  2  0  0  0
 12 96  1  0  0  0
 13 14  1  0  0  0
 13 31  1  0  0  0
 14 15  2  0  0  0
 14 97  1  0  0  0
 15 98  1  0  0  0
 16 17  2  0  0  0
 16 21  1  0  0  0
 16 31  1  0  0  0
 17 18  1  0  0  0
 17 99  1  0  0  0
 18 19  2  0  0  0
 18100  1  0  0  0
 19 20  1  0  0  0
 19 24  1  0  0  0
 20 21  2  0  0  0
 20101  1  0  0  0
 21 23  1  0  0  0
 22 28  1  0  0  0
 22 32  2  0  0  0
 26 27  1  0  0  0
 28102  1  0  0  0
 28103  1  0  0  0
 29104  1  0  0  0
 29105  1  0  0  0
 33 34  1  0  0  0
 33 66  1  0  0  0
 33 70  2  0  0  0
 34 36  1  0  0  0
 34 59  1  0  0  0
 34106  1  0  0  0
 35 44  2  0  0  0
 35 45  1  0  0  0
 35 68  1  0  0  0
 36 56  1  0  0  0
 36107  1  0  0  0
 37 39  1  0  0  0
 37 47  1  0  0  0
 37 66  1  0  0  0
 37108  1  0  0  0
 38 43  2  0  0  0
 38 46  1  0  0  0
 38 47  1  0  0  0
 39 64  1  0  0  0
 39 67  2  0  0  0
 40 52  1  0  0  0
 40 53  2  0  0  0
 40 58  1  0  0  0
 41109  1  0  0  0
 41110  1  0  0  0
 41111  1  0  0  0
 41 48  1  0  0  0
 42 43  1  0  0  0
 42 66  1  0  0  0
 42112  1  0  0  0
 42113  1  0  0  0
 43 44  1  0  0  0
 44114  1  0  0  0
 45 46  2  0  0  0
 45115  1  0  0  0
 46116  1  0  0  0
 47117  1  0  0  0
 47118  1  0  0  0
 48 56  1  0  0  0
 48 65  1  0  0  0
 48119  1  0  0  0
 49 50  1  0  0  0
 49 53  1  0  0  0
 49 64  1  0  0  0
 49120  1  0  0  0
 50 51  1  0  0  0
 50121  1  0  0  0
 50122  1  0  0  0
 51 52  1  0  0  0
 51123  1  0  0  0
 51124  1  0  0  0
 52125  1  0  0  0
 52126  1  0  0  0
 53 54  1  0  0  0
 54 55  2  0  0  0
 54127  1  0  0  0
 55 57  1  0  0  0
 55128  1  0  0  0
 56 69  2  0  0  0
 57 58  2  0  0  0
 57129  1  0  0  0
 58130  1  0  0  0
 59 60  1  0  0  0
 59 61  1  0  0  0
 59 62  1  0  0  0
 60131  1  0  0  0
 60132  1  0  0  0
 60133  1  0  0  0
 61134  1  0  0  0
 61135  1  0  0  0
 61136  1  0  0  0
 62137  1  0  0  0
 62138  1  0  0  0
 62139  1  0  0  0
 63 65  1  0  0  0
 63140  1  0  0  0
 63141  1  0  0  0
 63142  1  0  0  0
 64143  1  0  0  0
 65144  1  0  0  0
 68 81  1  0  0  0
 71 73  2  0  0  0
 71 75  1  0  0  0
 71145  1  0  0  0
 72 74  1  0  0  0
 72 75  2  0  0  0
 72146  1  0  0  0
 73 76  1  0  0  0
 73147  1  0  0  0
 74 76  2  0  0  0
 74148  1  0  0  0
 75 82  1  0  0  0
 76 83  1  0  0  0
 77 79  1  0  0  0
 77 81  1  0  0  0
 77149  1  0  0  0
 77150  1  0  0  0
 78 80  1  0  0  0
 78 81  1  0  0  0
 78151  1  0  0  0
 78152  1  0  0  0
 79 85  1  0  0  0
 79153  1  0  0  0
 79154  1  0  0  0
 80 85  1  0  0  0
 80155  1  0  0  0
 80156  1  0  0  0
 81157  1  0  0  0
 82 84  1  0  0  0
 82158  1  0  0  0
 82159  1  0  0  0
 83160  1  0  0  0
 83161  1  0  0  0
 83 85  1  0  0  0
 84162  1  0  0  0
 85163  1  0  0  0
M  CHG  1  85   1
M  ISO  4   1 100  68 101  81 101  84 100
M  END
> <chiral flag>
0

> <version>
0

> <s_m_source_file>
/data/baiqing/PycharmProjects/Reinvent-master-3.2/result/LINK_invent/BTK/process_docking_weight1_custom_product_contain_oxygen_bond_distance_aromatic_linkinvent_7_9_3/rearranged_h_0003.sdf

> <i_m_source_file_index>
63

> <r_mmod_Potential_Energy-OPLS-2005>
-246.908386230469

> <r_mmod_Stretch_Energy-OPLS-2005>
37.8330917358398

> <r_mmod_Bend_Energy-OPLS-2005>
103.125289916992

> <r_mmod_Torsional_Energy-OPLS-2005>
211.96337890625

> <r_mmod_Improper_Torsional_Energy-OPLS-2005>
2.15838408470154

> <r_mmod_Van_der_Waal_Energy-OPLS-2005>
160.813842773438

> <r_mmod_Electrostatic_Energy-OPLS-2005>
-325.397918701172

> <r_mmod_Solvation_Energy-OPLS-2005>
-447.541168212891

> <b_mmod_Minimization_Converged-OPLS-2005>
0

> <r_mmod_RMS_Derivative-OPLS-2005>
0.954148530960083

$$$$
63
                    3D
 Structure written by MMmdl.
152160  0  0  1  0            999 V2000
  -30.5612  -14.6482   20.5608 C   0  0  0  0  0  0
  -30.4489  -12.4183   19.4571 C   0  0  0  0  0  0
  -29.5095  -12.5220   18.2325 C   0  0  0  0  0  0
  -28.0313  -12.3494   18.6396 C   0  0  0  0  0  0
  -27.6518  -13.2072   19.8753 C   0  0  2  0  0  0
  -28.6869  -13.0223   21.0059 C   0  0  0  0  0  0
  -25.2518  -13.8190   20.5588 C   0  0  0  0  0  0
  -24.1804  -13.0483   20.9201 C   0  0  0  0  0  0
  -24.6373  -11.6946   20.8785 C   0  0  0  0  0  0
  -23.9050  -10.4335   21.0419 C   0  0  0  0  0  0
  -24.3618   -9.4249   21.9183 C   0  0  0  0  0  0
  -23.6305   -8.2277   22.0752 C   0  0  0  0  0  0
  -22.4282   -8.0315   21.3535 C   0  0  0  0  0  0
  -21.9918   -9.0289   20.4638 C   0  0  0  0  0  0
  -22.7237  -10.2172   20.3055 C   0  0  0  0  0  0
  -21.6852   -6.0772   22.5277 C   0  0  0  0  0  0
  -21.4014   -6.5657   23.8215 C   0  0  0  0  0  0
  -21.3649   -5.6798   24.9167 C   0  0  0  0  0  0
  -21.6041   -4.3064   24.7190 C   0  0  0  0  0  0
  -21.8824   -3.8168   23.4307 C   0  0  0  0  0  0
  -21.9208   -4.7007   22.3384 C   0  0  0  0  0  0
  -22.7840  -13.5291   21.1897 C   0  0  0  0  0  0
  -22.1670   -4.2209   21.0946 F   0  0  0  0  0  0
  -21.5627   -3.4533   25.7685 F   0  0  0  0  0  0
  -30.0027  -13.4010   20.4664 N   0  0  0  0  0  0
  -26.2948  -12.9343   20.3333 N   0  0  0  0  0  0
  -25.9278  -11.6514   20.5773 N   0  0  0  0  0  0
  -22.0456  -12.8278   22.0426 N   0  0  0  0  0  0
  -25.4203  -15.1903   20.3695 N   0  0  0  0  0  0
  -31.6825  -14.8833   20.0965 O   0  0  0  0  0  0
  -21.6647   -6.8916   21.4235 O   0  0  0  0  0  0
  -22.3535  -14.5603   20.6754 O   0  0  0  0  0  0
  -24.6284  -31.8599   23.2022 C   0  0  0  0  0  0
  -25.9117  -32.4786   23.8345 C   0  0  1  0  0  0
  -27.1779  -27.2958   20.1384 C   0  0  0  0  0  0
  -25.5933  -33.8578   24.2295 N   0  0  0  0  0  0
  -23.4185  -30.4917   21.5433 C   0  0  2  0  0  0
  -24.8609  -28.9570   20.0981 C   0  0  0  0  0  0
  -22.7489  -29.4617   22.4869 C   0  0  0  0  0  0
  -18.0316  -28.1405   22.8481 C   0  0  0  0  0  0
  -24.1487  -36.7270   23.2636 C   0  0  0  0  0  0
  -25.9618  -30.7897   21.3729 C   0  0  0  0  0  0
  -26.0278  -29.4161   20.7206 C   0  0  0  0  0  0
  -27.1952  -28.5948   20.7339 C   0  0  0  0  0  0
  -26.0074  -26.9079   19.4586 C   0  0  0  0  0  0
  -24.8530  -27.7146   19.4529 C   0  0  0  0  0  0
  -23.6287  -29.8381   20.1539 C   0  0  0  0  0  0
  -25.4096  -36.3071   24.0351 C   0  0  1  0  0  0
  -20.5917  -28.3683   23.1277 C   0  0  2  0  0  0
  -20.6827  -26.9405   22.5406 C   0  0  0  0  0  0
  -19.5787  -26.6395   21.5232 C   0  0  0  0  0  0
  -18.1956  -26.7970   22.1622 C   0  0  0  0  0  0
  -19.1554  -28.8861   23.2905 C   0  0  0  0  0  0
  -18.9480  -30.1477   23.8910 C   0  0  0  0  0  0
  -17.6465  -30.6589   24.0576 C   0  0  0  0  0  0
  -25.9010  -34.9458   23.5114 C   0  0  0  0  0  0
  -16.5361  -29.9089   23.6342 C   0  0  0  0  0  0
  -16.7290  -28.6529   23.0321 C   0  0  0  0  0  0
  -26.4504  -31.6594   25.0699 C   0  0  0  0  0  0
  -25.3739  -31.3772   26.1443 C   0  0  0  0  0  0
  -27.0326  -30.3011   24.6122 C   0  0  0  0  0  0
  -27.6086  -32.4310   25.7469 C   0  0  0  0  0  0
  -27.5582  -37.1765   24.8475 C   0  0  0  0  0  0
  -21.4202  -29.3047   22.3648 N   0  0  0  0  0  0
  -26.4284  -37.3757   23.9410 N   0  0  0  0  0  0
  -24.6893  -31.0631   22.0984 N   0  0  0  0  0  0
  -23.4251  -28.8113   23.2889 O   0  0  0  0  0  0
  -28.2464  -26.3918   20.2059 O   0  0  0  0  0  0
  -26.5561  -34.8930   22.4663 O   0  0  0  0  0  0
  -23.5449  -32.1371   23.7356 O   0  0  0  0  0  0
  -27.7683  -17.1291   22.6982 C   0  0  0  0  0  0
  -29.9341  -19.1750   19.6648 C   0  0  0  0  0  0
  -30.2338  -17.7999   19.9099 C   0  0  0  0  0  0
  -28.2352  -19.1317   21.3547 C   0  0  0  0  0  0
  -28.5406  -17.7639   21.6315 C   0  0  0  0  0  0
  -28.9215  -19.8802   20.3683 C   0  0  0  0  0  0
  -29.5443  -17.0416   20.8973 C   0  0  0  0  0  0
  -28.4793  -21.3304   19.9403 C   0  0  0  0  0  0
  -27.9305  -25.0173   20.6899 C   0  0  0  0  0  0
  -28.8662  -23.8063   20.2460 C   0  0  0  0  0  0
  -27.1562  -16.6312   23.5490 N   0  0  0  0  0  0
  -29.7649  -15.6048   21.1367 N   0  0  0  0  0  0
  -28.6800  -22.4671   20.8480 O   0  0  0  0  0  0
  -31.4818  -12.5918   19.1504 H   0  0  0  0  0  0
  -30.4307  -11.4128   19.8789 H   0  0  0  0  0  0
  -29.7752  -11.7640   17.4946 H   0  0  0  0  0  0
  -29.6444  -13.4901   17.7473 H   0  0  0  0  0  0
  -27.8697  -11.2927   18.8548 H   0  0  0  0  0  0
  -27.3774  -12.5893   17.7989 H   0  0  0  0  0  0
  -27.6857  -14.2497   19.5583 H   0  0  0  0  0  0
  -28.7089  -11.9857   21.3391 H   0  0  0  0  0  0
  -28.4094  -13.5992   21.8891 H   0  0  0  0  0  0
  -25.2770   -9.5754   22.4759 H   0  0  0  0  0  0
  -24.0040   -7.4670   22.7462 H   0  0  0  0  0  0
  -21.0869   -8.8801   19.8930 H   0  0  0  0  0  0
  -22.3700  -10.9716   19.6169 H   0  0  0  0  0  0
  -21.1979   -7.6166   23.9724 H   0  0  0  0  0  0
  -21.1460   -6.0519   25.9063 H   0  0  0  0  0  0
  -22.0608   -2.7649   23.2768 H   0  0  0  0  0  0
  -22.4011  -11.9870   22.4745 H   0  0  0  0  0  0
  -21.1091  -13.1346   22.2659 H   0  0  0  0  0  0
  -24.6242  -15.8186   20.3871 H   0  0  0  0  0  0
  -26.2028  -15.5728   19.8539 H   0  0  0  0  0  0
  -26.7155  -32.5414   23.1050 H   0  0  0  0  0  0
  -25.0270  -33.9758   25.0578 H   0  0  0  0  0  0
  -22.7127  -31.3157   21.4032 H   0  0  0  0  0  0
  -23.3791  -35.9571   23.3291 H   0  0  0  0  0  0
  -24.3608  -36.8876   22.2056 H   0  0  0  0  0  0
  -23.7237  -37.6465   23.6646 H   0  0  0  0  0  0
  -26.0841  -31.5458   20.5966 H   0  0  0  0  0  0
  -26.8499  -30.8435   21.9912 H   0  0  0  0  0  0
  -28.0886  -28.9312   21.2417 H   0  0  0  0  0  0
  -25.9653  -25.9620   18.9364 H   0  0  0  0  0  0
  -23.9635  -27.3745   18.9438 H   0  0  0  0  0  0
  -23.7430  -30.6197   19.3995 H   0  0  0  0  0  0
  -22.7497  -29.2681   19.8499 H   0  0  0  0  0  0
  -25.1277  -36.1921   25.0853 H   0  0  0  0  0  0
  -21.0021  -28.3247   24.1388 H   0  0  0  0  0  0
  -20.5806  -26.2246   23.3575 H   0  0  0  0  0  0
  -21.6661  -26.7490   22.1099 H   0  0  0  0  0  0
  -19.6957  -25.6330   21.1205 H   0  0  0  0  0  0
  -19.6748  -27.3262   20.6808 H   0  0  0  0  0  0
  -17.4237  -26.6749   21.4010 H   0  0  0  0  0  0
  -18.0300  -26.0120   22.9003 H   0  0  0  0  0  0
  -19.7954  -30.7303   24.2245 H   0  0  0  0  0  0
  -17.5031  -31.6268   24.5169 H   0  0  0  0  0  0
  -15.5368  -30.2983   23.7710 H   0  0  0  0  0  0
  -15.8695  -28.0886   22.6978 H   0  0  0  0  0  0
  -24.5913  -30.7117   25.7781 H   0  0  0  0  0  0
  -24.8958  -32.2987   26.4780 H   0  0  0  0  0  0
  -25.8057  -30.9005   27.0266 H   0  0  0  0  0  0
  -26.2872  -29.6771   24.1162 H   0  0  0  0  0  0
  -27.4097  -29.7224   25.4571 H   0  0  0  0  0  0
  -27.8720  -30.4323   23.9282 H   0  0  0  0  0  0
  -27.2715  -33.3641   26.1999 H   0  0  0  0  0  0
  -28.3911  -32.6808   25.0282 H   0  0  0  0  0  0
  -28.0732  -31.8461   26.5417 H   0  0  0  0  0  0
  -28.2545  -38.0106   24.7493 H   0  0  0  0  0  0
  -28.1115  -36.2615   24.6290 H   0  0  0  0  0  0
  -27.2305  -37.1397   25.8887 H   0  0  0  0  0  0
  -20.9343  -29.8721   21.6817 H   0  0  0  0  0  0
  -26.0179  -38.2831   24.1454 H   0  0  0  0  0  0
  -30.4694  -19.6864   18.8785 H   0  0  0  0  0  0
  -30.9876  -17.3233   19.2972 H   0  0  0  0  0  0
  -27.4281  -19.6129   21.8897 H   0  0  0  0  0  0
  -27.4122  -21.2785   19.7130 H   0  0  0  0  0  0
  -28.9596  -21.5348   18.9820 H   0  0  0  0  0  0
  -27.9243  -25.0759   21.7796 H   0  0  0  0  0  0
  -26.9153  -24.7160   20.4329 H   0  0  0  0  0  0
  -29.8933  -24.0921   20.4797 H   0  0  0  0  0  0
  -28.8166  -23.7346   19.1608 H   0  0  0  0  0  0
  -29.0381  -15.1753   21.6860 H   0  0  0  0  0  0
  1 25  1  0  0  0
  1 30  2  0  0  0
  1 82  1  0  0  0
  2  3  1  0  0  0
  2 25  1  0  0  0
  2 84  1  0  0  0
  2 85  1  0  0  0
  3  4  1  0  0  0
  3 86  1  0  0  0
  3 87  1  0  0  0
  4  5  1  0  0  0
  4 88  1  0  0  0
  4 89  1  0  0  0
  5  6  1  0  0  0
  5 26  1  0  0  0
  5 90  1  0  0  0
  6 25  1  0  0  0
  6 91  1  0  0  0
  6 92  1  0  0  0
  7  8  2  0  0  0
  7 26  1  0  0  0
  7 29  1  0  0  0
  8  9  1  0  0  0
  8 22  1  0  0  0
  9 10  1  0  0  0
  9 27  2  0  0  0
 10 11  2  0  0  0
 10 15  1  0  0  0
 11 12  1  0  0  0
 11 93  1  0  0  0
 12 13  2  0  0  0
 12 94  1  0  0  0
 13 14  1  0  0  0
 13 31  1  0  0  0
 14 15  2  0  0  0
 14 95  1  0  0  0
 15 96  1  0  0  0
 16 17  2  0  0  0
 16 21  1  0  0  0
 16 31  1  0  0  0
 17 18  1  0  0  0
 17 97  1  0  0  0
 18 19  2  0  0  0
 18 98  1  0  0  0
 19 20  1  0  0  0
 19 24  1  0  0  0
 20 21  2  0  0  0
 20 99  1  0  0  0
 21 23  1  0  0  0
 22 28  1  0  0  0
 22 32  2  0  0  0
 26 27  1  0  0  0
 28100  1  0  0  0
 28101  1  0  0  0
 29102  1  0  0  0
 29103  1  0  0  0
 33 34  1  0  0  0
 33 66  1  0  0  0
 33 70  2  0  0  0
 34 36  1  0  0  0
 34 59  1  0  0  0
 34104  1  0  0  0
 35 44  2  0  0  0
 35 45  1  0  0  0
 35 68  1  0  0  0
 36 56  1  0  0  0
 36105  1  0  0  0
 37 39  1  0  0  0
 37 47  1  0  0  0
 37 66  1  0  0  0
 37106  1  0  0  0
 38 43  2  0  0  0
 38 46  1  0  0  0
 38 47  1  0  0  0
 39 64  1  0  0  0
 39 67  2  0  0  0
 40 52  1  0  0  0
 40 53  2  0  0  0
 40 58  1  0  0  0
 41107  1  0  0  0
 41108  1  0  0  0
 41109  1  0  0  0
 41 48  1  0  0  0
 42 43  1  0  0  0
 42 66  1  0  0  0
 42110  1  0  0  0
 42111  1  0  0  0
 43 44  1  0  0  0
 44112  1  0  0  0
 45 46  2  0  0  0
 45113  1  0  0  0
 46114  1  0  0  0
 47115  1  0  0  0
 47116  1  0  0  0
 48 56  1  0  0  0
 48 65  1  0  0  0
 48117  1  0  0  0
 49 50  1  0  0  0
 49 53  1  0  0  0
 49 64  1  0  0  0
 49118  1  0  0  0
 50 51  1  0  0  0
 50119  1  0  0  0
 50120  1  0  0  0
 51 52  1  0  0  0
 51121  1  0  0  0
 51122  1  0  0  0
 52123  1  0  0  0
 52124  1  0  0  0
 53 54  1  0  0  0
 54 55  2  0  0  0
 54125  1  0  0  0
 55 57  1  0  0  0
 55126  1  0  0  0
 56 69  2  0  0  0
 57 58  2  0  0  0
 57127  1  0  0  0
 58128  1  0  0  0
 59 60  1  0  0  0
 59 61  1  0  0  0
 59 62  1  0  0  0
 60129  1  0  0  0
 60130  1  0  0  0
 60131  1  0  0  0
 61132  1  0  0  0
 61133  1  0  0  0
 61134  1  0  0  0
 62135  1  0  0  0
 62136  1  0  0  0
 62137  1  0  0  0
 63 65  1  0  0  0
 63138  1  0  0  0
 63139  1  0  0  0
 63140  1  0  0  0
 64141  1  0  0  0
 65142  1  0  0  0
 68 79  1  0  0  0
 71 75  1  0  0  0
 71 81  3  0  0  0
 72 73  2  0  0  0
 72 76  1  0  0  0
 72143  1  0  0  0
 73 77  1  0  0  0
 73144  1  0  0  0
 74 75  1  0  0  0
 74 76  2  0  0  0
 74145  1  0  0  0
 75 77  2  0  0  0
 76 78  1  0  0  0
 77 82  1  0  0  0
 78 83  1  0  0  0
 78146  1  0  0  0
 78147  1  0  0  0
 79 80  1  0  0  0
 79148  1  0  0  0
 79149  1  0  0  0
 80 83  1  0  0  0
 80150  1  0  0  0
 80151  1  0  0  0
 82152  1  0  0  0
M  ISO  4   1 100  68 101  79 101  82 100
M  END
> <chiral flag>
0

> <version>
0

> <s_m_source_file>
/data/baiqing/PycharmProjects/Reinvent-master-3.2/result/LINK_invent/BTK/process_docking_weight1_custom_product_contain_oxygen_bond_distance_aromatic_linkinvent_7_9_3/rearranged_h_0003.sdf

> <i_m_source_file_index>
64

> <r_mmod_Potential_Energy-OPLS-2005>
151.745208740234

> <r_mmod_Stretch_Energy-OPLS-2005>
85.5126876831055

> <r_mmod_Bend_Energy-OPLS-2005>
140.181457519531

> <r_mmod_Torsional_Energy-OPLS-2005>
254.929321289062

> <r_mmod_Improper_Torsional_Energy-OPLS-2005>
5.4205493927002

> <r_mmod_Van_der_Waal_Energy-OPLS-2005>
141.034927368164

> <r_mmod_Electrostatic_Energy-OPLS-2005>
-326.813354492188

> <r_mmod_Solvation_Energy-OPLS-2005>
-212.793716430664

> <b_mmod_Minimization_Converged-OPLS-2005>
0

> <r_mmod_RMS_Derivative-OPLS-2005>
5.51584386825562

$$$$
64
                    3D
 Structure written by MMmdl.
152160  0  0  1  0            999 V2000
  -30.6493  -14.6606   20.4945 C   0  0  0  0  0  0
  -30.4246  -12.4107   19.4514 C   0  0  0  0  0  0
  -29.4996  -12.4989   18.2197 C   0  0  0  0  0  0
  -28.0249  -12.3364   18.6369 C   0  0  0  0  0  0
  -27.6430  -13.2255   19.8510 C   0  0  2  0  0  0
  -28.6890  -13.1264   20.9814 C   0  0  0  0  0  0
  -25.2514  -13.8189   20.5681 C   0  0  0  0  0  0
  -24.1801  -13.0441   20.9200 C   0  0  0  0  0  0
  -24.6386  -11.6916   20.8746 C   0  0  0  0  0  0
  -23.9064  -10.4291   21.0408 C   0  0  0  0  0  0
  -24.3616   -9.4207   21.9185 C   0  0  0  0  0  0
  -23.6292   -8.2242   22.0754 C   0  0  0  0  0  0
  -22.4275   -8.0278   21.3544 C   0  0  0  0  0  0
  -21.9910   -9.0251   20.4646 C   0  0  0  0  0  0
  -22.7236  -10.2132   20.3057 C   0  0  0  0  0  0
  -21.6854   -6.0733   22.5277 C   0  0  0  0  0  0
  -21.4014   -6.5637   23.8209 C   0  0  0  0  0  0
  -21.3660   -5.6791   24.9173 C   0  0  0  0  0  0
  -21.6046   -4.3053   24.7224 C   0  0  0  0  0  0
  -21.8819   -3.8144   23.4346 C   0  0  0  0  0  0
  -21.9193   -4.6961   22.3401 C   0  0  0  0  0  0
  -22.7823  -13.5225   21.1865 C   0  0  0  0  0  0
  -22.1661   -4.2144   21.0980 F   0  0  0  0  0  0
  -21.5632   -3.4538   25.7739 F   0  0  0  0  0  0
  -29.9936  -13.4603   20.3979 N   0  0  0  0  0  0
  -26.2938  -12.9386   20.3281 N   0  0  0  0  0  0
  -25.9314  -11.6534   20.5751 N   0  0  0  0  0  0
  -22.0475  -12.8210   22.0422 N   0  0  0  0  0  0
  -25.4206  -15.1911   20.4079 N   0  0  0  0  0  0
  -31.8354  -14.7519   20.1689 O   0  0  0  0  0  0
  -21.6640   -6.8874   21.4239 O   0  0  0  0  0  0
  -22.3506  -14.5532   20.6716 O   0  0  0  0  0  0
  -24.6261  -31.8588   23.2004 C   0  0  0  0  0  0
  -25.9105  -32.4774   23.8341 C   0  0  1  0  0  0
  -27.2245  -27.3179   20.1278 C   0  0  0  0  0  0
  -25.5923  -33.8574   24.2272 N   0  0  0  0  0  0
  -23.4203  -30.4801   21.5429 C   0  0  2  0  0  0
  -24.8670  -28.9256   20.1172 C   0  0  0  0  0  0
  -22.7473  -29.4620   22.4939 C   0  0  0  0  0  0
  -18.0286  -28.1394   22.8491 C   0  0  0  0  0  0
  -24.1486  -36.7290   23.2641 C   0  0  0  0  0  0
  -25.9596  -30.7903   21.3685 C   0  0  0  0  0  0
  -26.0354  -29.4144   20.7169 C   0  0  0  0  0  0
  -27.2215  -28.6234   20.7070 C   0  0  0  0  0  0
  -26.0366  -26.8695   19.5177 C   0  0  0  0  0  0
  -24.8687  -27.6588   19.5083 C   0  0  0  0  0  0
  -23.6356  -29.8083   20.1608 C   0  0  0  0  0  0
  -25.4112  -36.3081   24.0330 C   0  0  1  0  0  0
  -20.5887  -28.3693   23.1291 C   0  0  2  0  0  0
  -20.6776  -26.9417   22.5415 C   0  0  0  0  0  0
  -19.5750  -26.6393   21.5218 C   0  0  0  0  0  0
  -18.1930  -26.7937   22.1630 C   0  0  0  0  0  0
  -19.1539  -28.8861   23.2888 C   0  0  0  0  0  0
  -18.9462  -30.1465   23.8899 C   0  0  0  0  0  0
  -17.6461  -30.6595   24.0570 C   0  0  0  0  0  0
  -25.9050  -34.9450   23.5104 C   0  0  0  0  0  0
  -16.5353  -29.9094   23.6336 C   0  0  0  0  0  0
  -16.7274  -28.6516   23.0351 C   0  0  0  0  0  0
  -26.4493  -31.6585   25.0710 C   0  0  0  0  0  0
  -25.3729  -31.3720   26.1440 C   0  0  0  0  0  0
  -27.0336  -30.3013   24.6154 C   0  0  0  0  0  0
  -27.6053  -32.4317   25.7482 C   0  0  0  0  0  0
  -27.5577  -37.1803   24.8467 C   0  0  0  0  0  0
  -21.4187  -29.3043   22.3679 N   0  0  0  0  0  0
  -26.4289  -37.3776   23.9410 N   0  0  0  0  0  0
  -24.6876  -31.0603   22.0946 N   0  0  0  0  0  0
  -23.4194  -28.8171   23.3029 O   0  0  0  0  0  0
  -28.3440  -26.4807   20.1114 O   0  0  0  0  0  0
  -26.5619  -34.8920   22.4670 O   0  0  0  0  0  0
  -23.5425  -32.1378   23.7338 O   0  0  0  0  0  0
  -28.7360  -19.1166   20.9649 C   0  0  0  0  0  0
  -31.0018  -19.4483   20.2542 C   0  0  0  0  0  0
  -28.4748  -20.5207   20.7753 C   0  0  0  0  0  0
  -30.7474  -20.8370   20.0821 C   0  0  0  0  0  0
  -30.0234  -18.5443   20.7403 C   0  0  0  0  0  0
  -29.4937  -21.4321   20.3690 C   0  0  0  0  0  0
  -30.4966  -17.1145   21.2294 C   0  0  0  0  0  0
  -28.2290  -23.7675   20.0806 C   0  0  0  0  0  0
  -28.2645  -25.1877   20.8266 C   0  0  0  0  0  0
  -29.4064  -22.8683   20.2987 N   0  0  0  0  0  0
  -29.9223  -15.7872   20.8039 N   0  0  0  0  0  0
  -31.4664  -12.5243   19.1470 H   0  0  0  0  0  0
  -30.3552  -11.4269   19.9184 H   0  0  0  0  0  0
  -29.7673  -11.7339   17.4896 H   0  0  0  0  0  0
  -29.6376  -13.4598   17.7213 H   0  0  0  0  0  0
  -27.8691  -11.2860   18.8856 H   0  0  0  0  0  0
  -27.3675  -12.5480   17.7926 H   0  0  0  0  0  0
  -27.6481  -14.2533   19.4877 H   0  0  0  0  0  0
  -28.7092  -12.1210   21.4044 H   0  0  0  0  0  0
  -28.4364  -13.7971   21.8043 H   0  0  0  0  0  0
  -25.2763   -9.5683   22.4756 H   0  0  0  0  0  0
  -24.0002   -7.4634   22.7473 H   0  0  0  0  0  0
  -21.0841   -8.8770   19.8951 H   0  0  0  0  0  0
  -22.3695  -10.9670   19.6163 H   0  0  0  0  0  0
  -21.2005   -7.6145   23.9710 H   0  0  0  0  0  0
  -21.1484   -6.0523   25.9075 H   0  0  0  0  0  0
  -22.0598   -2.7606   23.2848 H   0  0  0  0  0  0
  -22.4098  -11.9870   22.4803 H   0  0  0  0  0  0
  -21.1094  -13.1230   22.2638 H   0  0  0  0  0  0
  -24.6514  -15.8435   20.5126 H   0  0  0  0  0  0
  -26.2635  -15.6290   20.0588 H   0  0  0  0  0  0
  -26.7173  -32.5447   23.1092 H   0  0  0  0  0  0
  -25.0066  -33.9713   25.0416 H   0  0  0  0  0  0
  -22.7144  -31.3004   21.3971 H   0  0  0  0  0  0
  -23.3746  -35.9626   23.3308 H   0  0  0  0  0  0
  -24.3576  -36.8905   22.2055 H   0  0  0  0  0  0
  -23.7237  -37.6494   23.6656 H   0  0  0  0  0  0
  -26.0864  -31.5498   20.5960 H   0  0  0  0  0  0
  -26.8418  -30.8448   21.9945 H   0  0  0  0  0  0
  -28.1240  -28.9973   21.1701 H   0  0  0  0  0  0
  -26.0118  -25.8950   19.0507 H   0  0  0  0  0  0
  -23.9721  -27.2787   19.0379 H   0  0  0  0  0  0
  -23.7567  -30.5810   19.4007 H   0  0  0  0  0  0
  -22.7551  -29.2377   19.8601 H   0  0  0  0  0  0
  -25.1293  -36.1933   25.0821 H   0  0  0  0  0  0
  -20.9985  -28.3271   24.1410 H   0  0  0  0  0  0
  -20.5689  -26.2302   23.3613 H   0  0  0  0  0  0
  -21.6646  -26.7455   22.1202 H   0  0  0  0  0  0
  -19.6909  -25.6304   21.1247 H   0  0  0  0  0  0
  -19.6689  -27.3207   20.6751 H   0  0  0  0  0  0
  -17.4202  -26.6693   21.4027 H   0  0  0  0  0  0
  -18.0328  -26.0080   22.9028 H   0  0  0  0  0  0
  -19.7934  -30.7290   24.2264 H   0  0  0  0  0  0
  -17.5012  -31.6273   24.5177 H   0  0  0  0  0  0
  -15.5352  -30.2998   23.7656 H   0  0  0  0  0  0
  -15.8675  -28.0839   22.7056 H   0  0  0  0  0  0
  -24.5901  -30.7071   25.7769 H   0  0  0  0  0  0
  -24.8921  -32.2886   26.4869 H   0  0  0  0  0  0
  -25.8056  -30.8894   27.0212 H   0  0  0  0  0  0
  -26.2905  -29.6762   24.1184 H   0  0  0  0  0  0
  -27.4051  -29.7268   25.4651 H   0  0  0  0  0  0
  -27.8767  -30.4309   23.9361 H   0  0  0  0  0  0
  -27.2664  -33.3615   26.2064 H   0  0  0  0  0  0
  -28.3861  -32.6883   25.0310 H   0  0  0  0  0  0
  -28.0722  -31.8437   26.5393 H   0  0  0  0  0  0
  -28.2603  -38.0092   24.7511 H   0  0  0  0  0  0
  -28.1064  -36.2625   24.6299 H   0  0  0  0  0  0
  -27.2297  -37.1462   25.8871 H   0  0  0  0  0  0
  -20.9368  -29.8751   21.6875 H   0  0  0  0  0  0
  -26.0171  -38.2851   24.1407 H   0  0  0  0  0  0
  -27.9472  -18.4921   21.3606 H   0  0  0  0  0  0
  -32.0071  -19.0934   20.0753 H   0  0  0  0  0  0
  -27.4911  -20.8984   21.0147 H   0  0  0  0  0  0
  -31.5699  -21.4607   19.7601 H   0  0  0  0  0  0
  -30.3855  -17.1352   22.3143 H   0  0  0  0  0  0
  -31.5775  -17.0775   21.0843 H   0  0  0  0  0  0
  -28.1131  -23.9332   19.0088 H   0  0  0  0  0  0
  -27.3292  -23.2355   20.3921 H   0  0  0  0  0  0
  -29.1096  -25.1825   21.5157 H   0  0  0  0  0  0
  -27.3970  -25.2245   21.4881 H   0  0  0  0  0  0
  -30.2922  -23.3330   20.1129 H   0  0  0  0  0  0
  -28.9353  -15.6543   20.9601 H   0  0  0  0  0  0
  1 25  1  0  0  0
  1 30  2  0  0  0
  1 81  1  0  0  0
  2  3  1  0  0  0
  2 25  1  0  0  0
  2 82  1  0  0  0
  2 83  1  0  0  0
  3  4  1  0  0  0
  3 84  1  0  0  0
  3 85  1  0  0  0
  4  5  1  0  0  0
  4 86  1  0  0  0
  4 87  1  0  0  0
  5  6  1  0  0  0
  5 26  1  0  0  0
  5 88  1  0  0  0
  6 25  1  0  0  0
  6 89  1  0  0  0
  6 90  1  0  0  0
  7  8  2  0  0  0
  7 26  1  0  0  0
  7 29  1  0  0  0
  8  9  1  0  0  0
  8 22  1  0  0  0
  9 10  1  0  0  0
  9 27  2  0  0  0
 10 11  2  0  0  0
 10 15  1  0  0  0
 11 12  1  0  0  0
 11 91  1  0  0  0
 12 13  2  0  0  0
 12 92  1  0  0  0
 13 14  1  0  0  0
 13 31  1  0  0  0
 14 15  2  0  0  0
 14 93  1  0  0  0
 15 94  1  0  0  0
 16 17  2  0  0  0
 16 21  1  0  0  0
 16 31  1  0  0  0
 17 18  1  0  0  0
 17 95  1  0  0  0
 18 19  2  0  0  0
 18 96  1  0  0  0
 19 20  1  0  0  0
 19 24  1  0  0  0
 20 21  2  0  0  0
 20 97  1  0  0  0
 21 23  1  0  0  0
 22 28  1  0  0  0
 22 32  2  0  0  0
 26 27  1  0  0  0
 28 98  1  0  0  0
 28 99  1  0  0  0
 29100  1  0  0  0
 29101  1  0  0  0
 33 34  1  0  0  0
 33 66  1  0  0  0
 33 70  2  0  0  0
 34 36  1  0  0  0
 34 59  1  0  0  0
 34102  1  0  0  0
 35 44  2  0  0  0
 35 45  1  0  0  0
 35 68  1  0  0  0
 36 56  1  0  0  0
 36103  1  0  0  0
 37 39  1  0  0  0
 37 47  1  0  0  0
 37 66  1  0  0  0
 37104  1  0  0  0
 38 43  2  0  0  0
 38 46  1  0  0  0
 38 47  1  0  0  0
 39 64  1  0  0  0
 39 67  2  0  0  0
 40 52  1  0  0  0
 40 53  2  0  0  0
 40 58  1  0  0  0
 41105  1  0  0  0
 41106  1  0  0  0
 41107  1  0  0  0
 41 48  1  0  0  0
 42 43  1  0  0  0
 42 66  1  0  0  0
 42108  1  0  0  0
 42109  1  0  0  0
 43 44  1  0  0  0
 44110  1  0  0  0
 45 46  2  0  0  0
 45111  1  0  0  0
 46112  1  0  0  0
 47113  1  0  0  0
 47114  1  0  0  0
 48 56  1  0  0  0
 48 65  1  0  0  0
 48115  1  0  0  0
 49 50  1  0  0  0
 49 53  1  0  0  0
 49 64  1  0  0  0
 49116  1  0  0  0
 50 51  1  0  0  0
 50117  1  0  0  0
 50118  1  0  0  0
 51 52  1  0  0  0
 51119  1  0  0  0
 51120  1  0  0  0
 52121  1  0  0  0
 52122  1  0  0  0
 53 54  1  0  0  0
 54 55  2  0  0  0
 54123  1  0  0  0
 55 57  1  0  0  0
 55124  1  0  0  0
 56 69  2  0  0  0
 57 58  2  0  0  0
 57125  1  0  0  0
 58126  1  0  0  0
 59 60  1  0  0  0
 59 61  1  0  0  0
 59 62  1  0  0  0
 60127  1  0  0  0
 60128  1  0  0  0
 60129  1  0  0  0
 61130  1  0  0  0
 61131  1  0  0  0
 61132  1  0  0  0
 62133  1  0  0  0
 62134  1  0  0  0
 62135  1  0  0  0
 63 65  1  0  0  0
 63136  1  0  0  0
 63137  1  0  0  0
 63138  1  0  0  0
 64139  1  0  0  0
 65140  1  0  0  0
 68 79  1  0  0  0
 71 73  2  0  0  0
 71 75  1  0  0  0
 71141  1  0  0  0
 72 74  1  0  0  0
 72 75  2  0  0  0
 72142  1  0  0  0
 73 76  1  0  0  0
 73143  1  0  0  0
 74 76  2  0  0  0
 74144  1  0  0  0
 75 77  1  0  0  0
 76 80  1  0  0  0
 77 81  1  0  0  0
 77145  1  0  0  0
 77146  1  0  0  0
 78 79  1  0  0  0
 78 80  1  0  0  0
 78147  1  0  0  0
 78148  1  0  0  0
 79149  1  0  0  0
 79150  1  0  0  0
 80151  1  0  0  0
 81152  1  0  0  0
M  ISO  4   1 100  68 101  79 101  81 100
M  END
> <chiral flag>
0

> <version>
0

> <s_m_source_file>
/data/baiqing/PycharmProjects/Reinvent-master-3.2/result/LINK_invent/BTK/process_docking_weight1_custom_product_contain_oxygen_bond_distance_aromatic_linkinvent_7_9_3/rearranged_h_0003.sdf

> <i_m_source_file_index>
65

> <r_mmod_Potential_Energy-OPLS-2005>
63.0585403442383

> <r_mmod_Stretch_Energy-OPLS-2005>
81.1610641479492

> <r_mmod_Bend_Energy-OPLS-2005>
174.89680480957

> <r_mmod_Torsional_Energy-OPLS-2005>
241.982162475586

> <r_mmod_Improper_Torsional_Energy-OPLS-2005>
6.58746862411499

> <r_mmod_Van_der_Waal_Energy-OPLS-2005>
138.201919555664

> <r_mmod_Electrostatic_Energy-OPLS-2005>
-409.924652099609

> <r_mmod_Solvation_Energy-OPLS-2005>
-222.65576171875

> <b_mmod_Minimization_Converged-OPLS-2005>
0

> <r_mmod_RMS_Derivative-OPLS-2005>
0.500587821006775

$$$$
65
                    3D
 Structure written by MMmdl.
153162  0  0  1  0            999 V2000
  -30.5332  -14.9260   20.4264 C   0  0  0  0  0  0
  -30.4603  -12.5671   19.5052 C   0  0  0  0  0  0
  -29.5355  -12.5274   18.2646 C   0  0  0  0  0  0
  -28.0674  -12.3132   18.6838 C   0  0  0  0  0  0
  -27.6416  -13.2440   19.8492 C   0  0  2  0  0  0
  -28.6846  -13.2386   20.9890 C   0  0  0  0  0  0
  -25.2510  -13.8213   20.5733 C   0  0  0  0  0  0
  -24.1799  -13.0441   20.9214 C   0  0  0  0  0  0
  -24.6403  -11.6918   20.8754 C   0  0  0  0  0  0
  -23.9084  -10.4297   21.0413 C   0  0  0  0  0  0
  -24.3622   -9.4196   21.9181 C   0  0  0  0  0  0
  -23.6277   -8.2245   22.0772 C   0  0  0  0  0  0
  -22.4253   -8.0289   21.3565 C   0  0  0  0  0  0
  -21.9894   -9.0274   20.4685 C   0  0  0  0  0  0
  -22.7255  -10.2137   20.3080 C   0  0  0  0  0  0
  -21.6835   -6.0744   22.5279 C   0  0  0  0  0  0
  -21.4026   -6.5648   23.8217 C   0  0  0  0  0  0
  -21.3657   -5.6790   24.9176 C   0  0  0  0  0  0
  -21.6032   -4.3047   24.7219 C   0  0  0  0  0  0
  -21.8812   -3.8162   23.4334 C   0  0  0  0  0  0
  -21.9189   -4.6985   22.3404 C   0  0  0  0  0  0
  -22.7826  -13.5235   21.1829 C   0  0  0  0  0  0
  -22.1656   -4.2187   21.0970 F   0  0  0  0  0  0
  -21.5613   -3.4513   25.7723 F   0  0  0  0  0  0
  -29.9731  -13.6498   20.4067 N   0  0  0  0  0  0
  -26.2948  -12.9426   20.3287 N   0  0  0  0  0  0
  -25.9329  -11.6566   20.5738 N   0  0  0  0  0  0
  -22.0424  -12.8317   22.0400 N   0  0  0  0  0  0
  -25.4196  -15.1928   20.4175 N   0  0  0  0  0  0
  -31.7122  -15.0454   20.0747 O   0  0  0  0  0  0
  -21.6612   -6.8885   21.4248 O   0  0  0  0  0  0
  -22.3535  -14.5520   20.6611 O   0  0  0  0  0  0
  -24.6461  -31.8418   23.1855 C   0  0  0  0  0  0
  -25.9229  -32.4667   23.8261 C   0  0  1  0  0  0
  -27.2233  -27.1410   20.1236 C   0  0  0  0  0  0
  -25.5970  -33.8466   24.2166 N   0  0  0  0  0  0
  -23.4460  -30.4619   21.5316 C   0  0  2  0  0  0
  -24.8915  -28.8849   20.1031 C   0  0  0  0  0  0
  -22.7568  -29.4535   22.4861 C   0  0  0  0  0  0
  -18.0302  -28.1370   22.8462 C   0  0  0  0  0  0
  -24.1484  -36.7268   23.2643 C   0  0  0  0  0  0
  -26.0002  -30.7122   21.3829 C   0  0  0  0  0  0
  -26.0679  -29.3254   20.7205 C   0  0  0  0  0  0
  -27.2310  -28.4678   20.7144 C   0  0  0  0  0  0
  -26.0168  -26.7976   19.4740 C   0  0  0  0  0  0
  -24.8778  -27.6340   19.4686 C   0  0  0  0  0  0
  -23.6692  -29.7893   20.1493 C   0  0  0  0  0  0
  -25.4111  -36.3003   24.0302 C   0  0  1  0  0  0
  -20.5917  -28.3700   23.1218 C   0  0  2  0  0  0
  -20.6756  -26.9403   22.5384 C   0  0  0  0  0  0
  -19.5736  -26.6357   21.5181 C   0  0  0  0  0  0
  -18.1929  -26.7910   22.1607 C   0  0  0  0  0  0
  -19.1563  -28.8855   23.2821 C   0  0  0  0  0  0
  -18.9488  -30.1451   23.8847 C   0  0  0  0  0  0
  -17.6481  -30.6562   24.0556 C   0  0  0  0  0  0
  -25.9077  -34.9393   23.5044 C   0  0  0  0  0  0
  -16.5375  -29.9061   23.6325 C   0  0  0  0  0  0
  -16.7288  -28.6484   23.0344 C   0  0  0  0  0  0
  -26.4541  -31.6549   25.0722 C   0  0  0  0  0  0
  -25.3746  -31.3771   26.1436 C   0  0  0  0  0  0
  -27.0415  -30.2955   24.6320 C   0  0  0  0  0  0
  -27.6035  -32.4359   25.7519 C   0  0  0  0  0  0
  -27.5573  -37.1773   24.8456 C   0  0  0  0  0  0
  -21.4269  -29.3049   22.3617 N   0  0  0  0  0  0
  -26.4273  -37.3724   23.9425 N   0  0  0  0  0  0
  -24.7167  -31.0269   22.0881 N   0  0  0  0  0  0
  -23.4222  -28.8098   23.3010 O   0  0  0  0  0  0
  -28.3065  -26.1919   20.2219 O   0  0  0  0  0  0
  -26.5663  -34.8899   22.4625 O   0  0  0  0  0  0
  -23.5579  -32.1314   23.7066 O   0  0  0  0  0  0
  -28.4399  -19.7764   21.0337 C   0  0  0  0  0  0
  -28.6283  -18.3398   21.1658 C   0  0  0  0  0  0
  -30.5529  -18.4044   19.7785 C   0  0  0  0  0  0
  -30.3422  -19.8401   19.6500 C   0  0  0  0  0  0
  -29.2976  -20.5963   20.2403 C   0  0  0  0  0  0
  -29.6778  -17.5590   20.5495 C   0  0  0  0  0  0
  -31.1840  -20.7945   18.8531 C   0  0  0  0  0  0
  -30.5621  -22.1854   19.1651 C   0  0  0  0  0  0
  -28.7057  -23.3193   20.5621 C   0  0  0  0  0  0
  -28.3299  -24.7224   19.7075 C   0  0  0  0  0  0
  -29.2836  -22.0347   19.8868 N   0  0  0  0  0  0
  -29.7015  -16.0342   20.7178 N   0  0  0  0  0  0
  -31.4950  -12.7333   19.1972 H   0  0  0  0  0  0
  -30.4594  -11.6077   20.0243 H   0  0  0  0  0  0
  -29.8507  -11.7372   17.5822 H   0  0  0  0  0  0
  -29.6287  -13.4644   17.7116 H   0  0  0  0  0  0
  -27.9646  -11.2739   18.9972 H   0  0  0  0  0  0
  -27.4036  -12.4415   17.8291 H   0  0  0  0  0  0
  -27.6135  -14.2532   19.4353 H   0  0  0  0  0  0
  -28.7574  -12.2487   21.4408 H   0  0  0  0  0  0
  -28.3887  -13.9124   21.7936 H   0  0  0  0  0  0
  -25.2780   -9.5643   22.4751 H   0  0  0  0  0  0
  -23.9992   -7.4623   22.7466 H   0  0  0  0  0  0
  -21.0830   -8.8799   19.8973 H   0  0  0  0  0  0
  -22.3725  -10.9671   19.6195 H   0  0  0  0  0  0
  -21.2024   -7.6149   23.9743 H   0  0  0  0  0  0
  -21.1481   -6.0503   25.9077 H   0  0  0  0  0  0
  -22.0590   -2.7629   23.2800 H   0  0  0  0  0  0
  -22.4014  -12.0050   22.4952 H   0  0  0  0  0  0
  -21.1049  -13.1412   22.2517 H   0  0  0  0  0  0
  -24.6427  -15.8382   20.5048 H   0  0  0  0  0  0
  -26.2598  -15.6297   20.0620 H   0  0  0  0  0  0
  -26.7308  -32.5254   23.0982 H   0  0  0  0  0  0
  -25.0073  -33.9562   25.0288 H   0  0  0  0  0  0
  -22.7472  -31.2875   21.3761 H   0  0  0  0  0  0
  -23.3718  -35.9625   23.3274 H   0  0  0  0  0  0
  -24.3570  -36.8950   22.2070 H   0  0  0  0  0  0
  -23.7279  -37.6467   23.6717 H   0  0  0  0  0  0
  -26.1620  -31.4667   20.6120 H   0  0  0  0  0  0
  -26.8695  -30.7569   22.0275 H   0  0  0  0  0  0
  -28.1283  -28.8008   21.2167 H   0  0  0  0  0  0
  -25.8985  -25.8470   18.9798 H   0  0  0  0  0  0
  -23.9795  -27.2872   18.9765 H   0  0  0  0  0  0
  -23.8107  -30.5649   19.3946 H   0  0  0  0  0  0
  -22.7801  -29.2375   19.8369 H   0  0  0  0  0  0
  -25.1290  -36.1807   25.0786 H   0  0  0  0  0  0
  -20.9985  -28.3279   24.1348 H   0  0  0  0  0  0
  -20.5576  -26.2344   23.3613 H   0  0  0  0  0  0
  -21.6635  -26.7344   22.1247 H   0  0  0  0  0  0
  -19.6886  -25.6255   21.1252 H   0  0  0  0  0  0
  -19.6661  -27.3125   20.6676 H   0  0  0  0  0  0
  -17.4183  -26.6642   21.4027 H   0  0  0  0  0  0
  -18.0344  -26.0054   22.9016 H   0  0  0  0  0  0
  -19.7971  -30.7275   24.2196 H   0  0  0  0  0  0
  -17.5044  -31.6235   24.5171 H   0  0  0  0  0  0
  -15.5381  -30.2946   23.7649 H   0  0  0  0  0  0
  -15.8701  -28.0776   22.7070 H   0  0  0  0  0  0
  -24.5803  -30.7252   25.7790 H   0  0  0  0  0  0
  -24.9083  -32.2980   26.4960 H   0  0  0  0  0  0
  -25.8032  -30.8854   27.0187 H   0  0  0  0  0  0
  -26.3048  -29.6661   24.1318 H   0  0  0  0  0  0
  -27.4022  -29.7262   25.4909 H   0  0  0  0  0  0
  -27.8956  -30.4191   23.9651 H   0  0  0  0  0  0
  -27.2540  -33.3607   26.2123 H   0  0  0  0  0  0
  -28.3819  -32.7042   25.0363 H   0  0  0  0  0  0
  -28.0746  -31.8521   26.5431 H   0  0  0  0  0  0
  -28.2551  -38.0107   24.7487 H   0  0  0  0  0  0
  -28.1099  -36.2625   24.6251 H   0  0  0  0  0  0
  -27.2309  -37.1394   25.8867 H   0  0  0  0  0  0
  -20.9471  -29.8875   21.6898 H   0  0  0  0  0  0
  -26.0117  -38.2789   24.1421 H   0  0  0  0  0  0
  -27.6007  -20.2299   21.5400 H   0  0  0  0  0  0
  -27.9045  -17.8164   21.7736 H   0  0  0  0  0  0
  -31.3853  -17.9526   19.2592 H   0  0  0  0  0  0
  -31.1017  -20.5675   17.7879 H   0  0  0  0  0  0
  -32.2390  -20.7466   19.1357 H   0  0  0  0  0  0
  -30.4443  -22.7671   18.2503 H   0  0  0  0  0  0
  -31.2474  -22.7483   19.8031 H   0  0  0  0  0  0
  -27.8281  -23.0288   21.1388 H   0  0  0  0  0  0
  -29.4479  -23.6026   21.3098 H   0  0  0  0  0  0
  -27.4112  -24.4976   19.1744 H   0  0  0  0  0  0
  -29.0649  -24.7677   18.9048 H   0  0  0  0  0  0
  -28.8408  -15.6871   21.1103 H   0  0  0  0  0  0
  1 25  1  0  0  0
  1 30  2  0  0  0
  1 82  1  0  0  0
  2  3  1  0  0  0
  2 25  1  0  0  0
  2 83  1  0  0  0
  2 84  1  0  0  0
  3  4  1  0  0  0
  3 85  1  0  0  0
  3 86  1  0  0  0
  4  5  1  0  0  0
  4 87  1  0  0  0
  4 88  1  0  0  0
  5  6  1  0  0  0
  5 26  1  0  0  0
  5 89  1  0  0  0
  6 25  1  0  0  0
  6 90  1  0  0  0
  6 91  1  0  0  0
  7  8  2  0  0  0
  7 26  1  0  0  0
  7 29  1  0  0  0
  8  9  1  0  0  0
  8 22  1  0  0  0
  9 10  1  0  0  0
  9 27  2  0  0  0
 10 11  2  0  0  0
 10 15  1  0  0  0
 11 12  1  0  0  0
 11 92  1  0  0  0
 12 13  2  0  0  0
 12 93  1  0  0  0
 13 14  1  0  0  0
 13 31  1  0  0  0
 14 15  2  0  0  0
 14 94  1  0  0  0
 15 95  1  0  0  0
 16 17  2  0  0  0
 16 21  1  0  0  0
 16 31  1  0  0  0
 17 18  1  0  0  0
 17 96  1  0  0  0
 18 19  2  0  0  0
 18 97  1  0  0  0
 19 20  1  0  0  0
 19 24  1  0  0  0
 20 21  2  0  0  0
 20 98  1  0  0  0
 21 23  1  0  0  0
 22 28  1  0  0  0
 22 32  2  0  0  0
 26 27  1  0  0  0
 28 99  1  0  0  0
 28100  1  0  0  0
 29101  1  0  0  0
 29102  1  0  0  0
 33 34  1  0  0  0
 33 66  1  0  0  0
 33 70  2  0  0  0
 34 36  1  0  0  0
 34 59  1  0  0  0
 34103  1  0  0  0
 35 44  2  0  0  0
 35 45  1  0  0  0
 35 68  1  0  0  0
 36 56  1  0  0  0
 36104  1  0  0  0
 37 39  1  0  0  0
 37 47  1  0  0  0
 37 66  1  0  0  0
 37105  1  0  0  0
 38 43  2  0  0  0
 38 46  1  0  0  0
 38 47  1  0  0  0
 39 64  1  0  0  0
 39 67  2  0  0  0
 40 52  1  0  0  0
 40 53  2  0  0  0
 40 58  1  0  0  0
 41106  1  0  0  0
 41107  1  0  0  0
 41108  1  0  0  0
 41 48  1  0  0  0
 42 43  1  0  0  0
 42 66  1  0  0  0
 42109  1  0  0  0
 42110  1  0  0  0
 43 44  1  0  0  0
 44111  1  0  0  0
 45 46  2  0  0  0
 45112  1  0  0  0
 46113  1  0  0  0
 47114  1  0  0  0
 47115  1  0  0  0
 48 56  1  0  0  0
 48 65  1  0  0  0
 48116  1  0  0  0
 49 50  1  0  0  0
 49 53  1  0  0  0
 49 64  1  0  0  0
 49117  1  0  0  0
 50 51  1  0  0  0
 50118  1  0  0  0
 50119  1  0  0  0
 51 52  1  0  0  0
 51120  1  0  0  0
 51121  1  0  0  0
 52122  1  0  0  0
 52123  1  0  0  0
 53 54  1  0  0  0
 54 55  2  0  0  0
 54124  1  0  0  0
 55 57  1  0  0  0
 55125  1  0  0  0
 56 69  2  0  0  0
 57 58  2  0  0  0
 57126  1  0  0  0
 58127  1  0  0  0
 59 60  1  0  0  0
 59 61  1  0  0  0
 59 62  1  0  0  0
 60128  1  0  0  0
 60129  1  0  0  0
 60130  1  0  0  0
 61131  1  0  0  0
 61132  1  0  0  0
 61133  1  0  0  0
 62134  1  0  0  0
 62135  1  0  0  0
 62136  1  0  0  0
 63 65  1  0  0  0
 63137  1  0  0  0
 63138  1  0  0  0
 63139  1  0  0  0
 64140  1  0  0  0
 65141  1  0  0  0
 68 80  1  0  0  0
 71 72  2  0  0  0
 71 75  1  0  0  0
 71142  1  0  0  0
 72 76  1  0  0  0
 72143  1  0  0  0
 73 74  1  0  0  0
 73 76  2  0  0  0
 73144  1  0  0  0
 74 75  2  0  0  0
 74 77  1  0  0  0
 75 81  1  0  0  0
 76 82  1  0  0  0
 77 78  1  0  0  0
 77145  1  0  0  0
 77146  1  0  0  0
 78 81  1  0  0  0
 78147  1  0  0  0
 78148  1  0  0  0
 79 80  1  0  0  0
 79 81  1  0  0  0
 79149  1  0  0  0
 79150  1  0  0  0
 80151  1  0  0  0
 80152  1  0  0  0
 82153  1  0  0  0
M  ISO  4   1 100  68 101  80 101  82 100
M  END
> <chiral flag>
0

> <version>
0

> <s_m_source_file>
/data/baiqing/PycharmProjects/Reinvent-master-3.2/result/LINK_invent/BTK/process_docking_weight1_custom_product_contain_oxygen_bond_distance_aromatic_linkinvent_7_9_3/rearranged_h_0003.sdf

> <i_m_source_file_index>
66

> <r_mmod_Potential_Energy-OPLS-2005>
459.179351806641

> <r_mmod_Stretch_Energy-OPLS-2005>
217.435302734375

> <r_mmod_Bend_Energy-OPLS-2005>
318.111145019531

> <r_mmod_Torsional_Energy-OPLS-2005>
216.599304199219

> <r_mmod_Improper_Torsional_Energy-OPLS-2005>
5.76047039031982

> <r_mmod_Van_der_Waal_Energy-OPLS-2005>
126.740287780762

> <r_mmod_Electrostatic_Energy-OPLS-2005>
-369.868408203125

> <r_mmod_Solvation_Energy-OPLS-2005>
-234.934432983398

> <b_mmod_Minimization_Converged-OPLS-2005>
0

> <r_mmod_RMS_Derivative-OPLS-2005>
3.85945534706116

$$$$
66
                    3D
 Structure written by MMmdl.
144152  0  0  1  0            999 V2000
  -30.3021  -15.5932   20.3329 C   0  0  0  0  0  0
  -30.4326  -13.0479   19.5373 C   0  0  0  0  0  0
  -29.5520  -12.6461   18.3194 C   0  0  0  0  0  0
  -28.1210  -12.2991   18.7600 C   0  0  0  0  0  0
  -27.5995  -13.3023   19.8140 C   0  0  2  0  0  0
  -28.6192  -13.6098   20.9351 C   0  0  0  0  0  0
  -25.2337  -13.8274   20.5781 C   0  0  0  0  0  0
  -24.1722  -13.0430   20.9285 C   0  0  0  0  0  0
  -24.6417  -11.6940   20.8764 C   0  0  0  0  0  0
  -23.9117  -10.4290   21.0399 C   0  0  0  0  0  0
  -24.3652   -9.4203   21.9181 C   0  0  0  0  0  0
  -23.6312   -8.2246   22.0754 C   0  0  0  0  0  0
  -22.4292   -8.0288   21.3546 C   0  0  0  0  0  0
  -21.9939   -9.0264   20.4645 C   0  0  0  0  0  0
  -22.7284  -10.2134   20.3051 C   0  0  0  0  0  0
  -21.6858   -6.0741   22.5279 C   0  0  0  0  0  0
  -21.4018   -6.5643   23.8213 C   0  0  0  0  0  0
  -21.3661   -5.6794   24.9174 C   0  0  0  0  0  0
  -21.6044   -4.3056   24.7224 C   0  0  0  0  0  0
  -21.8818   -3.8150   23.4344 C   0  0  0  0  0  0
  -21.9194   -4.6968   22.3402 C   0  0  0  0  0  0
  -22.7734  -13.5165   21.1921 C   0  0  0  0  0  0
  -22.1661   -4.2153   21.0979 F   0  0  0  0  0  0
  -21.5627   -3.4539   25.7736 F   0  0  0  0  0  0
  -29.8007  -14.2227   20.2856 N   0  0  0  0  0  0
  -26.2785  -12.9597   20.3223 N   0  0  0  0  0  0
  -25.9362  -11.6674   20.5699 N   0  0  0  0  0  0
  -22.0396  -12.8143   22.0473 N   0  0  0  0  0  0
  -25.3915  -15.2015   20.4212 N   0  0  0  0  0  0
  -31.5371  -15.5643   20.1684 O   0  0  0  0  0  0
  -21.6647   -6.8889   21.4243 O   0  0  0  0  0  0
  -22.3409  -14.5464   20.6757 O   0  0  0  0  0  0
  -24.6831  -31.8011   23.1526 C   0  0  0  0  0  0
  -25.9415  -32.4474   23.8070 C   0  0  1  0  0  0
  -27.2274  -26.7157   20.2118 C   0  0  0  0  0  0
  -25.5996  -33.8299   24.1956 N   0  0  0  0  0  0
  -23.5088  -30.4037   21.5064 C   0  0  2  0  0  0
  -24.9668  -28.7480   20.1182 C   0  0  0  0  0  0
  -22.7764  -29.4322   22.4715 C   0  0  0  0  0  0
  -18.0338  -28.1421   22.8455 C   0  0  0  0  0  0
  -24.1496  -36.7158   23.2652 C   0  0  0  0  0  0
  -26.0894  -30.5386   21.4154 C   0  0  0  0  0  0
  -26.1562  -29.1049   20.7648 C   0  0  0  0  0  0
  -27.2730  -28.1167   20.7789 C   0  0  0  0  0  0
  -26.0047  -26.5663   19.5091 C   0  0  0  0  0  0
  -24.9293  -27.5037   19.4667 C   0  0  0  0  0  0
  -23.7624  -29.7017   20.1415 C   0  0  0  0  0  0
  -25.4146  -36.2900   24.0282 C   0  0  1  0  0  0
  -20.5974  -28.3781   23.1142 C   0  0  2  0  0  0
  -20.6805  -26.9441   22.5403 C   0  0  0  0  0  0
  -19.5781  -26.6371   21.5216 C   0  0  0  0  0  0
  -18.1964  -26.7949   22.1619 C   0  0  0  0  0  0
  -19.1605  -28.8925   23.2779 C   0  0  0  0  0  0
  -18.9510  -30.1509   23.8825 C   0  0  0  0  0  0
  -17.6500  -30.6604   24.0550 C   0  0  0  0  0  0
  -25.9124  -34.9289   23.4955 C   0  0  0  0  0  0
  -16.5389  -29.9086   23.6350 C   0  0  0  0  0  0
  -16.7318  -28.6508   23.0366 C   0  0  0  0  0  0
  -26.4594  -31.6505   25.0689 C   0  0  0  0  0  0
  -25.3661  -31.3820   26.1304 C   0  0  0  0  0  0
  -27.0525  -30.2844   24.6583 C   0  0  0  0  0  0
  -27.6042  -32.4365   25.7508 C   0  0  0  0  0  0
  -27.5564  -37.1737   24.8466 C   0  0  0  0  0  0
  -21.4412  -29.3030   22.3464 N   0  0  0  0  0  0
  -26.4273  -37.3659   23.9406 N   0  0  0  0  0  0
  -24.7838  -30.9469   22.0774 N   0  0  0  0  0  0
  -23.4211  -28.7922   23.3056 O   0  0  0  0  0  0
  -28.1833  -25.4944   20.2808 O   0  0  0  0  0  0
  -26.5764  -34.8864   22.4572 O   0  0  0  0  0  0
  -23.5852  -32.1079   23.6486 O   0  0  0  0  0  0
  -29.2152  -21.2102   21.2850 C   0  0  0  0  0  0
  -28.4680  -20.9815   19.2114 C   0  0  0  0  0  0
  -29.5547  -19.7084   21.3189 C   0  0  0  0  0  0
  -28.7956  -19.4896   19.2463 C   0  0  0  0  0  0
  -28.6202  -22.0723   20.2165 C   0  0  0  0  0  0
  -29.3952  -18.6241   20.2984 C   0  0  0  0  0  0
  -27.8596  -23.7811   20.1605 C   0  0  0  0  0  0
  -29.4728  -16.9054   20.3744 N   0  0  0  0  0  0
  -31.4270  -13.3120   19.1754 H   0  0  0  0  0  0
  -30.5883  -12.1960   20.2015 H   0  0  0  0  0  0
  -29.9972  -11.8055   17.7855 H   0  0  0  0  0  0
  -29.5208  -13.4766   17.6126 H   0  0  0  0  0  0
  -28.1388  -11.2971   19.1903 H   0  0  0  0  0  0
  -27.4518  -12.2545   17.8999 H   0  0  0  0  0  0
  -27.4696  -14.2308   19.2564 H   0  0  0  0  0  0
  -28.8689  -12.7178   21.5116 H   0  0  0  0  0  0
  -28.1952  -14.3242   21.6424 H   0  0  0  0  0  0
  -25.2792   -9.5675   22.4765 H   0  0  0  0  0  0
  -24.0012   -7.4637   22.7479 H   0  0  0  0  0  0
  -21.0869   -8.8793   19.8951 H   0  0  0  0  0  0
  -22.3745  -10.9677   19.6162 H   0  0  0  0  0  0
  -21.2013   -7.6151   23.9718 H   0  0  0  0  0  0
  -21.1483   -6.0523   25.9077 H   0  0  0  0  0  0
  -22.0595   -2.7612   23.2843 H   0  0  0  0  0  0
  -22.4036  -11.9820   22.4872 H   0  0  0  0  0  0
  -21.1003  -13.1140   22.2670 H   0  0  0  0  0  0
  -24.6148  -15.8447   20.5307 H   0  0  0  0  0  0
  -26.2216  -15.6451   20.0524 H   0  0  0  0  0  0
  -26.7498  -32.4951   23.0785 H   0  0  0  0  0  0
  -25.0053  -33.9339   25.0048 H   0  0  0  0  0  0
  -22.8336  -31.2408   21.3174 H   0  0  0  0  0  0
  -23.3775  -35.9470   23.3267 H   0  0  0  0  0  0
  -24.3564  -36.8867   22.2076 H   0  0  0  0  0  0
  -23.7240  -37.6318   23.6760 H   0  0  0  0  0  0
  -26.2912  -31.2650   20.6272 H   0  0  0  0  0  0
  -26.9406  -30.6057   22.0807 H   0  0  0  0  0  0
  -28.1680  -28.3958   21.3169 H   0  0  0  0  0  0
  -25.8372  -25.6248   19.0063 H   0  0  0  0  0  0
  -24.0317  -27.2214   18.9338 H   0  0  0  0  0  0
  -23.9365  -30.4623   19.3796 H   0  0  0  0  0  0
  -22.8675  -29.1676   19.8174 H   0  0  0  0  0  0
  -25.1355  -36.1664   25.0772 H   0  0  0  0  0  0
  -21.0055  -28.3406   24.1269 H   0  0  0  0  0  0
  -20.5670  -26.2405   23.3665 H   0  0  0  0  0  0
  -21.6667  -26.7385   22.1221 H   0  0  0  0  0  0
  -19.6938  -25.6262   21.1294 H   0  0  0  0  0  0
  -19.6725  -27.3140   20.6714 H   0  0  0  0  0  0
  -17.4233  -26.6689   21.4023 H   0  0  0  0  0  0
  -18.0354  -26.0109   22.9033 H   0  0  0  0  0  0
  -19.7985  -30.7344   24.2163 H   0  0  0  0  0  0
  -17.5050  -31.6276   24.5167 H   0  0  0  0  0  0
  -15.5386  -30.2965   23.7716 H   0  0  0  0  0  0
  -15.8719  -28.0803   22.7123 H   0  0  0  0  0  0
  -24.5869  -30.7145   25.7603 H   0  0  0  0  0  0
  -24.8823  -32.3041   26.4534 H   0  0  0  0  0  0
  -25.7838  -30.9110   27.0211 H   0  0  0  0  0  0
  -26.3240  -29.6459   24.1575 H   0  0  0  0  0  0
  -27.3954  -29.7289   25.5322 H   0  0  0  0  0  0
  -27.9220  -30.3970   24.0106 H   0  0  0  0  0  0
  -27.2581  -33.3734   26.1884 H   0  0  0  0  0  0
  -28.3957  -32.6817   25.0414 H   0  0  0  0  0  0
  -28.0596  -31.8630   26.5592 H   0  0  0  0  0  0
  -28.2551  -38.0060   24.7511 H   0  0  0  0  0  0
  -28.1090  -36.2582   24.6297 H   0  0  0  0  0  0
  -27.2278  -37.1377   25.8867 H   0  0  0  0  0  0
  -20.9716  -29.8686   21.6531 H   0  0  0  0  0  0
  -26.0101  -38.2707   24.1416 H   0  0  0  0  0  0
  -29.3875  -21.7246   22.2200 H   0  0  0  0  0  0
  -27.9811  -21.2980   18.2995 H   0  0  0  0  0  0
  -29.9269  -19.3646   22.2737 H   0  0  0  0  0  0
  -28.4989  -18.9566   18.3538 H   0  0  0  0  0  0
  -27.0553  -23.6708   20.8879 H   0  0  0  0  0  0
  -27.3414  -23.7369   19.2027 H   0  0  0  0  0  0
  -28.5226  -16.5669   20.4124 H   0  0  0  0  0  0
  1 25  1  0  0  0
  1 30  2  0  0  0
  1 78  1  0  0  0
  2  3  1  0  0  0
  2 25  1  0  0  0
  2 79  1  0  0  0
  2 80  1  0  0  0
  3  4  1  0  0  0
  3 81  1  0  0  0
  3 82  1  0  0  0
  4  5  1  0  0  0
  4 83  1  0  0  0
  4 84  1  0  0  0
  5  6  1  0  0  0
  5 26  1  0  0  0
  5 85  1  0  0  0
  6 25  1  0  0  0
  6 86  1  0  0  0
  6 87  1  0  0  0
  7  8  2  0  0  0
  7 26  1  0  0  0
  7 29  1  0  0  0
  8  9  1  0  0  0
  8 22  1  0  0  0
  9 10  1  0  0  0
  9 27  2  0  0  0
 10 11  2  0  0  0
 10 15  1  0  0  0
 11 12  1  0  0  0
 11 88  1  0  0  0
 12 13  2  0  0  0
 12 89  1  0  0  0
 13 14  1  0  0  0
 13 31  1  0  0  0
 14 15  2  0  0  0
 14 90  1  0  0  0
 15 91  1  0  0  0
 16 17  2  0  0  0
 16 21  1  0  0  0
 16 31  1  0  0  0
 17 18  1  0  0  0
 17 92  1  0  0  0
 18 19  2  0  0  0
 18 93  1  0  0  0
 19 20  1  0  0  0
 19 24  1  0  0  0
 20 21  2  0  0  0
 20 94  1  0  0  0
 21 23  1  0  0  0
 22 28  1  0  0  0
 22 32  2  0  0  0
 26 27  1  0  0  0
 28 95  1  0  0  0
 28 96  1  0  0  0
 29 97  1  0  0  0
 29 98  1  0  0  0
 33 34  1  0  0  0
 33 66  1  0  0  0
 33 70  2  0  0  0
 34 36  1  0  0  0
 34 59  1  0  0  0
 34 99  1  0  0  0
 35 44  2  0  0  0
 35 45  1  0  0  0
 35 68  1  0  0  0
 36 56  1  0  0  0
 36100  1  0  0  0
 37 39  1  0  0  0
 37 47  1  0  0  0
 37 66  1  0  0  0
 37101  1  0  0  0
 38 43  2  0  0  0
 38 46  1  0  0  0
 38 47  1  0  0  0
 39 64  1  0  0  0
 39 67  2  0  0  0
 40 52  1  0  0  0
 40 53  2  0  0  0
 40 58  1  0  0  0
 41102  1  0  0  0
 41103  1  0  0  0
 41104  1  0  0  0
 41 48  1  0  0  0
 42 43  1  0  0  0
 42 66  1  0  0  0
 42105  1  0  0  0
 42106  1  0  0  0
 43 44  1  0  0  0
 44107  1  0  0  0
 45 46  2  0  0  0
 45108  1  0  0  0
 46109  1  0  0  0
 47110  1  0  0  0
 47111  1  0  0  0
 48 56  1  0  0  0
 48 65  1  0  0  0
 48112  1  0  0  0
 49 50  1  0  0  0
 49 53  1  0  0  0
 49 64  1  0  0  0
 49113  1  0  0  0
 50 51  1  0  0  0
 50114  1  0  0  0
 50115  1  0  0  0
 51 52  1  0  0  0
 51116  1  0  0  0
 51117  1  0  0  0
 52118  1  0  0  0
 52119  1  0  0  0
 53 54  1  0  0  0
 54 55  2  0  0  0
 54120  1  0  0  0
 55 57  1  0  0  0
 55121  1  0  0  0
 56 69  2  0  0  0
 57 58  2  0  0  0
 57122  1  0  0  0
 58123  1  0  0  0
 59 60  1  0  0  0
 59 61  1  0  0  0
 59 62  1  0  0  0
 60124  1  0  0  0
 60125  1  0  0  0
 60126  1  0  0  0
 61127  1  0  0  0
 61128  1  0  0  0
 61129  1  0  0  0
 62130  1  0  0  0
 62131  1  0  0  0
 62132  1  0  0  0
 63 65  1  0  0  0
 63133  1  0  0  0
 63134  1  0  0  0
 63135  1  0  0  0
 64136  1  0  0  0
 65137  1  0  0  0
 68 77  1  0  0  0
 71 73  2  0  0  0
 71 75  1  0  0  0
 71138  1  0  0  0
 72 74  1  0  0  0
 72 75  2  0  0  0
 72139  1  0  0  0
 73 76  1  0  0  0
 73140  1  0  0  0
 74 76  2  0  0  0
 74141  1  0  0  0
 75 77  1  0  0  0
 76 78  1  0  0  0
 77142  1  0  0  0
 77143  1  0  0  0
 78144  1  0  0  0
M  ISO  4   1 100  68 101  77 101  78 100
M  END
> <chiral flag>
0

> <version>
0

> <s_m_source_file>
/data/baiqing/PycharmProjects/Reinvent-master-3.2/result/LINK_invent/BTK/process_docking_weight1_custom_product_contain_oxygen_bond_distance_aromatic_linkinvent_7_9_3/rearranged_h_0003.sdf

> <i_m_source_file_index>
67

> <r_mmod_Potential_Energy-OPLS-2005>
2267.25439453125

> <r_mmod_Stretch_Energy-OPLS-2005>
909.600280761719

> <r_mmod_Bend_Energy-OPLS-2005>
657.110290527344

> <r_mmod_Torsional_Energy-OPLS-2005>
259.846252441406

> <r_mmod_Improper_Torsional_Energy-OPLS-2005>
10.6979417800903

> <r_mmod_Van_der_Waal_Energy-OPLS-2005>
132.425323486328

> <r_mmod_Electrostatic_Energy-OPLS-2005>
-345.95654296875

> <r_mmod_Solvation_Energy-OPLS-2005>
-215.57307434082

> <b_mmod_Minimization_Converged-OPLS-2005>
0

> <r_mmod_RMS_Derivative-OPLS-2005>
0.113339096307755

$$$$
67
                    3D
 Structure written by MMmdl.
196206  0  0  1  0            999 V2000
  -30.7532  -14.4470   20.4395 C   0  0  0  0  0  0
  -30.4023  -12.2669   19.4166 C   0  0  0  0  0  0
  -29.4804  -12.4546   18.1944 C   0  0  0  0  0  0
  -28.0048  -12.3398   18.6187 C   0  0  0  0  0  0
  -27.6533  -13.2163   19.8537 C   0  0  2  0  0  0
  -28.7087  -13.0868   20.9781 C   0  0  0  0  0  0
  -25.2569  -13.8194   20.5676 C   0  0  0  0  0  0
  -24.1844  -13.0460   20.9209 C   0  0  0  0  0  0
  -24.6413  -11.6930   20.8791 C   0  0  0  0  0  0
  -23.9065  -10.4306   21.0432 C   0  0  0  0  0  0
  -24.3610   -9.4207   21.9212 C   0  0  0  0  0  0
  -23.6284   -8.2248   22.0786 C   0  0  0  0  0  0
  -22.4271   -8.0284   21.3563 C   0  0  0  0  0  0
  -21.9898   -9.0260   20.4686 C   0  0  0  0  0  0
  -22.7238  -10.2141   20.3090 C   0  0  0  0  0  0
  -21.6840   -6.0749   22.5281 C   0  0  0  0  0  0
  -21.4012   -6.5651   23.8217 C   0  0  0  0  0  0
  -21.3646   -5.6796   24.9173 C   0  0  0  0  0  0
  -21.6026   -4.3061   24.7219 C   0  0  0  0  0  0
  -21.8816   -3.8161   23.4340 C   0  0  0  0  0  0
  -21.9185   -4.6976   22.3397 C   0  0  0  0  0  0
  -22.7858  -13.5255   21.1845 C   0  0  0  0  0  0
  -22.1655   -4.2161   21.0974 F   0  0  0  0  0  0
  -21.5614   -3.4543   25.7727 F   0  0  0  0  0  0
  -30.0313  -13.3053   20.3829 N   0  0  0  0  0  0
  -26.3019  -12.9384   20.3355 N   0  0  0  0  0  0
  -25.9352  -11.6541   20.5835 N   0  0  0  0  0  0
  -22.0467  -12.8271   22.0394 N   0  0  0  0  0  0
  -25.4206  -15.1910   20.3987 N   0  0  0  0  0  0
  -31.9718  -14.4664   20.2997 O   0  0  0  0  0  0
  -21.6637   -6.8891   21.4250 O   0  0  0  0  0  0
  -22.3539  -14.5538   20.6649 O   0  0  0  0  0  0
  -24.6134  -31.8697   23.2121 C   0  0  0  0  0  0
  -25.9033  -32.4838   23.8408 C   0  0  1  0  0  0
  -27.2467  -27.4839   20.0708 C   0  0  0  0  0  0
  -25.5901  -33.8633   24.2338 N   0  0  0  0  0  0
  -23.4008  -30.4937   21.5519 C   0  0  2  0  0  0
  -24.8517  -28.9663   20.1139 C   0  0  0  0  0  0
  -22.7411  -29.4666   22.5000 C   0  0  0  0  0  0
  -18.0272  -28.1375   22.8489 C   0  0  0  0  0  0
  -24.1483  -36.7316   23.2632 C   0  0  0  0  0  0
  -25.9276  -30.8519   21.3578 C   0  0  0  0  0  0
  -26.0127  -29.4925   20.6986 C   0  0  0  0  0  0
  -27.2201  -28.7612   20.6710 C   0  0  0  0  0  0
  -26.0705  -26.9547   19.5084 C   0  0  0  0  0  0
  -24.8739  -27.6951   19.5147 C   0  0  0  0  0  0
  -23.6088  -29.8252   20.1669 C   0  0  0  0  0  0
  -25.4099  -36.3116   24.0340 C   0  0  1  0  0  0
  -20.5864  -28.3655   23.1326 C   0  0  2  0  0  0
  -20.6752  -26.9395   22.5424 C   0  0  0  0  0  0
  -19.5744  -26.6391   21.5207 C   0  0  0  0  0  0
  -18.1916  -26.7927   22.1607 C   0  0  0  0  0  0
  -19.1523  -28.8830   23.2906 C   0  0  0  0  0  0
  -18.9450  -30.1434   23.8914 C   0  0  0  0  0  0
  -17.6452  -30.6582   24.0562 C   0  0  0  0  0  0
  -25.9033  -34.9483   23.5134 C   0  0  0  0  0  0
  -16.5342  -29.9082   23.6323 C   0  0  0  0  0  0
  -16.7260  -28.6500   23.0345 C   0  0  0  0  0  0
  -26.4470  -31.6609   25.0724 C   0  0  0  0  0  0
  -25.3754  -31.3722   26.1493 C   0  0  0  0  0  0
  -27.0267  -30.3040   24.6076 C   0  0  0  0  0  0
  -27.6072  -32.4301   25.7471 C   0  0  0  0  0  0
  -27.5595  -37.1788   24.8443 C   0  0  0  0  0  0
  -21.4140  -29.3029   22.3742 N   0  0  0  0  0  0
  -26.4274  -37.3813   23.9438 N   0  0  0  0  0  0
  -24.6656  -31.0842   22.0995 N   0  0  0  0  0  0
  -23.4195  -28.8205   23.3030 O   0  0  0  0  0  0
  -28.3593  -26.6865   20.0599 O   0  0  0  0  0  0
  -26.5587  -34.8938   22.4690 O   0  0  0  0  0  0
  -23.5334  -32.1418   23.7540 O   0  0  0  0  0  0
  -32.3617  -24.5924   19.7374 C   0  0  0  0  0  0
  -30.7359  -23.8470   18.0774 C   0  0  0  0  0  0
  -31.6461  -25.7994   19.8952 C   0  0  0  0  0  0
  -30.0226  -25.0467   18.2392 C   0  0  0  0  0  0
  -31.8787  -23.5945   18.8636 C   0  0  0  0  0  0
  -30.4489  -26.0088   19.1759 C   0  0  0  0  0  0
  -32.5405  -22.2768   18.8130 C   0  0  0  0  0  0
  -31.9447  -21.0744   18.9301 C   0  0  0  0  0  0
  -30.5161  -20.8498   19.1442 C   0  0  0  0  0  0
  -30.3389  -17.4820   21.2379 C   0  0  0  0  0  0
  -28.8973  -19.4395   15.0689 C   0  0  0  0  0  0
  -34.0016  -22.1169   18.4646 C   0  0  0  0  0  0
  -32.8781  -19.9212   18.6563 C   0  0  0  0  0  0
  -34.2261  -20.5946   18.3368 C   0  0  0  0  0  0
  -31.5903  -20.3008   22.3039 C   0  0  0  0  0  0
  -30.8626  -21.4434   21.5742 C   0  0  0  0  0  0
  -30.6191  -19.2673   22.9086 C   0  0  0  0  0  0
  -28.6842  -20.5888   20.8024 C   0  0  0  0  0  0
  -28.5492  -19.2433   21.5841 C   0  0  0  0  0  0
  -29.5430  -27.1921   19.4627 C   0  0  0  0  0  0
  -28.4379  -16.8069   17.7792 C   0  0  0  0  0  0
  -29.2840  -17.4746   18.8867 C   0  0  0  0  0  0
  -28.7979  -17.2779   16.3544 C   0  0  0  0  0  0
  -29.5049  -16.6703   20.1977 C   0  0  1  0  0  0
  -30.0711  -20.9517   20.4290 N   0  0  0  0  0  0
  -29.8361  -18.5821   21.8637 N   0  0  0  0  0  0
  -29.0012  -20.7657   15.1121 N   0  0  0  0  0  0
  -28.8198  -18.8246   13.8874 N   0  3  0  0  0  0
  -30.1689  -15.4363   19.7594 N   0  0  0  0  0  0
  -28.8787  -18.7470   16.2162 N   0  0  0  0  0  0
  -29.7669  -20.5360   18.2120 O   0  0  0  0  0  0
  -31.4921  -17.1178   21.4783 O   0  0  0  0  0  0
  -31.4499  -12.3257   19.1137 H   0  0  0  0  0  0
  -30.2677  -11.2786   19.8558 H   0  0  0  0  0  0
  -29.7083  -11.7082   17.4307 H   0  0  0  0  0  0
  -29.6557  -13.4257   17.7300 H   0  0  0  0  0  0
  -27.8197  -11.2898   18.8456 H   0  0  0  0  0  0
  -27.3499  -12.5882   17.7823 H   0  0  0  0  0  0
  -27.6697  -14.2501   19.5093 H   0  0  0  0  0  0
  -28.6677  -12.1004   21.4419 H   0  0  0  0  0  0
  -28.5154  -13.8160   21.7676 H   0  0  0  0  0  0
  -25.2756   -9.5672   22.4785 H   0  0  0  0  0  0
  -23.9995   -7.4630   22.7495 H   0  0  0  0  0  0
  -21.0834   -8.8755   19.8993 H   0  0  0  0  0  0
  -22.3683  -10.9664   19.6189 H   0  0  0  0  0  0
  -21.2022   -7.6164   23.9729 H   0  0  0  0  0  0
  -21.1465   -6.0528   25.9073 H   0  0  0  0  0  0
  -22.0612   -2.7632   23.2821 H   0  0  0  0  0  0
  -22.4021  -11.9920   22.4804 H   0  0  0  0  0  0
  -21.1093  -13.1342   22.2579 H   0  0  0  0  0  0
  -24.6331  -15.8283   20.4603 H   0  0  0  0  0  0
  -26.2548  -15.6249   20.0266 H   0  0  0  0  0  0
  -26.7115  -32.5570   23.1192 H   0  0  0  0  0  0
  -25.0063  -33.9797   25.0488 H   0  0  0  0  0  0
  -22.6874  -31.3089   21.4139 H   0  0  0  0  0  0
  -23.3766  -35.9625   23.3244 H   0  0  0  0  0  0
  -24.3605  -36.8979   22.2060 H   0  0  0  0  0  0
  -23.7199  -37.6493   23.6670 H   0  0  0  0  0  0
  -26.0356  -31.6244   20.5953 H   0  0  0  0  0  0
  -26.8160  -30.9017   21.9754 H   0  0  0  0  0  0
  -28.1152  -29.1658   21.1211 H   0  0  0  0  0  0
  -26.0842  -25.9701   19.0610 H   0  0  0  0  0  0
  -23.9809  -27.2817   19.0659 H   0  0  0  0  0  0
  -23.7083  -30.5988   19.4047 H   0  0  0  0  0  0
  -22.7352  -29.2388   19.8747 H   0  0  0  0  0  0
  -25.1262  -36.1973   25.0829 H   0  0  0  0  0  0
  -20.9956  -28.3215   24.1447 H   0  0  0  0  0  0
  -20.5636  -26.2265   23.3607 H   0  0  0  0  0  0
  -21.6627  -26.7431   22.1228 H   0  0  0  0  0  0
  -19.6900  -25.6305   21.1230 H   0  0  0  0  0  0
  -19.6696  -27.3209   20.6746 H   0  0  0  0  0  0
  -17.4198  -26.6690   21.3995 H   0  0  0  0  0  0
  -18.0306  -26.0060   22.8992 H   0  0  0  0  0  0
  -19.7927  -30.7237   24.2298 H   0  0  0  0  0  0
  -17.5011  -31.6264   24.5160 H   0  0  0  0  0  0
  -15.5340  -30.2985   23.7643 H   0  0  0  0  0  0
  -15.8658  -28.0825   22.7047 H   0  0  0  0  0  0
  -24.5915  -30.7071   25.7852 H   0  0  0  0  0  0
  -24.8963  -32.2886   26.4947 H   0  0  0  0  0  0
  -25.8127  -30.8896   27.0244 H   0  0  0  0  0  0
  -26.2775  -29.6831   24.1144 H   0  0  0  0  0  0
  -27.4046  -29.7249   25.4517 H   0  0  0  0  0  0
  -27.8623  -30.4347   23.9194 H   0  0  0  0  0  0
  -27.2718  -33.3602   26.2069 H   0  0  0  0  0  0
  -28.3864  -32.6850   25.0275 H   0  0  0  0  0  0
  -28.0754  -31.8405   26.5364 H   0  0  0  0  0  0
  -28.2552  -38.0146   24.7589 H   0  0  0  0  0  0
  -28.1146  -36.2687   24.6114 H   0  0  0  0  0  0
  -27.2345  -37.1263   25.8848 H   0  0  0  0  0  0
  -20.9298  -29.8766   21.6977 H   0  0  0  0  0  0
  -26.0163  -38.2876   24.1506 H   0  0  0  0  0  0
  -33.2495  -24.4150   20.3290 H   0  0  0  0  0  0
  -30.3744  -23.1056   17.3791 H   0  0  0  0  0  0
  -31.9922  -26.5370   20.6055 H   0  0  0  0  0  0
  -29.1122  -25.2065   17.6780 H   0  0  0  0  0  0
  -34.6322  -22.5618   19.2353 H   0  0  0  0  0  0
  -34.2114  -22.6190   17.5193 H   0  0  0  0  0  0
  -32.5143  -19.3267   17.8161 H   0  0  0  0  0  0
  -32.9504  -19.2668   19.5247 H   0  0  0  0  0  0
  -35.0059  -20.2561   19.0213 H   0  0  0  0  0  0
  -34.5489  -20.3382   17.3261 H   0  0  0  0  0  0
  -32.2035  -20.7265   23.0987 H   0  0  0  0  0  0
  -32.2924  -19.8079   21.6322 H   0  0  0  0  0  0
  -31.5789  -22.2093   21.2845 H   0  0  0  0  0  0
  -30.2108  -21.9535   22.2843 H   0  0  0  0  0  0
  -29.9595  -19.7651   23.6211 H   0  0  0  0  0  0
  -31.1758  -18.5472   23.5106 H   0  0  0  0  0  0
  -28.2643  -21.3943   21.4067 H   0  0  0  0  0  0
  -28.0254  -20.5631   19.9327 H   0  0  0  0  0  0
  -27.8568  -18.5787   21.0697 H   0  0  0  0  0  0
  -28.0420  -19.4403   22.5300 H   0  0  0  0  0  0
  -29.3158  -27.6992   18.5232 H   0  0  0  0  0  0
  -30.0332  -27.9096   20.1210 H   0  0  0  0  0  0
  -27.3759  -16.9657   17.9733 H   0  0  0  0  0  0
  -28.5734  -15.7254   17.7904 H   0  0  0  0  0  0
  -28.8172  -18.4285   19.0971 H   0  0  0  0  0  0
  -30.2658  -17.7143   18.4750 H   0  0  0  0  0  0
  -28.0591  -16.8865   15.6529 H   0  0  0  0  0  0
  -29.7624  -16.8602   16.0598 H   0  0  0  0  0  0
  -28.5525  -16.3980   20.6544 H   0  0  0  0  0  0
  -29.0302  -21.3391   14.2797 H   0  0  0  0  0  0
  -29.0558  -21.2585   15.9936 H   0  0  0  0  0  0
  -28.8460  -19.3284   13.0111 H   0  0  0  0  0  0
  -28.7446  -17.8211   13.8152 H   0  0  0  0  0  0
  -30.8603  -15.7044   19.0780 H   0  0  0  0  0  0
  -29.0719  -19.2652   17.0790 H   0  0  0  0  0  0
  1 25  1  0  0  0
  1 30  2  0  0  0
  1 99  1  0  0  0
  2  3  1  0  0  0
  2 25  1  0  0  0
  2103  1  0  0  0
  2104  1  0  0  0
  3  4  1  0  0  0
  3105  1  0  0  0
  3106  1  0  0  0
  4  5  1  0  0  0
  4107  1  0  0  0
  4108  1  0  0  0
  5  6  1  0  0  0
  5 26  1  0  0  0
  5109  1  0  0  0
  6 25  1  0  0  0
  6110  1  0  0  0
  6111  1  0  0  0
  7  8  2  0  0  0
  7 26  1  0  0  0
  7 29  1  0  0  0
  8  9  1  0  0  0
  8 22  1  0  0  0
  9 10  1  0  0  0
  9 27  2  0  0  0
 10 11  2  0  0  0
 10 15  1  0  0  0
 11 12  1  0  0  0
 11112  1  0  0  0
 12 13  2  0  0  0
 12113  1  0  0  0
 13 14  1  0  0  0
 13 31  1  0  0  0
 14 15  2  0  0  0
 14114  1  0  0  0
 15115  1  0  0  0
 16 17  2  0  0  0
 16 21  1  0  0  0
 16 31  1  0  0  0
 17 18  1  0  0  0
 17116  1  0  0  0
 18 19  2  0  0  0
 18117  1  0  0  0
 19 20  1  0  0  0
 19 24  1  0  0  0
 20 21  2  0  0  0
 20118  1  0  0  0
 21 23  1  0  0  0
 22 28  1  0  0  0
 22 32  2  0  0  0
 26 27  1  0  0  0
 28119  1  0  0  0
 28120  1  0  0  0
 29121  1  0  0  0
 29122  1  0  0  0
 33 34  1  0  0  0
 33 66  1  0  0  0
 33 70  2  0  0  0
 34 36  1  0  0  0
 34 59  1  0  0  0
 34123  1  0  0  0
 35 44  2  0  0  0
 35 45  1  0  0  0
 35 68  1  0  0  0
 36 56  1  0  0  0
 36124  1  0  0  0
 37 39  1  0  0  0
 37 47  1  0  0  0
 37 66  1  0  0  0
 37125  1  0  0  0
 38 43  2  0  0  0
 38 46  1  0  0  0
 38 47  1  0  0  0
 39 64  1  0  0  0
 39 67  2  0  0  0
 40 52  1  0  0  0
 40 53  2  0  0  0
 40 58  1  0  0  0
 41126  1  0  0  0
 41127  1  0  0  0
 41128  1  0  0  0
 41 48  1  0  0  0
 42 43  1  0  0  0
 42 66  1  0  0  0
 42129  1  0  0  0
 42130  1  0  0  0
 43 44  1  0  0  0
 44131  1  0  0  0
 45 46  2  0  0  0
 45132  1  0  0  0
 46133  1  0  0  0
 47134  1  0  0  0
 47135  1  0  0  0
 48 56  1  0  0  0
 48 65  1  0  0  0
 48136  1  0  0  0
 49 50  1  0  0  0
 49 53  1  0  0  0
 49 64  1  0  0  0
 49137  1  0  0  0
 50 51  1  0  0  0
 50138  1  0  0  0
 50139  1  0  0  0
 51 52  1  0  0  0
 51140  1  0  0  0
 51141  1  0  0  0
 52142  1  0  0  0
 52143  1  0  0  0
 53 54  1  0  0  0
 54 55  2  0  0  0
 54144  1  0  0  0
 55 57  1  0  0  0
 55145  1  0  0  0
 56 69  2  0  0  0
 57 58  2  0  0  0
 57146  1  0  0  0
 58147  1  0  0  0
 59 60  1  0  0  0
 59 61  1  0  0  0
 59 62  1  0  0  0
 60148  1  0  0  0
 60149  1  0  0  0
 60150  1  0  0  0
 61151  1  0  0  0
 61152  1  0  0  0
 61153  1  0  0  0
 62154  1  0  0  0
 62155  1  0  0  0
 62156  1  0  0  0
 63 65  1  0  0  0
 63157  1  0  0  0
 63158  1  0  0  0
 63159  1  0  0  0
 64160  1  0  0  0
 65161  1  0  0  0
 68 90  1  0  0  0
 71 73  2  0  0  0
 71 75  1  0  0  0
 71162  1  0  0  0
 72 74  1  0  0  0
 72 75  2  0  0  0
 72163  1  0  0  0
 73 76  1  0  0  0
 73164  1  0  0  0
 74 76  2  0  0  0
 74165  1  0  0  0
 75 77  1  0  0  0
 76 90  1  0  0  0
 77 78  2  0  0  0
 77 82  1  0  0  0
 78 79  1  0  0  0
 78 83  1  0  0  0
 79 95  1  0  0  0
 79101  2  0  0  0
 80 94  1  0  0  0
 80 96  1  0  0  0
 80102  2  0  0  0
 81 97  1  0  0  0
 81 98  2  0  0  0
 81100  1  0  0  0
 82 84  1  0  0  0
 82166  1  0  0  0
 82167  1  0  0  0
 83 84  1  0  0  0
 83168  1  0  0  0
 83169  1  0  0  0
 84170  1  0  0  0
 84171  1  0  0  0
 85 86  1  0  0  0
 85 87  1  0  0  0
 85172  1  0  0  0
 85173  1  0  0  0
 86 95  1  0  0  0
 86174  1  0  0  0
 86175  1  0  0  0
 87 96  1  0  0  0
 87176  1  0  0  0
 87177  1  0  0  0
 88 89  1  0  0  0
 88 95  1  0  0  0
 88178  1  0  0  0
 88179  1  0  0  0
 89 96  1  0  0  0
 89180  1  0  0  0
 89181  1  0  0  0
 90182  1  0  0  0
 90183  1  0  0  0
 91 92  1  0  0  0
 91 93  1  0  0  0
 91184  1  0  0  0
 91185  1  0  0  0
 92186  1  0  0  0
 92187  1  0  0  0
 92 94  1  0  0  0
 93100  1  0  0  0
 93188  1  0  0  0
 93189  1  0  0  0
 94 99  1  0  0  0
 94190  1  0  0  0
 97191  1  0  0  0
 97192  1  0  0  0
 98193  1  0  0  0
 98194  1  0  0  0
 99195  1  0  0  0
100196  1  0  0  0
M  CHG  1  98   1
M  ISO  4   1 100  68 101  90 101  99 100
M  END
> <chiral flag>
0

> <version>
0

> <s_m_source_file>
/data/baiqing/PycharmProjects/Reinvent-master-3.2/result/LINK_invent/BTK/process_docking_weight1_custom_product_contain_oxygen_bond_distance_aromatic_linkinvent_7_9_3/rearranged_h_0003.sdf

> <i_m_source_file_index>
68

> <r_mmod_Potential_Energy-OPLS-2005>
25.0330181121826

> <r_mmod_Stretch_Energy-OPLS-2005>
44.1784400939941

> <r_mmod_Bend_Energy-OPLS-2005>
200.787048339844

> <r_mmod_Torsional_Energy-OPLS-2005>
476.847320556641

> <r_mmod_Improper_Torsional_Energy-OPLS-2005>
42.8015556335449

> <r_mmod_Van_der_Waal_Energy-OPLS-2005>
151.615173339844

> <r_mmod_Electrostatic_Energy-OPLS-2005>
-469.772827148438

> <r_mmod_Solvation_Energy-OPLS-2005>
-452.34716796875

> <b_mmod_Minimization_Converged-OPLS-2005>
0

> <r_mmod_RMS_Derivative-OPLS-2005>
2.51778173446655

$$$$
68
                    3D
 Structure written by MMmdl.
160168  0  0  1  0            999 V2000
  -30.7446  -14.3951   20.5854 C   0  0  0  0  0  0
  -30.4126  -12.2758   19.3883 C   0  0  0  0  0  0
  -29.4809  -12.5294   18.1866 C   0  0  0  0  0  0
  -27.9994  -12.4157   18.6019 C   0  0  0  0  0  0
  -27.6681  -13.2153   19.8908 C   0  0  2  0  0  0
  -28.7192  -12.9453   20.9944 C   0  0  0  0  0  0
  -25.2564  -13.8193   20.5691 C   0  0  0  0  0  0
  -24.1822  -13.0437   20.9204 C   0  0  0  0  0  0
  -24.6414  -11.6927   20.8762 C   0  0  0  0  0  0
  -23.9083  -10.4293   21.0400 C   0  0  0  0  0  0
  -24.3621   -9.4211   21.9187 C   0  0  0  0  0  0
  -23.6290   -8.2246   22.0761 C   0  0  0  0  0  0
  -22.4279   -8.0289   21.3536 C   0  0  0  0  0  0
  -21.9911   -9.0273   20.4640 C   0  0  0  0  0  0
  -22.7253  -10.2143   20.3053 C   0  0  0  0  0  0
  -21.6858   -6.0730   22.5275 C   0  0  0  0  0  0
  -21.4029   -6.5636   23.8216 C   0  0  0  0  0  0
  -21.3653   -5.6781   24.9176 C   0  0  0  0  0  0
  -21.6052   -4.3049   24.7219 C   0  0  0  0  0  0
  -21.8829   -3.8140   23.4346 C   0  0  0  0  0  0
  -21.9195   -4.6953   22.3401 C   0  0  0  0  0  0
  -22.7834  -13.5216   21.1851 C   0  0  0  0  0  0
  -22.1651   -4.2140   21.0974 F   0  0  0  0  0  0
  -21.5622   -3.4539   25.7734 F   0  0  0  0  0  0
  -30.0519  -13.2370   20.4377 N   0  0  0  0  0  0
  -26.3065  -12.9394   20.3491 N   0  0  0  0  0  0
  -25.9356  -11.6537   20.5841 N   0  0  0  0  0  0
  -22.0462  -12.8187   22.0395 N   0  0  0  0  0  0
  -25.4188  -15.1892   20.3976 N   0  0  0  0  0  0
  -31.8539  -14.5998   20.0885 O   0  0  0  0  0  0
  -21.6650   -6.8878   21.4237 O   0  0  0  0  0  0
  -22.3501  -14.5498   20.6689 O   0  0  0  0  0  0
  -24.6144  -31.8698   23.2093 C   0  0  0  0  0  0
  -25.9002  -32.4866   23.8420 C   0  0  1  0  0  0
  -27.2512  -27.4531   20.0923 C   0  0  0  0  0  0
  -25.5870  -33.8666   24.2354 N   0  0  0  0  0  0
  -23.4018  -30.4934   21.5468 C   0  0  2  0  0  0
  -24.8519  -28.9566   20.1120 C   0  0  0  0  0  0
  -22.7399  -29.4700   22.4975 C   0  0  0  0  0  0
  -18.0270  -28.1372   22.8524 C   0  0  0  0  0  0
  -24.1456  -36.7350   23.2639 C   0  0  0  0  0  0
  -25.9262  -30.8396   21.3572 C   0  0  0  0  0  0
  -26.0060  -29.4723   20.7113 C   0  0  0  0  0  0
  -27.2033  -28.7241   20.7033 C   0  0  0  0  0  0
  -26.0758  -26.9526   19.4806 C   0  0  0  0  0  0
  -24.8808  -27.6948   19.4948 C   0  0  0  0  0  0
  -23.6113  -29.8211   20.1618 C   0  0  0  0  0  0
  -25.4078  -36.3155   24.0330 C   0  0  1  0  0  0
  -20.5867  -28.3643   23.1232 C   0  0  2  0  0  0
  -20.6735  -26.9345   22.5398 C   0  0  0  0  0  0
  -19.5646  -26.6168   21.5307 C   0  0  0  0  0  0
  -18.1850  -26.7881   22.1754 C   0  0  0  0  0  0
  -19.1549  -28.8821   23.2892 C   0  0  0  0  0  0
  -18.9483  -30.1436   23.8896 C   0  0  0  0  0  0
  -17.6507  -30.6617   24.0542 C   0  0  0  0  0  0
  -25.9005  -34.9514   23.5146 C   0  0  0  0  0  0
  -16.5376  -29.9100   23.6332 C   0  0  0  0  0  0
  -16.7266  -28.6497   23.0396 C   0  0  0  0  0  0
  -26.4432  -31.6644   25.0751 C   0  0  0  0  0  0
  -25.3665  -31.3737   26.1473 C   0  0  0  0  0  0
  -27.0242  -30.3092   24.6094 C   0  0  0  0  0  0
  -27.6051  -32.4324   25.7518 C   0  0  0  0  0  0
  -27.5565  -37.1827   24.8462 C   0  0  0  0  0  0
  -21.4145  -29.2982   22.3609 N   0  0  0  0  0  0
  -26.4284  -37.3819   23.9403 N   0  0  0  0  0  0
  -24.6668  -31.0817   22.0982 N   0  0  0  0  0  0
  -23.4150  -28.8260   23.3077 O   0  0  0  0  0  0
  -28.4482  -26.7647   20.1115 O   0  0  0  0  0  0
  -26.5588  -34.8959   22.4715 O   0  0  0  0  0  0
  -23.5330  -32.1432   23.7474 O   0  0  0  0  0  0
  -29.7405  -19.7506   22.6953 C   0  0  0  0  0  0
  -27.6832  -18.8786   21.7229 C   0  0  0  0  0  0
  -30.2430  -18.4383   22.8140 C   0  0  0  0  0  0
  -28.1861  -17.5706   21.8323 C   0  0  0  0  0  0
  -28.4616  -19.9821   22.1355 C   0  0  0  0  0  0
  -29.4718  -17.3441   22.3652 C   0  0  0  0  0  0
  -27.8863  -21.3680   22.0375 C   0  0  0  0  0  0
  -30.0222  -15.9306   22.3701 C   0  0  0  0  0  0
  -29.9315  -23.2959   19.5344 C   0  0  0  0  0  0
  -29.8303  -24.7661   20.0052 C   0  0  0  0  0  0
  -29.8094  -22.2201   20.6371 C   0  0  0  0  0  0
  -28.4527  -25.3920   19.7270 C   0  0  0  0  0  0
  -28.5627  -22.3288   21.3898 N   0  0  0  0  0  0
  -30.0249  -15.4346   21.0026 N   0  0  0  0  0  0
  -26.7872  -21.6052   22.5357 O   0  0  0  0  0  0
  -31.4579  -12.3597   19.0821 H   0  0  0  0  0  0
  -30.2859  -11.2572   19.7554 H   0  0  0  0  0  0
  -29.6944  -11.8217   17.3841 H   0  0  0  0  0  0
  -29.6703  -13.5206   17.7750 H   0  0  0  0  0  0
  -27.7724  -11.3605   18.7490 H   0  0  0  0  0  0
  -27.3581  -12.7470   17.7822 H   0  0  0  0  0  0
  -27.7233  -14.2754   19.6381 H   0  0  0  0  0  0
  -28.6800  -11.9034   21.3117 H   0  0  0  0  0  0
  -28.5100  -13.5272   21.8907 H   0  0  0  0  0  0
  -25.2774   -9.5684   22.4754 H   0  0  0  0  0  0
  -24.0006   -7.4640   22.7482 H   0  0  0  0  0  0
  -21.0853   -8.8804   19.8933 H   0  0  0  0  0  0
  -22.3740  -10.9682   19.6153 H   0  0  0  0  0  0
  -21.2041   -7.6152   23.9718 H   0  0  0  0  0  0
  -21.1449   -6.0513   25.9074 H   0  0  0  0  0  0
  -22.0608   -2.7607   23.2859 H   0  0  0  0  0  0
  -22.4085  -11.9864   22.4798 H   0  0  0  0  0  0
  -21.1068  -13.1185   22.2573 H   0  0  0  0  0  0
  -24.6404  -15.8345   20.4784 H   0  0  0  0  0  0
  -26.2580  -15.6202   20.0299 H   0  0  0  0  0  0
  -26.7091  -32.5621   23.1220 H   0  0  0  0  0  0
  -25.0024  -33.9831   25.0504 H   0  0  0  0  0  0
  -22.6891  -31.3101   21.4030 H   0  0  0  0  0  0
  -23.3725  -35.9684   23.3316 H   0  0  0  0  0  0
  -24.3560  -36.8967   22.2059 H   0  0  0  0  0  0
  -23.7185  -37.6539   23.6647 H   0  0  0  0  0  0
  -26.0170  -31.5966   20.5789 H   0  0  0  0  0  0
  -26.8243  -30.9163   21.9585 H   0  0  0  0  0  0
  -28.0941  -29.1209   21.1703 H   0  0  0  0  0  0
  -26.0689  -25.9989   18.9768 H   0  0  0  0  0  0
  -23.9972  -27.2909   19.0178 H   0  0  0  0  0  0
  -23.7107  -30.5872   19.3917 H   0  0  0  0  0  0
  -22.7399  -29.2307   19.8791 H   0  0  0  0  0  0
  -25.1243  -36.2064   25.0819 H   0  0  0  0  0  0
  -20.9988  -28.3208   24.1324 H   0  0  0  0  0  0
  -20.5788  -26.2253   23.3650 H   0  0  0  0  0  0
  -21.6546  -26.7321   22.1052 H   0  0  0  0  0  0
  -19.6531  -27.2702   20.6640 H   0  0  0  0  0  0
  -19.6745  -25.5968   21.1637 H   0  0  0  0  0  0
  -17.4049  -26.6591   21.4236 H   0  0  0  0  0  0
  -18.0224  -26.0116   22.9223 H   0  0  0  0  0  0
  -19.7969  -30.7236   24.2240 H   0  0  0  0  0  0
  -17.5027  -31.6279   24.5183 H   0  0  0  0  0  0
  -15.5366  -30.2953   23.7697 H   0  0  0  0  0  0
  -15.8665  -28.0843   22.7106 H   0  0  0  0  0  0
  -24.5918  -30.6997   25.7785 H   0  0  0  0  0  0
  -24.8749  -32.2869   26.4840 H   0  0  0  0  0  0
  -25.8016  -30.8986   27.0273 H   0  0  0  0  0  0
  -26.2777  -29.6922   24.1076 H   0  0  0  0  0  0
  -27.3919  -29.7294   25.4567 H   0  0  0  0  0  0
  -27.8661  -30.4441   23.9304 H   0  0  0  0  0  0
  -27.2743  -33.3674   26.2056 H   0  0  0  0  0  0
  -28.3902  -32.6767   25.0346 H   0  0  0  0  0  0
  -28.0636  -31.8424   26.5462 H   0  0  0  0  0  0
  -28.2582  -38.0121   24.7496 H   0  0  0  0  0  0
  -28.1056  -36.2648   24.6309 H   0  0  0  0  0  0
  -27.2292  -37.1517   25.8868 H   0  0  0  0  0  0
  -20.9385  -29.8412   21.6550 H   0  0  0  0  0  0
  -26.0198  -38.2906   24.1423 H   0  0  0  0  0  0
  -30.3405  -20.5856   23.0340 H   0  0  0  0  0  0
  -26.6946  -19.0359   21.3139 H   0  0  0  0  0  0
  -31.2312  -18.2823   23.2257 H   0  0  0  0  0  0
  -27.5950  -16.7365   21.4853 H   0  0  0  0  0  0
  -29.3960  -15.3019   23.0018 H   0  0  0  0  0  0
  -31.0321  -15.9151   22.7848 H   0  0  0  0  0  0
  -30.8970  -23.1541   19.0492 H   0  0  0  0  0  0
  -29.1956  -23.1053   18.7509 H   0  0  0  0  0  0
  -30.5760  -25.3532   19.4656 H   0  0  0  0  0  0
  -30.1011  -24.8502   21.0582 H   0  0  0  0  0  0
  -30.6496  -22.2983   21.3277 H   0  0  0  0  0  0
  -29.8889  -21.2366   20.1695 H   0  0  0  0  0  0
  -27.6799  -24.8394   20.2641 H   0  0  0  0  0  0
  -28.2445  -25.3174   18.6578 H   0  0  0  0  0  0
  -28.1141  -23.2325   21.3940 H   0  0  0  0  0  0
  -30.1871  -16.2254   20.3977 H   0  0  0  0  0  0
  1 25  1  0  0  0
  1 30  2  0  0  0
  1 84  1  0  0  0
  2  3  1  0  0  0
  2 25  1  0  0  0
  2 86  1  0  0  0
  2 87  1  0  0  0
  3  4  1  0  0  0
  3 88  1  0  0  0
  3 89  1  0  0  0
  4  5  1  0  0  0
  4 90  1  0  0  0
  4 91  1  0  0  0
  5  6  1  0  0  0
  5 26  1  0  0  0
  5 92  1  0  0  0
  6 25  1  0  0  0
  6 93  1  0  0  0
  6 94  1  0  0  0
  7  8  2  0  0  0
  7 26  1  0  0  0
  7 29  1  0  0  0
  8  9  1  0  0  0
  8 22  1  0  0  0
  9 10  1  0  0  0
  9 27  2  0  0  0
 10 11  2  0  0  0
 10 15  1  0  0  0
 11 12  1  0  0  0
 11 95  1  0  0  0
 12 13  2  0  0  0
 12 96  1  0  0  0
 13 14  1  0  0  0
 13 31  1  0  0  0
 14 15  2  0  0  0
 14 97  1  0  0  0
 15 98  1  0  0  0
 16 17  2  0  0  0
 16 21  1  0  0  0
 16 31  1  0  0  0
 17 18  1  0  0  0
 17 99  1  0  0  0
 18 19  2  0  0  0
 18100  1  0  0  0
 19 20  1  0  0  0
 19 24  1  0  0  0
 20 21  2  0  0  0
 20101  1  0  0  0
 21 23  1  0  0  0
 22 28  1  0  0  0
 22 32  2  0  0  0
 26 27  1  0  0  0
 28102  1  0  0  0
 28103  1  0  0  0
 29104  1  0  0  0
 29105  1  0  0  0
 33 34  1  0  0  0
 33 66  1  0  0  0
 33 70  2  0  0  0
 34 36  1  0  0  0
 34 59  1  0  0  0
 34106  1  0  0  0
 35 44  2  0  0  0
 35 45  1  0  0  0
 35 68  1  0  0  0
 36 56  1  0  0  0
 36107  1  0  0  0
 37 39  1  0  0  0
 37 47  1  0  0  0
 37 66  1  0  0  0
 37108  1  0  0  0
 38 43  2  0  0  0
 38 46  1  0  0  0
 38 47  1  0  0  0
 39 64  1  0  0  0
 39 67  2  0  0  0
 40 52  1  0  0  0
 40 53  2  0  0  0
 40 58  1  0  0  0
 41109  1  0  0  0
 41110  1  0  0  0
 41111  1  0  0  0
 41 48  1  0  0  0
 42 43  1  0  0  0
 42 66  1  0  0  0
 42112  1  0  0  0
 42113  1  0  0  0
 43 44  1  0  0  0
 44114  1  0  0  0
 45 46  2  0  0  0
 45115  1  0  0  0
 46116  1  0  0  0
 47117  1  0  0  0
 47118  1  0  0  0
 48 56  1  0  0  0
 48 65  1  0  0  0
 48119  1  0  0  0
 49 50  1  0  0  0
 49 53  1  0  0  0
 49 64  1  0  0  0
 49120  1  0  0  0
 50 51  1  0  0  0
 50121  1  0  0  0
 50122  1  0  0  0
 51 52  1  0  0  0
 51123  1  0  0  0
 51124  1  0  0  0
 52125  1  0  0  0
 52126  1  0  0  0
 53 54  1  0  0  0
 54 55  2  0  0  0
 54127  1  0  0  0
 55 57  1  0  0  0
 55128  1  0  0  0
 56 69  2  0  0  0
 57 58  2  0  0  0
 57129  1  0  0  0
 58130  1  0  0  0
 59 60  1  0  0  0
 59 61  1  0  0  0
 59 62  1  0  0  0
 60131  1  0  0  0
 60132  1  0  0  0
 60133  1  0  0  0
 61134  1  0  0  0
 61135  1  0  0  0
 61136  1  0  0  0
 62137  1  0  0  0
 62138  1  0  0  0
 62139  1  0  0  0
 63 65  1  0  0  0
 63140  1  0  0  0
 63141  1  0  0  0
 63142  1  0  0  0
 64143  1  0  0  0
 65144  1  0  0  0
 68 82  1  0  0  0
 71 73  2  0  0  0
 71 75  1  0  0  0
 71145  1  0  0  0
 72 74  1  0  0  0
 72 75  2  0  0  0
 72146  1  0  0  0
 73 76  1  0  0  0
 73147  1  0  0  0
 74 76  2  0  0  0
 74148  1  0  0  0
 75 77  1  0  0  0
 76 78  1  0  0  0
 77 83  1  0  0  0
 77 85  2  0  0  0
 78 84  1  0  0  0
 78149  1  0  0  0
 78150  1  0  0  0
 79 80  1  0  0  0
 79 81  1  0  0  0
 79151  1  0  0  0
 79152  1  0  0  0
 80 82  1  0  0  0
 80153  1  0  0  0
 80154  1  0  0  0
 81 83  1  0  0  0
 81155  1  0  0  0
 81156  1  0  0  0
 82157  1  0  0  0
 82158  1  0  0  0
 83159  1  0  0  0
 84160  1  0  0  0
M  ISO  4   1 100  68 101  82 101  84 100
M  END
> <chiral flag>
0

> <version>
0

> <s_m_source_file>
/data/baiqing/PycharmProjects/Reinvent-master-3.2/result/LINK_invent/BTK/process_docking_weight1_custom_product_contain_oxygen_bond_distance_aromatic_linkinvent_7_9_3/rearranged_h_0003.sdf

> <i_m_source_file_index>
69

> <r_mmod_Potential_Energy-OPLS-2005>
-74.1516876220703

> <r_mmod_Stretch_Energy-OPLS-2005>
32.9213485717773

> <r_mmod_Bend_Energy-OPLS-2005>
110.129188537598

> <r_mmod_Torsional_Energy-OPLS-2005>
303.215393066406

> <r_mmod_Improper_Torsional_Energy-OPLS-2005>
14.2661914825439

> <r_mmod_Van_der_Waal_Energy-OPLS-2005>
147.839019775391

> <r_mmod_Electrostatic_Energy-OPLS-2005>
-468.640472412109

> <r_mmod_Solvation_Energy-OPLS-2005>
-223.876312255859

> <b_mmod_Minimization_Converged-OPLS-2005>
0

> <r_mmod_RMS_Derivative-OPLS-2005>
5.07052135467529

$$$$
69
                    3D
 Structure written by MMmdl.
157166  0  0  1  0            999 V2000
  -30.7091  -14.7441   20.4667 C   0  0  0  0  0  0
  -30.4028  -12.4745   19.4669 C   0  0  0  0  0  0
  -29.4894  -12.5035   18.2273 C   0  0  0  0  0  0
  -28.0204  -12.3220   18.6511 C   0  0  0  0  0  0
  -27.6280  -13.2386   19.8407 C   0  0  2  0  0  0
  -28.6824  -13.2246   20.9715 C   0  0  0  0  0  0
  -25.2421  -13.8207   20.5715 C   0  0  0  0  0  0
  -24.1749  -13.0430   20.9242 C   0  0  0  0  0  0
  -24.6377  -11.6920   20.8775 C   0  0  0  0  0  0
  -23.9068  -10.4288   21.0416 C   0  0  0  0  0  0
  -24.3616   -9.4198   21.9188 C   0  0  0  0  0  0
  -23.6291   -8.2233   22.0752 C   0  0  0  0  0  0
  -22.4270   -8.0286   21.3550 C   0  0  0  0  0  0
  -21.9920   -9.0252   20.4639 C   0  0  0  0  0  0
  -22.7243  -10.2137   20.3054 C   0  0  0  0  0  0
  -21.6841   -6.0735   22.5283 C   0  0  0  0  0  0
  -21.4006   -6.5635   23.8217 C   0  0  0  0  0  0
  -21.3662   -5.6789   24.9179 C   0  0  0  0  0  0
  -21.6049   -4.3052   24.7222 C   0  0  0  0  0  0
  -21.8813   -3.8146   23.4340 C   0  0  0  0  0  0
  -21.9183   -4.6964   22.3397 C   0  0  0  0  0  0
  -22.7769  -13.5209   21.1875 C   0  0  0  0  0  0
  -22.1646   -4.2153   21.0976 F   0  0  0  0  0  0
  -21.5638   -3.4538   25.7732 F   0  0  0  0  0  0
  -29.9636  -13.5842   20.3535 N   0  0  0  0  0  0
  -26.2864  -12.9440   20.3298 N   0  0  0  0  0  0
  -25.9308  -11.6573   20.5798 N   0  0  0  0  0  0
  -22.0416  -12.8216   22.0442 N   0  0  0  0  0  0
  -25.4035  -15.1935   20.4084 N   0  0  0  0  0  0
  -31.9178  -14.6439   20.2367 O   0  0  0  0  0  0
  -21.6636   -6.8883   21.4243 O   0  0  0  0  0  0
  -22.3463  -14.5505   20.6711 O   0  0  0  0  0  0
  -24.6323  -31.8553   23.1999 C   0  0  0  0  0  0
  -25.9153  -32.4752   23.8350 C   0  0  1  0  0  0
  -27.2211  -27.2790   20.1314 C   0  0  0  0  0  0
  -25.5959  -33.8555   24.2283 N   0  0  0  0  0  0
  -23.4294  -30.4767   21.5430 C   0  0  2  0  0  0
  -24.8784  -28.9254   20.1113 C   0  0  0  0  0  0
  -22.7508  -29.4603   22.4919 C   0  0  0  0  0  0
  -18.0290  -28.1391   22.8484 C   0  0  0  0  0  0
  -24.1479  -36.7265   23.2640 C   0  0  0  0  0  0
  -25.9738  -30.7743   21.3758 C   0  0  0  0  0  0
  -26.0506  -29.3984   20.7184 C   0  0  0  0  0  0
  -27.2310  -28.5895   20.7136 C   0  0  0  0  0  0
  -26.0321  -26.8686   19.4957 C   0  0  0  0  0  0
  -24.8735  -27.6680   19.4875 C   0  0  0  0  0  0
  -23.6474  -29.8098   20.1592 C   0  0  0  0  0  0
  -25.4109  -36.3059   24.0333 C   0  0  1  0  0  0
  -20.5894  -28.3704   23.1254 C   0  0  2  0  0  0
  -20.6774  -26.9415   22.5400 C   0  0  0  0  0  0
  -19.5753  -26.6386   21.5208 C   0  0  0  0  0  0
  -18.1936  -26.7938   22.1616 C   0  0  0  0  0  0
  -19.1544  -28.8865   23.2867 C   0  0  0  0  0  0
  -18.9468  -30.1460   23.8888 C   0  0  0  0  0  0
  -17.6465  -30.6590   24.0560 C   0  0  0  0  0  0
  -25.9059  -34.9432   23.5104 C   0  0  0  0  0  0
  -16.5352  -29.9080   23.6341 C   0  0  0  0  0  0
  -16.7273  -28.6500   23.0361 C   0  0  0  0  0  0
  -26.4527  -31.6567   25.0729 C   0  0  0  0  0  0
  -25.3754  -31.3687   26.1450 C   0  0  0  0  0  0
  -27.0386  -30.2996   24.6201 C   0  0  0  0  0  0
  -27.6096  -32.4300   25.7492 C   0  0  0  0  0  0
  -27.5589  -37.1769   24.8455 C   0  0  0  0  0  0
  -21.4216  -29.3049   22.3647 N   0  0  0  0  0  0
  -26.4271  -37.3778   23.9436 N   0  0  0  0  0  0
  -24.6973  -31.0520   22.0968 N   0  0  0  0  0  0
  -23.4208  -28.8154   23.3030 O   0  0  0  0  0  0
  -28.2839  -26.3548   20.1626 O   0  0  0  0  0  0
  -26.5617  -34.8915   22.4668 O   0  0  0  0  0  0
  -23.5472  -32.1354   23.7304 O   0  0  0  0  0  0
  -30.1183  -21.7488   20.8518 C   0  0  0  0  0  0
  -29.7993  -23.1504   20.8497 C   0  0  0  0  0  0
  -27.8594  -21.2156   20.3028 C   0  0  0  0  0  0
  -29.1570  -20.7217   20.6162 C   0  0  0  0  0  0
  -28.4850  -23.6377   20.6046 C   0  0  0  0  0  0
  -27.5334  -22.6152   20.3015 C   0  0  0  0  0  0
  -28.4341  -18.0609   20.7267 C   0  0  0  0  0  0
  -30.6088  -18.6131   19.8706 C   0  0  0  0  0  0
  -28.9023  -16.5724   21.0823 C   0  0  0  0  0  0
  -31.1389  -17.1857   20.2609 C   0  0  0  0  0  0
  -29.5290  -19.1739   20.8120 C   0  0  0  0  0  0
  -28.0213  -25.1235   20.9704 C   0  0  0  0  0  0
  -30.1690  -16.0516   20.4738 N   0  0  0  0  0  0
  -26.2471  -22.9701   20.0712 F   0  0  0  0  0  0
  -31.4448  -12.5533   19.1531 H   0  0  0  0  0  0
  -30.3265  -11.5149   19.9804 H   0  0  0  0  0  0
  -29.7810  -11.7232   17.5227 H   0  0  0  0  0  0
  -29.6090  -13.4528   17.7031 H   0  0  0  0  0  0
  -27.8851  -11.2762   18.9301 H   0  0  0  0  0  0
  -27.3571  -12.4982   17.8038 H   0  0  0  0  0  0
  -27.6030  -14.2449   19.4248 H   0  0  0  0  0  0
  -28.7406  -12.2399   21.4365 H   0  0  0  0  0  0
  -28.4198  -13.9172   21.7708 H   0  0  0  0  0  0
  -25.2751   -9.5684   22.4773 H   0  0  0  0  0  0
  -23.9995   -7.4624   22.7469 H   0  0  0  0  0  0
  -21.0857   -8.8776   19.8931 H   0  0  0  0  0  0
  -22.3701  -10.9684   19.6172 H   0  0  0  0  0  0
  -21.2000   -7.6141   23.9732 H   0  0  0  0  0  0
  -21.1485   -6.0509   25.9090 H   0  0  0  0  0  0
  -22.0592   -2.7610   23.2828 H   0  0  0  0  0  0
  -22.4040  -11.9892   22.4845 H   0  0  0  0  0  0
  -21.1026  -13.1237   22.2607 H   0  0  0  0  0  0
  -24.6304  -15.8394   20.5233 H   0  0  0  0  0  0
  -26.2455  -15.6413   20.0730 H   0  0  0  0  0  0
  -26.7225  -32.5406   23.1098 H   0  0  0  0  0  0
  -25.0144  -33.9687   25.0455 H   0  0  0  0  0  0
  -22.7274  -31.2999   21.3952 H   0  0  0  0  0  0
  -23.3758  -35.9574   23.3250 H   0  0  0  0  0  0
  -24.3585  -36.8929   22.2064 H   0  0  0  0  0  0
  -23.7192  -37.6442   23.6681 H   0  0  0  0  0  0
  -26.1071  -31.5347   20.6054 H   0  0  0  0  0  0
  -26.8537  -30.8259   22.0053 H   0  0  0  0  0  0
  -28.1312  -28.9478   21.1935 H   0  0  0  0  0  0
  -25.9896  -25.8954   19.0252 H   0  0  0  0  0  0
  -23.9789  -27.2995   19.0062 H   0  0  0  0  0  0
  -23.7707  -30.5874   19.4037 H   0  0  0  0  0  0
  -22.7660  -29.2416   19.8541 H   0  0  0  0  0  0
  -25.1285  -36.1896   25.0824 H   0  0  0  0  0  0
  -20.9997  -28.3271   24.1372 H   0  0  0  0  0  0
  -20.5664  -26.2317   23.3615 H   0  0  0  0  0  0
  -21.6632  -26.7430   22.1181 H   0  0  0  0  0  0
  -19.6902  -25.6292   21.1253 H   0  0  0  0  0  0
  -19.6700  -27.3187   20.6733 H   0  0  0  0  0  0
  -17.4211  -26.6687   21.4012 H   0  0  0  0  0  0
  -18.0331  -26.0072   22.9008 H   0  0  0  0  0  0
  -19.7944  -30.7274   24.2259 H   0  0  0  0  0  0
  -17.5017  -31.6276   24.5151 H   0  0  0  0  0  0
  -15.5350  -30.2982   23.7671 H   0  0  0  0  0  0
  -15.8672  -28.0811   22.7095 H   0  0  0  0  0  0
  -24.5952  -30.7017   25.7768 H   0  0  0  0  0  0
  -24.8920  -32.2830   26.4896 H   0  0  0  0  0  0
  -25.8086  -30.8855   27.0215 H   0  0  0  0  0  0
  -26.2973  -29.6720   24.1250 H   0  0  0  0  0  0
  -27.4106  -29.7282   25.4714 H   0  0  0  0  0  0
  -27.8824  -30.4280   23.9420 H   0  0  0  0  0  0
  -27.2743  -33.3617   26.2054 H   0  0  0  0  0  0
  -28.3922  -32.6825   25.0324 H   0  0  0  0  0  0
  -28.0751  -31.8425   26.5415 H   0  0  0  0  0  0
  -28.2532  -38.0138   24.7610 H   0  0  0  0  0  0
  -28.1157  -36.2682   24.6137 H   0  0  0  0  0  0
  -27.2320  -37.1230   25.8851 H   0  0  0  0  0  0
  -20.9426  -29.8760   21.6823 H   0  0  0  0  0  0
  -26.0138  -38.2823   24.1526 H   0  0  0  0  0  0
  -31.1291  -21.4577   21.1043 H   0  0  0  0  0  0
  -30.5722  -23.8549   21.1209 H   0  0  0  0  0  0
  -27.0657  -20.5093   20.1126 H   0  0  0  0  0  0
  -27.6039  -18.3240   21.3830 H   0  0  0  0  0  0
  -28.0149  -18.0632   19.7196 H   0  0  0  0  0  0
  -30.2315  -18.5960   18.8470 H   0  0  0  0  0  0
  -31.4596  -19.2949   19.8599 H   0  0  0  0  0  0
  -28.0811  -15.9111   20.8273 H   0  0  0  0  0  0
  -29.0206  -16.4965   22.1641 H   0  0  0  0  0  0
  -31.7224  -17.2782   21.1790 H   0  0  0  0  0  0
  -31.8559  -16.9233   19.4811 H   0  0  0  0  0  0
  -29.9324  -19.1311   21.8259 H   0  0  0  0  0  0
  -28.4883  -25.3334   21.9330 H   0  0  0  0  0  0
  -26.9599  -25.0630   21.2134 H   0  0  0  0  0  0
  1 25  1  0  0  0
  1 30  2  0  0  0
  1 83  1  0  0  0
  2  3  1  0  0  0
  2 25  1  0  0  0
  2 85  1  0  0  0
  2 86  1  0  0  0
  3  4  1  0  0  0
  3 87  1  0  0  0
  3 88  1  0  0  0
  4  5  1  0  0  0
  4 89  1  0  0  0
  4 90  1  0  0  0
  5  6  1  0  0  0
  5 26  1  0  0  0
  5 91  1  0  0  0
  6 25  1  0  0  0
  6 92  1  0  0  0
  6 93  1  0  0  0
  7  8  2  0  0  0
  7 26  1  0  0  0
  7 29  1  0  0  0
  8  9  1  0  0  0
  8 22  1  0  0  0
  9 10  1  0  0  0
  9 27  2  0  0  0
 10 11  2  0  0  0
 10 15  1  0  0  0
 11 12  1  0  0  0
 11 94  1  0  0  0
 12 13  2  0  0  0
 12 95  1  0  0  0
 13 14  1  0  0  0
 13 31  1  0  0  0
 14 15  2  0  0  0
 14 96  1  0  0  0
 15 97  1  0  0  0
 16 17  2  0  0  0
 16 21  1  0  0  0
 16 31  1  0  0  0
 17 18  1  0  0  0
 17 98  1  0  0  0
 18 19  2  0  0  0
 18 99  1  0  0  0
 19 20  1  0  0  0
 19 24  1  0  0  0
 20 21  2  0  0  0
 20100  1  0  0  0
 21 23  1  0  0  0
 22 28  1  0  0  0
 22 32  2  0  0  0
 26 27  1  0  0  0
 28101  1  0  0  0
 28102  1  0  0  0
 29103  1  0  0  0
 29104  1  0  0  0
 33 34  1  0  0  0
 33 66  1  0  0  0
 33 70  2  0  0  0
 34 36  1  0  0  0
 34 59  1  0  0  0
 34105  1  0  0  0
 35 44  2  0  0  0
 35 45  1  0  0  0
 35 68  1  0  0  0
 36 56  1  0  0  0
 36106  1  0  0  0
 37 39  1  0  0  0
 37 47  1  0  0  0
 37 66  1  0  0  0
 37107  1  0  0  0
 38 43  2  0  0  0
 38 46  1  0  0  0
 38 47  1  0  0  0
 39 64  1  0  0  0
 39 67  2  0  0  0
 40 52  1  0  0  0
 40 53  2  0  0  0
 40 58  1  0  0  0
 41108  1  0  0  0
 41109  1  0  0  0
 41110  1  0  0  0
 41 48  1  0  0  0
 42 43  1  0  0  0
 42 66  1  0  0  0
 42111  1  0  0  0
 42112  1  0  0  0
 43 44  1  0  0  0
 44113  1  0  0  0
 45 46  2  0  0  0
 45114  1  0  0  0
 46115  1  0  0  0
 47116  1  0  0  0
 47117  1  0  0  0
 48 56  1  0  0  0
 48 65  1  0  0  0
 48118  1  0  0  0
 49 50  1  0  0  0
 49 53  1  0  0  0
 49 64  1  0  0  0
 49119  1  0  0  0
 50 51  1  0  0  0
 50120  1  0  0  0
 50121  1  0  0  0
 51 52  1  0  0  0
 51122  1  0  0  0
 51123  1  0  0  0
 52124  1  0  0  0
 52125  1  0  0  0
 53 54  1  0  0  0
 54 55  2  0  0  0
 54126  1  0  0  0
 55 57  1  0  0  0
 55127  1  0  0  0
 56 69  2  0  0  0
 57 58  2  0  0  0
 57128  1  0  0  0
 58129  1  0  0  0
 59 60  1  0  0  0
 59 61  1  0  0  0
 59 62  1  0  0  0
 60130  1  0  0  0
 60131  1  0  0  0
 60132  1  0  0  0
 61133  1  0  0  0
 61134  1  0  0  0
 61135  1  0  0  0
 62136  1  0  0  0
 62137  1  0  0  0
 62138  1  0  0  0
 63 65  1  0  0  0
 63139  1  0  0  0
 63140  1  0  0  0
 63141  1  0  0  0
 64142  1  0  0  0
 65143  1  0  0  0
 68 82  1  0  0  0
 71 72  2  0  0  0
 71 74  1  0  0  0
 71144  1  0  0  0
 72 75  1  0  0  0
 72145  1  0  0  0
 73 74  2  0  0  0
 73 76  1  0  0  0
 73146  1  0  0  0
 74 81  1  0  0  0
 75 76  2  0  0  0
 75 82  1  0  0  0
 76 84  1  0  0  0
 77 79  1  0  0  0
 77 81  1  0  0  0
 77147  1  0  0  0
 77148  1  0  0  0
 78 80  1  0  0  0
 78 81  1  0  0  0
 78149  1  0  0  0
 78150  1  0  0  0
 79 83  1  0  0  0
 79151  1  0  0  0
 79152  1  0  0  0
 80 83  1  0  0  0
 80153  1  0  0  0
 80154  1  0  0  0
 81155  1  0  0  0
 82156  1  0  0  0
 82157  1  0  0  0
M  ISO  4   1 100  68 101  82 101  83 100
M  END
> <chiral flag>
0

> <version>
0

> <s_m_source_file>
/data/baiqing/PycharmProjects/Reinvent-master-3.2/result/LINK_invent/BTK/process_docking_weight1_custom_product_contain_oxygen_bond_distance_aromatic_linkinvent_7_9_3/rearranged_h_0003.sdf

> <i_m_source_file_index>
70

> <r_mmod_Potential_Energy-OPLS-2005>
453.858062744141

> <r_mmod_Stretch_Energy-OPLS-2005>
115.57763671875

> <r_mmod_Bend_Energy-OPLS-2005>
207.167434692383

> <r_mmod_Torsional_Energy-OPLS-2005>
338.896667480469

> <r_mmod_Improper_Torsional_Energy-OPLS-2005>
13.1691055297852

> <r_mmod_Van_der_Waal_Energy-OPLS-2005>
148.012542724609

> <r_mmod_Electrostatic_Energy-OPLS-2005>
-270.168884277344

> <r_mmod_Solvation_Energy-OPLS-2005>
-191.834594726562

> <b_mmod_Minimization_Converged-OPLS-2005>
0

> <r_mmod_RMS_Derivative-OPLS-2005>
2.14188313484192

$$$$
70
                    3D
 Structure written by MMmdl.
156164  0  0  1  0            999 V2000
  -30.6926  -14.4629   20.5043 C   0  0  0  0  0  0
  -30.4177  -12.2839   19.4010 C   0  0  0  0  0  0
  -29.4877  -12.4930   18.1885 C   0  0  0  0  0  0
  -28.0080  -12.3700   18.6035 C   0  0  0  0  0  0
  -27.6613  -13.2013   19.8689 C   0  0  2  0  0  0
  -28.7128  -12.9855   20.9813 C   0  0  0  0  0  0
  -25.2626  -13.8175   20.5720 C   0  0  0  0  0  0
  -24.1861  -13.0452   20.9203 C   0  0  0  0  0  0
  -24.6388  -11.6913   20.8730 C   0  0  0  0  0  0
  -23.9031  -10.4301   21.0388 C   0  0  0  0  0  0
  -24.3594   -9.4218   21.9168 C   0  0  0  0  0  0
  -23.6282   -8.2238   22.0751 C   0  0  0  0  0  0
  -22.4258   -8.0265   21.3543 C   0  0  0  0  0  0
  -21.9875   -9.0228   20.4637 C   0  0  0  0  0  0
  -22.7200  -10.2118   20.3036 C   0  0  0  0  0  0
  -21.6860   -6.0724   22.5277 C   0  0  0  0  0  0
  -21.4031   -6.5640   23.8208 C   0  0  0  0  0  0
  -21.3661   -5.6791   24.9166 C   0  0  0  0  0  0
  -21.6030   -4.3051   24.7222 C   0  0  0  0  0  0
  -21.8813   -3.8142   23.4345 C   0  0  0  0  0  0
  -21.9201   -4.6953   22.3399 C   0  0  0  0  0  0
  -22.7881  -13.5252   21.1832 C   0  0  0  0  0  0
  -22.1671   -4.2141   21.0973 F   0  0  0  0  0  0
  -21.5597   -3.4531   25.7730 F   0  0  0  0  0  0
  -30.0348  -13.2794   20.4109 N   0  0  0  0  0  0
  -26.3043  -12.9319   20.3377 N   0  0  0  0  0  0
  -25.9318  -11.6485   20.5759 N   0  0  0  0  0  0
  -22.0507  -12.8250   22.0388 N   0  0  0  0  0  0
  -25.4387  -15.1891   20.4121 N   0  0  0  0  0  0
  -31.8627  -14.6166   20.1512 O   0  0  0  0  0  0
  -21.6640   -6.8856   21.4236 O   0  0  0  0  0  0
  -22.3564  -14.5552   20.6684 O   0  0  0  0  0  0
  -24.6131  -31.8671   23.2143 C   0  0  0  0  0  0
  -25.9031  -32.4820   23.8438 C   0  0  1  0  0  0
  -27.2397  -27.4262   20.0724 C   0  0  0  0  0  0
  -25.5899  -33.8623   24.2370 N   0  0  0  0  0  0
  -23.4008  -30.4922   21.5532 C   0  0  2  0  0  0
  -24.8476  -28.9526   20.1174 C   0  0  0  0  0  0
  -22.7397  -29.4660   22.5000 C   0  0  0  0  0  0
  -18.0265  -28.1422   22.8656 C   0  0  0  0  0  0
  -24.1477  -36.7318   23.2647 C   0  0  0  0  0  0
  -25.9308  -30.8222   21.3716 C   0  0  0  0  0  0
  -26.0073  -29.4550   20.7192 C   0  0  0  0  0  0
  -27.1996  -28.6960   20.7006 C   0  0  0  0  0  0
  -26.0590  -26.9402   19.4639 C   0  0  0  0  0  0
  -24.8694  -27.6969   19.4861 C   0  0  0  0  0  0
  -23.6140  -29.8266   20.1658 C   0  0  0  0  0  0
  -25.4101  -36.3118   24.0349 C   0  0  1  0  0  0
  -20.5872  -28.3701   23.1392 C   0  0  2  0  0  0
  -20.6664  -26.9322   22.5799 C   0  0  0  0  0  0
  -19.5739  -26.6418   21.5452 C   0  0  0  0  0  0
  -18.1938  -26.7901   22.1936 C   0  0  0  0  0  0
  -19.1531  -28.8938   23.2929 C   0  0  0  0  0  0
  -18.9480  -30.1612   23.8786 C   0  0  0  0  0  0
  -17.6493  -30.6758   24.0433 C   0  0  0  0  0  0
  -25.9031  -34.9475   23.5160 C   0  0  0  0  0  0
  -16.5375  -29.9227   23.6356 C   0  0  0  0  0  0
  -16.7271  -28.6555   23.0542 C   0  0  0  0  0  0
  -26.4460  -31.6602   25.0760 C   0  0  0  0  0  0
  -25.3735  -31.3668   26.1514 C   0  0  0  0  0  0
  -27.0278  -30.3056   24.6100 C   0  0  0  0  0  0
  -27.6062  -32.4298   25.7503 C   0  0  0  0  0  0
  -27.5575  -37.1812   24.8476 C   0  0  0  0  0  0
  -21.4156  -29.2885   22.3601 N   0  0  0  0  0  0
  -26.4289  -37.3799   23.9416 N   0  0  0  0  0  0
  -24.6664  -31.0756   22.1053 N   0  0  0  0  0  0
  -23.4118  -28.8340   23.3181 O   0  0  0  0  0  0
  -28.4355  -26.7290   20.0771 O   0  0  0  0  0  0
  -26.5578  -34.8891   22.4709 O   0  0  0  0  0  0
  -23.5328  -32.1448   23.7548 O   0  0  0  0  0  0
  -28.2376  -18.0743   20.4961 C   0  0  0  0  0  0
  -29.9818  -18.9040   21.9668 C   0  0  0  0  0  0
  -27.7941  -19.3972   20.2745 C   0  0  0  0  0  0
  -29.5367  -20.2289   21.7493 C   0  0  0  0  0  0
  -29.3140  -17.8108   21.3707 C   0  0  0  0  0  0
  -28.4189  -20.4887   20.9229 C   0  0  0  0  0  0
  -29.7075  -16.3712   21.7139 C   0  0  0  0  0  0
  -27.7950  -21.8920   20.8599 C   0  0  0  0  0  0
  -27.9656  -24.2934   20.3283 C   0  0  0  0  0  0
  -28.5601  -25.4318   19.4607 C   0  0  0  0  0  0
  -29.8938  -15.5376   20.5336 N   0  0  0  0  0  0
  -28.5209  -22.9253   20.0796 N   0  3  0  0  0  0
  -31.4634  -12.3680   19.1016 H   0  0  0  0  0  0
  -30.3038  -11.2741   19.7983 H   0  0  0  0  0  0
  -29.7133  -11.7639   17.4095 H   0  0  0  0  0  0
  -29.6643  -13.4750   17.7455 H   0  0  0  0  0  0
  -27.8021  -11.3158   18.7833 H   0  0  0  0  0  0
  -27.3608  -12.6702   17.7765 H   0  0  0  0  0  0
  -27.6972  -14.2484   19.5722 H   0  0  0  0  0  0
  -28.6876  -11.9551   21.3378 H   0  0  0  0  0  0
  -28.5078  -13.6108   21.8497 H   0  0  0  0  0  0
  -25.2738   -9.5701   22.4750 H   0  0  0  0  0  0
  -23.9992   -7.4637   22.7489 H   0  0  0  0  0  0
  -21.0799   -8.8730   19.8959 H   0  0  0  0  0  0
  -22.3644  -10.9640   19.6136 H   0  0  0  0  0  0
  -21.2046   -7.6155   23.9713 H   0  0  0  0  0  0
  -21.1497   -6.0522   25.9068 H   0  0  0  0  0  0
  -22.0605   -2.7606   23.2845 H   0  0  0  0  0  0
  -22.4125  -11.9897   22.4759 H   0  0  0  0  0  0
  -21.1116  -13.1275   22.2593 H   0  0  0  0  0  0
  -24.6852  -15.8607   20.5145 H   0  0  0  0  0  0
  -26.3036  -15.6105   20.0986 H   0  0  0  0  0  0
  -26.7071  -32.5496   23.1171 H   0  0  0  0  0  0
  -25.0069  -33.9831   25.0526 H   0  0  0  0  0  0
  -22.6885  -31.3092   21.4144 H   0  0  0  0  0  0
  -23.3732  -35.9661   23.3327 H   0  0  0  0  0  0
  -24.3582  -36.8902   22.2058 H   0  0  0  0  0  0
  -23.7199  -37.6517   23.6640 H   0  0  0  0  0  0
  -26.0450  -31.5838   20.6008 H   0  0  0  0  0  0
  -26.8214  -30.8817   21.9838 H   0  0  0  0  0  0
  -28.0950  -29.0795   21.1692 H   0  0  0  0  0  0
  -26.0339  -25.9898   18.9546 H   0  0  0  0  0  0
  -23.9806  -27.3160   19.0011 H   0  0  0  0  0  0
  -23.7435  -30.6072   19.4165 H   0  0  0  0  0  0
  -22.7341  -29.2595   19.8550 H   0  0  0  0  0  0
  -25.1261  -36.2016   25.0840 H   0  0  0  0  0  0
  -20.9970  -28.3424   24.1522 H   0  0  0  0  0  0
  -20.5138  -26.2384   23.4122 H   0  0  0  0  0  0
  -21.6607  -26.7047   22.1974 H   0  0  0  0  0  0
  -19.6658  -27.3342   20.7069 H   0  0  0  0  0  0
  -19.6936  -25.6369   21.1407 H   0  0  0  0  0  0
  -17.4109  -26.6382   21.4516 H   0  0  0  0  0  0
  -18.0536  -26.0214   22.9562 H   0  0  0  0  0  0
  -19.7943  -30.7501   24.2037 H   0  0  0  0  0  0
  -17.5069  -31.6547   24.4856 H   0  0  0  0  0  0
  -15.5386  -30.3194   23.7680 H   0  0  0  0  0  0
  -15.8638  -28.0845   22.7420 H   0  0  0  0  0  0
  -24.5962  -30.6956   25.7837 H   0  0  0  0  0  0
  -24.8872  -32.2791   26.4979 H   0  0  0  0  0  0
  -25.8132  -30.8839   27.0256 H   0  0  0  0  0  0
  -26.2822  -29.6836   24.1128 H   0  0  0  0  0  0
  -27.4022  -29.7274   25.4554 H   0  0  0  0  0  0
  -27.8670  -30.4385   23.9272 H   0  0  0  0  0  0
  -27.2747  -33.3620   26.2090 H   0  0  0  0  0  0
  -28.3870  -32.6805   25.0316 H   0  0  0  0  0  0
  -28.0712  -31.8385   26.5394 H   0  0  0  0  0  0
  -28.2605  -38.0097   24.7512 H   0  0  0  0  0  0
  -28.1056  -36.2628   24.6326 H   0  0  0  0  0  0
  -27.2309  -37.1483   25.8883 H   0  0  0  0  0  0
  -20.9377  -29.8223   21.6465 H   0  0  0  0  0  0
  -26.0193  -38.2889   24.1387 H   0  0  0  0  0  0
  -27.7141  -17.2552   20.0219 H   0  0  0  0  0  0
  -30.8175  -18.7240   22.6292 H   0  0  0  0  0  0
  -26.9278  -19.5549   19.6447 H   0  0  0  0  0  0
  -30.0243  -21.0445   22.2660 H   0  0  0  0  0  0
  -28.9120  -15.9365   22.3233 H   0  0  0  0  0  0
  -30.6083  -16.3616   22.3307 H   0  0  0  0  0  0
  -27.6751  -22.2421   21.8866 H   0  0  0  0  0  0
  -26.7843  -21.8109   20.4537 H   0  0  0  0  0  0
  -26.8855  -24.2670   20.1855 H   0  0  0  0  0  0
  -28.1298  -24.5288   21.3800 H   0  0  0  0  0  0
  -28.1575  -25.4245   18.4466 H   0  0  0  0  0  0
  -29.6303  -25.2652   19.3423 H   0  0  0  0  0  0
  -30.1053  -16.1375   19.7523 H   0  0  0  0  0  0
  -28.4565  -22.6861   19.1020 H   0  0  0  0  0  0
  -29.4989  -22.8958   20.3281 H   0  0  0  0  0  0
  1 25  1  0  0  0
  1 30  2  0  0  0
  1 81  1  0  0  0
  2  3  1  0  0  0
  2 25  1  0  0  0
  2 83  1  0  0  0
  2 84  1  0  0  0
  3  4  1  0  0  0
  3 85  1  0  0  0
  3 86  1  0  0  0
  4  5  1  0  0  0
  4 87  1  0  0  0
  4 88  1  0  0  0
  5  6  1  0  0  0
  5 26  1  0  0  0
  5 89  1  0  0  0
  6 25  1  0  0  0
  6 90  1  0  0  0
  6 91  1  0  0  0
  7  8  2  0  0  0
  7 26  1  0  0  0
  7 29  1  0  0  0
  8  9  1  0  0  0
  8 22  1  0  0  0
  9 10  1  0  0  0
  9 27  2  0  0  0
 10 11  2  0  0  0
 10 15  1  0  0  0
 11 12  1  0  0  0
 11 92  1  0  0  0
 12 13  2  0  0  0
 12 93  1  0  0  0
 13 14  1  0  0  0
 13 31  1  0  0  0
 14 15  2  0  0  0
 14 94  1  0  0  0
 15 95  1  0  0  0
 16 17  2  0  0  0
 16 21  1  0  0  0
 16 31  1  0  0  0
 17 18  1  0  0  0
 17 96  1  0  0  0
 18 19  2  0  0  0
 18 97  1  0  0  0
 19 20  1  0  0  0
 19 24  1  0  0  0
 20 21  2  0  0  0
 20 98  1  0  0  0
 21 23  1  0  0  0
 22 28  1  0  0  0
 22 32  2  0  0  0
 26 27  1  0  0  0
 28 99  1  0  0  0
 28100  1  0  0  0
 29101  1  0  0  0
 29102  1  0  0  0
 33 34  1  0  0  0
 33 66  1  0  0  0
 33 70  2  0  0  0
 34 36  1  0  0  0
 34 59  1  0  0  0
 34103  1  0  0  0
 35 44  2  0  0  0
 35 45  1  0  0  0
 35 68  1  0  0  0
 36 56  1  0  0  0
 36104  1  0  0  0
 37 39  1  0  0  0
 37 47  1  0  0  0
 37 66  1  0  0  0
 37105  1  0  0  0
 38 43  2  0  0  0
 38 46  1  0  0  0
 38 47  1  0  0  0
 39 64  1  0  0  0
 39 67  2  0  0  0
 40 52  1  0  0  0
 40 53  2  0  0  0
 40 58  1  0  0  0
 41106  1  0  0  0
 41107  1  0  0  0
 41108  1  0  0  0
 41 48  1  0  0  0
 42 43  1  0  0  0
 42 66  1  0  0  0
 42109  1  0  0  0
 42110  1  0  0  0
 43 44  1  0  0  0
 44111  1  0  0  0
 45 46  2  0  0  0
 45112  1  0  0  0
 46113  1  0  0  0
 47114  1  0  0  0
 47115  1  0  0  0
 48 56  1  0  0  0
 48 65  1  0  0  0
 48116  1  0  0  0
 49 50  1  0  0  0
 49 53  1  0  0  0
 49 64  1  0  0  0
 49117  1  0  0  0
 50 51  1  0  0  0
 50118  1  0  0  0
 50119  1  0  0  0
 51 52  1  0  0  0
 51120  1  0  0  0
 51121  1  0  0  0
 52122  1  0  0  0
 52123  1  0  0  0
 53 54  1  0  0  0
 54 55  2  0  0  0
 54124  1  0  0  0
 55 57  1  0  0  0
 55125  1  0  0  0
 56 69  2  0  0  0
 57 58  2  0  0  0
 57126  1  0  0  0
 58127  1  0  0  0
 59 60  1  0  0  0
 59 61  1  0  0  0
 59 62  1  0  0  0
 60128  1  0  0  0
 60129  1  0  0  0
 60130  1  0  0  0
 61131  1  0  0  0
 61132  1  0  0  0
 61133  1  0  0  0
 62134  1  0  0  0
 62135  1  0  0  0
 62136  1  0  0  0
 63 65  1  0  0  0
 63137  1  0  0  0
 63138  1  0  0  0
 63139  1  0  0  0
 64140  1  0  0  0
 65141  1  0  0  0
 68 80  1  0  0  0
 71 73  2  0  0  0
 71 75  1  0  0  0
 71142  1  0  0  0
 72 74  1  0  0  0
 72 75  2  0  0  0
 72143  1  0  0  0
 73 76  1  0  0  0
 73144  1  0  0  0
 74 76  2  0  0  0
 74145  1  0  0  0
 75 77  1  0  0  0
 76 78  1  0  0  0
 77 81  1  0  0  0
 77146  1  0  0  0
 77147  1  0  0  0
 78 82  1  0  0  0
 78148  1  0  0  0
 78149  1  0  0  0
 79 80  1  0  0  0
 79 82  1  0  0  0
 79150  1  0  0  0
 79151  1  0  0  0
 80152  1  0  0  0
 80153  1  0  0  0
 81154  1  0  0  0
 82155  1  0  0  0
 82156  1  0  0  0
M  CHG  1  82   1
M  ISO  4   1 100  68 101  80 101  81 100
M  END
> <chiral flag>
0

> <version>
0

> <s_m_source_file>
/data/baiqing/PycharmProjects/Reinvent-master-3.2/result/LINK_invent/BTK/process_docking_weight1_custom_product_contain_oxygen_bond_distance_aromatic_linkinvent_7_9_3/rearranged_h_0003.sdf

> <i_m_source_file_index>
71

> <r_mmod_Potential_Energy-OPLS-2005>
-202.220474243164

> <r_mmod_Stretch_Energy-OPLS-2005>
37.0215187072754

> <r_mmod_Bend_Energy-OPLS-2005>
111.59415435791

> <r_mmod_Torsional_Energy-OPLS-2005>
255.336517333984

> <r_mmod_Improper_Torsional_Energy-OPLS-2005>
20.0457649230957

> <r_mmod_Van_der_Waal_Energy-OPLS-2005>
143.251159667969

> <r_mmod_Electrostatic_Energy-OPLS-2005>
-327.447845458984

> <r_mmod_Solvation_Energy-OPLS-2005>
-458.637969970703

> <b_mmod_Minimization_Converged-OPLS-2005>
0

> <r_mmod_RMS_Derivative-OPLS-2005>
4.54406356811523

$$$$
71
                    3D
 Structure written by MMmdl.
144152  0  0  1  0            999 V2000
  -30.2491  -15.7690   20.3185 C   0  0  0  0  0  0
  -30.4165  -13.1824   19.5389 C   0  0  0  0  0  0
  -29.5561  -12.6883   18.3366 C   0  0  0  0  0  0
  -28.1400  -12.3025   18.7870 C   0  0  0  0  0  0
  -27.5914  -13.3204   19.8100 C   0  0  2  0  0  0
  -28.5996  -13.7101   20.9197 C   0  0  0  0  0  0
  -25.2302  -13.8299   20.5812 C   0  0  0  0  0  0
  -24.1705  -13.0432   20.9298 C   0  0  0  0  0  0
  -24.6425  -11.6949   20.8764 C   0  0  0  0  0  0
  -23.9129  -10.4292   21.0393 C   0  0  0  0  0  0
  -24.3660   -9.4205   21.9178 C   0  0  0  0  0  0
  -23.6316   -8.2248   22.0754 C   0  0  0  0  0  0
  -22.4296   -8.0290   21.3545 C   0  0  0  0  0  0
  -21.9945   -9.0266   20.4644 C   0  0  0  0  0  0
  -22.7293  -10.2135   20.3047 C   0  0  0  0  0  0
  -21.6860   -6.0742   22.5279 C   0  0  0  0  0  0
  -21.4020   -6.5644   23.8213 C   0  0  0  0  0  0
  -21.3660   -5.6795   24.9174 C   0  0  0  0  0  0
  -21.6043   -4.3057   24.7223 C   0  0  0  0  0  0
  -21.8818   -3.8151   23.4344 C   0  0  0  0  0  0
  -21.9195   -4.6969   22.3401 C   0  0  0  0  0  0
  -22.7713  -13.5153   21.1928 C   0  0  0  0  0  0
  -22.1662   -4.2154   21.0979 F   0  0  0  0  0  0
  -21.5627   -3.4540   25.7735 F   0  0  0  0  0  0
  -29.7500  -14.3765   20.2532 N   0  0  0  0  0  0
  -26.2766  -12.9654   20.3247 N   0  0  0  0  0  0
  -25.9376  -11.6711   20.5692 N   0  0  0  0  0  0
  -22.0381  -12.8128   22.0480 N   0  0  0  0  0  0
  -25.3868  -15.2043   20.4253 N   0  0  0  0  0  0
  -31.4896  -15.6885   20.1870 O   0  0  0  0  0  0
  -21.6650   -6.8891   21.4243 O   0  0  0  0  0  0
  -22.3385  -14.5450   20.6762 O   0  0  0  0  0  0
  -24.6936  -31.7881   23.1428 C   0  0  0  0  0  0
  -25.9467  -32.4408   23.8014 C   0  0  1  0  0  0
  -27.2314  -26.6000   20.2259 C   0  0  0  0  0  0
  -25.6003  -33.8239   24.1889 N   0  0  0  0  0  0
  -23.5248  -30.3852   21.4992 C   0  0  2  0  0  0
  -24.9837  -28.7043   20.1217 C   0  0  0  0  0  0
  -22.7812  -29.4252   22.4682 C   0  0  0  0  0  0
  -18.0345  -28.1427   22.8448 C   0  0  0  0  0  0
  -24.1496  -36.7128   23.2656 C   0  0  0  0  0  0
  -26.1099  -30.4873   21.4229 C   0  0  0  0  0  0
  -26.1749  -29.0406   20.7752 C   0  0  0  0  0  0
  -27.2793  -28.0201   20.7903 C   0  0  0  0  0  0
  -26.0052  -26.4991   19.5134 C   0  0  0  0  0  0
  -24.9440  -27.4606   19.4663 C   0  0  0  0  0  0
  -23.7849  -29.6724   20.1393 C   0  0  0  0  0  0
  -25.4150  -36.2860   24.0273 C   0  0  1  0  0  0
  -20.5986  -28.3792   23.1121 C   0  0  2  0  0  0
  -20.6806  -26.9441   22.5405 C   0  0  0  0  0  0
  -19.5784  -26.6367   21.5217 C   0  0  0  0  0  0
  -18.1967  -26.7952   22.1618 C   0  0  0  0  0  0
  -19.1614  -28.8936   23.2762 C   0  0  0  0  0  0
  -18.9518  -30.1517   23.8813 C   0  0  0  0  0  0
  -17.6507  -30.6607   24.0547 C   0  0  0  0  0  0
  -25.9137  -34.9253   23.4926 C   0  0  0  0  0  0
  -16.5395  -29.9086   23.6353 C   0  0  0  0  0  0
  -16.7324  -28.6509   23.0369 C   0  0  0  0  0  0
  -26.4611  -31.6488   25.0681 C   0  0  0  0  0  0
  -25.3648  -31.3836   26.1276 C   0  0  0  0  0  0
  -27.0562  -30.2813   24.6660 C   0  0  0  0  0  0
  -27.6036  -32.4377   25.7508 C   0  0  0  0  0  0
  -27.5560  -37.1721   24.8466 C   0  0  0  0  0  0
  -21.4449  -29.3019   22.3429 N   0  0  0  0  0  0
  -26.4267  -37.3633   23.9406 N   0  0  0  0  0  0
  -24.8007  -30.9224   22.0738 N   0  0  0  0  0  0
  -23.4206  -28.7870   23.3076 O   0  0  0  0  0  0
  -28.1813  -25.3340   20.2925 O   0  0  0  0  0  0
  -26.5793  -34.8851   22.4554 O   0  0  0  0  0  0
  -23.5932  -32.1003   23.6316 O   0  0  0  0  0  0
  -31.2233  -20.8510   20.4443 C   0  0  0  0  0  0
  -30.3278  -21.9742   20.3863 C   0  0  0  0  0  0
  -30.8973  -19.4510   20.4170 C   0  0  0  0  0  0
  -28.6498  -20.2656   20.2683 C   0  0  0  0  0  0
  -28.9175  -21.8849   20.2883 C   0  0  0  0  0  0
  -29.5860  -18.9200   20.3295 C   0  0  0  0  0  0
  -27.9553  -23.5403   20.1946 C   0  0  0  0  0  0
  -29.4678  -17.1584   20.3338 N   0  0  0  0  0  0
  -31.3972  -13.4683   19.1574 H   0  0  0  0  0  0
  -30.6150  -12.3654   20.2348 H   0  0  0  0  0  0
  -30.0382  -11.8449   17.8404 H   0  0  0  0  0  0
  -29.4933  -13.4857   17.5947 H   0  0  0  0  0  0
  -28.1920  -11.3161   19.2495 H   0  0  0  0  0  0
  -27.4721  -12.2092   17.9298 H   0  0  0  0  0  0
  -27.4353  -14.2232   19.2177 H   0  0  0  0  0  0
  -28.8922  -12.8505   21.5245 H   0  0  0  0  0  0
  -28.1402  -14.4228   21.6061 H   0  0  0  0  0  0
  -25.2799   -9.5677   22.4764 H   0  0  0  0  0  0
  -24.0015   -7.4641   22.7480 H   0  0  0  0  0  0
  -21.0874   -8.8796   19.8951 H   0  0  0  0  0  0
  -22.3752  -10.9677   19.6160 H   0  0  0  0  0  0
  -21.2015   -7.6152   23.9718 H   0  0  0  0  0  0
  -21.1481   -6.0525   25.9077 H   0  0  0  0  0  0
  -22.0595   -2.7612   23.2843 H   0  0  0  0  0  0
  -22.4028  -11.9810   22.4881 H   0  0  0  0  0  0
  -21.0984  -13.1116   22.2673 H   0  0  0  0  0  0
  -24.6121  -15.8494   20.5375 H   0  0  0  0  0  0
  -26.2233  -15.6482   20.0710 H   0  0  0  0  0  0
  -26.7560  -32.4853   23.0732 H   0  0  0  0  0  0
  -25.0040  -33.9259   24.9969 H   0  0  0  0  0  0
  -22.8560  -31.2251   21.3001 H   0  0  0  0  0  0
  -23.3778  -35.9436   23.3259 H   0  0  0  0  0  0
  -24.3559  -36.8857   22.2082 H   0  0  0  0  0  0
  -23.7237  -37.6279   23.6781 H   0  0  0  0  0  0
  -26.3235  -31.2052   20.6299 H   0  0  0  0  0  0
  -26.9566  -30.5591   22.0929 H   0  0  0  0  0  0
  -28.1740  -28.2884   21.3341 H   0  0  0  0  0  0
  -25.8210  -25.5639   19.0038 H   0  0  0  0  0  0
  -24.0480  -27.1923   18.9234 H   0  0  0  0  0  0
  -23.9691  -30.4280   19.3747 H   0  0  0  0  0  0
  -22.8876  -29.1444   19.8122 H   0  0  0  0  0  0
  -25.1366  -36.1607   25.0763 H   0  0  0  0  0  0
  -21.0064  -28.3426   24.1249 H   0  0  0  0  0  0
  -20.5660  -26.2419   23.3677 H   0  0  0  0  0  0
  -21.6666  -26.7367   22.1230 H   0  0  0  0  0  0
  -19.6938  -25.6255   21.1303 H   0  0  0  0  0  0
  -19.6730  -27.3129   20.6710 H   0  0  0  0  0  0
  -17.4236  -26.6693   21.4021 H   0  0  0  0  0  0
  -18.0352  -26.0116   22.9034 H   0  0  0  0  0  0
  -19.7994  -30.7354   24.2146 H   0  0  0  0  0  0
  -17.5057  -31.6278   24.5166 H   0  0  0  0  0  0
  -15.5392  -30.2961   23.7726 H   0  0  0  0  0  0
  -15.8725  -28.0800   22.7132 H   0  0  0  0  0  0
  -24.5864  -30.7155   25.7572 H   0  0  0  0  0  0
  -24.8806  -32.3067   26.4469 H   0  0  0  0  0  0
  -25.7799  -30.9150   27.0207 H   0  0  0  0  0  0
  -26.3300  -29.6394   24.1665 H   0  0  0  0  0  0
  -27.3958  -29.7305   25.5442 H   0  0  0  0  0  0
  -27.9292  -30.3914   24.0226 H   0  0  0  0  0  0
  -27.2557  -33.3759   26.1844 H   0  0  0  0  0  0
  -28.3970  -32.6810   25.0429 H   0  0  0  0  0  0
  -28.0570  -31.8672   26.5625 H   0  0  0  0  0  0
  -28.2540  -38.0050   24.7512 H   0  0  0  0  0  0
  -28.1093  -36.2570   24.6297 H   0  0  0  0  0  0
  -27.2273  -37.1358   25.8868 H   0  0  0  0  0  0
  -20.9779  -29.8658   21.6465 H   0  0  0  0  0  0
  -26.0084  -38.2675   24.1421 H   0  0  0  0  0  0
  -32.2755  -21.0887   20.5173 H   0  0  0  0  0  0
  -30.7626  -22.9641   20.4154 H   0  0  0  0  0  0
  -31.7198  -18.7513   20.4730 H   0  0  0  0  0  0
  -27.5975  -20.0310   20.1940 H   0  0  0  0  0  0
  -27.1705  -23.3778   20.9334 H   0  0  0  0  0  0
  -27.4334  -23.4350   19.2435 H   0  0  0  0  0  0
  -28.4908  -16.9030   20.3508 H   0  0  0  0  0  0
  1 25  1  0  0  0
  1 30  2  0  0  0
  1 78  1  0  0  0
  2  3  1  0  0  0
  2 25  1  0  0  0
  2 79  1  0  0  0
  2 80  1  0  0  0
  3  4  1  0  0  0
  3 81  1  0  0  0
  3 82  1  0  0  0
  4  5  1  0  0  0
  4 83  1  0  0  0
  4 84  1  0  0  0
  5  6  1  0  0  0
  5 26  1  0  0  0
  5 85  1  0  0  0
  6 25  1  0  0  0
  6 86  1  0  0  0
  6 87  1  0  0  0
  7  8  2  0  0  0
  7 26  1  0  0  0
  7 29  1  0  0  0
  8  9  1  0  0  0
  8 22  1  0  0  0
  9 10  1  0  0  0
  9 27  2  0  0  0
 10 11  2  0  0  0
 10 15  1  0  0  0
 11 12  1  0  0  0
 11 88  1  0  0  0
 12 13  2  0  0  0
 12 89  1  0  0  0
 13 14  1  0  0  0
 13 31  1  0  0  0
 14 15  2  0  0  0
 14 90  1  0  0  0
 15 91  1  0  0  0
 16 17  2  0  0  0
 16 21  1  0  0  0
 16 31  1  0  0  0
 17 18  1  0  0  0
 17 92  1  0  0  0
 18 19  2  0  0  0
 18 93  1  0  0  0
 19 20  1  0  0  0
 19 24  1  0  0  0
 20 21  2  0  0  0
 20 94  1  0  0  0
 21 23  1  0  0  0
 22 28  1  0  0  0
 22 32  2  0  0  0
 26 27  1  0  0  0
 28 95  1  0  0  0
 28 96  1  0  0  0
 29 97  1  0  0  0
 29 98  1  0  0  0
 33 34  1  0  0  0
 33 66  1  0  0  0
 33 70  2  0  0  0
 34 36  1  0  0  0
 34 59  1  0  0  0
 34 99  1  0  0  0
 35 44  2  0  0  0
 35 45  1  0  0  0
 35 68  1  0  0  0
 36 56  1  0  0  0
 36100  1  0  0  0
 37 39  1  0  0  0
 37 47  1  0  0  0
 37 66  1  0  0  0
 37101  1  0  0  0
 38 43  2  0  0  0
 38 46  1  0  0  0
 38 47  1  0  0  0
 39 64  1  0  0  0
 39 67  2  0  0  0
 40 52  1  0  0  0
 40 53  2  0  0  0
 40 58  1  0  0  0
 41102  1  0  0  0
 41103  1  0  0  0
 41104  1  0  0  0
 41 48  1  0  0  0
 42 43  1  0  0  0
 42 66  1  0  0  0
 42105  1  0  0  0
 42106  1  0  0  0
 43 44  1  0  0  0
 44107  1  0  0  0
 45 46  2  0  0  0
 45108  1  0  0  0
 46109  1  0  0  0
 47110  1  0  0  0
 47111  1  0  0  0
 48 56  1  0  0  0
 48 65  1  0  0  0
 48112  1  0  0  0
 49 50  1  0  0  0
 49 53  1  0  0  0
 49 64  1  0  0  0
 49113  1  0  0  0
 50 51  1  0  0  0
 50114  1  0  0  0
 50115  1  0  0  0
 51 52  1  0  0  0
 51116  1  0  0  0
 51117  1  0  0  0
 52118  1  0  0  0
 52119  1  0  0  0
 53 54  1  0  0  0
 54 55  2  0  0  0
 54120  1  0  0  0
 55 57  1  0  0  0
 55121  1  0  0  0
 56 69  2  0  0  0
 57 58  2  0  0  0
 57122  1  0  0  0
 58123  1  0  0  0
 59 60  1  0  0  0
 59 61  1  0  0  0
 59 62  1  0  0  0
 60124  1  0  0  0
 60125  1  0  0  0
 60126  1  0  0  0
 61127  1  0  0  0
 61128  1  0  0  0
 61129  1  0  0  0
 62130  1  0  0  0
 62131  1  0  0  0
 62132  1  0  0  0
 63 65  1  0  0  0
 63133  1  0  0  0
 63134  1  0  0  0
 63135  1  0  0  0
 64136  1  0  0  0
 65137  1  0  0  0
 68 77  1  0  0  0
 71 72  2  0  0  0
 71 73  1  0  0  0
 71138  1  0  0  0
 72 75  1  0  0  0
 72139  1  0  0  0
 73 76  2  0  0  0
 73140  1  0  0  0
 74 75  2  0  0  0
 74 76  1  0  0  0
 74141  1  0  0  0
 75 77  1  0  0  0
 76 78  1  0  0  0
 77142  1  0  0  0
 77143  1  0  0  0
 78144  1  0  0  0
M  ISO  4   1 100  68 101  77 101  78 100
M  END
> <chiral flag>
0

> <version>
0

> <s_m_source_file>
/data/baiqing/PycharmProjects/Reinvent-master-3.2/result/LINK_invent/BTK/process_docking_weight1_custom_product_contain_oxygen_bond_distance_aromatic_linkinvent_7_9_3/rearranged_h_0003.sdf

> <i_m_source_file_index>
72

> <r_mmod_Potential_Energy-OPLS-2005>
2813.380859375

> <r_mmod_Stretch_Energy-OPLS-2005>
1256.92761230469

> <r_mmod_Bend_Energy-OPLS-2005>
641.894226074219

> <r_mmod_Torsional_Energy-OPLS-2005>
222.88850402832

> <r_mmod_Improper_Torsional_Energy-OPLS-2005>
4.12787246704102

> <r_mmod_Van_der_Waal_Energy-OPLS-2005>
126.438247680664

> <r_mmod_Electrostatic_Energy-OPLS-2005>
-346.341064453125

> <r_mmod_Solvation_Energy-OPLS-2005>
-213.760787963867

> <b_mmod_Minimization_Converged-OPLS-2005>
0

> <r_mmod_RMS_Derivative-OPLS-2005>
0.157229289412498

$$$$
72
                    3D
 Structure written by MMmdl.
167176  0  0  1  0            999 V2000
  -30.7979  -14.3279   20.7137 C   0  0  0  0  0  0
  -30.4100  -12.2877   19.3841 C   0  0  0  0  0  0
  -29.4760  -12.5288   18.1858 C   0  0  0  0  0  0
  -28.0039  -12.3791   18.6084 C   0  0  0  0  0  0
  -27.6652  -13.2033   19.8772 C   0  0  2  0  0  0
  -28.7026  -12.9512   20.9931 C   0  0  0  0  0  0
  -25.2602  -13.8163   20.5676 C   0  0  0  0  0  0
  -24.1846  -13.0442   20.9165 C   0  0  0  0  0  0
  -24.6391  -11.6907   20.8724 C   0  0  0  0  0  0
  -23.9056  -10.4295   21.0399 C   0  0  0  0  0  0
  -24.3609   -9.4213   21.9179 C   0  0  0  0  0  0
  -23.6287   -8.2247   22.0751 C   0  0  0  0  0  0
  -22.4271   -8.0280   21.3541 C   0  0  0  0  0  0
  -21.9906   -9.0253   20.4643 C   0  0  0  0  0  0
  -22.7229  -10.2133   20.3051 C   0  0  0  0  0  0
  -21.6853   -6.0736   22.5278 C   0  0  0  0  0  0
  -21.4012   -6.5640   23.8211 C   0  0  0  0  0  0
  -21.3661   -5.6794   24.9174 C   0  0  0  0  0  0
  -21.6044   -4.3057   24.7226 C   0  0  0  0  0  0
  -21.8820   -3.8147   23.4348 C   0  0  0  0  0  0
  -21.9192   -4.6963   22.3402 C   0  0  0  0  0  0
  -22.7868  -13.5240   21.1836 C   0  0  0  0  0  0
  -22.1662   -4.2148   21.0980 F   0  0  0  0  0  0
  -21.5630   -3.4540   25.7740 F   0  0  0  0  0  0
  -30.0489  -13.2262   20.4565 N   0  0  0  0  0  0
  -26.3039  -12.9329   20.3372 N   0  0  0  0  0  0
  -25.9316  -11.6488   20.5753 N   0  0  0  0  0  0
  -22.0511  -12.8230   22.0394 N   0  0  0  0  0  0
  -25.4347  -15.1878   20.4095 N   0  0  0  0  0  0
  -31.7789  -14.6558   20.0392 O   0  0  0  0  0  0
  -21.6637   -6.8875   21.4239 O   0  0  0  0  0  0
  -22.3555  -14.5551   20.6696 O   0  0  0  0  0  0
  -24.6083  -31.8711   23.2121 C   0  0  0  0  0  0
  -25.8997  -32.4838   23.8409 C   0  0  1  0  0  0
  -27.2494  -27.4750   20.1021 C   0  0  0  0  0  0
  -25.5875  -33.8635   24.2346 N   0  0  0  0  0  0
  -23.3949  -30.4924   21.5509 C   0  0  2  0  0  0
  -24.8462  -28.9586   20.1204 C   0  0  0  0  0  0
  -22.7375  -29.4666   22.5012 C   0  0  0  0  0  0
  -18.0264  -28.1370   22.8499 C   0  0  0  0  0  0
  -24.1486  -36.7324   23.2639 C   0  0  0  0  0  0
  -25.9170  -30.8501   21.3586 C   0  0  0  0  0  0
  -25.9991  -29.4830   20.7172 C   0  0  0  0  0  0
  -27.2021  -28.7497   20.7108 C   0  0  0  0  0  0
  -26.0863  -26.9631   19.4922 C   0  0  0  0  0  0
  -24.8814  -27.6931   19.5070 C   0  0  0  0  0  0
  -23.6037  -29.8185   20.1671 C   0  0  0  0  0  0
  -25.4104  -36.3121   24.0343 C   0  0  1  0  0  0
  -20.5849  -28.3650   23.1336 C   0  0  2  0  0  0
  -20.6757  -26.9395   22.5418 C   0  0  0  0  0  0
  -19.5736  -26.6389   21.5209 C   0  0  0  0  0  0
  -18.1914  -26.7920   22.1623 C   0  0  0  0  0  0
  -19.1512  -28.8826   23.2916 C   0  0  0  0  0  0
  -18.9446  -30.1434   23.8927 C   0  0  0  0  0  0
  -17.6452  -30.6583   24.0571 C   0  0  0  0  0  0
  -25.9025  -34.9484   23.5144 C   0  0  0  0  0  0
  -16.5341  -29.9091   23.6326 C   0  0  0  0  0  0
  -16.7255  -28.6503   23.0352 C   0  0  0  0  0  0
  -26.4448  -31.6597   25.0712 C   0  0  0  0  0  0
  -25.3730  -31.3675   26.1471 C   0  0  0  0  0  0
  -27.0283  -30.3056   24.6035 C   0  0  0  0  0  0
  -27.6033  -32.4303   25.7475 C   0  0  0  0  0  0
  -27.5581  -37.1816   24.8464 C   0  0  0  0  0  0
  -21.4110  -29.3024   22.3748 N   0  0  0  0  0  0
  -26.4294  -37.3798   23.9408 N   0  0  0  0  0  0
  -24.6576  -31.0849   22.1000 N   0  0  0  0  0  0
  -23.4170  -28.8218   23.3040 O   0  0  0  0  0  0
  -28.3968  -26.7202   20.0231 O   0  0  0  0  0  0
  -26.5593  -34.8930   22.4706 O   0  0  0  0  0  0
  -23.5290  -32.1442   23.7546 O   0  0  0  0  0  0
  -27.7311  -23.3581   22.5776 C   0  0  0  0  0  0
  -30.0579  -23.5224   23.2812 C   0  0  0  0  0  0
  -27.8500  -24.5881   21.9007 C   0  0  0  0  0  0
  -30.1768  -24.7507   22.6011 C   0  0  0  0  0  0
  -28.8403  -22.8090   23.2592 C   0  0  0  0  0  0
  -29.0772  -25.2867   21.8990 C   0  0  0  0  0  0
  -28.7197  -21.5150   24.0152 C   0  0  0  0  0  0
  -29.6611  -19.4218   21.4788 C   0  0  0  0  0  0
  -29.4827  -18.2284   23.7246 C   0  0  0  0  0  0
  -28.4065  -20.2219   21.8735 C   0  0  0  0  0  0
  -28.2368  -19.0900   24.0025 C   0  0  0  0  0  0
  -29.7497  -18.0597   22.2085 C   0  0  0  0  0  0
  -29.2204  -26.6239   21.1870 C   0  0  0  0  0  0
  -31.1179  -17.4034   21.9237 C   0  0  0  0  0  0
  -31.3184  -15.9839   22.4918 C   0  0  0  0  0  0
  -28.3938  -20.3863   23.3337 N   0  0  0  0  0  0
  -30.4827  -14.9748   21.8428 N   0  0  0  0  0  0
  -28.9291  -21.5288   25.2326 O   0  0  0  0  0  0
  -31.4524  -12.3858   19.0752 H   0  0  0  0  0  0
  -30.3066  -11.2636   19.7456 H   0  0  0  0  0  0
  -29.7062  -11.8289   17.3811 H   0  0  0  0  0  0
  -29.6446  -13.5279   17.7808 H   0  0  0  0  0  0
  -27.8154  -11.3206   18.7917 H   0  0  0  0  0  0
  -27.3463  -12.6663   17.7874 H   0  0  0  0  0  0
  -27.7233  -14.2567   19.6019 H   0  0  0  0  0  0
  -28.6575  -11.9125   21.3241 H   0  0  0  0  0  0
  -28.4486  -13.5472   21.8696 H   0  0  0  0  0  0
  -25.2752   -9.5694   22.4756 H   0  0  0  0  0  0
  -23.9999   -7.4641   22.7473 H   0  0  0  0  0  0
  -21.0838   -8.8767   19.8951 H   0  0  0  0  0  0
  -22.3684  -10.9670   19.6162 H   0  0  0  0  0  0
  -21.2006   -7.6148   23.9714 H   0  0  0  0  0  0
  -21.1483   -6.0525   25.9077 H   0  0  0  0  0  0
  -22.0600   -2.7609   23.2849 H   0  0  0  0  0  0
  -22.4118  -11.9882   22.4772 H   0  0  0  0  0  0
  -21.1133  -13.1261   22.2605 H   0  0  0  0  0  0
  -24.6749  -15.8498   20.5233 H   0  0  0  0  0  0
  -26.3000  -15.6244   20.1160 H   0  0  0  0  0  0
  -26.7076  -32.5576   23.1190 H   0  0  0  0  0  0
  -25.0017  -33.9799   25.0486 H   0  0  0  0  0  0
  -22.6812  -31.3068   21.4102 H   0  0  0  0  0  0
  -23.3742  -35.9663   23.3308 H   0  0  0  0  0  0
  -24.3582  -36.8928   22.2052 H   0  0  0  0  0  0
  -23.7244  -37.6535   23.6645 H   0  0  0  0  0  0
  -26.0173  -31.6117   20.5843 H   0  0  0  0  0  0
  -26.8088  -30.9137   21.9701 H   0  0  0  0  0  0
  -28.0887  -29.1828   21.1514 H   0  0  0  0  0  0
  -26.1161  -25.9956   19.0105 H   0  0  0  0  0  0
  -23.9971  -27.2823   19.0394 H   0  0  0  0  0  0
  -23.7071  -30.5906   19.4038 H   0  0  0  0  0  0
  -22.7311  -29.2316   19.8751 H   0  0  0  0  0  0
  -25.1280  -36.2000   25.0838 H   0  0  0  0  0  0
  -20.9939  -28.3214   24.1458 H   0  0  0  0  0  0
  -20.5667  -26.2254   23.3592 H   0  0  0  0  0  0
  -21.6629  -26.7454   22.1208 H   0  0  0  0  0  0
  -19.6903  -25.6311   21.1215 H   0  0  0  0  0  0
  -19.6674  -27.3222   20.6758 H   0  0  0  0  0  0
  -17.4182  -26.6669   21.4027 H   0  0  0  0  0  0
  -18.0320  -26.0054   22.9015 H   0  0  0  0  0  0
  -19.7923  -30.7235   24.2316 H   0  0  0  0  0  0
  -17.5012  -31.6270   24.5164 H   0  0  0  0  0  0
  -15.5345  -30.3008   23.7629 H   0  0  0  0  0  0
  -15.8652  -28.0833   22.7059 H   0  0  0  0  0  0
  -24.5905  -30.7020   25.7803 H   0  0  0  0  0  0
  -24.8914  -32.2819   26.4946 H   0  0  0  0  0  0
  -25.8095  -30.8827   27.0212 H   0  0  0  0  0  0
  -26.2821  -29.6826   24.1091 H   0  0  0  0  0  0
  -27.4093  -29.7270   25.4457 H   0  0  0  0  0  0
  -27.8627  -30.4403   23.9146 H   0  0  0  0  0  0
  -27.2662  -33.3590   26.2090 H   0  0  0  0  0  0
  -28.3826  -32.6880   25.0291 H   0  0  0  0  0  0
  -28.0717  -31.8400   26.5360 H   0  0  0  0  0  0
  -28.2600  -38.0114   24.7526 H   0  0  0  0  0  0
  -28.1078  -36.2649   24.6278 H   0  0  0  0  0  0
  -27.2301  -37.1458   25.8867 H   0  0  0  0  0  0
  -20.9259  -29.8742   21.6976 H   0  0  0  0  0  0
  -26.0191  -38.2881   24.1402 H   0  0  0  0  0  0
  -26.7841  -22.8353   22.5741 H   0  0  0  0  0  0
  -30.9073  -23.1230   23.8189 H   0  0  0  0  0  0
  -26.9909  -24.9922   21.3855 H   0  0  0  0  0  0
  -31.1185  -25.2825   22.6223 H   0  0  0  0  0  0
  -30.5445  -20.0207   21.7076 H   0  0  0  0  0  0
  -29.6726  -19.2677   20.3989 H   0  0  0  0  0  0
  -29.3500  -17.2549   24.1965 H   0  0  0  0  0  0
  -30.3491  -18.6859   24.2053 H   0  0  0  0  0  0
  -27.5061  -19.6921   21.5595 H   0  0  0  0  0  0
  -28.3985  -21.1621   21.3251 H   0  0  0  0  0  0
  -28.0857  -19.1942   25.0784 H   0  0  0  0  0  0
  -27.3404  -18.5924   23.6292 H   0  0  0  0  0  0
  -28.9662  -17.4185   21.8012 H   0  0  0  0  0  0
  -30.2552  -26.7430   20.8637 H   0  0  0  0  0  0
  -29.0439  -27.4045   21.9256 H   0  0  0  0  0  0
  -31.9044  -18.0439   22.3263 H   0  0  0  0  0  0
  -31.2914  -17.3812   20.8467 H   0  0  0  0  0  0
  -31.1282  -15.9629   23.5646 H   0  0  0  0  0  0
  -32.3680  -15.7025   22.3842 H   0  0  0  0  0  0
  -29.6847  -14.6291   22.3555 H   0  0  0  0  0  0
  1 25  1  0  0  0
  1 30  2  0  0  0
  1 87  1  0  0  0
  2  3  1  0  0  0
  2 25  1  0  0  0
  2 89  1  0  0  0
  2 90  1  0  0  0
  3  4  1  0  0  0
  3 91  1  0  0  0
  3 92  1  0  0  0
  4  5  1  0  0  0
  4 93  1  0  0  0
  4 94  1  0  0  0
  5  6  1  0  0  0
  5 26  1  0  0  0
  5 95  1  0  0  0
  6 25  1  0  0  0
  6 96  1  0  0  0
  6 97  1  0  0  0
  7  8  2  0  0  0
  7 26  1  0  0  0
  7 29  1  0  0  0
  8  9  1  0  0  0
  8 22  1  0  0  0
  9 10  1  0  0  0
  9 27  2  0  0  0
 10 11  2  0  0  0
 10 15  1  0  0  0
 11 12  1  0  0  0
 11 98  1  0  0  0
 12 13  2  0  0  0
 12 99  1  0  0  0
 13 14  1  0  0  0
 13 31  1  0  0  0
 14 15  2  0  0  0
 14100  1  0  0  0
 15101  1  0  0  0
 16 17  2  0  0  0
 16 21  1  0  0  0
 16 31  1  0  0  0
 17 18  1  0  0  0
 17102  1  0  0  0
 18 19  2  0  0  0
 18103  1  0  0  0
 19 20  1  0  0  0
 19 24  1  0  0  0
 20 21  2  0  0  0
 20104  1  0  0  0
 21 23  1  0  0  0
 22 28  1  0  0  0
 22 32  2  0  0  0
 26 27  1  0  0  0
 28105  1  0  0  0
 28106  1  0  0  0
 29107  1  0  0  0
 29108  1  0  0  0
 33 34  1  0  0  0
 33 66  1  0  0  0
 33 70  2  0  0  0
 34 36  1  0  0  0
 34 59  1  0  0  0
 34109  1  0  0  0
 35 44  2  0  0  0
 35 45  1  0  0  0
 35 68  1  0  0  0
 36 56  1  0  0  0
 36110  1  0  0  0
 37 39  1  0  0  0
 37 47  1  0  0  0
 37 66  1  0  0  0
 37111  1  0  0  0
 38 43  2  0  0  0
 38 46  1  0  0  0
 38 47  1  0  0  0
 39 64  1  0  0  0
 39 67  2  0  0  0
 40 52  1  0  0  0
 40 53  2  0  0  0
 40 58  1  0  0  0
 41112  1  0  0  0
 41113  1  0  0  0
 41114  1  0  0  0
 41 48  1  0  0  0
 42 43  1  0  0  0
 42 66  1  0  0  0
 42115  1  0  0  0
 42116  1  0  0  0
 43 44  1  0  0  0
 44117  1  0  0  0
 45 46  2  0  0  0
 45118  1  0  0  0
 46119  1  0  0  0
 47120  1  0  0  0
 47121  1  0  0  0
 48 56  1  0  0  0
 48 65  1  0  0  0
 48122  1  0  0  0
 49 50  1  0  0  0
 49 53  1  0  0  0
 49 64  1  0  0  0
 49123  1  0  0  0
 50 51  1  0  0  0
 50124  1  0  0  0
 50125  1  0  0  0
 51 52  1  0  0  0
 51126  1  0  0  0
 51127  1  0  0  0
 52128  1  0  0  0
 52129  1  0  0  0
 53 54  1  0  0  0
 54 55  2  0  0  0
 54130  1  0  0  0
 55 57  1  0  0  0
 55131  1  0  0  0
 56 69  2  0  0  0
 57 58  2  0  0  0
 57132  1  0  0  0
 58133  1  0  0  0
 59 60  1  0  0  0
 59 61  1  0  0  0
 59 62  1  0  0  0
 60134  1  0  0  0
 60135  1  0  0  0
 60136  1  0  0  0
 61137  1  0  0  0
 61138  1  0  0  0
 61139  1  0  0  0
 62140  1  0  0  0
 62141  1  0  0  0
 62142  1  0  0  0
 63 65  1  0  0  0
 63143  1  0  0  0
 63144  1  0  0  0
 63145  1  0  0  0
 64146  1  0  0  0
 65147  1  0  0  0
 68 83  1  0  0  0
 71 73  2  0  0  0
 71 75  1  0  0  0
 71148  1  0  0  0
 72 74  1  0  0  0
 72 75  2  0  0  0
 72149  1  0  0  0
 73 76  1  0  0  0
 73150  1  0  0  0
 74 76  2  0  0  0
 74151  1  0  0  0
 75 77  1  0  0  0
 76 83  1  0  0  0
 77 86  1  0  0  0
 77 88  2  0  0  0
 78 80  1  0  0  0
 78 82  1  0  0  0
 78152  1  0  0  0
 78153  1  0  0  0
 79 81  1  0  0  0
 79 82  1  0  0  0
 79154  1  0  0  0
 79155  1  0  0  0
 80 86  1  0  0  0
 80156  1  0  0  0
 80157  1  0  0  0
 81 86  1  0  0  0
 81158  1  0  0  0
 81159  1  0  0  0
 82 84  1  0  0  0
 82160  1  0  0  0
 83161  1  0  0  0
 83162  1  0  0  0
 84 85  1  0  0  0
 84163  1  0  0  0
 84164  1  0  0  0
 85 87  1  0  0  0
 85165  1  0  0  0
 85166  1  0  0  0
 87167  1  0  0  0
M  ISO  4   1 100  68 101  83 101  87 100
M  END
> <chiral flag>
0

> <version>
0

> <s_m_source_file>
/data/baiqing/PycharmProjects/Reinvent-master-3.2/result/LINK_invent/BTK/process_docking_weight1_custom_product_contain_oxygen_bond_distance_aromatic_linkinvent_7_9_3/rearranged_h_0003.sdf

> <i_m_source_file_index>
73

> <r_mmod_Potential_Energy-OPLS-2005>
68.7073822021484

> <r_mmod_Stretch_Energy-OPLS-2005>
34.6287384033203

> <r_mmod_Bend_Energy-OPLS-2005>
99.7499618530273

> <r_mmod_Torsional_Energy-OPLS-2005>
299.71533203125

> <r_mmod_Improper_Torsional_Energy-OPLS-2005>
3.45607471466064

> <r_mmod_Van_der_Waal_Energy-OPLS-2005>
164.558120727539

> <r_mmod_Electrostatic_Energy-OPLS-2005>
-317.054290771484

> <r_mmod_Solvation_Energy-OPLS-2005>
-222.316940307617

> <b_mmod_Minimization_Converged-OPLS-2005>
0

> <r_mmod_RMS_Derivative-OPLS-2005>
0.607998192310333

$$$$
73
                    3D
 Structure written by MMmdl.
147155  0  0  1  0            999 V2000
  -30.4751  -15.1823   20.3805 C   0  0  0  0  0  0
  -30.4354  -12.7503   19.5208 C   0  0  0  0  0  0
  -29.5293  -12.5597   18.2802 C   0  0  0  0  0  0
  -28.0737  -12.3019   18.7063 C   0  0  0  0  0  0
  -27.6140  -13.2691   19.8262 C   0  0  2  0  0  0
  -28.6501  -13.4142   20.9608 C   0  0  0  0  0  0
  -25.2396  -13.8243   20.5741 C   0  0  0  0  0  0
  -24.1743  -13.0438   20.9256 C   0  0  0  0  0  0
  -24.6391  -11.6934   20.8765 C   0  0  0  0  0  0
  -23.9084  -10.4293   21.0410 C   0  0  0  0  0  0
  -24.3633   -9.4206   21.9185 C   0  0  0  0  0  0
  -23.6307   -8.2242   22.0750 C   0  0  0  0  0  0
  -22.4286   -8.0281   21.3544 C   0  0  0  0  0  0
  -21.9928   -9.0255   20.4643 C   0  0  0  0  0  0
  -22.7259  -10.2134   20.3055 C   0  0  0  0  0  0
  -21.6855   -6.0739   22.5281 C   0  0  0  0  0  0
  -21.4015   -6.5642   23.8214 C   0  0  0  0  0  0
  -21.3659   -5.6794   24.9175 C   0  0  0  0  0  0
  -21.6045   -4.3055   24.7226 C   0  0  0  0  0  0
  -21.8819   -3.8149   23.4346 C   0  0  0  0  0  0
  -21.9196   -4.6968   22.3404 C   0  0  0  0  0  0
  -22.7761  -13.5192   21.1912 C   0  0  0  0  0  0
  -22.1663   -4.2153   21.0981 F   0  0  0  0  0  0
  -21.5631   -3.4538   25.7738 F   0  0  0  0  0  0
  -29.8927  -13.8922   20.3375 N   0  0  0  0  0  0
  -26.2822  -12.9509   20.3229 N   0  0  0  0  0  0
  -25.9325  -11.6618   20.5732 N   0  0  0  0  0  0
  -22.0426  -12.8163   22.0464 N   0  0  0  0  0  0
  -25.4030  -15.1977   20.4173 N   0  0  0  0  0  0
  -31.6935  -15.1828   20.1597 O   0  0  0  0  0  0
  -21.6644   -6.8882   21.4241 O   0  0  0  0  0  0
  -22.3438  -14.5497   20.6759 O   0  0  0  0  0  0
  -24.6588  -31.8286   23.1761 C   0  0  0  0  0  0
  -25.9293  -32.4618   23.8201 C   0  0  1  0  0  0
  -27.2114  -26.9740   20.1745 C   0  0  0  0  0  0
  -25.5981  -33.8429   24.2108 N   0  0  0  0  0  0
  -23.4707  -30.4443   21.5237 C   0  0  2  0  0  0
  -24.9232  -28.8455   20.1093 C   0  0  0  0  0  0
  -22.7642  -29.4472   22.4790 C   0  0  0  0  0  0
  -18.0320  -28.1410   22.8475 C   0  0  0  0  0  0
  -24.1486  -36.7203   23.2645 C   0  0  0  0  0  0
  -26.0381  -30.6502   21.4006 C   0  0  0  0  0  0
  -26.1063  -29.2463   20.7427 C   0  0  0  0  0  0
  -27.2474  -28.3300   20.7549 C   0  0  0  0  0  0
  -26.0015  -26.7223   19.4877 C   0  0  0  0  0  0
  -24.8939  -27.6023   19.4623 C   0  0  0  0  0  0
  -23.7077  -29.7672   20.1472 C   0  0  0  0  0  0
  -25.4125  -36.2979   24.0306 C   0  0  1  0  0  0
  -20.5944  -28.3749   23.1193 C   0  0  2  0  0  0
  -20.6796  -26.9435   22.5401 C   0  0  0  0  0  0
  -19.5767  -26.6385   21.5213 C   0  0  0  0  0  0
  -18.1950  -26.7945   22.1627 C   0  0  0  0  0  0
  -19.1582  -28.8900   23.2826 C   0  0  0  0  0  0
  -18.9495  -30.1489   23.8861 C   0  0  0  0  0  0
  -17.6490  -30.6605   24.0555 C   0  0  0  0  0  0
  -25.9093  -34.9366   23.5024 C   0  0  0  0  0  0
  -16.5377  -29.9094   23.6348 C   0  0  0  0  0  0
  -16.7304  -28.6512   23.0375 C   0  0  0  0  0  0
  -26.4558  -31.6552   25.0712 C   0  0  0  0  0  0
  -25.3702  -31.3799   26.1381 C   0  0  0  0  0  0
  -27.0443  -30.2921   24.6420 C   0  0  0  0  0  0
  -27.6054  -32.4355   25.7514 C   0  0  0  0  0  0
  -27.5563  -37.1755   24.8468 C   0  0  0  0  0  0
  -21.4319  -29.3048   22.3543 N   0  0  0  0  0  0
  -26.4267  -37.3717   23.9420 N   0  0  0  0  0  0
  -24.7433  -30.9997   22.0872 N   0  0  0  0  0  0
  -23.4214  -28.8031   23.3007 O   0  0  0  0  0  0
  -28.1962  -25.8671   20.2637 O   0  0  0  0  0  0
  -26.5687  -34.8895   22.4609 O   0  0  0  0  0  0
  -23.5671  -32.1232   23.6885 O   0  0  0  0  0  0
  -28.2774  -20.1783   20.9076 C   0  0  0  0  0  0
  -30.1456  -20.7584   19.6963 C   0  0  0  0  0  0
  -27.8545  -21.6057   20.8710 C   0  0  0  0  0  0
  -29.7223  -22.1796   19.6571 C   0  0  0  0  0  0
  -29.4725  -19.6132   20.3050 C   0  0  0  0  0  0
  -28.5298  -22.7500   20.2537 C   0  0  0  0  0  0
  -30.1825  -18.0265   20.3361 C   0  0  0  0  0  0
  -27.8040  -24.3101   20.0193 C   0  0  0  0  0  0
  -29.7353  -16.4509   20.4631 N   0  0  0  0  0  0
  -31.4594  -12.9371   19.1947 H   0  0  0  0  0  0
  -30.4796  -11.8355   20.1142 H   0  0  0  0  0  0
  -29.8932  -11.7354   17.6652 H   0  0  0  0  0  0
  -29.5747  -13.4531   17.6556 H   0  0  0  0  0  0
  -28.0144  -11.2735   19.0644 H   0  0  0  0  0  0
  -27.4061  -12.3652   17.8463 H   0  0  0  0  0  0
  -27.5393  -14.2436   19.3423 H   0  0  0  0  0  0
  -28.7973  -12.4727   21.4919 H   0  0  0  0  0  0
  -28.3051  -14.1392   21.6999 H   0  0  0  0  0  0
  -25.2775   -9.5686   22.4766 H   0  0  0  0  0  0
  -24.0018   -7.4629   22.7465 H   0  0  0  0  0  0
  -21.0861   -8.8777   19.8943 H   0  0  0  0  0  0
  -22.3716  -10.9677   19.6168 H   0  0  0  0  0  0
  -21.2001   -7.6149   23.9719 H   0  0  0  0  0  0
  -21.1482   -6.0522   25.9080 H   0  0  0  0  0  0
  -22.0598   -2.7611   23.2844 H   0  0  0  0  0  0
  -22.4066  -11.9826   22.4836 H   0  0  0  0  0  0
  -21.1039  -13.1162   22.2684 H   0  0  0  0  0  0
  -24.6307  -15.8462   20.5268 H   0  0  0  0  0  0
  -26.2426  -15.6401   20.0678 H   0  0  0  0  0  0
  -26.7360  -32.5170   23.0915 H   0  0  0  0  0  0
  -25.0108  -33.9519   25.0247 H   0  0  0  0  0  0
  -22.7817  -31.2753   21.3586 H   0  0  0  0  0  0
  -23.3765  -35.9516   23.3288 H   0  0  0  0  0  0
  -24.3561  -36.8862   22.2063 H   0  0  0  0  0  0
  -23.7225  -37.6381   23.6704 H   0  0  0  0  0  0
  -26.2147  -31.3959   20.6243 H   0  0  0  0  0  0
  -26.8998  -30.7033   22.0539 H   0  0  0  0  0  0
  -28.1398  -28.6311   21.2848 H   0  0  0  0  0  0
  -25.8646  -25.7763   18.9864 H   0  0  0  0  0  0
  -23.9957  -27.2900   18.9472 H   0  0  0  0  0  0
  -23.8604  -30.5388   19.3918 H   0  0  0  0  0  0
  -22.8182  -29.2207   19.8291 H   0  0  0  0  0  0
  -25.1322  -36.1770   25.0795 H   0  0  0  0  0  0
  -21.0038  -28.3354   24.1314 H   0  0  0  0  0  0
  -20.5671  -26.2370   23.3639 H   0  0  0  0  0  0
  -21.6659  -26.7417   22.1202 H   0  0  0  0  0  0
  -19.6920  -25.6286   21.1269 H   0  0  0  0  0  0
  -19.6698  -27.3172   20.6723 H   0  0  0  0  0  0
  -17.4213  -26.6691   21.4036 H   0  0  0  0  0  0
  -18.0346  -26.0100   22.9037 H   0  0  0  0  0  0
  -19.7970  -30.7314   24.2214 H   0  0  0  0  0  0
  -17.5045  -31.6283   24.5161 H   0  0  0  0  0  0
  -15.5376  -30.2985   23.7697 H   0  0  0  0  0  0
  -15.8703  -28.0812   22.7124 H   0  0  0  0  0  0
  -24.5887  -30.7140   25.7706 H   0  0  0  0  0  0
  -24.8887  -32.3001   26.4697 H   0  0  0  0  0  0
  -25.7949  -30.9045   27.0232 H   0  0  0  0  0  0
  -26.3101  -29.6613   24.1393 H   0  0  0  0  0  0
  -27.3950  -29.7270   25.5066 H   0  0  0  0  0  0
  -27.9059  -30.4114   23.9849 H   0  0  0  0  0  0
  -27.2623  -33.3701   26.1969 H   0  0  0  0  0  0
  -28.3933  -32.6842   25.0392 H   0  0  0  0  0  0
  -28.0644  -31.8559   26.5535 H   0  0  0  0  0  0
  -28.2564  -38.0066   24.7527 H   0  0  0  0  0  0
  -28.1075  -36.2596   24.6281 H   0  0  0  0  0  0
  -27.2284  -37.1386   25.8872 H   0  0  0  0  0  0
  -20.9555  -29.8749   21.6692 H   0  0  0  0  0  0
  -26.0113  -38.2769   24.1454 H   0  0  0  0  0  0
  -27.6291  -19.4927   21.4361 H   0  0  0  0  0  0
  -31.0814  -20.5404   19.1999 H   0  0  0  0  0  0
  -26.9033  -21.8209   21.3381 H   0  0  0  0  0  0
  -30.3513  -22.8578   19.0974 H   0  0  0  0  0  0
  -30.9305  -18.1209   21.1241 H   0  0  0  0  0  0
  -30.7794  -18.0194   19.4234 H   0  0  0  0  0  0
  -26.8452  -24.2068   20.5276 H   0  0  0  0  0  0
  -27.5507  -24.2802   18.9596 H   0  0  0  0  0  0
  -28.7435  -16.3219   20.5965 H   0  0  0  0  0  0
  1 25  1  0  0  0
  1 30  2  0  0  0
  1 79  1  0  0  0
  2  3  1  0  0  0
  2 25  1  0  0  0
  2 80  1  0  0  0
  2 81  1  0  0  0
  3  4  1  0  0  0
  3 82  1  0  0  0
  3 83  1  0  0  0
  4  5  1  0  0  0
  4 84  1  0  0  0
  4 85  1  0  0  0
  5  6  1  0  0  0
  5 26  1  0  0  0
  5 86  1  0  0  0
  6 25  1  0  0  0
  6 87  1  0  0  0
  6 88  1  0  0  0
  7  8  2  0  0  0
  7 26  1  0  0  0
  7 29  1  0  0  0
  8  9  1  0  0  0
  8 22  1  0  0  0
  9 10  1  0  0  0
  9 27  2  0  0  0
 10 11  2  0  0  0
 10 15  1  0  0  0
 11 12  1  0  0  0
 11 89  1  0  0  0
 12 13  2  0  0  0
 12 90  1  0  0  0
 13 14  1  0  0  0
 13 31  1  0  0  0
 14 15  2  0  0  0
 14 91  1  0  0  0
 15 92  1  0  0  0
 16 17  2  0  0  0
 16 21  1  0  0  0
 16 31  1  0  0  0
 17 18  1  0  0  0
 17 93  1  0  0  0
 18 19  2  0  0  0
 18 94  1  0  0  0
 19 20  1  0  0  0
 19 24  1  0  0  0
 20 21  2  0  0  0
 20 95  1  0  0  0
 21 23  1  0  0  0
 22 28  1  0  0  0
 22 32  2  0  0  0
 26 27  1  0  0  0
 28 96  1  0  0  0
 28 97  1  0  0  0
 29 98  1  0  0  0
 29 99  1  0  0  0
 33 34  1  0  0  0
 33 66  1  0  0  0
 33 70  2  0  0  0
 34 36  1  0  0  0
 34 59  1  0  0  0
 34100  1  0  0  0
 35 44  2  0  0  0
 35 45  1  0  0  0
 35 68  1  0  0  0
 36 56  1  0  0  0
 36101  1  0  0  0
 37 39  1  0  0  0
 37 47  1  0  0  0
 37 66  1  0  0  0
 37102  1  0  0  0
 38 43  2  0  0  0
 38 46  1  0  0  0
 38 47  1  0  0  0
 39 64  1  0  0  0
 39 67  2  0  0  0
 40 52  1  0  0  0
 40 53  2  0  0  0
 40 58  1  0  0  0
 41103  1  0  0  0
 41104  1  0  0  0
 41105  1  0  0  0
 41 48  1  0  0  0
 42 43  1  0  0  0
 42 66  1  0  0  0
 42106  1  0  0  0
 42107  1  0  0  0
 43 44  1  0  0  0
 44108  1  0  0  0
 45 46  2  0  0  0
 45109  1  0  0  0
 46110  1  0  0  0
 47111  1  0  0  0
 47112  1  0  0  0
 48 56  1  0  0  0
 48 65  1  0  0  0
 48113  1  0  0  0
 49 50  1  0  0  0
 49 53  1  0  0  0
 49 64  1  0  0  0
 49114  1  0  0  0
 50 51  1  0  0  0
 50115  1  0  0  0
 50116  1  0  0  0
 51 52  1  0  0  0
 51117  1  0  0  0
 51118  1  0  0  0
 52119  1  0  0  0
 52120  1  0  0  0
 53 54  1  0  0  0
 54 55  2  0  0  0
 54121  1  0  0  0
 55 57  1  0  0  0
 55122  1  0  0  0
 56 69  2  0  0  0
 57 58  2  0  0  0
 57123  1  0  0  0
 58124  1  0  0  0
 59 60  1  0  0  0
 59 61  1  0  0  0
 59 62  1  0  0  0
 60125  1  0  0  0
 60126  1  0  0  0
 60127  1  0  0  0
 61128  1  0  0  0
 61129  1  0  0  0
 61130  1  0  0  0
 62131  1  0  0  0
 62132  1  0  0  0
 62133  1  0  0  0
 63 65  1  0  0  0
 63134  1  0  0  0
 63135  1  0  0  0
 63136  1  0  0  0
 64137  1  0  0  0
 65138  1  0  0  0
 68 78  1  0  0  0
 71 73  2  0  0  0
 71 75  1  0  0  0
 71139  1  0  0  0
 72 74  1  0  0  0
 72 75  2  0  0  0
 72140  1  0  0  0
 73 76  1  0  0  0
 73141  1  0  0  0
 74 76  2  0  0  0
 74142  1  0  0  0
 75 77  1  0  0  0
 76 78  1  0  0  0
 77 79  1  0  0  0
 77143  1  0  0  0
 77144  1  0  0  0
 78145  1  0  0  0
 78146  1  0  0  0
 79147  1  0  0  0
M  ISO  4   1 100  68 101  78 101  79 100
M  END
> <chiral flag>
0

> <version>
0

> <s_m_source_file>
/data/baiqing/PycharmProjects/Reinvent-master-3.2/result/LINK_invent/BTK/process_docking_weight1_custom_product_contain_oxygen_bond_distance_aromatic_linkinvent_7_9_3/rearranged_h_0003.sdf

> <i_m_source_file_index>
74

> <r_mmod_Potential_Energy-OPLS-2005>
1015.4599609375

> <r_mmod_Stretch_Energy-OPLS-2005>
443.456787109375

> <r_mmod_Bend_Energy-OPLS-2005>
422.297058105469

> <r_mmod_Torsional_Energy-OPLS-2005>
215.021911621094

> <r_mmod_Improper_Torsional_Energy-OPLS-2005>
7.18429374694824

> <r_mmod_Van_der_Waal_Energy-OPLS-2005>
133.087112426758

> <r_mmod_Electrostatic_Energy-OPLS-2005>
-379.332244873047

> <r_mmod_Solvation_Energy-OPLS-2005>
-213.699493408203

> <b_mmod_Minimization_Converged-OPLS-2005>
0

> <r_mmod_RMS_Derivative-OPLS-2005>
0.623550474643707

$$$$
74
                    3D
 Structure written by MMmdl.
162170  0  0  1  0            999 V2000
  -30.7309  -14.4224   20.5062 C   0  0  0  0  0  0
  -30.4077  -12.2574   19.4318 C   0  0  0  0  0  0
  -29.4947  -12.4806   18.2088 C   0  0  0  0  0  0
  -28.0128  -12.3628   18.6156 C   0  0  0  0  0  0
  -27.6601  -13.2092   19.8701 C   0  0  2  0  0  0
  -28.7019  -13.0119   20.9970 C   0  0  0  0  0  0
  -25.2577  -13.8172   20.5682 C   0  0  0  0  0  0
  -24.1831  -13.0437   20.9174 C   0  0  0  0  0  0
  -24.6395  -11.6910   20.8731 C   0  0  0  0  0  0
  -23.9063  -10.4297   21.0403 C   0  0  0  0  0  0
  -24.3619   -9.4210   21.9174 C   0  0  0  0  0  0
  -23.6294   -8.2246   22.0745 C   0  0  0  0  0  0
  -22.4269   -8.0289   21.3547 C   0  0  0  0  0  0
  -21.9913   -9.0257   20.4642 C   0  0  0  0  0  0
  -22.7240  -10.2136   20.3051 C   0  0  0  0  0  0
  -21.6854   -6.0733   22.5277 C   0  0  0  0  0  0
  -21.4017   -6.5635   23.8212 C   0  0  0  0  0  0
  -21.3661   -5.6783   24.9171 C   0  0  0  0  0  0
  -21.6051   -4.3049   24.7220 C   0  0  0  0  0  0
  -21.8819   -3.8144   23.4341 C   0  0  0  0  0  0
  -21.9195   -4.6961   22.3400 C   0  0  0  0  0  0
  -22.7859  -13.5238   21.1838 C   0  0  0  0  0  0
  -22.1658   -4.2150   21.0977 F   0  0  0  0  0  0
  -21.5631   -3.4534   25.7732 F   0  0  0  0  0  0
  -30.0380  -13.2609   20.4374 N   0  0  0  0  0  0
  -26.3018  -12.9351   20.3352 N   0  0  0  0  0  0
  -25.9321  -11.6505   20.5766 N   0  0  0  0  0  0
  -22.0503  -12.8232   22.0405 N   0  0  0  0  0  0
  -25.4276  -15.1894   20.4089 N   0  0  0  0  0  0
  -31.9141  -14.5224   20.1689 O   0  0  0  0  0  0
  -21.6640   -6.8881   21.4240 O   0  0  0  0  0  0
  -22.3547  -14.5549   20.6687 O   0  0  0  0  0  0
  -24.6110  -31.8718   23.2121 C   0  0  0  0  0  0
  -25.9017  -32.4844   23.8409 C   0  0  1  0  0  0
  -27.2351  -27.4676   20.0921 C   0  0  0  0  0  0
  -25.5899  -33.8643   24.2353 N   0  0  0  0  0  0
  -23.3965  -30.4966   21.5514 C   0  0  2  0  0  0
  -24.8401  -28.9655   20.1148 C   0  0  0  0  0  0
  -22.7387  -29.4684   22.4984 C   0  0  0  0  0  0
  -18.0274  -28.1377   22.8496 C   0  0  0  0  0  0
  -24.1484  -36.7314   23.2639 C   0  0  0  0  0  0
  -25.9206  -30.8484   21.3573 C   0  0  0  0  0  0
  -25.9967  -29.4841   20.7082 C   0  0  0  0  0  0
  -27.1947  -28.7416   20.6942 C   0  0  0  0  0  0
  -26.0583  -26.9580   19.4906 C   0  0  0  0  0  0
  -24.8635  -27.6996   19.5058 C   0  0  0  0  0  0
  -23.6012  -29.8292   20.1651 C   0  0  0  0  0  0
  -25.4107  -36.3133   24.0346 C   0  0  1  0  0  0
  -20.5863  -28.3662   23.1324 C   0  0  2  0  0  0
  -20.6762  -26.9404   22.5413 C   0  0  0  0  0  0
  -19.5738  -26.6386   21.5214 C   0  0  0  0  0  0
  -18.1918  -26.7926   22.1628 C   0  0  0  0  0  0
  -19.1523  -28.8835   23.2909 C   0  0  0  0  0  0
  -18.9456  -30.1441   23.8922 C   0  0  0  0  0  0
  -17.6461  -30.6589   24.0580 C   0  0  0  0  0  0
  -25.9029  -34.9493   23.5142 C   0  0  0  0  0  0
  -16.5351  -29.9097   23.6328 C   0  0  0  0  0  0
  -16.7263  -28.6512   23.0346 C   0  0  0  0  0  0
  -26.4456  -31.6615   25.0725 C   0  0  0  0  0  0
  -25.3741  -31.3708   26.1477 C   0  0  0  0  0  0
  -27.0279  -30.3073   24.6055 C   0  0  0  0  0  0
  -27.6049  -32.4317   25.7477 C   0  0  0  0  0  0
  -27.5578  -37.1808   24.8470 C   0  0  0  0  0  0
  -21.4118  -29.3039   22.3726 N   0  0  0  0  0  0
  -26.4298  -37.3811   23.9408 N   0  0  0  0  0  0
  -24.6613  -31.0856   22.0998 N   0  0  0  0  0  0
  -23.4177  -28.8221   23.3009 O   0  0  0  0  0  0
  -28.4328  -26.7894   20.1197 O   0  0  0  0  0  0
  -26.5581  -34.8939   22.4693 O   0  0  0  0  0  0
  -23.5312  -32.1440   23.7537 O   0  0  0  0  0  0
  -30.7418  -19.1316   19.9906 C   0  0  0  0  0  0
  -30.9325  -17.8508   17.9269 C   0  0  0  0  0  0
  -30.3349  -17.9674   20.6806 C   0  0  0  0  0  0
  -30.5183  -16.6967   18.6075 C   0  0  0  0  0  0
  -31.0712  -19.0680   18.6178 C   0  0  0  0  0  0
  -30.2676  -16.7336   20.0000 C   0  0  0  0  0  0
  -31.6085  -20.2794   17.8737 C   0  0  0  0  0  0
  -30.6820  -20.7387   16.7319 C   0  0  0  0  0  0
  -29.4194  -21.4600   17.2278 C   0  0  0  0  0  0
  -29.6787  -22.9487   17.5083 C   0  0  0  0  0  0
  -28.7490  -25.0120   18.5128 C   0  0  0  0  0  0
  -28.4220  -25.3738   19.9671 C   0  0  0  0  0  0
  -29.9946  -15.5278   20.7031 N   0  0  0  0  0  0
  -28.5754  -23.5641   18.2668 N   0  3  0  0  0  0
  -31.4572  -12.3173   19.1377 H   0  0  0  0  0  0
  -30.2716  -11.2546   19.8390 H   0  0  0  0  0  0
  -29.7270  -11.7546   17.4292 H   0  0  0  0  0  0
  -29.6818  -13.4636   17.7749 H   0  0  0  0  0  0
  -27.8087  -11.3099   18.8118 H   0  0  0  0  0  0
  -27.3723  -12.6462   17.7798 H   0  0  0  0  0  0
  -27.6974  -14.2532   19.5601 H   0  0  0  0  0  0
  -28.6578  -11.9939   21.3855 H   0  0  0  0  0  0
  -28.4907  -13.6658   21.8441 H   0  0  0  0  0  0
  -25.2763   -9.5685   22.4746 H   0  0  0  0  0  0
  -24.0003   -7.4640   22.7467 H   0  0  0  0  0  0
  -21.0841   -8.8781   19.8955 H   0  0  0  0  0  0
  -22.3698  -10.9672   19.6167 H   0  0  0  0  0  0
  -21.2009   -7.6142   23.9717 H   0  0  0  0  0  0
  -21.1485   -6.0511   25.9076 H   0  0  0  0  0  0
  -22.0599   -2.7608   23.2837 H   0  0  0  0  0  0
  -22.4098  -11.9894   22.4805 H   0  0  0  0  0  0
  -21.1127  -13.1272   22.2609 H   0  0  0  0  0  0
  -24.6579  -15.8418   20.5170 H   0  0  0  0  0  0
  -26.2775  -15.6339   20.0862 H   0  0  0  0  0  0
  -26.7093  -32.5575   23.1184 H   0  0  0  0  0  0
  -25.0110  -33.9820   25.0538 H   0  0  0  0  0  0
  -22.6851  -31.3137   21.4142 H   0  0  0  0  0  0
  -23.3756  -35.9635   23.3325 H   0  0  0  0  0  0
  -24.3582  -36.8896   22.2048 H   0  0  0  0  0  0
  -23.7215  -37.6522   23.6625 H   0  0  0  0  0  0
  -26.0219  -31.6140   20.5863 H   0  0  0  0  0  0
  -26.8129  -30.9062   21.9683 H   0  0  0  0  0  0
  -28.0892  -29.1413   21.1515 H   0  0  0  0  0  0
  -26.0416  -25.9989   18.9973 H   0  0  0  0  0  0
  -23.9731  -27.2950   19.0436 H   0  0  0  0  0  0
  -23.7062  -30.6041   19.4039 H   0  0  0  0  0  0
  -22.7257  -29.2462   19.8732 H   0  0  0  0  0  0
  -25.1280  -36.2014   25.0841 H   0  0  0  0  0  0
  -20.9972  -28.3224   24.1438 H   0  0  0  0  0  0
  -20.5671  -26.2275   23.3595 H   0  0  0  0  0  0
  -21.6631  -26.7447   22.1209 H   0  0  0  0  0  0
  -19.6904  -25.6300   21.1234 H   0  0  0  0  0  0
  -19.6682  -27.3210   20.6755 H   0  0  0  0  0  0
  -17.4192  -26.6692   21.4026 H   0  0  0  0  0  0
  -18.0310  -26.0061   22.9013 H   0  0  0  0  0  0
  -19.7936  -30.7247   24.2297 H   0  0  0  0  0  0
  -17.5026  -31.6274   24.5170 H   0  0  0  0  0  0
  -15.5355  -30.3014   23.7635 H   0  0  0  0  0  0
  -15.8665  -28.0852   22.7034 H   0  0  0  0  0  0
  -24.5911  -30.7064   25.7809 H   0  0  0  0  0  0
  -24.8943  -32.2864   26.4947 H   0  0  0  0  0  0
  -25.8101  -30.8861   27.0221 H   0  0  0  0  0  0
  -26.2808  -29.6857   24.1112 H   0  0  0  0  0  0
  -27.4082  -29.7285   25.4481 H   0  0  0  0  0  0
  -27.8628  -30.4425   23.9175 H   0  0  0  0  0  0
  -27.2684  -33.3603   26.2098 H   0  0  0  0  0  0
  -28.3829  -32.6896   25.0281 H   0  0  0  0  0  0
  -28.0749  -31.8417   26.5357 H   0  0  0  0  0  0
  -28.2617  -38.0088   24.7515 H   0  0  0  0  0  0
  -28.1057  -36.2620   24.6309 H   0  0  0  0  0  0
  -27.2295  -37.1471   25.8876 H   0  0  0  0  0  0
  -20.9251  -29.8782   21.6985 H   0  0  0  0  0  0
  -26.0202  -38.2896   24.1411 H   0  0  0  0  0  0
  -30.8332  -20.0648   20.5293 H   0  0  0  0  0  0
  -31.1743  -17.7860   16.8753 H   0  0  0  0  0  0
  -30.1275  -18.0196   21.7403 H   0  0  0  0  0  0
  -30.4487  -15.7706   18.0548 H   0  0  0  0  0  0
  -32.5793  -20.0066   17.4579 H   0  0  0  0  0  0
  -31.8096  -21.0926   18.5717 H   0  0  0  0  0  0
  -31.2336  -21.4020   16.0643 H   0  0  0  0  0  0
  -30.4015  -19.8838   16.1155 H   0  0  0  0  0  0
  -29.0310  -20.9552   18.1136 H   0  0  0  0  0  0
  -28.6398  -21.3790   16.4703 H   0  0  0  0  0  0
  -29.8176  -23.4836   16.5661 H   0  0  0  0  0  0
  -30.6019  -23.0685   18.0772 H   0  0  0  0  0  0
  -29.7736  -25.3256   18.3026 H   0  0  0  0  0  0
  -28.1111  -25.5599   17.8193 H   0  0  0  0  0  0
  -27.4887  -24.9255   20.3101 H   0  0  0  0  0  0
  -29.1924  -24.9655   20.6211 H   0  0  0  0  0  0
  -29.0739  -15.4181   21.1005 H   0  0  0  0  0  0
  -28.4993  -23.0843   19.1503 H   0  0  0  0  0  0
  -27.7079  -23.4215   17.7722 H   0  0  0  0  0  0
  1 25  1  0  0  0
  1 30  2  0  0  0
  1 83  1  0  0  0
  2  3  1  0  0  0
  2 25  1  0  0  0
  2 85  1  0  0  0
  2 86  1  0  0  0
  3  4  1  0  0  0
  3 87  1  0  0  0
  3 88  1  0  0  0
  4  5  1  0  0  0
  4 89  1  0  0  0
  4 90  1  0  0  0
  5  6  1  0  0  0
  5 26  1  0  0  0
  5 91  1  0  0  0
  6 25  1  0  0  0
  6 92  1  0  0  0
  6 93  1  0  0  0
  7  8  2  0  0  0
  7 26  1  0  0  0
  7 29  1  0  0  0
  8  9  1  0  0  0
  8 22  1  0  0  0
  9 10  1  0  0  0
  9 27  2  0  0  0
 10 11  2  0  0  0
 10 15  1  0  0  0
 11 12  1  0  0  0
 11 94  1  0  0  0
 12 13  2  0  0  0
 12 95  1  0  0  0
 13 14  1  0  0  0
 13 31  1  0  0  0
 14 15  2  0  0  0
 14 96  1  0  0  0
 15 97  1  0  0  0
 16 17  2  0  0  0
 16 21  1  0  0  0
 16 31  1  0  0  0
 17 18  1  0  0  0
 17 98  1  0  0  0
 18 19  2  0  0  0
 18 99  1  0  0  0
 19 20  1  0  0  0
 19 24  1  0  0  0
 20 21  2  0  0  0
 20100  1  0  0  0
 21 23  1  0  0  0
 22 28  1  0  0  0
 22 32  2  0  0  0
 26 27  1  0  0  0
 28101  1  0  0  0
 28102  1  0  0  0
 29103  1  0  0  0
 29104  1  0  0  0
 33 34  1  0  0  0
 33 66  1  0  0  0
 33 70  2  0  0  0
 34 36  1  0  0  0
 34 59  1  0  0  0
 34105  1  0  0  0
 35 44  2  0  0  0
 35 45  1  0  0  0
 35 68  1  0  0  0
 36 56  1  0  0  0
 36106  1  0  0  0
 37 39  1  0  0  0
 37 47  1  0  0  0
 37 66  1  0  0  0
 37107  1  0  0  0
 38 43  2  0  0  0
 38 46  1  0  0  0
 38 47  1  0  0  0
 39 64  1  0  0  0
 39 67  2  0  0  0
 40 52  1  0  0  0
 40 53  2  0  0  0
 40 58  1  0  0  0
 41108  1  0  0  0
 41109  1  0  0  0
 41110  1  0  0  0
 41 48  1  0  0  0
 42 43  1  0  0  0
 42 66  1  0  0  0
 42111  1  0  0  0
 42112  1  0  0  0
 43 44  1  0  0  0
 44113  1  0  0  0
 45 46  2  0  0  0
 45114  1  0  0  0
 46115  1  0  0  0
 47116  1  0  0  0
 47117  1  0  0  0
 48 56  1  0  0  0
 48 65  1  0  0  0
 48118  1  0  0  0
 49 50  1  0  0  0
 49 53  1  0  0  0
 49 64  1  0  0  0
 49119  1  0  0  0
 50 51  1  0  0  0
 50120  1  0  0  0
 50121  1  0  0  0
 51 52  1  0  0  0
 51122  1  0  0  0
 51123  1  0  0  0
 52124  1  0  0  0
 52125  1  0  0  0
 53 54  1  0  0  0
 54 55  2  0  0  0
 54126  1  0  0  0
 55 57  1  0  0  0
 55127  1  0  0  0
 56 69  2  0  0  0
 57 58  2  0  0  0
 57128  1  0  0  0
 58129  1  0  0  0
 59 60  1  0  0  0
 59 61  1  0  0  0
 59 62  1  0  0  0
 60130  1  0  0  0
 60131  1  0  0  0
 60132  1  0  0  0
 61133  1  0  0  0
 61134  1  0  0  0
 61135  1  0  0  0
 62136  1  0  0  0
 62137  1  0  0  0
 62138  1  0  0  0
 63 65  1  0  0  0
 63139  1  0  0  0
 63140  1  0  0  0
 63141  1  0  0  0
 64142  1  0  0  0
 65143  1  0  0  0
 68 82  1  0  0  0
 71 73  2  0  0  0
 71 75  1  0  0  0
 71144  1  0  0  0
 72 74  1  0  0  0
 72 75  2  0  0  0
 72145  1  0  0  0
 73 76  1  0  0  0
 73146  1  0  0  0
 74 76  2  0  0  0
 74147  1  0  0  0
 75 77  1  0  0  0
 76 83  1  0  0  0
 77 78  1  0  0  0
 77148  1  0  0  0
 77149  1  0  0  0
 78 79  1  0  0  0
 78150  1  0  0  0
 78151  1  0  0  0
 79 80  1  0  0  0
 79152  1  0  0  0
 79153  1  0  0  0
 80 84  1  0  0  0
 80154  1  0  0  0
 80155  1  0  0  0
 81 82  1  0  0  0
 81 84  1  0  0  0
 81156  1  0  0  0
 81157  1  0  0  0
 82158  1  0  0  0
 82159  1  0  0  0
 83160  1  0  0  0
 84161  1  0  0  0
 84162  1  0  0  0
M  CHG  1  84   1
M  ISO  4   1 100  68 101  82 101  83 100
M  END
> <chiral flag>
0

> <version>
0

> <s_m_source_file>
/data/baiqing/PycharmProjects/Reinvent-master-3.2/result/LINK_invent/BTK/process_docking_weight1_custom_product_contain_oxygen_bond_distance_aromatic_linkinvent_7_9_3/rearranged_h_0003.sdf

> <i_m_source_file_index>
75

> <r_mmod_Potential_Energy-OPLS-2005>
-136.684646606445

> <r_mmod_Stretch_Energy-OPLS-2005>
30.9294738769531

> <r_mmod_Bend_Energy-OPLS-2005>
89.5448760986328

> <r_mmod_Torsional_Energy-OPLS-2005>
258.934326171875

> <r_mmod_Improper_Torsional_Energy-OPLS-2005>
7.48716831207275

> <r_mmod_Van_der_Waal_Energy-OPLS-2005>
157.872299194336

> <r_mmod_Electrostatic_Energy-OPLS-2005>
-238.163818359375

> <r_mmod_Solvation_Energy-OPLS-2005>
-460.415954589844

> <b_mmod_Minimization_Converged-OPLS-2005>
0

> <r_mmod_RMS_Derivative-OPLS-2005>
1.55630791187286

$$$$
75
                    3D
 Structure written by MMmdl.
137144  0  0  1  0            999 V2000
  -29.9622  -16.5635   20.2664 C   0  0  0  0  0  0
  -30.3146  -13.7964   19.5233 C   0  0  0  0  0  0
  -29.5702  -12.9451   18.4142 C   0  0  0  0  0  0
  -28.2376  -12.3814   18.9086 C   0  0  0  0  0  0
  -27.5746  -13.4257   19.8177 C   0  0  2  0  0  0
  -28.5152  -14.1357   20.8613 C   0  0  0  0  0  0
  -25.2174  -13.8479   20.5951 C   0  0  0  0  0  0
  -24.1675  -13.0467   20.9341 C   0  0  0  0  0  0
  -24.6541  -11.7031   20.8745 C   0  0  0  0  0  0
  -23.9255  -10.4321   21.0342 C   0  0  0  0  0  0
  -24.3739   -9.4228   21.9149 C   0  0  0  0  0  0
  -23.6364   -8.2283   22.0747 C   0  0  0  0  0  0
  -22.4340   -8.0323   21.3544 C   0  0  0  0  0  0
  -22.0014   -9.0304   20.4634 C   0  0  0  0  0  0
  -22.7395  -10.2158   20.3018 C   0  0  0  0  0  0
  -21.6878   -6.0765   22.5277 C   0  0  0  0  0  0
  -21.4033   -6.5657   23.8214 C   0  0  0  0  0  0
  -21.3665   -5.6802   24.9171 C   0  0  0  0  0  0
  -21.6043   -4.3064   24.7217 C   0  0  0  0  0  0
  -21.8816   -3.8163   23.4335 C   0  0  0  0  0  0
  -21.9200   -4.6987   22.3396 C   0  0  0  0  0  0
  -22.7650  -13.5092   21.1938 C   0  0  0  0  0  0
  -22.1663   -4.2170   21.0973 F   0  0  0  0  0  0
  -21.5624   -3.4543   25.7727 F   0  0  0  0  0  0
  -29.5188  -15.0444   20.1465 N   0  0  0  0  0  0
  -26.2805  -13.0063   20.3476 N   0  0  0  0  0  0
  -25.9548  -11.6990   20.5678 N   0  0  0  0  0  0
  -22.0351  -12.8040   22.0489 N   0  0  0  0  0  0
  -25.3555  -15.2242   20.4383 N   0  0  0  0  0  0
  -31.2063  -16.3142   20.2293 O   0  0  0  0  0  0
  -21.6677   -6.8928   21.4248 O   0  0  0  0  0  0
  -22.3283  -14.5375   20.6771 O   0  0  0  0  0  0
  -24.7449  -31.7216   23.0979 C   0  0  0  0  0  0
  -25.9712  -32.4091   23.7768 C   0  0  1  0  0  0
  -27.2626  -26.0606   20.2671 C   0  0  0  0  0  0
  -25.6018  -33.7953   24.1581 N   0  0  0  0  0  0
  -23.5996  -30.2922   21.4680 C   0  0  2  0  0  0
  -25.0624  -28.4936   20.1392 C   0  0  0  0  0  0
  -22.8035  -29.3895   22.4550 C   0  0  0  0  0  0
  -18.0376  -28.1454   22.8421 C   0  0  0  0  0  0
  -24.1496  -36.6992   23.2671 C   0  0  0  0  0  0
  -26.1999  -30.2411   21.4589 C   0  0  0  0  0  0
  -26.2597  -28.7329   20.8212 C   0  0  0  0  0  0
  -27.3097  -27.5690   20.8335 C   0  0  0  0  0  0
  -26.0272  -26.1946   19.5192 C   0  0  0  0  0  0
  -25.0234  -27.2541   19.4619 C   0  0  0  0  0  0
  -23.8874  -29.5253   20.1333 C   0  0  0  0  0  0
  -25.4170  -36.2677   24.0236 C   0  0  1  0  0  0
  -20.6038  -28.3836   23.1031 C   0  0  2  0  0  0
  -20.6806  -26.9436   22.5420 C   0  0  0  0  0  0
  -19.5796  -26.6348   21.5224 C   0  0  0  0  0  0
  -18.1977  -26.7969   22.1607 C   0  0  0  0  0  0
  -19.1657  -28.8984   23.2686 C   0  0  0  0  0  0
  -18.9553  -30.1552   23.8759 C   0  0  0  0  0  0
  -17.6536  -30.6619   24.0537 C   0  0  0  0  0  0
  -25.9187  -34.9084   23.4798 C   0  0  0  0  0  0
  -16.5422  -29.9090   23.6366 C   0  0  0  0  0  0
  -16.7352  -28.6518   23.0376 C   0  0  0  0  0  0
  -26.4693  -31.6408   25.0652 C   0  0  0  0  0  0
  -25.3596  -31.3898   26.1149 C   0  0  0  0  0  0
  -27.0730  -30.2690   24.7003 C   0  0  0  0  0  0
  -27.6017  -32.4426   25.7501 C   0  0  0  0  0  0
  -27.5543  -37.1648   24.8466 C   0  0  0  0  0  0
  -21.4628  -29.2949   22.3282 N   0  0  0  0  0  0
  -26.4242  -37.3509   23.9408 N   0  0  0  0  0  0
  -24.8802  -30.8007   22.0600 N   0  0  0  0  0  0
  -23.4175  -28.7613   23.3197 O   0  0  0  0  0  0
  -28.1668  -24.5661   20.3212 O   0  0  0  0  0  0
  -26.5925  -34.8791   22.4483 O   0  0  0  0  0  0
  -23.6336  -32.0588   23.5524 O   0  0  0  0  0  0
  -29.2006  -20.3375   20.3201 C   0  0  0  0  0  0
  -28.2004  -22.4649   20.2188 C   0  0  0  0  0  0
  -29.3170  -18.2279   20.2702 N   0  0  0  0  0  0
  -31.2155  -14.1817   19.0448 H   0  0  0  0  0  0
  -30.7050  -13.1434   20.3066 H   0  0  0  0  0  0
  -30.2109  -12.1390   18.0541 H   0  0  0  0  0  0
  -29.3823  -13.5901   17.5547 H   0  0  0  0  0  0
  -28.4305  -11.4738   19.4819 H   0  0  0  0  0  0
  -27.5913  -12.1016   18.0755 H   0  0  0  0  0  0
  -27.3204  -14.2160   19.1091 H   0  0  0  0  0  0
  -28.9720  -13.4238   21.5512 H   0  0  0  0  0  0
  -27.9168  -14.7884   21.4973 H   0  0  0  0  0  0
  -25.2871   -9.5690   22.4748 H   0  0  0  0  0  0
  -24.0047   -7.4683   22.7489 H   0  0  0  0  0  0
  -21.0938   -8.8851   19.8945 H   0  0  0  0  0  0
  -22.3854  -10.9697   19.6127 H   0  0  0  0  0  0
  -21.2035   -7.6165   23.9725 H   0  0  0  0  0  0
  -21.1486   -6.0529   25.9075 H   0  0  0  0  0  0
  -22.0587   -2.7625   23.2829 H   0  0  0  0  0  0
  -22.4039  -11.9742   22.4895 H   0  0  0  0  0  0
  -21.0937  -13.0980   22.2674 H   0  0  0  0  0  0
  -24.5768  -15.8638   20.5540 H   0  0  0  0  0  0
  -26.2060  -15.6839   20.1380 H   0  0  0  0  0  0
  -26.7876  -32.4443   23.0543 H   0  0  0  0  0  0
  -24.9961  -33.8879   24.9601 H   0  0  0  0  0  0
  -22.9629  -31.1444   21.2211 H   0  0  0  0  0  0
  -23.3792  -35.9283   23.3224 H   0  0  0  0  0  0
  -24.3542  -36.8804   22.2107 H   0  0  0  0  0  0
  -23.7229  -37.6104   23.6874 H   0  0  0  0  0  0
  -26.4659  -30.9211   20.6487 H   0  0  0  0  0  0
  -27.0298  -30.3291   22.1459 H   0  0  0  0  0  0
  -28.1985  -27.7908   21.4071 H   0  0  0  0  0  0
  -25.7596  -25.3099   18.9588 H   0  0  0  0  0  0
  -24.1415  -27.0455   18.8719 H   0  0  0  0  0  0
  -24.1127  -30.2559   19.3556 H   0  0  0  0  0  0
  -22.9802  -29.0216   19.7958 H   0  0  0  0  0  0
  -25.1411  -36.1346   25.0723 H   0  0  0  0  0  0
  -21.0093  -28.3507   24.1170 H   0  0  0  0  0  0
  -20.5606  -26.2478   23.3738 H   0  0  0  0  0  0
  -21.6663  -26.7276   22.1281 H   0  0  0  0  0  0
  -19.6940  -25.6222   21.1342 H   0  0  0  0  0  0
  -19.6763  -27.3084   20.6699 H   0  0  0  0  0  0
  -17.4253  -26.6718   21.4002 H   0  0  0  0  0  0
  -18.0338  -26.0144   22.9029 H   0  0  0  0  0  0
  -19.8031  -30.7398   24.2071 H   0  0  0  0  0  0
  -17.5087  -31.6284   24.5168 H   0  0  0  0  0  0
  -15.5417  -30.2952   23.7771 H   0  0  0  0  0  0
  -15.8752  -28.0794   22.7169 H   0  0  0  0  0  0
  -24.5845  -30.7190   25.7424 H   0  0  0  0  0  0
  -24.8725  -32.3171   26.4173 H   0  0  0  0  0  0
  -25.7627  -30.9316   27.0189 H   0  0  0  0  0  0
  -26.3552  -29.6093   24.2123 H   0  0  0  0  0  0
  -27.4038  -29.7408   25.5956 H   0  0  0  0  0  0
  -27.9570  -30.3690   24.0706 H   0  0  0  0  0  0
  -27.2476  -33.3875   26.1635 H   0  0  0  0  0  0
  -28.4042  -32.6752   25.0488 H   0  0  0  0  0  0
  -28.0450  -31.8868   26.5774 H   0  0  0  0  0  0
  -28.2488  -38.0006   24.7515 H   0  0  0  0  0  0
  -28.1107  -36.2518   24.6291 H   0  0  0  0  0  0
  -27.2256  -37.1265   25.8866 H   0  0  0  0  0  0
  -21.0089  -29.8498   21.6159 H   0  0  0  0  0  0
  -26.0011  -38.2526   24.1435 H   0  0  0  0  0  0
  -30.0015  -20.5173   19.6027 H   0  0  0  0  0  0
  -29.6902  -20.4553   21.2869 H   0  0  0  0  0  0
  -27.7199  -22.3753   19.2446 H   0  0  0  0  0  0
  -27.3860  -22.2933   20.9225 H   0  0  0  0  0  0
  -30.3181  -18.3884   20.2986 H   0  0  0  0  0  0
  1 25  1  0  0  0
  1 30  2  0  0  0
  1 73  1  0  0  0
  2  3  1  0  0  0
  2 25  1  0  0  0
  2 74  1  0  0  0
  2 75  1  0  0  0
  3  4  1  0  0  0
  3 76  1  0  0  0
  3 77  1  0  0  0
  4  5  1  0  0  0
  4 78  1  0  0  0
  4 79  1  0  0  0
  5  6  1  0  0  0
  5 26  1  0  0  0
  5 80  1  0  0  0
  6 25  1  0  0  0
  6 81  1  0  0  0
  6 82  1  0  0  0
  7  8  2  0  0  0
  7 26  1  0  0  0
  7 29  1  0  0  0
  8  9  1  0  0  0
  8 22  1  0  0  0
  9 10  1  0  0  0
  9 27  2  0  0  0
 10 11  2  0  0  0
 10 15  1  0  0  0
 11 12  1  0  0  0
 11 83  1  0  0  0
 12 13  2  0  0  0
 12 84  1  0  0  0
 13 14  1  0  0  0
 13 31  1  0  0  0
 14 15  2  0  0  0
 14 85  1  0  0  0
 15 86  1  0  0  0
 16 17  2  0  0  0
 16 21  1  0  0  0
 16 31  1  0  0  0
 17 18  1  0  0  0
 17 87  1  0  0  0
 18 19  2  0  0  0
 18 88  1  0  0  0
 19 20  1  0  0  0
 19 24  1  0  0  0
 20 21  2  0  0  0
 20 89  1  0  0  0
 21 23  1  0  0  0
 22 28  1  0  0  0
 22 32  2  0  0  0
 26 27  1  0  0  0
 28 90  1  0  0  0
 28 91  1  0  0  0
 29 92  1  0  0  0
 29 93  1  0  0  0
 33 34  1  0  0  0
 33 66  1  0  0  0
 33 70  2  0  0  0
 34 36  1  0  0  0
 34 59  1  0  0  0
 34 94  1  0  0  0
 35 44  2  0  0  0
 35 45  1  0  0  0
 35 68  1  0  0  0
 36 56  1  0  0  0
 36 95  1  0  0  0
 37 39  1  0  0  0
 37 47  1  0  0  0
 37 66  1  0  0  0
 37 96  1  0  0  0
 38 43  2  0  0  0
 38 46  1  0  0  0
 38 47  1  0  0  0
 39 64  1  0  0  0
 39 67  2  0  0  0
 40 52  1  0  0  0
 40 53  2  0  0  0
 40 58  1  0  0  0
 41 97  1  0  0  0
 41 98  1  0  0  0
 41 99  1  0  0  0
 41 48  1  0  0  0
 42 43  1  0  0  0
 42 66  1  0  0  0
 42100  1  0  0  0
 42101  1  0  0  0
 43 44  1  0  0  0
 44102  1  0  0  0
 45 46  2  0  0  0
 45103  1  0  0  0
 46104  1  0  0  0
 47105  1  0  0  0
 47106  1  0  0  0
 48 56  1  0  0  0
 48 65  1  0  0  0
 48107  1  0  0  0
 49 50  1  0  0  0
 49 53  1  0  0  0
 49 64  1  0  0  0
 49108  1  0  0  0
 50 51  1  0  0  0
 50109  1  0  0  0
 50110  1  0  0  0
 51 52  1  0  0  0
 51111  1  0  0  0
 51112  1  0  0  0
 52113  1  0  0  0
 52114  1  0  0  0
 53 54  1  0  0  0
 54 55  2  0  0  0
 54115  1  0  0  0
 55 57  1  0  0  0
 55116  1  0  0  0
 56 69  2  0  0  0
 57 58  2  0  0  0
 57117  1  0  0  0
 58118  1  0  0  0
 59 60  1  0  0  0
 59 61  1  0  0  0
 59 62  1  0  0  0
 60119  1  0  0  0
 60120  1  0  0  0
 60121  1  0  0  0
 61122  1  0  0  0
 61123  1  0  0  0
 61124  1  0  0  0
 62125  1  0  0  0
 62126  1  0  0  0
 62127  1  0  0  0
 63 65  1  0  0  0
 63128  1  0  0  0
 63129  1  0  0  0
 63130  1  0  0  0
 64131  1  0  0  0
 65132  1  0  0  0
 68 72  1  0  0  0
 71 72  1  0  0  0
 71 73  1  0  0  0
 71133  1  0  0  0
 71134  1  0  0  0
 72135  1  0  0  0
 72136  1  0  0  0
 73137  1  0  0  0
M  ISO  4   1 100  68 101  72 101  73 100
M  END
> <chiral flag>
0

> <version>
0

> <s_m_source_file>
/data/baiqing/PycharmProjects/Reinvent-master-3.2/result/LINK_invent/BTK/process_docking_weight1_custom_product_contain_oxygen_bond_distance_aromatic_linkinvent_7_9_3/rearranged_h_0003.sdf

> <i_m_source_file_index>
76

> <r_mmod_Potential_Energy-OPLS-2005>
6948.9697265625

> <r_mmod_Stretch_Energy-OPLS-2005>
3136.46411132812

> <r_mmod_Bend_Energy-OPLS-2005>
1268.50207519531

> <r_mmod_Torsional_Energy-OPLS-2005>
217.324829101562

> <r_mmod_Improper_Torsional_Energy-OPLS-2005>
4.82364273071289

> <r_mmod_Van_der_Waal_Energy-OPLS-2005>
120.95548248291

> <r_mmod_Electrostatic_Energy-OPLS-2005>
-391.247985839844

> <r_mmod_Solvation_Energy-OPLS-2005>
-221.174652099609

> <b_mmod_Minimization_Converged-OPLS-2005>
1

> <r_mmod_RMS_Derivative-OPLS-2005>
0.042349461466074

$$$$
76
                    3D
 Structure written by MMmdl.
194203  0  0  1  0            999 V2000
  -30.7094  -14.3894   20.5664 C   0  0  0  0  0  0
  -30.4124  -12.2430   19.4261 C   0  0  0  0  0  0
  -29.4893  -12.4790   18.2118 C   0  0  0  0  0  0
  -28.0112  -12.3473   18.6270 C   0  0  0  0  0  0
  -27.6647  -13.1883   19.8868 C   0  0  2  0  0  0
  -28.6988  -12.9380   21.0079 C   0  0  0  0  0  0
  -25.2593  -13.8103   20.5691 C   0  0  0  0  0  0
  -24.1838  -13.0397   20.9207 C   0  0  0  0  0  0
  -24.6377  -11.6856   20.8749 C   0  0  0  0  0  0
  -23.9073  -10.4230   21.0398 C   0  0  0  0  0  0
  -24.3616   -9.4134   21.9174 C   0  0  0  0  0  0
  -23.6268   -8.2187   22.0738 C   0  0  0  0  0  0
  -22.4252   -8.0244   21.3527 C   0  0  0  0  0  0
  -21.9898   -9.0220   20.4640 C   0  0  0  0  0  0
  -22.7243  -10.2078   20.3038 C   0  0  0  0  0  0
  -21.6857   -6.0712   22.5268 C   0  0  0  0  0  0
  -21.4024   -6.5616   23.8207 C   0  0  0  0  0  0
  -21.3647   -5.6776   24.9168 C   0  0  0  0  0  0
  -21.6035   -4.3047   24.7235 C   0  0  0  0  0  0
  -21.8811   -3.8125   23.4349 C   0  0  0  0  0  0
  -21.9195   -4.6946   22.3406 C   0  0  0  0  0  0
  -22.7876  -13.5228   21.1885 C   0  0  0  0  0  0
  -22.1662   -4.2123   21.0989 F   0  0  0  0  0  0
  -21.5612   -3.4521   25.7743 F   0  0  0  0  0  0
  -30.0370  -13.2165   20.4596 N   0  0  0  0  0  0
  -26.3024  -12.9246   20.3425 N   0  0  0  0  0  0
  -25.9289  -11.6419   20.5792 N   0  0  0  0  0  0
  -22.0523  -12.8183   22.0422 N   0  0  0  0  0  0
  -25.4349  -15.1799   20.4037 N   0  0  0  0  0  0
  -31.8529  -14.5274   20.1477 O   0  0  0  0  0  0
  -21.6626   -6.8839   21.4226 O   0  0  0  0  0  0
  -22.3572  -14.5569   20.6795 O   0  0  0  0  0  0
  -24.5968  -31.8737   23.2183 C   0  0  0  0  0  0
  -25.8902  -32.4867   23.8451 C   0  0  1  0  0  0
  -27.2615  -27.5196   20.1147 C   0  0  0  0  0  0
  -25.5783  -33.8664   24.2365 N   0  0  0  0  0  0
  -23.3831  -30.4958   21.5524 C   0  0  2  0  0  0
  -24.8385  -28.9711   20.1185 C   0  0  0  0  0  0
  -22.7324  -29.4658   22.4993 C   0  0  0  0  0  0
  -18.0251  -28.1377   22.8488 C   0  0  0  0  0  0
  -24.1465  -36.7372   23.2638 C   0  0  0  0  0  0
  -25.8951  -30.8731   21.3532 C   0  0  0  0  0  0
  -25.9809  -29.5054   20.7230 C   0  0  0  0  0  0
  -27.1822  -28.7851   20.7399 C   0  0  0  0  0  0
  -26.1038  -26.9867   19.5084 C   0  0  0  0  0  0
  -24.8908  -27.7042   19.5114 C   0  0  0  0  0  0
  -23.5914  -29.8237   20.1662 C   0  0  0  0  0  0
  -25.4079  -36.3149   24.0343 C   0  0  1  0  0  0
  -20.5827  -28.3632   23.1356 C   0  0  2  0  0  0
  -20.6732  -26.9376   22.5446 C   0  0  0  0  0  0
  -19.5735  -26.6381   21.5214 C   0  0  0  0  0  0
  -18.1902  -26.7934   22.1597 C   0  0  0  0  0  0
  -19.1495  -28.8818   23.2931 C   0  0  0  0  0  0
  -18.9425  -30.1421   23.8949 C   0  0  0  0  0  0
  -17.6430  -30.6578   24.0579 C   0  0  0  0  0  0
  -25.8985  -34.9497   23.5160 C   0  0  0  0  0  0
  -16.5324  -29.9099   23.6306 C   0  0  0  0  0  0
  -16.7243  -28.6517   23.0331 C   0  0  0  0  0  0
  -26.4417  -31.6629   25.0725 C   0  0  0  0  0  0
  -25.3749  -31.3721   26.1531 C   0  0  0  0  0  0
  -27.0211  -30.3082   24.6007 C   0  0  0  0  0  0
  -27.6036  -32.4339   25.7430 C   0  0  0  0  0  0
  -27.5584  -37.1823   24.8447 C   0  0  0  0  0  0
  -21.4058  -29.3010   22.3765 N   0  0  0  0  0  0
  -26.4284  -37.3815   23.9406 N   0  0  0  0  0  0
  -24.6429  -31.0942   22.1021 N   0  0  0  0  0  0
  -23.4157  -28.8177   23.2968 O   0  0  0  0  0  0
  -28.4158  -26.7782   20.0351 O   0  0  0  0  0  0
  -26.5578  -34.8921   22.4738 O   0  0  0  0  0  0
  -23.5196  -32.1427   23.7651 O   0  0  0  0  0  0
  -32.3044  -21.0346   21.5205 C   0  0  0  0  0  0
  -31.6765  -21.6017   20.3965 C   0  0  0  0  0  0
  -34.3014  -20.6380   20.1879 C   0  0  0  0  0  0
  -33.6097  -20.5200   21.4092 C   0  0  0  0  0  0
  -32.3392  -21.6553   19.1490 C   0  0  0  0  0  0
  -33.6746  -21.1843   19.0498 C   0  0  0  0  0  0
  -32.9624  -25.8440   18.1070 C   0  0  0  0  0  0
  -30.9062  -25.7478   16.6050 C   0  0  0  0  0  0
  -32.6713  -24.3961   18.5563 C   0  0  0  0  0  0
  -30.6249  -24.3346   17.1431 C   0  0  0  0  0  0
  -31.7337  -26.6155   17.5711 C   0  0  1  0  0  0
  -34.4562  -21.2217   17.7450 C   0  0  0  0  0  0
  -31.5701  -22.2088   17.9473 C   0  0  0  0  0  0
  -34.2387  -19.7965   22.5845 C   0  0  0  0  0  0
  -32.2398  -17.3297   19.3451 C   0  0  0  0  0  0
  -33.7815  -17.2662   19.4984 C   0  0  0  0  0  0
  -31.3940  -17.5241   20.6251 C   0  0  0  0  0  0
  -34.3890  -16.6517   20.7866 C   0  0  0  0  0  0
  -30.0064  -16.8427   20.5779 C   0  0  0  0  0  0
  -30.7473  -26.6370   19.9192 C   0  0  0  0  0  0
  -35.0074  -17.6766   21.7613 C   0  0  0  0  0  0
  -29.5935  -27.2640   20.6817 C   0  0  0  0  0  0
  -29.9413  -15.4186   20.9536 N   0  0  0  0  0  0
  -31.8643  -23.6231   17.5663 N   0  3  2  0  0  0
  -30.8979  -27.2885   18.5945 N   0  3  0  0  0  0
  -34.0224  -18.3885   22.5037 O   0  0  0  0  0  0
  -31.4613  -12.3109   19.1340 H   0  0  0  0  0  0
  -30.2787  -11.2295   19.8046 H   0  0  0  0  0  0
  -29.7098  -11.7511   17.4286 H   0  0  0  0  0  0
  -29.6757  -13.4623   17.7760 H   0  0  0  0  0  0
  -27.8183  -11.2930   18.8298 H   0  0  0  0  0  0
  -27.3579  -12.6178   17.7955 H   0  0  0  0  0  0
  -27.7268  -14.2377   19.5981 H   0  0  0  0  0  0
  -28.6490  -11.8976   21.3379 H   0  0  0  0  0  0
  -28.4780  -13.5300   21.8977 H   0  0  0  0  0  0
  -25.2741   -9.5566   22.4802 H   0  0  0  0  0  0
  -23.9919   -7.4575   22.7474 H   0  0  0  0  0  0
  -21.0802   -8.8783   19.8978 H   0  0  0  0  0  0
  -22.3712  -10.9632   19.6162 H   0  0  0  0  0  0
  -21.2039   -7.6127   23.9690 H   0  0  0  0  0  0
  -21.1492   -6.0515   25.9082 H   0  0  0  0  0  0
  -22.0616   -2.7594   23.2878 H   0  0  0  0  0  0
  -22.4129  -11.9774   22.4692 H   0  0  0  0  0  0
  -21.1169  -13.1192   22.2747 H   0  0  0  0  0  0
  -24.6804  -15.8438   20.5369 H   0  0  0  0  0  0
  -26.2868  -15.6096   20.0681 H   0  0  0  0  0  0
  -26.6975  -32.5660   23.1246 H   0  0  0  0  0  0
  -24.9872  -33.9861   25.0466 H   0  0  0  0  0  0
  -22.6650  -31.3072   21.4159 H   0  0  0  0  0  0
  -23.3701  -35.9738   23.3305 H   0  0  0  0  0  0
  -24.3558  -36.8979   22.2052 H   0  0  0  0  0  0
  -23.7247  -37.6589   23.6654 H   0  0  0  0  0  0
  -25.9721  -31.6274   20.5689 H   0  0  0  0  0  0
  -26.7941  -30.9561   21.9509 H   0  0  0  0  0  0
  -28.0197  -29.2483   21.2370 H   0  0  0  0  0  0
  -26.1455  -26.0201   19.0278 H   0  0  0  0  0  0
  -24.0143  -27.2850   19.0361 H   0  0  0  0  0  0
  -23.6892  -30.5968   19.4030 H   0  0  0  0  0  0
  -22.7222  -29.2297   19.8760 H   0  0  0  0  0  0
  -25.1253  -36.2037   25.0842 H   0  0  0  0  0  0
  -20.9940  -28.3207   24.1467 H   0  0  0  0  0  0
  -20.5595  -26.2235   23.3616 H   0  0  0  0  0  0
  -21.6613  -26.7404   22.1264 H   0  0  0  0  0  0
  -19.6886  -25.6292   21.1222 H   0  0  0  0  0  0
  -19.6719  -27.3209   20.6761 H   0  0  0  0  0  0
  -17.4188  -26.6704   21.3982 H   0  0  0  0  0  0
  -18.0289  -26.0067   22.8977 H   0  0  0  0  0  0
  -19.7899  -30.7215   24.2360 H   0  0  0  0  0  0
  -17.4989  -31.6259   24.5175 H   0  0  0  0  0  0
  -15.5328  -30.3025   23.7589 H   0  0  0  0  0  0
  -15.8642  -28.0856   22.7021 H   0  0  0  0  0  0
  -24.5897  -30.7074   25.7908 H   0  0  0  0  0  0
  -24.8980  -32.2884   26.5023 H   0  0  0  0  0  0
  -25.8152  -30.8882   27.0258 H   0  0  0  0  0  0
  -26.2694  -29.6863   24.1125 H   0  0  0  0  0  0
  -27.4070  -29.7285   25.4405 H   0  0  0  0  0  0
  -27.8491  -30.4410   23.9038 H   0  0  0  0  0  0
  -27.2658  -33.3592   26.2103 H   0  0  0  0  0  0
  -28.3754  -32.6985   25.0192 H   0  0  0  0  0  0
  -28.0815  -31.8434   26.5255 H   0  0  0  0  0  0
  -28.2591  -38.0126   24.7479 H   0  0  0  0  0  0
  -28.1077  -36.2656   24.6260 H   0  0  0  0  0  0
  -27.2317  -37.1462   25.8851 H   0  0  0  0  0  0
  -20.9168  -29.8757   21.7043 H   0  0  0  0  0  0
  -26.0184  -38.2890   24.1440 H   0  0  0  0  0  0
  -31.7675  -20.9623   22.4573 H   0  0  0  0  0  0
  -30.6636  -21.9713   20.4926 H   0  0  0  0  0  0
  -35.3064  -20.2502   20.1048 H   0  0  0  0  0  0
  -33.6988  -25.7899   17.3065 H   0  0  0  0  0  0
  -33.4551  -26.3964   18.9100 H   0  0  0  0  0  0
  -29.9666  -26.2424   16.3528 H   0  0  0  0  0  0
  -31.4474  -25.6611   15.6626 H   0  0  0  0  0  0
  -32.1911  -24.3679   19.5311 H   0  0  0  0  0  0
  -33.6355  -23.9145   18.7117 H   0  0  0  0  0  0
  -30.1261  -23.7602   16.3603 H   0  0  0  0  0  0
  -29.9195  -24.3846   17.9744 H   0  0  0  0  0  0
  -32.1179  -27.4483   16.9799 H   0  0  0  0  0  0
  -35.3864  -20.6572   17.8296 H   0  0  0  0  0  0
  -34.7228  -22.2410   17.4658 H   0  0  0  0  0  0
  -33.8890  -20.7723   16.9320 H   0  0  0  0  0  0
  -30.5105  -22.1069   18.1876 H   0  0  0  0  0  0
  -31.7104  -21.5627   17.0825 H   0  0  0  0  0  0
  -33.7658  -20.1584   23.4987 H   0  0  0  0  0  0
  -35.2982  -20.0493   22.6757 H   0  0  0  0  0  0
  -31.9119  -16.4447   18.8032 H   0  0  0  0  0  0
  -31.9948  -18.1324   18.6498 H   0  0  0  0  0  0
  -34.2259  -18.2370   19.3075 H   0  0  0  0  0  0
  -34.1301  -16.6629   18.6577 H   0  0  0  0  0  0
  -31.2446  -18.5988   20.7356 H   0  0  0  0  0  0
  -31.9084  -17.2182   21.5328 H   0  0  0  0  0  0
  -35.2088  -16.0019   20.4733 H   0  0  0  0  0  0
  -33.6943  -15.9866   21.2970 H   0  0  0  0  0  0
  -29.5435  -16.9905   19.5981 H   0  0  0  0  0  0
  -29.3506  -17.3524   21.2840 H   0  0  0  0  0  0
  -30.5189  -25.5785   19.8344 H   0  0  0  0  0  0
  -31.6722  -26.7432   20.4882 H   0  0  0  0  0  0
  -35.6783  -18.3370   21.2130 H   0  0  0  0  0  0
  -35.6397  -17.1629   22.4854 H   0  0  0  0  0  0
  -29.7340  -28.3430   20.6547 H   0  0  0  0  0  0
  -29.5947  -26.9458   21.7258 H   0  0  0  0  0  0
  -29.0550  -15.1179   21.3279 H   0  0  0  0  0  0
  -32.4395  -23.5441   16.7395 H   0  0  0  0  0  0
  -29.9788  -27.4367   18.2023 H   0  0  0  0  0  0
  -31.2803  -28.2125   18.7408 H   0  0  0  0  0  0
  1 25  1  0  0  0
  1 30  2  0  0  0
  1 93  1  0  0  0
  2  3  1  0  0  0
  2 25  1  0  0  0
  2 97  1  0  0  0
  2 98  1  0  0  0
  3  4  1  0  0  0
  3 99  1  0  0  0
  3100  1  0  0  0
  4  5  1  0  0  0
  4101  1  0  0  0
  4102  1  0  0  0
  5  6  1  0  0  0
  5 26  1  0  0  0
  5103  1  0  0  0
  6 25  1  0  0  0
  6104  1  0  0  0
  6105  1  0  0  0
  7  8  2  0  0  0
  7 26  1  0  0  0
  7 29  1  0  0  0
  8  9  1  0  0  0
  8 22  1  0  0  0
  9 10  1  0  0  0
  9 27  2  0  0  0
 10 11  2  0  0  0
 10 15  1  0  0  0
 11 12  1  0  0  0
 11106  1  0  0  0
 12 13  2  0  0  0
 12107  1  0  0  0
 13 14  1  0  0  0
 13 31  1  0  0  0
 14 15  2  0  0  0
 14108  1  0  0  0
 15109  1  0  0  0
 16 17  2  0  0  0
 16 21  1  0  0  0
 16 31  1  0  0  0
 17 18  1  0  0  0
 17110  1  0  0  0
 18 19  2  0  0  0
 18111  1  0  0  0
 19 20  1  0  0  0
 19 24  1  0  0  0
 20 21  2  0  0  0
 20112  1  0  0  0
 21 23  1  0  0  0
 22 28  1  0  0  0
 22 32  2  0  0  0
 26 27  1  0  0  0
 28113  1  0  0  0
 28114  1  0  0  0
 29115  1  0  0  0
 29116  1  0  0  0
 33 34  1  0  0  0
 33 66  1  0  0  0
 33 70  2  0  0  0
 34 36  1  0  0  0
 34 59  1  0  0  0
 34117  1  0  0  0
 35 44  2  0  0  0
 35 45  1  0  0  0
 35 68  1  0  0  0
 36 56  1  0  0  0
 36118  1  0  0  0
 37 39  1  0  0  0
 37 47  1  0  0  0
 37 66  1  0  0  0
 37119  1  0  0  0
 38 43  2  0  0  0
 38 46  1  0  0  0
 38 47  1  0  0  0
 39 64  1  0  0  0
 39 67  2  0  0  0
 40 52  1  0  0  0
 40 53  2  0  0  0
 40 58  1  0  0  0
 41120  1  0  0  0
 41121  1  0  0  0
 41122  1  0  0  0
 41 48  1  0  0  0
 42 43  1  0  0  0
 42 66  1  0  0  0
 42123  1  0  0  0
 42124  1  0  0  0
 43 44  1  0  0  0
 44125  1  0  0  0
 45 46  2  0  0  0
 45126  1  0  0  0
 46127  1  0  0  0
 47128  1  0  0  0
 47129  1  0  0  0
 48 56  1  0  0  0
 48 65  1  0  0  0
 48130  1  0  0  0
 49 50  1  0  0  0
 49 53  1  0  0  0
 49 64  1  0  0  0
 49131  1  0  0  0
 50 51  1  0  0  0
 50132  1  0  0  0
 50133  1  0  0  0
 51 52  1  0  0  0
 51134  1  0  0  0
 51135  1  0  0  0
 52136  1  0  0  0
 52137  1  0  0  0
 53 54  1  0  0  0
 54 55  2  0  0  0
 54138  1  0  0  0
 55 57  1  0  0  0
 55139  1  0  0  0
 56 69  2  0  0  0
 57 58  2  0  0  0
 57140  1  0  0  0
 58141  1  0  0  0
 59 60  1  0  0  0
 59 61  1  0  0  0
 59 62  1  0  0  0
 60142  1  0  0  0
 60143  1  0  0  0
 60144  1  0  0  0
 61145  1  0  0  0
 61146  1  0  0  0
 61147  1  0  0  0
 62148  1  0  0  0
 62149  1  0  0  0
 62150  1  0  0  0
 63 65  1  0  0  0
 63151  1  0  0  0
 63152  1  0  0  0
 63153  1  0  0  0
 64154  1  0  0  0
 65155  1  0  0  0
 68 92  1  0  0  0
 71 72  2  0  0  0
 71 74  1  0  0  0
 71156  1  0  0  0
 72 75  1  0  0  0
 72157  1  0  0  0
 73 74  2  0  0  0
 73 76  1  0  0  0
 73158  1  0  0  0
 74 84  1  0  0  0
 75 76  2  0  0  0
 75 83  1  0  0  0
 76 82  1  0  0  0
 77 79  1  0  0  0
 77 81  1  0  0  0
 77159  1  0  0  0
 77160  1  0  0  0
 78 80  1  0  0  0
 78 81  1  0  0  0
 78161  1  0  0  0
 78162  1  0  0  0
 79 94  1  0  0  0
 79163  1  0  0  0
 79164  1  0  0  0
 80 94  1  0  0  0
 80165  1  0  0  0
 80166  1  0  0  0
 81 95  1  0  0  0
 81167  1  0  0  0
 82168  1  0  0  0
 82169  1  0  0  0
 82170  1  0  0  0
 83171  1  0  0  0
 83172  1  0  0  0
 83 94  1  0  0  0
 84 96  1  0  0  0
 84173  1  0  0  0
 84174  1  0  0  0
 85 86  1  0  0  0
 85 87  1  0  0  0
 85175  1  0  0  0
 85176  1  0  0  0
 86 88  1  0  0  0
 86177  1  0  0  0
 86178  1  0  0  0
 87 89  1  0  0  0
 87179  1  0  0  0
 87180  1  0  0  0
 88 91  1  0  0  0
 88181  1  0  0  0
 88182  1  0  0  0
 89 93  1  0  0  0
 89183  1  0  0  0
 89184  1  0  0  0
 90 92  1  0  0  0
 90 95  1  0  0  0
 90185  1  0  0  0
 90186  1  0  0  0
 91 96  1  0  0  0
 91187  1  0  0  0
 91188  1  0  0  0
 92189  1  0  0  0
 92190  1  0  0  0
 93191  1  0  0  0
 94192  1  0  0  0
 95193  1  0  0  0
 95194  1  0  0  0
M  CHG  2  94   1  95   1
M  ISO  4   1 100  68 101  92 101  93 100
M  END
> <chiral flag>
0

> <version>
0

> <s_m_source_file>
/data/baiqing/PycharmProjects/Reinvent-master-3.2/result/LINK_invent/BTK/process_docking_weight1_custom_product_contain_oxygen_bond_distance_aromatic_linkinvent_7_9_3/rearranged_h_0003.sdf

> <i_m_source_file_index>
77

> <r_mmod_Potential_Energy-OPLS-2005>
-183.379287719727

> <r_mmod_Stretch_Energy-OPLS-2005>
37.5673942565918

> <r_mmod_Bend_Energy-OPLS-2005>
145.01416015625

> <r_mmod_Torsional_Energy-OPLS-2005>
323.366851806641

> <r_mmod_Improper_Torsional_Energy-OPLS-2005>
6.3149528503418

> <r_mmod_Van_der_Waal_Energy-OPLS-2005>
170.487365722656

> <r_mmod_Electrostatic_Energy-OPLS-2005>
82.5374069213867

> <r_mmod_Solvation_Energy-OPLS-2005>
-959.525207519531

> <b_mmod_Minimization_Converged-OPLS-2005>
0

> <r_mmod_RMS_Derivative-OPLS-2005>
4.10536956787109

$$$$
77
                    3D
 Structure written by MMmdl.
149157  0  0  1  0            999 V2000
  -30.5718  -14.8920   20.4309 C   0  0  0  0  0  0
  -30.4322  -12.5520   19.4945 C   0  0  0  0  0  0
  -29.5169  -12.5184   18.2507 C   0  0  0  0  0  0
  -28.0461  -12.3220   18.6639 C   0  0  0  0  0  0
  -27.6295  -13.2475   19.8376 C   0  0  2  0  0  0
  -28.6711  -13.2606   20.9757 C   0  0  0  0  0  0
  -25.2464  -13.8226   20.5711 C   0  0  0  0  0  0
  -24.1780  -13.0447   20.9228 C   0  0  0  0  0  0
  -24.6395  -11.6931   20.8754 C   0  0  0  0  0  0
  -23.9081  -10.4297   21.0405 C   0  0  0  0  0  0
  -24.3630   -9.4211   21.9180 C   0  0  0  0  0  0
  -23.6304   -8.2246   22.0750 C   0  0  0  0  0  0
  -22.4281   -8.0282   21.3547 C   0  0  0  0  0  0
  -21.9921   -9.0258   20.4649 C   0  0  0  0  0  0
  -22.7253  -10.2134   20.3055 C   0  0  0  0  0  0
  -21.6857   -6.0733   22.5282 C   0  0  0  0  0  0
  -21.4017   -6.5640   23.8213 C   0  0  0  0  0  0
  -21.3660   -5.6793   24.9179 C   0  0  0  0  0  0
  -21.6043   -4.3054   24.7226 C   0  0  0  0  0  0
  -21.8820   -3.8145   23.4350 C   0  0  0  0  0  0
  -21.9197   -4.6963   22.3404 C   0  0  0  0  0  0
  -22.7799  -13.5212   21.1875 C   0  0  0  0  0  0
  -22.1664   -4.2147   21.0982 F   0  0  0  0  0  0
  -21.5629   -3.4535   25.7739 F   0  0  0  0  0  0
  -29.9516  -13.6506   20.3766 N   0  0  0  0  0  0
  -26.2884  -12.9458   20.3242 N   0  0  0  0  0  0
  -25.9327  -11.6586   20.5745 N   0  0  0  0  0  0
  -22.0449  -12.8201   22.0434 N   0  0  0  0  0  0
  -25.4133  -15.1958   20.4131 N   0  0  0  0  0  0
  -31.7769  -14.9385   20.1654 O   0  0  0  0  0  0
  -21.6648   -6.8877   21.4242 O   0  0  0  0  0  0
  -22.3484  -14.5508   20.6708 O   0  0  0  0  0  0
  -24.6392  -31.8463   23.1913 C   0  0  0  0  0  0
  -25.9180  -32.4710   23.8285 C   0  0  1  0  0  0
  -27.2144  -27.1635   20.1563 C   0  0  0  0  0  0
  -25.5945  -33.8516   24.2206 N   0  0  0  0  0  0
  -23.4417  -30.4672   21.5344 C   0  0  2  0  0  0
  -24.8911  -28.8942   20.1126 C   0  0  0  0  0  0
  -22.7546  -29.4566   22.4863 C   0  0  0  0  0  0
  -18.0297  -28.1402   22.8481 C   0  0  0  0  0  0
  -24.1489  -36.7267   23.2643 C   0  0  0  0  0  0
  -25.9940  -30.7271   21.3874 C   0  0  0  0  0  0
  -26.0639  -29.3377   20.7377 C   0  0  0  0  0  0
  -27.2252  -28.4838   20.7512 C   0  0  0  0  0  0
  -26.0242  -26.8169   19.4825 C   0  0  0  0  0  0
  -24.8811  -27.6450   19.4728 C   0  0  0  0  0  0
  -23.6677  -29.7961   20.1534 C   0  0  0  0  0  0
  -25.4119  -36.3043   24.0321 C   0  0  1  0  0  0
  -20.5914  -28.3720   23.1241 C   0  0  2  0  0  0
  -20.6789  -26.9425   22.5404 C   0  0  0  0  0  0
  -19.5765  -26.6385   21.5216 C   0  0  0  0  0  0
  -18.1943  -26.7945   22.1625 C   0  0  0  0  0  0
  -19.1557  -28.8878   23.2860 C   0  0  0  0  0  0
  -18.9476  -30.1477   23.8881 C   0  0  0  0  0  0
  -17.6476  -30.6599   24.0566 C   0  0  0  0  0  0
  -25.9064  -34.9417   23.5069 C   0  0  0  0  0  0
  -16.5364  -29.9097   23.6338 C   0  0  0  0  0  0
  -16.7285  -28.6519   23.0352 C   0  0  0  0  0  0
  -26.4511  -31.6571   25.0713 C   0  0  0  0  0  0
  -25.3704  -31.3758   26.1415 C   0  0  0  0  0  0
  -27.0374  -30.2973   24.6273 C   0  0  0  0  0  0
  -27.6047  -32.4329   25.7496 C   0  0  0  0  0  0
  -27.5572  -37.1792   24.8466 C   0  0  0  0  0  0
  -21.4243  -29.3055   22.3614 N   0  0  0  0  0  0
  -26.4284  -37.3753   23.9406 N   0  0  0  0  0  0
  -24.7112  -31.0345   22.0930 N   0  0  0  0  0  0
  -23.4207  -28.8110   23.2995 O   0  0  0  0  0  0
  -28.2872  -26.2129   20.1698 O   0  0  0  0  0  0
  -26.5650  -34.8912   22.4649 O   0  0  0  0  0  0
  -23.5519  -32.1332   23.7144 O   0  0  0  0  0  0
  -29.4655  -19.8961   21.6014 C   0  0  0  0  0  0
  -29.3788  -19.7363   19.2513 C   0  0  0  0  0  0
  -29.1709  -21.3203   21.5199 C   0  0  0  0  0  0
  -29.0893  -21.1588   19.1702 C   0  0  0  0  0  0
  -29.6283  -19.0234   20.4707 C   0  0  0  0  0  0
  -29.0068  -22.0500   20.2940 C   0  0  0  0  0  0
  -30.3792  -17.5572   20.5435 C   0  0  0  0  0  0
  -29.0355  -23.6939   20.1448 C   0  0  0  0  0  0
  -29.8340  -16.0917   20.5747 N   0  0  0  0  0  0
  -27.8996  -24.6977   20.4172 N   0  0  0  0  0  0
  -31.4695  -12.6939   19.1879 H   0  0  0  0  0  0
  -30.4067  -11.5975   20.0229 H   0  0  0  0  0  0
  -29.8264  -11.7207   17.5735 H   0  0  0  0  0  0
  -29.6222  -13.4522   17.6960 H   0  0  0  0  0  0
  -27.9257  -11.2786   18.9562 H   0  0  0  0  0  0
  -27.3877  -12.4757   17.8083 H   0  0  0  0  0  0
  -27.5975  -14.2535   19.4183 H   0  0  0  0  0  0
  -28.7458  -12.2836   21.4549 H   0  0  0  0  0  0
  -28.3797  -13.9672   21.7548 H   0  0  0  0  0  0
  -25.2771   -9.5688   22.4760 H   0  0  0  0  0  0
  -24.0014   -7.4637   22.7470 H   0  0  0  0  0  0
  -21.0852   -8.8782   19.8954 H   0  0  0  0  0  0
  -22.3713  -10.9676   19.6167 H   0  0  0  0  0  0
  -21.2002   -7.6147   23.9719 H   0  0  0  0  0  0
  -21.1483   -6.0521   25.9084 H   0  0  0  0  0  0
  -22.0594   -2.7607   23.2853 H   0  0  0  0  0  0
  -22.4078  -11.9876   22.4838 H   0  0  0  0  0  0
  -21.1059  -13.1212   22.2618 H   0  0  0  0  0  0
  -24.6429  -15.8455   20.5266 H   0  0  0  0  0  0
  -26.2529  -15.6380   20.0623 H   0  0  0  0  0  0
  -26.7239  -32.5320   23.1006 H   0  0  0  0  0  0
  -25.0073  -33.9635   25.0341 H   0  0  0  0  0  0
  -22.7434  -31.2924   21.3812 H   0  0  0  0  0  0
  -23.3752  -35.9598   23.3297 H   0  0  0  0  0  0
  -24.3576  -36.8902   22.2060 H   0  0  0  0  0  0
  -23.7243  -37.6464   23.6677 H   0  0  0  0  0  0
  -26.1433  -31.4769   20.6094 H   0  0  0  0  0  0
  -26.8687  -30.7815   22.0239 H   0  0  0  0  0  0
  -28.1223  -28.8192   21.2523 H   0  0  0  0  0  0
  -25.9591  -25.8668   18.9737 H   0  0  0  0  0  0
  -23.9872  -27.3039   18.9691 H   0  0  0  0  0  0
  -23.8062  -30.5707   19.3984 H   0  0  0  0  0  0
  -22.7831  -29.2385   19.8410 H   0  0  0  0  0  0
  -25.1304  -36.1877   25.0812 H   0  0  0  0  0  0
  -21.0005  -28.3308   24.1361 H   0  0  0  0  0  0
  -20.5687  -26.2333   23.3621 H   0  0  0  0  0  0
  -21.6655  -26.7440   22.1197 H   0  0  0  0  0  0
  -19.6923  -25.6290   21.1257 H   0  0  0  0  0  0
  -19.6700  -27.3189   20.6743 H   0  0  0  0  0  0
  -17.4210  -26.6686   21.4028 H   0  0  0  0  0  0
  -18.0339  -26.0093   22.9030 H   0  0  0  0  0  0
  -19.7951  -30.7299   24.2237 H   0  0  0  0  0  0
  -17.5029  -31.6273   24.5176 H   0  0  0  0  0  0
  -15.5368  -30.2995   23.7670 H   0  0  0  0  0  0
  -15.8686  -28.0837   22.7066 H   0  0  0  0  0  0
  -24.5894  -30.7090   25.7741 H   0  0  0  0  0  0
  -24.8884  -32.2945   26.4772 H   0  0  0  0  0  0
  -25.7996  -30.8982   27.0237 H   0  0  0  0  0  0
  -26.2988  -29.6699   24.1272 H   0  0  0  0  0  0
  -27.3996  -29.7259   25.4832 H   0  0  0  0  0  0
  -27.8889  -30.4216   23.9578 H   0  0  0  0  0  0
  -27.2647  -33.3653   26.2013 H   0  0  0  0  0  0
  -28.3892  -32.6849   25.0348 H   0  0  0  0  0  0
  -28.0677  -31.8495   26.5465 H   0  0  0  0  0  0
  -28.2587  -38.0093   24.7506 H   0  0  0  0  0  0
  -28.1072  -36.2621   24.6297 H   0  0  0  0  0  0
  -27.2292  -37.1444   25.8871 H   0  0  0  0  0  0
  -20.9436  -29.8773   21.6807 H   0  0  0  0  0  0
  -26.0154  -38.2823   24.1414 H   0  0  0  0  0  0
  -29.6678  -19.4875   22.5826 H   0  0  0  0  0  0
  -29.5054  -19.2003   18.3205 H   0  0  0  0  0  0
  -29.1596  -21.8830   22.4432 H   0  0  0  0  0  0
  -29.0160  -21.5916   18.1819 H   0  0  0  0  0  0
  -31.0263  -17.6205   21.4194 H   0  0  0  0  0  0
  -31.0784  -17.5746   19.7064 H   0  0  0  0  0  0
  -29.3674  -23.8952   19.1256 H   0  0  0  0  0  0
  -29.8674  -24.0186   20.7713 H   0  0  0  0  0  0
  -28.8422  -15.9890   20.7262 H   0  0  0  0  0  0
  -27.1475  -24.5049   19.7639 H   0  0  0  0  0  0
  1 25  1  0  0  0
  1 30  2  0  0  0
  1 79  1  0  0  0
  2  3  1  0  0  0
  2 25  1  0  0  0
  2 81  1  0  0  0
  2 82  1  0  0  0
  3  4  1  0  0  0
  3 83  1  0  0  0
  3 84  1  0  0  0
  4  5  1  0  0  0
  4 85  1  0  0  0
  4 86  1  0  0  0
  5  6  1  0  0  0
  5 26  1  0  0  0
  5 87  1  0  0  0
  6 25  1  0  0  0
  6 88  1  0  0  0
  6 89  1  0  0  0
  7  8  2  0  0  0
  7 26  1  0  0  0
  7 29  1  0  0  0
  8  9  1  0  0  0
  8 22  1  0  0  0
  9 10  1  0  0  0
  9 27  2  0  0  0
 10 11  2  0  0  0
 10 15  1  0  0  0
 11 12  1  0  0  0
 11 90  1  0  0  0
 12 13  2  0  0  0
 12 91  1  0  0  0
 13 14  1  0  0  0
 13 31  1  0  0  0
 14 15  2  0  0  0
 14 92  1  0  0  0
 15 93  1  0  0  0
 16 17  2  0  0  0
 16 21  1  0  0  0
 16 31  1  0  0  0
 17 18  1  0  0  0
 17 94  1  0  0  0
 18 19  2  0  0  0
 18 95  1  0  0  0
 19 20  1  0  0  0
 19 24  1  0  0  0
 20 21  2  0  0  0
 20 96  1  0  0  0
 21 23  1  0  0  0
 22 28  1  0  0  0
 22 32  2  0  0  0
 26 27  1  0  0  0
 28 97  1  0  0  0
 28 98  1  0  0  0
 29 99  1  0  0  0
 29100  1  0  0  0
 33 34  1  0  0  0
 33 66  1  0  0  0
 33 70  2  0  0  0
 34 36  1  0  0  0
 34 59  1  0  0  0
 34101  1  0  0  0
 35 44  2  0  0  0
 35 45  1  0  0  0
 35 68  1  0  0  0
 36 56  1  0  0  0
 36102  1  0  0  0
 37 39  1  0  0  0
 37 47  1  0  0  0
 37 66  1  0  0  0
 37103  1  0  0  0
 38 43  2  0  0  0
 38 46  1  0  0  0
 38 47  1  0  0  0
 39 64  1  0  0  0
 39 67  2  0  0  0
 40 52  1  0  0  0
 40 53  2  0  0  0
 40 58  1  0  0  0
 41104  1  0  0  0
 41105  1  0  0  0
 41106  1  0  0  0
 41 48  1  0  0  0
 42 43  1  0  0  0
 42 66  1  0  0  0
 42107  1  0  0  0
 42108  1  0  0  0
 43 44  1  0  0  0
 44109  1  0  0  0
 45 46  2  0  0  0
 45110  1  0  0  0
 46111  1  0  0  0
 47112  1  0  0  0
 47113  1  0  0  0
 48 56  1  0  0  0
 48 65  1  0  0  0
 48114  1  0  0  0
 49 50  1  0  0  0
 49 53  1  0  0  0
 49 64  1  0  0  0
 49115  1  0  0  0
 50 51  1  0  0  0
 50116  1  0  0  0
 50117  1  0  0  0
 51 52  1  0  0  0
 51118  1  0  0  0
 51119  1  0  0  0
 52120  1  0  0  0
 52121  1  0  0  0
 53 54  1  0  0  0
 54 55  2  0  0  0
 54122  1  0  0  0
 55 57  1  0  0  0
 55123  1  0  0  0
 56 69  2  0  0  0
 57 58  2  0  0  0
 57124  1  0  0  0
 58125  1  0  0  0
 59 60  1  0  0  0
 59 61  1  0  0  0
 59 62  1  0  0  0
 60126  1  0  0  0
 60127  1  0  0  0
 60128  1  0  0  0
 61129  1  0  0  0
 61130  1  0  0  0
 61131  1  0  0  0
 62132  1  0  0  0
 62133  1  0  0  0
 62134  1  0  0  0
 63 65  1  0  0  0
 63135  1  0  0  0
 63136  1  0  0  0
 63137  1  0  0  0
 64138  1  0  0  0
 65139  1  0  0  0
 68 80  1  0  0  0
 71 73  2  0  0  0
 71 75  1  0  0  0
 71140  1  0  0  0
 72 74  1  0  0  0
 72 75  2  0  0  0
 72141  1  0  0  0
 73 76  1  0  0  0
 73142  1  0  0  0
 74 76  2  0  0  0
 74143  1  0  0  0
 75 77  1  0  0  0
 76 78  1  0  0  0
 77 79  1  0  0  0
 77144  1  0  0  0
 77145  1  0  0  0
 78 80  1  0  0  0
 78146  1  0  0  0
 78147  1  0  0  0
 79148  1  0  0  0
 80149  1  0  0  0
M  ISO  4   1 100  68 101  79 100  80 101
M  END
> <chiral flag>
0

> <version>
0

> <s_m_source_file>
/data/baiqing/PycharmProjects/Reinvent-master-3.2/result/LINK_invent/BTK/process_docking_weight1_custom_product_contain_oxygen_bond_distance_aromatic_linkinvent_7_9_3/rearranged_h_0003.sdf

> <i_m_source_file_index>
78

> <r_mmod_Potential_Energy-OPLS-2005>
346.456420898438

> <r_mmod_Stretch_Energy-OPLS-2005>
201.482864379883

> <r_mmod_Bend_Energy-OPLS-2005>
233.937316894531

> <r_mmod_Torsional_Energy-OPLS-2005>
229.643890380859

> <r_mmod_Improper_Torsional_Energy-OPLS-2005>
9.24978733062744

> <r_mmod_Van_der_Waal_Energy-OPLS-2005>
132.487014770508

> <r_mmod_Electrostatic_Energy-OPLS-2005>
-397.721405029297

> <r_mmod_Solvation_Energy-OPLS-2005>
-221.280807495117

> <b_mmod_Minimization_Converged-OPLS-2005>
0

> <r_mmod_RMS_Derivative-OPLS-2005>
1.1349310874939

$$$$
78
                    3D
 Structure written by MMmdl.
148156  0  0  1  0            999 V2000
  -30.5268  -14.8891   20.4500 C   0  0  0  0  0  0
  -30.4522  -12.5484   19.4888 C   0  0  0  0  0  0
  -29.5247  -12.5370   18.2497 C   0  0  0  0  0  0
  -28.0533  -12.3297   18.6601 C   0  0  0  0  0  0
  -27.6402  -13.2367   19.8488 C   0  0  2  0  0  0
  -28.6856  -13.2019   20.9863 C   0  0  0  0  0  0
  -25.2488  -13.8194   20.5649 C   0  0  0  0  0  0
  -24.1797  -13.0445   20.9222 C   0  0  0  0  0  0
  -24.6396  -11.6924   20.8772 C   0  0  0  0  0  0
  -23.9077  -10.4298   21.0427 C   0  0  0  0  0  0
  -24.3623   -9.4202   21.9194 C   0  0  0  0  0  0
  -23.6292   -8.2241   22.0763 C   0  0  0  0  0  0
  -22.4273   -8.0287   21.3553 C   0  0  0  0  0  0
  -21.9914   -9.0264   20.4660 C   0  0  0  0  0  0
  -22.7254  -10.2140   20.3072 C   0  0  0  0  0  0
  -21.6852   -6.0731   22.5273 C   0  0  0  0  0  0
  -21.4019   -6.5631   23.8208 C   0  0  0  0  0  0
  -21.3660   -5.6786   24.9165 C   0  0  0  0  0  0
  -21.6041   -4.3048   24.7215 C   0  0  0  0  0  0
  -21.8820   -3.8142   23.4338 C   0  0  0  0  0  0
  -21.9195   -4.6962   22.3393 C   0  0  0  0  0  0
  -22.7818  -13.5235   21.1863 C   0  0  0  0  0  0
  -22.1666   -4.2148   21.0972 F   0  0  0  0  0  0
  -21.5620   -3.4535   25.7729 F   0  0  0  0  0  0
  -29.9751  -13.6139   20.4100 N   0  0  0  0  0  0
  -26.2925  -12.9404   20.3259 N   0  0  0  0  0  0
  -25.9332  -11.6551   20.5765 N   0  0  0  0  0  0
  -22.0459  -12.8244   22.0428 N   0  0  0  0  0  0
  -25.4130  -15.1907   20.3901 N   0  0  0  0  0  0
  -31.7098  -15.0327   20.1181 O   0  0  0  0  0  0
  -21.6638   -6.8882   21.4239 O   0  0  0  0  0  0
  -22.3507  -14.5539   20.6695 O   0  0  0  0  0  0
  -24.6434  -31.8458   23.1912 C   0  0  0  0  0  0
  -25.9219  -32.4703   23.8297 C   0  0  1  0  0  0
  -27.2207  -27.1594   20.1456 C   0  0  0  0  0  0
  -25.5977  -33.8507   24.2219 N   0  0  0  0  0  0
  -23.4455  -30.4693   21.5353 C   0  0  2  0  0  0
  -24.8957  -28.9047   20.1096 C   0  0  0  0  0  0
  -22.7565  -29.4560   22.4840 C   0  0  0  0  0  0
  -18.0309  -28.1389   22.8472 C   0  0  0  0  0  0
  -24.1496  -36.7257   23.2638 C   0  0  0  0  0  0
  -26.0016  -30.7286   21.3875 C   0  0  0  0  0  0
  -26.0735  -29.3428   20.7271 C   0  0  0  0  0  0
  -27.2378  -28.4876   20.7289 C   0  0  0  0  0  0
  -26.0142  -26.8236   19.4867 C   0  0  0  0  0  0
  -24.8784  -27.6568   19.4737 C   0  0  0  0  0  0
  -23.6725  -29.8054   20.1521 C   0  0  0  0  0  0
  -25.4122  -36.3033   24.0320 C   0  0  1  0  0  0
  -20.5922  -28.3724   23.1214 C   0  0  2  0  0  0
  -20.6790  -26.9420   22.5390 C   0  0  0  0  0  0
  -19.5762  -26.6375   21.5196 C   0  0  0  0  0  0
  -18.1949  -26.7927   22.1615 C   0  0  0  0  0  0
  -19.1566  -28.8871   23.2842 C   0  0  0  0  0  0
  -18.9486  -30.1466   23.8872 C   0  0  0  0  0  0
  -17.6481  -30.6584   24.0556 C   0  0  0  0  0  0
  -25.9073  -34.9406   23.5071 C   0  0  0  0  0  0
  -16.5374  -29.9076   23.6323 C   0  0  0  0  0  0
  -16.7296  -28.6494   23.0348 C   0  0  0  0  0  0
  -26.4539  -31.6560   25.0731 C   0  0  0  0  0  0
  -25.3741  -31.3761   26.1448 C   0  0  0  0  0  0
  -27.0382  -30.2944   24.6313 C   0  0  0  0  0  0
  -27.6081  -32.4320   25.7512 C   0  0  0  0  0  0
  -27.5577  -37.1786   24.8461 C   0  0  0  0  0  0
  -21.4258  -29.3054   22.3589 N   0  0  0  0  0  0
  -26.4286  -37.3746   23.9410 N   0  0  0  0  0  0
  -24.7163  -31.0349   22.0927 N   0  0  0  0  0  0
  -23.4212  -28.8081   23.2967 O   0  0  0  0  0  0
  -28.2680  -26.1703   20.2243 O   0  0  0  0  0  0
  -26.5643  -34.8896   22.4642 O   0  0  0  0  0  0
  -23.5560  -32.1314   23.7150 O   0  0  0  0  0  0
  -30.2769  -19.9349   20.3051 C   0  0  0  0  0  0
  -27.9980  -19.4912   20.6741 C   0  0  0  0  0  0
  -30.5645  -18.4969   20.3734 C   0  0  0  0  0  0
  -28.2760  -18.0801   20.7570 C   0  0  0  0  0  0
  -28.9626  -20.5191   20.4294 C   0  0  0  0  0  0
  -29.5626  -17.4828   20.5964 C   0  0  0  0  0  0
  -28.4344  -22.0257   20.3192 C   0  0  0  0  0  0
  -28.8689  -23.3677   20.2570 C   0  0  0  0  0  0
  -27.9121  -24.6777   20.0279 C   0  0  0  0  0  0
  -29.6546  -15.9642   20.7141 N   0  0  0  0  0  0
  -31.4854  -12.7134   19.1802 H   0  0  0  0  0  0
  -30.4405  -11.5789   19.9889 H   0  0  0  0  0  0
  -29.8334  -11.7577   17.5522 H   0  0  0  0  0  0
  -29.6227  -13.4825   17.7136 H   0  0  0  0  0  0
  -27.9282  -11.2814   18.9342 H   0  0  0  0  0  0
  -27.3967  -12.5009   17.8059 H   0  0  0  0  0  0
  -27.6210  -14.2517   19.4516 H   0  0  0  0  0  0
  -28.7556  -12.2033   21.4194 H   0  0  0  0  0  0
  -28.3912  -13.8643   21.8021 H   0  0  0  0  0  0
  -25.2776   -9.5661   22.4760 H   0  0  0  0  0  0
  -23.9998   -7.4628   22.7478 H   0  0  0  0  0  0
  -21.0845   -8.8790   19.8961 H   0  0  0  0  0  0
  -22.3725  -10.9676   19.6173 H   0  0  0  0  0  0
  -21.2018   -7.6142   23.9708 H   0  0  0  0  0  0
  -21.1483   -6.0516   25.9071 H   0  0  0  0  0  0
  -22.0604   -2.7605   23.2837 H   0  0  0  0  0  0
  -22.4079  -11.9917   22.4823 H   0  0  0  0  0  0
  -21.1079  -13.1283   22.2638 H   0  0  0  0  0  0
  -24.6106  -15.8113   20.4106 H   0  0  0  0  0  0
  -26.2011  -15.5875   19.8965 H   0  0  0  0  0  0
  -26.7291  -32.5317   23.1030 H   0  0  0  0  0  0
  -25.0131  -33.9625   25.0374 H   0  0  0  0  0  0
  -22.7479  -31.2949   21.3840 H   0  0  0  0  0  0
  -23.3752  -35.9594   23.3301 H   0  0  0  0  0  0
  -24.3575  -36.8883   22.2050 H   0  0  0  0  0  0
  -23.7261  -37.6463   23.6666 H   0  0  0  0  0  0
  -26.1595  -31.4853   20.6177 H   0  0  0  0  0  0
  -26.8711  -30.7746   22.0310 H   0  0  0  0  0  0
  -28.1346  -28.8208   21.2323 H   0  0  0  0  0  0
  -25.9015  -25.8749   18.9862 H   0  0  0  0  0  0
  -23.9807  -27.3176   18.9749 H   0  0  0  0  0  0
  -23.8113  -30.5837   19.4003 H   0  0  0  0  0  0
  -22.7876  -29.2501   19.8376 H   0  0  0  0  0  0
  -25.1304  -36.1864   25.0811 H   0  0  0  0  0  0
  -21.0026  -28.3326   24.1331 H   0  0  0  0  0  0
  -20.5648  -26.2344   23.3617 H   0  0  0  0  0  0
  -21.6660  -26.7398   22.1210 H   0  0  0  0  0  0
  -19.6912  -25.6273   21.1251 H   0  0  0  0  0  0
  -19.6690  -27.3162   20.6707 H   0  0  0  0  0  0
  -17.4204  -26.6664   21.4034 H   0  0  0  0  0  0
  -18.0355  -26.0076   22.9017 H   0  0  0  0  0  0
  -19.7967  -30.7288   24.2224 H   0  0  0  0  0  0
  -17.5036  -31.6259   24.5171 H   0  0  0  0  0  0
  -15.5372  -30.2971   23.7649 H   0  0  0  0  0  0
  -15.8701  -28.0797   22.7074 H   0  0  0  0  0  0
  -24.5897  -30.7127   25.7784 H   0  0  0  0  0  0
  -24.8962  -32.2952   26.4850 H   0  0  0  0  0  0
  -25.8038  -30.8947   27.0242 H   0  0  0  0  0  0
  -26.2984  -29.6685   24.1304 H   0  0  0  0  0  0
  -27.3959  -29.7230   25.4890 H   0  0  0  0  0  0
  -27.8918  -30.4153   23.9639 H   0  0  0  0  0  0
  -27.2671  -33.3617   26.2077 H   0  0  0  0  0  0
  -28.3898  -32.6889   25.0352 H   0  0  0  0  0  0
  -28.0747  -31.8463   26.5443 H   0  0  0  0  0  0
  -28.2590  -38.0084   24.7503 H   0  0  0  0  0  0
  -28.1075  -36.2618   24.6288 H   0  0  0  0  0  0
  -27.2299  -37.1447   25.8864 H   0  0  0  0  0  0
  -20.9448  -29.8798   21.6803 H   0  0  0  0  0  0
  -26.0153  -38.2813   24.1409 H   0  0  0  0  0  0
  -31.1070  -20.6044   20.1292 H   0  0  0  0  0  0
  -26.9656  -19.7853   20.8008 H   0  0  0  0  0  0
  -31.5924  -18.1823   20.2556 H   0  0  0  0  0  0
  -27.4335  -17.4306   20.9503 H   0  0  0  0  0  0
  -27.3563  -22.0023   20.2346 H   0  0  0  0  0  0
  -29.9273  -23.5752   20.3239 H   0  0  0  0  0  0
  -27.0071  -24.4826   20.6052 H   0  0  0  0  0  0
  -27.6222  -24.5832   18.9817 H   0  0  0  0  0  0
  -28.7655  -15.5710   20.9814 H   0  0  0  0  0  0
  1 25  1  0  0  0
  1 30  2  0  0  0
  1 80  1  0  0  0
  2  3  1  0  0  0
  2 25  1  0  0  0
  2 81  1  0  0  0
  2 82  1  0  0  0
  3  4  1  0  0  0
  3 83  1  0  0  0
  3 84  1  0  0  0
  4  5  1  0  0  0
  4 85  1  0  0  0
  4 86  1  0  0  0
  5  6  1  0  0  0
  5 26  1  0  0  0
  5 87  1  0  0  0
  6 25  1  0  0  0
  6 88  1  0  0  0
  6 89  1  0  0  0
  7  8  2  0  0  0
  7 26  1  0  0  0
  7 29  1  0  0  0
  8  9  1  0  0  0
  8 22  1  0  0  0
  9 10  1  0  0  0
  9 27  2  0  0  0
 10 11  2  0  0  0
 10 15  1  0  0  0
 11 12  1  0  0  0
 11 90  1  0  0  0
 12 13  2  0  0  0
 12 91  1  0  0  0
 13 14  1  0  0  0
 13 31  1  0  0  0
 14 15  2  0  0  0
 14 92  1  0  0  0
 15 93  1  0  0  0
 16 17  2  0  0  0
 16 21  1  0  0  0
 16 31  1  0  0  0
 17 18  1  0  0  0
 17 94  1  0  0  0
 18 19  2  0  0  0
 18 95  1  0  0  0
 19 20  1  0  0  0
 19 24  1  0  0  0
 20 21  2  0  0  0
 20 96  1  0  0  0
 21 23  1  0  0  0
 22 28  1  0  0  0
 22 32  2  0  0  0
 26 27  1  0  0  0
 28 97  1  0  0  0
 28 98  1  0  0  0
 29 99  1  0  0  0
 29100  1  0  0  0
 33 34  1  0  0  0
 33 66  1  0  0  0
 33 70  2  0  0  0
 34 36  1  0  0  0
 34 59  1  0  0  0
 34101  1  0  0  0
 35 44  2  0  0  0
 35 45  1  0  0  0
 35 68  1  0  0  0
 36 56  1  0  0  0
 36102  1  0  0  0
 37 39  1  0  0  0
 37 47  1  0  0  0
 37 66  1  0  0  0
 37103  1  0  0  0
 38 43  2  0  0  0
 38 46  1  0  0  0
 38 47  1  0  0  0
 39 64  1  0  0  0
 39 67  2  0  0  0
 40 52  1  0  0  0
 40 53  2  0  0  0
 40 58  1  0  0  0
 41104  1  0  0  0
 41105  1  0  0  0
 41106  1  0  0  0
 41 48  1  0  0  0
 42 43  1  0  0  0
 42 66  1  0  0  0
 42107  1  0  0  0
 42108  1  0  0  0
 43 44  1  0  0  0
 44109  1  0  0  0
 45 46  2  0  0  0
 45110  1  0  0  0
 46111  1  0  0  0
 47112  1  0  0  0
 47113  1  0  0  0
 48 56  1  0  0  0
 48 65  1  0  0  0
 48114  1  0  0  0
 49 50  1  0  0  0
 49 53  1  0  0  0
 49 64  1  0  0  0
 49115  1  0  0  0
 50 51  1  0  0  0
 50116  1  0  0  0
 50117  1  0  0  0
 51 52  1  0  0  0
 51118  1  0  0  0
 51119  1  0  0  0
 52120  1  0  0  0
 52121  1  0  0  0
 53 54  1  0  0  0
 54 55  2  0  0  0
 54122  1  0  0  0
 55 57  1  0  0  0
 55123  1  0  0  0
 56 69  2  0  0  0
 57 58  2  0  0  0
 57124  1  0  0  0
 58125  1  0  0  0
 59 60  1  0  0  0
 59 61  1  0  0  0
 59 62  1  0  0  0
 60126  1  0  0  0
 60127  1  0  0  0
 60128  1  0  0  0
 61129  1  0  0  0
 61130  1  0  0  0
 61131  1  0  0  0
 62132  1  0  0  0
 62133  1  0  0  0
 62134  1  0  0  0
 63 65  1  0  0  0
 63135  1  0  0  0
 63136  1  0  0  0
 63137  1  0  0  0
 64138  1  0  0  0
 65139  1  0  0  0
 68 79  1  0  0  0
 71 73  2  0  0  0
 71 75  1  0  0  0
 71140  1  0  0  0
 72 74  1  0  0  0
 72 75  2  0  0  0
 72141  1  0  0  0
 73 76  1  0  0  0
 73142  1  0  0  0
 74 76  2  0  0  0
 74143  1  0  0  0
 75 77  1  0  0  0
 76 80  1  0  0  0
 77 78  2  0  0  0
 77144  1  0  0  0
 78 79  1  0  0  0
 78145  1  0  0  0
 79146  1  0  0  0
 79147  1  0  0  0
 80148  1  0  0  0
M  ISO  4   1 100  68 101  79 101  80 100
M  END
> <chiral flag>
0

> <version>
0

> <s_m_source_file>
/data/baiqing/PycharmProjects/Reinvent-master-3.2/result/LINK_invent/BTK/process_docking_weight1_custom_product_contain_oxygen_bond_distance_aromatic_linkinvent_7_9_3/rearranged_h_0003.sdf

> <i_m_source_file_index>
79

> <r_mmod_Potential_Energy-OPLS-2005>
415.002593994141

> <r_mmod_Stretch_Energy-OPLS-2005>
201.279144287109

> <r_mmod_Bend_Energy-OPLS-2005>
267.667114257812

> <r_mmod_Torsional_Energy-OPLS-2005>
217.440673828125

> <r_mmod_Improper_Torsional_Energy-OPLS-2005>
5.50782346725464

> <r_mmod_Van_der_Waal_Energy-OPLS-2005>
135.24040222168

> <r_mmod_Electrostatic_Energy-OPLS-2005>
-367.753143310547

> <r_mmod_Solvation_Energy-OPLS-2005>
-208.941986083984

> <b_mmod_Minimization_Converged-OPLS-2005>
0

> <r_mmod_RMS_Derivative-OPLS-2005>
1.49141037464142

$$$$
79
                    3D
 Structure written by MMmdl.
143151  0  0  1  0            999 V2000
  -30.1111  -16.1934   20.2931 C   0  0  0  0  0  0
  -30.3647  -13.5024   19.5512 C   0  0  0  0  0  0
  -29.5639  -12.8181   18.3868 C   0  0  0  0  0  0
  -28.1890  -12.3369   18.8562 C   0  0  0  0  0  0
  -27.5791  -13.3742   19.8160 C   0  0  2  0  0  0
  -28.5499  -13.9408   20.8997 C   0  0  0  0  0  0
  -25.2224  -13.8394   20.5895 C   0  0  0  0  0  0
  -24.1675  -13.0452   20.9323 C   0  0  0  0  0  0
  -24.6468  -11.6992   20.8758 C   0  0  0  0  0  0
  -23.9183  -10.4307   21.0369 C   0  0  0  0  0  0
  -24.3694   -9.4217   21.9164 C   0  0  0  0  0  0
  -23.6339   -8.2265   22.0749 C   0  0  0  0  0  0
  -22.4316   -8.0304   21.3543 C   0  0  0  0  0  0
  -21.9976   -9.0282   20.4638 C   0  0  0  0  0  0
  -22.7336  -10.2145   20.3033 C   0  0  0  0  0  0
  -21.6869   -6.0753   22.5278 C   0  0  0  0  0  0
  -21.4026   -6.5650   23.8213 C   0  0  0  0  0  0
  -21.3663   -5.6798   24.9172 C   0  0  0  0  0  0
  -21.6043   -4.3061   24.7220 C   0  0  0  0  0  0
  -21.8817   -3.8156   23.4340 C   0  0  0  0  0  0
  -21.9197   -4.6977   22.3398 C   0  0  0  0  0  0
  -22.7670  -13.5127   21.1935 C   0  0  0  0  0  0
  -22.1663   -4.2161   21.0976 F   0  0  0  0  0  0
  -21.5625   -3.4541   25.7731 F   0  0  0  0  0  0
  -29.6318  -14.7347   20.2139 N   0  0  0  0  0  0
  -26.2757  -12.9856   20.3368 N   0  0  0  0  0  0
  -25.9445  -11.6849   20.5691 N   0  0  0  0  0  0
  -22.0355  -12.8086   22.0486 N   0  0  0  0  0  0
  -25.3727  -15.2149   20.4350 N   0  0  0  0  0  0
  -31.3469  -16.0057   20.1206 O   0  0  0  0  0  0
  -21.6663   -6.8908   21.4245 O   0  0  0  0  0  0
  -22.3325  -14.5417   20.6769 O   0  0  0  0  0  0
  -24.7189  -31.7537   23.1190 C   0  0  0  0  0  0
  -25.9588  -32.4237   23.7878 C   0  0  1  0  0  0
  -27.2461  -26.3152   20.2473 C   0  0  0  0  0  0
  -25.6010  -33.8087   24.1723 N   0  0  0  0  0  0
  -23.5631  -30.3365   21.4809 C   0  0  2  0  0  0
  -25.0255  -28.5945   20.1242 C   0  0  0  0  0  0
  -22.7924  -29.4062   22.4600 C   0  0  0  0  0  0
  -18.0361  -28.1441   22.8435 C   0  0  0  0  0  0
  -24.1497  -36.7056   23.2664 C   0  0  0  0  0  0
  -26.1556  -30.3553   21.4450 C   0  0  0  0  0  0
  -26.2148  -28.8767   20.8032 C   0  0  0  0  0  0
  -27.2831  -27.7747   20.8284 C   0  0  0  0  0  0
  -26.0274  -26.3446   19.4902 C   0  0  0  0  0  0
  -24.9938  -27.3588   19.4433 C   0  0  0  0  0  0
  -23.8384  -29.5959   20.1325 C   0  0  0  0  0  0
  -25.4162  -36.2763   24.0253 C   0  0  1  0  0  0
  -20.6012  -28.3815   23.1074 C   0  0  2  0  0  0
  -20.6805  -26.9438   22.5414 C   0  0  0  0  0  0
  -19.5790  -26.6356   21.5222 C   0  0  0  0  0  0
  -18.1971  -26.7961   22.1612 C   0  0  0  0  0  0
  -19.1636  -28.8961   23.2724 C   0  0  0  0  0  0
  -18.9536  -30.1535   23.8785 C   0  0  0  0  0  0
  -17.6522  -30.6613   24.0542 C   0  0  0  0  0  0
  -25.9164  -34.9163   23.4856 C   0  0  0  0  0  0
  -16.5409  -29.9088   23.6360 C   0  0  0  0  0  0
  -16.7338  -28.6514   23.0373 C   0  0  0  0  0  0
  -26.4650  -31.6444   25.0664 C   0  0  0  0  0  0
  -25.3616  -31.3872   26.1208 C   0  0  0  0  0  0
  -27.0647  -30.2742   24.6851 C   0  0  0  0  0  0
  -27.6023  -32.4403   25.7499 C   0  0  0  0  0  0
  -27.5552  -37.1681   24.8466 C   0  0  0  0  0  0
  -21.4538  -29.2981   22.3347 N   0  0  0  0  0  0
  -26.4254  -37.3567   23.9408 N   0  0  0  0  0  0
  -24.8405  -30.8589   22.0663 N   0  0  0  0  0  0
  -23.4188  -28.7732   23.3126 O   0  0  0  0  0  0
  -28.1838  -24.9412   20.3620 O   0  0  0  0  0  0
  -26.5864  -34.8818   22.4515 O   0  0  0  0  0  0
  -23.6129  -32.0798   23.5897 O   0  0  0  0  0  0
  -28.1072  -20.0648   21.3761 C   0  0  0  0  0  0
  -28.2688  -18.3783   21.0982 C   0  0  0  0  0  0
  -29.6251  -19.5050   19.8423 C   0  0  0  0  0  0
  -28.6542  -21.1657   20.3164 C   0  0  2  0  0  0
  -29.4394  -17.7568   20.3051 N   0  0  0  0  0  0
  -28.0453  -22.9401   19.9277 N   0  0  0  0  0  0
  -31.3146  -13.8252   19.1246 H   0  0  0  0  0  0
  -30.6539  -12.7637   20.3011 H   0  0  0  0  0  0
  -30.1316  -11.9875   17.9651 H   0  0  0  0  0  0
  -29.4336  -13.5406   17.5799 H   0  0  0  0  0  0
  -28.3169  -11.3894   19.3812 H   0  0  0  0  0  0
  -27.5305  -12.1416   18.0088 H   0  0  0  0  0  0
  -27.3694  -14.2183   19.1568 H   0  0  0  0  0  0
  -28.9294  -13.1586   21.5592 H   0  0  0  0  0  0
  -28.0089  -14.6304   21.5489 H   0  0  0  0  0  0
  -25.2829   -9.5687   22.4756 H   0  0  0  0  0  0
  -24.0031   -7.4661   22.7483 H   0  0  0  0  0  0
  -21.0902   -8.8818   19.8947 H   0  0  0  0  0  0
  -22.3794  -10.9686   19.6145 H   0  0  0  0  0  0
  -21.2025   -7.6158   23.9721 H   0  0  0  0  0  0
  -21.1484   -6.0526   25.9076 H   0  0  0  0  0  0
  -22.0591   -2.7618   23.2836 H   0  0  0  0  0  0
  -22.4023  -11.9776   22.4885 H   0  0  0  0  0  0
  -21.0950  -13.1049   22.2678 H   0  0  0  0  0  0
  -24.5979  -15.8591   20.5506 H   0  0  0  0  0  0
  -26.2204  -15.6656   20.1163 H   0  0  0  0  0  0
  -26.7710  -32.4620   23.0614 H   0  0  0  0  0  0
  -24.9999  -33.9059   24.9772 H   0  0  0  0  0  0
  -22.9107  -31.1831   21.2571 H   0  0  0  0  0  0
  -23.3788  -35.9353   23.3237 H   0  0  0  0  0  0
  -24.3551  -36.8833   22.2096 H   0  0  0  0  0  0
  -23.7232  -37.6184   23.6833 H   0  0  0  0  0  0
  -26.3991  -31.0521   20.6419 H   0  0  0  0  0  0
  -26.9927  -30.4367   22.1249 H   0  0  0  0  0  0
  -28.1650  -28.0088   21.4077 H   0  0  0  0  0  0
  -25.8061  -25.4379   18.9452 H   0  0  0  0  0  0
  -24.1099  -27.1282   18.8647 H   0  0  0  0  0  0
  -24.0431  -30.3393   19.3613 H   0  0  0  0  0  0
  -22.9359  -29.0801   19.8003 H   0  0  0  0  0  0
  -25.1391  -36.1467   25.0741 H   0  0  0  0  0  0
  -21.0081  -28.3471   24.1206 H   0  0  0  0  0  0
  -20.5630  -26.2450   23.3710 H   0  0  0  0  0  0
  -21.6664  -26.7318   22.1258 H   0  0  0  0  0  0
  -19.6938  -25.6237   21.1324 H   0  0  0  0  0  0
  -19.6748  -27.3105   20.6705 H   0  0  0  0  0  0
  -17.4245  -26.6708   21.4010 H   0  0  0  0  0  0
  -18.0342  -26.0129   22.9030 H   0  0  0  0  0  0
  -19.8012  -30.7377   24.2108 H   0  0  0  0  0  0
  -17.5072  -31.6281   24.5168 H   0  0  0  0  0  0
  -15.5405  -30.2956   23.7749 H   0  0  0  0  0  0
  -15.8739  -28.0796   22.7151 H   0  0  0  0  0  0
  -24.5851  -30.7174   25.7495 H   0  0  0  0  0  0
  -24.8757  -32.3126   26.4307 H   0  0  0  0  0  0
  -25.7704  -30.9245   27.0200 H   0  0  0  0  0  0
  -26.3434  -29.6228   24.1912 H   0  0  0  0  0  0
  -27.3985  -29.7356   25.5731 H   0  0  0  0  0  0
  -27.9446  -30.3782   24.0501 H   0  0  0  0  0  0
  -27.2514  -33.3824   26.1724 H   0  0  0  0  0  0
  -28.4005  -32.6774   25.0453 H   0  0  0  0  0  0
  -28.0503  -31.8778   26.5701 H   0  0  0  0  0  0
  -28.2511  -38.0028   24.7517 H   0  0  0  0  0  0
  -28.1105  -36.2544   24.6289 H   0  0  0  0  0  0
  -27.2266  -37.1301   25.8866 H   0  0  0  0  0  0
  -20.9933  -29.8574   21.6302 H   0  0  0  0  0  0
  -26.0046  -38.2596   24.1431 H   0  0  0  0  0  0
  -28.6183  -20.2756   22.3163 H   0  0  0  0  0  0
  -27.0583  -20.2758   21.5869 H   0  0  0  0  0  0
  -27.3707  -18.0554   20.5697 H   0  0  0  0  0  0
  -28.2196  -17.8654   22.0597 H   0  0  0  0  0  0
  -30.6661  -19.7134   20.0919 H   0  0  0  0  0  0
  -29.6325  -19.4798   18.7521 H   0  0  0  0  0  0
  -27.9414  -20.9510   19.5193 H   0  0  0  0  0  0
  -27.6611  -22.9159   18.9855 H   0  0  0  0  0  0
  1 25  1  0  0  0
  1 30  2  0  0  0
  1 75  1  0  0  0
  2  3  1  0  0  0
  2 25  1  0  0  0
  2 77  1  0  0  0
  2 78  1  0  0  0
  3  4  1  0  0  0
  3 79  1  0  0  0
  3 80  1  0  0  0
  4  5  1  0  0  0
  4 81  1  0  0  0
  4 82  1  0  0  0
  5  6  1  0  0  0
  5 26  1  0  0  0
  5 83  1  0  0  0
  6 25  1  0  0  0
  6 84  1  0  0  0
  6 85  1  0  0  0
  7  8  2  0  0  0
  7 26  1  0  0  0
  7 29  1  0  0  0
  8  9  1  0  0  0
  8 22  1  0  0  0
  9 10  1  0  0  0
  9 27  2  0  0  0
 10 11  2  0  0  0
 10 15  1  0  0  0
 11 12  1  0  0  0
 11 86  1  0  0  0
 12 13  2  0  0  0
 12 87  1  0  0  0
 13 14  1  0  0  0
 13 31  1  0  0  0
 14 15  2  0  0  0
 14 88  1  0  0  0
 15 89  1  0  0  0
 16 17  2  0  0  0
 16 21  1  0  0  0
 16 31  1  0  0  0
 17 18  1  0  0  0
 17 90  1  0  0  0
 18 19  2  0  0  0
 18 91  1  0  0  0
 19 20  1  0  0  0
 19 24  1  0  0  0
 20 21  2  0  0  0
 20 92  1  0  0  0
 21 23  1  0  0  0
 22 28  1  0  0  0
 22 32  2  0  0  0
 26 27  1  0  0  0
 28 93  1  0  0  0
 28 94  1  0  0  0
 29 95  1  0  0  0
 29 96  1  0  0  0
 33 34  1  0  0  0
 33 66  1  0  0  0
 33 70  2  0  0  0
 34 36  1  0  0  0
 34 59  1  0  0  0
 34 97  1  0  0  0
 35 44  2  0  0  0
 35 45  1  0  0  0
 35 68  1  0  0  0
 36 56  1  0  0  0
 36 98  1  0  0  0
 37 39  1  0  0  0
 37 47  1  0  0  0
 37 66  1  0  0  0
 37 99  1  0  0  0
 38 43  2  0  0  0
 38 46  1  0  0  0
 38 47  1  0  0  0
 39 64  1  0  0  0
 39 67  2  0  0  0
 40 52  1  0  0  0
 40 53  2  0  0  0
 40 58  1  0  0  0
 41100  1  0  0  0
 41101  1  0  0  0
 41102  1  0  0  0
 41 48  1  0  0  0
 42 43  1  0  0  0
 42 66  1  0  0  0
 42103  1  0  0  0
 42104  1  0  0  0
 43 44  1  0  0  0
 44105  1  0  0  0
 45 46  2  0  0  0
 45106  1  0  0  0
 46107  1  0  0  0
 47108  1  0  0  0
 47109  1  0  0  0
 48 56  1  0  0  0
 48 65  1  0  0  0
 48110  1  0  0  0
 49 50  1  0  0  0
 49 53  1  0  0  0
 49 64  1  0  0  0
 49111  1  0  0  0
 50 51  1  0  0  0
 50112  1  0  0  0
 50113  1  0  0  0
 51 52  1  0  0  0
 51114  1  0  0  0
 51115  1  0  0  0
 52116  1  0  0  0
 52117  1  0  0  0
 53 54  1  0  0  0
 54 55  2  0  0  0
 54118  1  0  0  0
 55 57  1  0  0  0
 55119  1  0  0  0
 56 69  2  0  0  0
 57 58  2  0  0  0
 57120  1  0  0  0
 58121  1  0  0  0
 59 60  1  0  0  0
 59 61  1  0  0  0
 59 62  1  0  0  0
 60122  1  0  0  0
 60123  1  0  0  0
 60124  1  0  0  0
 61125  1  0  0  0
 61126  1  0  0  0
 61127  1  0  0  0
 62128  1  0  0  0
 62129  1  0  0  0
 62130  1  0  0  0
 63 65  1  0  0  0
 63131  1  0  0  0
 63132  1  0  0  0
 63133  1  0  0  0
 64134  1  0  0  0
 65135  1  0  0  0
 68 76  1  0  0  0
 71 72  1  0  0  0
 71 74  1  0  0  0
 71136  1  0  0  0
 71137  1  0  0  0
 72 75  1  0  0  0
 72138  1  0  0  0
 72139  1  0  0  0
 73 74  1  0  0  0
 73 75  1  0  0  0
 73140  1  0  0  0
 73141  1  0  0  0
 74 76  1  0  0  0
 74142  1  0  0  0
 76143  1  0  0  0
M  ISO  4   1 100  68 101  75 100  76 101
M  END
> <chiral flag>
0

> <version>
0

> <s_m_source_file>
/data/baiqing/PycharmProjects/Reinvent-master-3.2/result/LINK_invent/BTK/process_docking_weight1_custom_product_contain_oxygen_bond_distance_aromatic_linkinvent_7_9_3/rearranged_h_0003.sdf

> <i_m_source_file_index>
80

> <r_mmod_Potential_Energy-OPLS-2005>
5124.0419921875

> <r_mmod_Stretch_Energy-OPLS-2005>
2006.017578125

> <r_mmod_Bend_Energy-OPLS-2005>
1301.41528320312

> <r_mmod_Torsional_Energy-OPLS-2005>
323.840850830078

> <r_mmod_Improper_Torsional_Energy-OPLS-2005>
6.96405792236328

> <r_mmod_Van_der_Waal_Energy-OPLS-2005>
112.791610717773

> <r_mmod_Electrostatic_Energy-OPLS-2005>
-298.597747802734

> <r_mmod_Solvation_Energy-OPLS-2005>
-238.489288330078

> <b_mmod_Minimization_Converged-OPLS-2005>
1

> <r_mmod_RMS_Derivative-OPLS-2005>
0.0420926250517368

$$$$
80
                    3D
 Structure written by MMmdl.
137144  0  0  1  0            999 V2000
  -29.9622  -16.5635   20.2664 C   0  0  0  0  0  0
  -30.3146  -13.7964   19.5233 C   0  0  0  0  0  0
  -29.5702  -12.9451   18.4142 C   0  0  0  0  0  0
  -28.2376  -12.3814   18.9086 C   0  0  0  0  0  0
  -27.5746  -13.4257   19.8177 C   0  0  2  0  0  0
  -28.5152  -14.1357   20.8613 C   0  0  0  0  0  0
  -25.2174  -13.8479   20.5951 C   0  0  0  0  0  0
  -24.1675  -13.0467   20.9341 C   0  0  0  0  0  0
  -24.6541  -11.7031   20.8745 C   0  0  0  0  0  0
  -23.9255  -10.4321   21.0342 C   0  0  0  0  0  0
  -24.3739   -9.4228   21.9149 C   0  0  0  0  0  0
  -23.6364   -8.2283   22.0747 C   0  0  0  0  0  0
  -22.4340   -8.0323   21.3544 C   0  0  0  0  0  0
  -22.0014   -9.0304   20.4634 C   0  0  0  0  0  0
  -22.7395  -10.2158   20.3018 C   0  0  0  0  0  0
  -21.6878   -6.0765   22.5277 C   0  0  0  0  0  0
  -21.4033   -6.5657   23.8214 C   0  0  0  0  0  0
  -21.3665   -5.6802   24.9171 C   0  0  0  0  0  0
  -21.6043   -4.3064   24.7217 C   0  0  0  0  0  0
  -21.8816   -3.8163   23.4335 C   0  0  0  0  0  0
  -21.9200   -4.6987   22.3396 C   0  0  0  0  0  0
  -22.7650  -13.5092   21.1938 C   0  0  0  0  0  0
  -22.1663   -4.2170   21.0973 F   0  0  0  0  0  0
  -21.5624   -3.4543   25.7727 F   0  0  0  0  0  0
  -29.5188  -15.0444   20.1465 N   0  0  0  0  0  0
  -26.2805  -13.0063   20.3476 N   0  0  0  0  0  0
  -25.9548  -11.6990   20.5678 N   0  0  0  0  0  0
  -22.0351  -12.8040   22.0489 N   0  0  0  0  0  0
  -25.3555  -15.2242   20.4383 N   0  0  0  0  0  0
  -31.2063  -16.3142   20.2293 O   0  0  0  0  0  0
  -21.6677   -6.8928   21.4248 O   0  0  0  0  0  0
  -22.3283  -14.5375   20.6771 O   0  0  0  0  0  0
  -24.7449  -31.7216   23.0979 C   0  0  0  0  0  0
  -25.9712  -32.4091   23.7768 C   0  0  1  0  0  0
  -27.2626  -26.0606   20.2671 C   0  0  0  0  0  0
  -25.6018  -33.7953   24.1581 N   0  0  0  0  0  0
  -23.5996  -30.2922   21.4680 C   0  0  2  0  0  0
  -25.0624  -28.4936   20.1392 C   0  0  0  0  0  0
  -22.8035  -29.3895   22.4550 C   0  0  0  0  0  0
  -18.0376  -28.1454   22.8421 C   0  0  0  0  0  0
  -24.1496  -36.6992   23.2671 C   0  0  0  0  0  0
  -26.1999  -30.2411   21.4589 C   0  0  0  0  0  0
  -26.2597  -28.7329   20.8212 C   0  0  0  0  0  0
  -27.3097  -27.5690   20.8335 C   0  0  0  0  0  0
  -26.0272  -26.1946   19.5192 C   0  0  0  0  0  0
  -25.0234  -27.2541   19.4619 C   0  0  0  0  0  0
  -23.8874  -29.5253   20.1333 C   0  0  0  0  0  0
  -25.4170  -36.2677   24.0236 C   0  0  1  0  0  0
  -20.6038  -28.3836   23.1031 C   0  0  2  0  0  0
  -20.6806  -26.9436   22.5420 C   0  0  0  0  0  0
  -19.5796  -26.6348   21.5224 C   0  0  0  0  0  0
  -18.1977  -26.7969   22.1607 C   0  0  0  0  0  0
  -19.1657  -28.8984   23.2686 C   0  0  0  0  0  0
  -18.9553  -30.1552   23.8759 C   0  0  0  0  0  0
  -17.6536  -30.6619   24.0537 C   0  0  0  0  0  0
  -25.9187  -34.9084   23.4798 C   0  0  0  0  0  0
  -16.5422  -29.9090   23.6366 C   0  0  0  0  0  0
  -16.7352  -28.6518   23.0376 C   0  0  0  0  0  0
  -26.4693  -31.6408   25.0652 C   0  0  0  0  0  0
  -25.3596  -31.3898   26.1149 C   0  0  0  0  0  0
  -27.0730  -30.2690   24.7003 C   0  0  0  0  0  0
  -27.6017  -32.4426   25.7501 C   0  0  0  0  0  0
  -27.5543  -37.1648   24.8466 C   0  0  0  0  0  0
  -21.4628  -29.2949   22.3282 N   0  0  0  0  0  0
  -26.4242  -37.3509   23.9408 N   0  0  0  0  0  0
  -24.8802  -30.8007   22.0600 N   0  0  0  0  0  0
  -23.4175  -28.7613   23.3197 O   0  0  0  0  0  0
  -28.1668  -24.5661   20.3212 O   0  0  0  0  0  0
  -26.5925  -34.8791   22.4483 O   0  0  0  0  0  0
  -23.6336  -32.0588   23.5524 O   0  0  0  0  0  0
  -29.2006  -20.3375   20.3201 C   0  0  0  0  0  0
  -28.2004  -22.4649   20.2188 C   0  0  0  0  0  0
  -29.3170  -18.2279   20.2702 N   0  0  0  0  0  0
  -31.2155  -14.1817   19.0448 H   0  0  0  0  0  0
  -30.7050  -13.1434   20.3066 H   0  0  0  0  0  0
  -30.2109  -12.1390   18.0541 H   0  0  0  0  0  0
  -29.3823  -13.5901   17.5547 H   0  0  0  0  0  0
  -28.4305  -11.4738   19.4819 H   0  0  0  0  0  0
  -27.5913  -12.1016   18.0755 H   0  0  0  0  0  0
  -27.3204  -14.2160   19.1091 H   0  0  0  0  0  0
  -28.9720  -13.4238   21.5512 H   0  0  0  0  0  0
  -27.9168  -14.7884   21.4973 H   0  0  0  0  0  0
  -25.2871   -9.5690   22.4748 H   0  0  0  0  0  0
  -24.0047   -7.4683   22.7489 H   0  0  0  0  0  0
  -21.0938   -8.8851   19.8945 H   0  0  0  0  0  0
  -22.3854  -10.9697   19.6127 H   0  0  0  0  0  0
  -21.2035   -7.6165   23.9725 H   0  0  0  0  0  0
  -21.1486   -6.0529   25.9075 H   0  0  0  0  0  0
  -22.0587   -2.7625   23.2829 H   0  0  0  0  0  0
  -22.4039  -11.9742   22.4895 H   0  0  0  0  0  0
  -21.0937  -13.0980   22.2674 H   0  0  0  0  0  0
  -24.5768  -15.8638   20.5540 H   0  0  0  0  0  0
  -26.2060  -15.6839   20.1380 H   0  0  0  0  0  0
  -26.7876  -32.4443   23.0543 H   0  0  0  0  0  0
  -24.9961  -33.8879   24.9601 H   0  0  0  0  0  0
  -22.9629  -31.1444   21.2211 H   0  0  0  0  0  0
  -23.3792  -35.9283   23.3224 H   0  0  0  0  0  0
  -24.3542  -36.8804   22.2107 H   0  0  0  0  0  0
  -23.7229  -37.6104   23.6874 H   0  0  0  0  0  0
  -26.4659  -30.9211   20.6487 H   0  0  0  0  0  0
  -27.0298  -30.3291   22.1459 H   0  0  0  0  0  0
  -28.1985  -27.7908   21.4071 H   0  0  0  0  0  0
  -25.7596  -25.3099   18.9588 H   0  0  0  0  0  0
  -24.1415  -27.0455   18.8719 H   0  0  0  0  0  0
  -24.1127  -30.2559   19.3556 H   0  0  0  0  0  0
  -22.9802  -29.0216   19.7958 H   0  0  0  0  0  0
  -25.1411  -36.1346   25.0723 H   0  0  0  0  0  0
  -21.0093  -28.3507   24.1170 H   0  0  0  0  0  0
  -20.5606  -26.2478   23.3738 H   0  0  0  0  0  0
  -21.6663  -26.7276   22.1281 H   0  0  0  0  0  0
  -19.6940  -25.6222   21.1342 H   0  0  0  0  0  0
  -19.6763  -27.3084   20.6699 H   0  0  0  0  0  0
  -17.4253  -26.6718   21.4002 H   0  0  0  0  0  0
  -18.0338  -26.0144   22.9029 H   0  0  0  0  0  0
  -19.8031  -30.7398   24.2071 H   0  0  0  0  0  0
  -17.5087  -31.6284   24.5168 H   0  0  0  0  0  0
  -15.5417  -30.2952   23.7771 H   0  0  0  0  0  0
  -15.8752  -28.0794   22.7169 H   0  0  0  0  0  0
  -24.5845  -30.7190   25.7424 H   0  0  0  0  0  0
  -24.8725  -32.3171   26.4173 H   0  0  0  0  0  0
  -25.7627  -30.9316   27.0189 H   0  0  0  0  0  0
  -26.3552  -29.6093   24.2123 H   0  0  0  0  0  0
  -27.4038  -29.7408   25.5956 H   0  0  0  0  0  0
  -27.9570  -30.3690   24.0706 H   0  0  0  0  0  0
  -27.2476  -33.3875   26.1635 H   0  0  0  0  0  0
  -28.4042  -32.6752   25.0488 H   0  0  0  0  0  0
  -28.0450  -31.8868   26.5774 H   0  0  0  0  0  0
  -28.2488  -38.0006   24.7515 H   0  0  0  0  0  0
  -28.1107  -36.2518   24.6291 H   0  0  0  0  0  0
  -27.2256  -37.1265   25.8866 H   0  0  0  0  0  0
  -21.0089  -29.8498   21.6159 H   0  0  0  0  0  0
  -26.0011  -38.2526   24.1435 H   0  0  0  0  0  0
  -30.0015  -20.5173   19.6027 H   0  0  0  0  0  0
  -29.6902  -20.4553   21.2869 H   0  0  0  0  0  0
  -27.7199  -22.3753   19.2446 H   0  0  0  0  0  0
  -27.3860  -22.2933   20.9225 H   0  0  0  0  0  0
  -30.3181  -18.3884   20.2986 H   0  0  0  0  0  0
  1 25  1  0  0  0
  1 30  2  0  0  0
  1 73  1  0  0  0
  2  3  1  0  0  0
  2 25  1  0  0  0
  2 74  1  0  0  0
  2 75  1  0  0  0
  3  4  1  0  0  0
  3 76  1  0  0  0
  3 77  1  0  0  0
  4  5  1  0  0  0
  4 78  1  0  0  0
  4 79  1  0  0  0
  5  6  1  0  0  0
  5 26  1  0  0  0
  5 80  1  0  0  0
  6 25  1  0  0  0
  6 81  1  0  0  0
  6 82  1  0  0  0
  7  8  2  0  0  0
  7 26  1  0  0  0
  7 29  1  0  0  0
  8  9  1  0  0  0
  8 22  1  0  0  0
  9 10  1  0  0  0
  9 27  2  0  0  0
 10 11  2  0  0  0
 10 15  1  0  0  0
 11 12  1  0  0  0
 11 83  1  0  0  0
 12 13  2  0  0  0
 12 84  1  0  0  0
 13 14  1  0  0  0
 13 31  1  0  0  0
 14 15  2  0  0  0
 14 85  1  0  0  0
 15 86  1  0  0  0
 16 17  2  0  0  0
 16 21  1  0  0  0
 16 31  1  0  0  0
 17 18  1  0  0  0
 17 87  1  0  0  0
 18 19  2  0  0  0
 18 88  1  0  0  0
 19 20  1  0  0  0
 19 24  1  0  0  0
 20 21  2  0  0  0
 20 89  1  0  0  0
 21 23  1  0  0  0
 22 28  1  0  0  0
 22 32  2  0  0  0
 26 27  1  0  0  0
 28 90  1  0  0  0
 28 91  1  0  0  0
 29 92  1  0  0  0
 29 93  1  0  0  0
 33 34  1  0  0  0
 33 66  1  0  0  0
 33 70  2  0  0  0
 34 36  1  0  0  0
 34 59  1  0  0  0
 34 94  1  0  0  0
 35 44  2  0  0  0
 35 45  1  0  0  0
 35 68  1  0  0  0
 36 56  1  0  0  0
 36 95  1  0  0  0
 37 39  1  0  0  0
 37 47  1  0  0  0
 37 66  1  0  0  0
 37 96  1  0  0  0
 38 43  2  0  0  0
 38 46  1  0  0  0
 38 47  1  0  0  0
 39 64  1  0  0  0
 39 67  2  0  0  0
 40 52  1  0  0  0
 40 53  2  0  0  0
 40 58  1  0  0  0
 41 97  1  0  0  0
 41 98  1  0  0  0
 41 99  1  0  0  0
 41 48  1  0  0  0
 42 43  1  0  0  0
 42 66  1  0  0  0
 42100  1  0  0  0
 42101  1  0  0  0
 43 44  1  0  0  0
 44102  1  0  0  0
 45 46  2  0  0  0
 45103  1  0  0  0
 46104  1  0  0  0
 47105  1  0  0  0
 47106  1  0  0  0
 48 56  1  0  0  0
 48 65  1  0  0  0
 48107  1  0  0  0
 49 50  1  0  0  0
 49 53  1  0  0  0
 49 64  1  0  0  0
 49108  1  0  0  0
 50 51  1  0  0  0
 50109  1  0  0  0
 50110  1  0  0  0
 51 52  1  0  0  0
 51111  1  0  0  0
 51112  1  0  0  0
 52113  1  0  0  0
 52114  1  0  0  0
 53 54  1  0  0  0
 54 55  2  0  0  0
 54115  1  0  0  0
 55 57  1  0  0  0
 55116  1  0  0  0
 56 69  2  0  0  0
 57 58  2  0  0  0
 57117  1  0  0  0
 58118  1  0  0  0
 59 60  1  0  0  0
 59 61  1  0  0  0
 59 62  1  0  0  0
 60119  1  0  0  0
 60120  1  0  0  0
 60121  1  0  0  0
 61122  1  0  0  0
 61123  1  0  0  0
 61124  1  0  0  0
 62125  1  0  0  0
 62126  1  0  0  0
 62127  1  0  0  0
 63 65  1  0  0  0
 63128  1  0  0  0
 63129  1  0  0  0
 63130  1  0  0  0
 64131  1  0  0  0
 65132  1  0  0  0
 68 72  1  0  0  0
 71 72  1  0  0  0
 71 73  1  0  0  0
 71133  1  0  0  0
 71134  1  0  0  0
 72135  1  0  0  0
 72136  1  0  0  0
 73137  1  0  0  0
M  ISO  4   1 100  68 101  72 101  73 100
M  END
> <chiral flag>
0

> <version>
0

> <s_m_source_file>
/data/baiqing/PycharmProjects/Reinvent-master-3.2/result/LINK_invent/BTK/process_docking_weight1_custom_product_contain_oxygen_bond_distance_aromatic_linkinvent_7_9_3/rearranged_h_0003.sdf

> <i_m_source_file_index>
81

> <r_mmod_Potential_Energy-OPLS-2005>
6948.9697265625

> <r_mmod_Stretch_Energy-OPLS-2005>
3136.46411132812

> <r_mmod_Bend_Energy-OPLS-2005>
1268.50207519531

> <r_mmod_Torsional_Energy-OPLS-2005>
217.324829101562

> <r_mmod_Improper_Torsional_Energy-OPLS-2005>
4.82364273071289

> <r_mmod_Van_der_Waal_Energy-OPLS-2005>
120.95548248291

> <r_mmod_Electrostatic_Energy-OPLS-2005>
-391.247985839844

> <r_mmod_Solvation_Energy-OPLS-2005>
-221.174652099609

> <b_mmod_Minimization_Converged-OPLS-2005>
1

> <r_mmod_RMS_Derivative-OPLS-2005>
0.042349461466074

$$$$
81
                    3D
 Structure written by MMmdl.
187197  0  0  1  0            999 V2000
  -30.8086  -14.3736   20.5937 C   0  0  0  0  0  0
  -30.3995  -12.2560   19.4253 C   0  0  0  0  0  0
  -29.4901  -12.4890   18.2041 C   0  0  0  0  0  0
  -28.0110  -12.3702   18.6125 C   0  0  0  0  0  0
  -27.6654  -13.2143   19.8674 C   0  0  2  0  0  0
  -28.7042  -13.0032   20.9922 C   0  0  0  0  0  0
  -25.2630  -13.8219   20.5737 C   0  0  0  0  0  0
  -24.1847  -13.0475   20.9167 C   0  0  0  0  0  0
  -24.6395  -11.6953   20.8647 C   0  0  0  0  0  0
  -23.9037  -10.4339   21.0357 C   0  0  0  0  0  0
  -24.3607   -9.4269   21.9152 C   0  0  0  0  0  0
  -23.6286   -8.2294   22.0773 C   0  0  0  0  0  0
  -22.4247   -8.0313   21.3576 C   0  0  0  0  0  0
  -21.9879   -9.0273   20.4663 C   0  0  0  0  0  0
  -22.7203  -10.2157   20.3027 C   0  0  0  0  0  0
  -21.6843   -6.0717   22.5287 C   0  0  0  0  0  0
  -21.4021   -6.5619   23.8228 C   0  0  0  0  0  0
  -21.3689   -5.6773   24.9199 C   0  0  0  0  0  0
  -21.6042   -4.3029   24.7226 C   0  0  0  0  0  0
  -21.8831   -3.8129   23.4352 C   0  0  0  0  0  0
  -21.9201   -4.6945   22.3414 C   0  0  0  0  0  0
  -22.7883  -13.5314   21.1846 C   0  0  0  0  0  0
  -22.1673   -4.2130   21.0981 F   0  0  0  0  0  0
  -21.5622   -3.4525   25.7754 F   0  0  0  0  0  0
  -30.0483  -13.2560   20.4426 N   0  0  0  0  0  0
  -26.3046  -12.9399   20.3302 N   0  0  0  0  0  0
  -25.9302  -11.6533   20.5635 N   0  0  0  0  0  0
  -22.0528  -12.8360   22.0461 N   0  0  0  0  0  0
  -25.4384  -15.1940   20.4358 N   0  0  0  0  0  0
  -31.8879  -14.5181   20.0112 O   0  0  0  0  0  0
  -21.6639   -6.8882   21.4251 O   0  0  0  0  0  0
  -22.3545  -14.5603   20.6702 O   0  0  0  0  0  0
  -24.6151  -31.8713   23.2115 C   0  0  0  0  0  0
  -25.9075  -32.4835   23.8371 C   0  0  1  0  0  0
  -27.2302  -27.4725   20.0896 C   0  0  0  0  0  0
  -25.5969  -33.8622   24.2337 N   0  0  0  0  0  0
  -23.3966  -30.4974   21.5507 C   0  0  2  0  0  0
  -24.8380  -28.9663   20.1157 C   0  0  0  0  0  0
  -22.7434  -29.4738   22.5027 C   0  0  0  0  0  0
  -18.0317  -28.1337   22.8493 C   0  0  0  0  0  0
  -24.1487  -36.7320   23.2633 C   0  0  0  0  0  0
  -25.9226  -30.8521   21.3553 C   0  0  0  0  0  0
  -26.0001  -29.4903   20.6998 C   0  0  0  0  0  0
  -27.1974  -28.7490   20.6871 C   0  0  0  0  0  0
  -26.0567  -26.9591   19.4953 C   0  0  0  0  0  0
  -24.8600  -27.6986   19.5128 C   0  0  0  0  0  0
  -23.5985  -29.8263   20.1672 C   0  0  0  0  0  0
  -25.4105  -36.3128   24.0331 C   0  0  1  0  0  0
  -20.5920  -28.3713   23.1404 C   0  0  2  0  0  0
  -20.6839  -26.9484   22.5460 C   0  0  0  0  0  0
  -19.5858  -26.6558   21.5165 C   0  0  0  0  0  0
  -18.1985  -26.7931   22.1529 C   0  0  0  0  0  0
  -19.1557  -28.8830   23.2955 C   0  0  0  0  0  0
  -18.9445  -30.1431   23.8935 C   0  0  0  0  0  0
  -17.6420  -30.6505   24.0619 C   0  0  0  0  0  0
  -25.9013  -34.9486   23.5113 C   0  0  0  0  0  0
  -16.5332  -29.8983   23.6335 C   0  0  0  0  0  0
  -16.7293  -28.6452   23.0269 C   0  0  0  0  0  0
  -26.4478  -31.6599   25.0689 C   0  0  0  0  0  0
  -25.3778  -31.3733   26.1478 C   0  0  0  0  0  0
  -27.0328  -30.3050   24.6057 C   0  0  0  0  0  0
  -27.6060  -32.4313   25.7460 C   0  0  0  0  0  0
  -27.5584  -37.1821   24.8463 C   0  0  0  0  0  0
  -21.4166  -29.3142   22.3853 N   0  0  0  0  0  0
  -26.4289  -37.3802   23.9401 N   0  0  0  0  0  0
  -24.6625  -31.0869   22.0985 N   0  0  0  0  0  0
  -23.4260  -28.8318   23.3065 O   0  0  0  0  0  0
  -28.3817  -26.7285   20.1456 O   0  0  0  0  0  0
  -26.5564  -34.8936   22.4663 O   0  0  0  0  0  0
  -23.5380  -32.1442   23.7592 O   0  0  0  0  0  0
  -23.2173  -19.0631   15.9223 C   0  0  0  0  0  0
  -22.1721  -18.1238   15.9452 C   0  0  0  0  0  0
  -24.5115  -18.6804   16.3231 C   0  0  0  0  0  0
  -22.4341  -16.7966   16.3361 C   0  0  0  0  0  0
  -28.8196  -18.4222   21.6564 C   0  0  0  0  0  0
  -28.5890  -17.4212   19.4348 C   0  0  0  0  0  0
  -26.8009  -18.7733   20.3831 C   0  0  0  0  0  0
  -24.7750  -17.3645   16.7942 C   0  0  0  0  0  0
  -29.3186  -17.5773   20.6370 C   0  0  0  0  0  0
  -27.5599  -19.0300   21.5377 C   0  0  0  0  0  0
  -27.3351  -18.0521   19.3084 C   0  0  0  0  0  0
  -23.7227  -16.4094   16.7576 C   0  0  0  0  0  0
  -26.1187  -17.0578   17.4050 C   0  0  0  0  0  0
  -26.6254  -22.8731   21.3842 C   0  0  0  0  0  0
  -31.0639  -16.6018   23.2082 C   0  0  0  0  0  0
  -31.5539  -17.2800   21.9273 C   0  0  0  0  0  0
  -30.2124  -15.4155   22.7254 C   0  0  0  0  0  0
  -30.6014  -16.7769   20.8327 C   0  0  1  0  0  0
  -24.2781  -22.0855   20.8683 C   0  0  0  0  0  0
  -27.0603  -19.9316   22.6622 C   0  0  0  0  0  0
  -25.7309  -20.6699   22.3988 C   0  0  0  0  0  0
  -28.1858  -24.3089   19.9277 C   0  0  0  0  0  0
  -28.2153  -25.5170   20.8858 C   0  0  0  0  0  0
  -25.7129  -21.6572   21.2005 C   0  0  2  0  0  0
  -30.2642  -15.4118   21.2562 N   0  0  0  0  0  0
  -26.5669  -18.0823   18.1335 N   0  0  0  0  0  0
  -27.4481  -23.1143   20.3512 N   0  0  0  0  0  0
  -26.7151  -15.9875   17.2584 O   0  0  0  0  0  0
  -26.5493  -23.5622   22.4036 O   0  0  0  0  0  0
  -23.9266  -14.7657   17.2582 Cl  0  0  0  0  0  0
  -31.4489  -12.2950   19.1292 H   0  0  0  0  0  0
  -30.2561  -11.2526   19.8347 H   0  0  0  0  0  0
  -29.7220  -11.7581   17.4277 H   0  0  0  0  0  0
  -29.6809  -13.4729   17.7705 H   0  0  0  0  0  0
  -27.8088  -11.3162   18.8103 H   0  0  0  0  0  0
  -27.3667  -12.6573   17.7803 H   0  0  0  0  0  0
  -27.7158  -14.2606   19.5633 H   0  0  0  0  0  0
  -28.6550  -11.9814   21.3711 H   0  0  0  0  0  0
  -28.4566  -13.6409   21.8395 H   0  0  0  0  0  0
  -25.2746   -9.5726   22.4726 H   0  0  0  0  0  0
  -23.9995   -7.4684   22.7493 H   0  0  0  0  0  0
  -21.0814   -8.8748   19.8974 H   0  0  0  0  0  0
  -22.3639  -10.9678   19.6126 H   0  0  0  0  0  0
  -21.2024   -7.6121   23.9737 H   0  0  0  0  0  0
  -21.1476   -6.0492   25.9106 H   0  0  0  0  0  0
  -22.0574   -2.7582   23.2848 H   0  0  0  0  0  0
  -22.4113  -12.0029   22.4864 H   0  0  0  0  0  0
  -21.1229  -13.1537   22.2754 H   0  0  0  0  0  0
  -24.6574  -15.8346   20.5093 H   0  0  0  0  0  0
  -26.2847  -15.6266   20.0867 H   0  0  0  0  0  0
  -26.7222  -32.5533   23.1198 H   0  0  0  0  0  0
  -25.0224  -33.9744   25.0568 H   0  0  0  0  0  0
  -22.6845  -31.3124   21.4079 H   0  0  0  0  0  0
  -23.3717  -35.9683   23.3302 H   0  0  0  0  0  0
  -24.3619  -36.8884   22.2050 H   0  0  0  0  0  0
  -23.7231  -37.6529   23.6627 H   0  0  0  0  0  0
  -26.0334  -31.6182   20.5874 H   0  0  0  0  0  0
  -26.8151  -30.9040   21.9705 H   0  0  0  0  0  0
  -28.0882  -29.1469   21.1513 H   0  0  0  0  0  0
  -26.0527  -25.9843   19.0293 H   0  0  0  0  0  0
  -23.9670  -27.2853   19.0651 H   0  0  0  0  0  0
  -23.7084  -30.5960   19.4035 H   0  0  0  0  0  0
  -22.7256  -29.2381   19.8790 H   0  0  0  0  0  0
  -25.1290  -36.2016   25.0820 H   0  0  0  0  0  0
  -21.0066  -28.3311   24.1499 H   0  0  0  0  0  0
  -20.5726  -26.2342   23.3608 H   0  0  0  0  0  0
  -21.6763  -26.7531   22.1309 H   0  0  0  0  0  0
  -19.6699  -27.3513   20.6803 H   0  0  0  0  0  0
  -19.7146  -25.6567   21.1013 H   0  0  0  0  0  0
  -17.4363  -26.6799   21.3810 H   0  0  0  0  0  0
  -18.0280  -25.9943   22.8777 H   0  0  0  0  0  0
  -19.7929  -30.7257   24.2264 H   0  0  0  0  0  0
  -17.4919  -31.6183   24.5231 H   0  0  0  0  0  0
  -15.5326  -30.2878   23.7641 H   0  0  0  0  0  0
  -15.8733  -28.0773   22.6861 H   0  0  0  0  0  0
  -24.5933  -30.7072   25.7871 H   0  0  0  0  0  0
  -24.9012  -32.2909   26.4947 H   0  0  0  0  0  0
  -25.8181  -30.8938   27.0226 H   0  0  0  0  0  0
  -26.2910  -29.6769   24.1130 H   0  0  0  0  0  0
  -27.4127  -29.7304   25.4507 H   0  0  0  0  0  0
  -27.8715  -30.4345   23.9210 H   0  0  0  0  0  0
  -27.2681  -33.3582   26.2103 H   0  0  0  0  0  0
  -28.3852  -32.6896   25.0282 H   0  0  0  0  0  0
  -28.0759  -31.8403   26.5329 H   0  0  0  0  0  0
  -28.2626  -38.0102   24.7513 H   0  0  0  0  0  0
  -28.1054  -36.2633   24.6298 H   0  0  0  0  0  0
  -27.2329  -37.1487   25.8874 H   0  0  0  0  0  0
  -20.9312  -29.8956   21.7155 H   0  0  0  0  0  0
  -26.0181  -38.2884   24.1358 H   0  0  0  0  0  0
  -23.0203  -20.0835   15.6142 H   0  0  0  0  0  0
  -21.1714  -18.4175   15.6582 H   0  0  0  0  0  0
  -25.2933  -19.4285   16.3003 H   0  0  0  0  0  0
  -21.6327  -16.0711   16.3368 H   0  0  0  0  0  0
  -29.3739  -18.5950   22.5613 H   0  0  0  0  0  0
  -28.9877  -16.8207   18.6303 H   0  0  0  0  0  0
  -25.7930  -19.1470   20.2858 H   0  0  0  0  0  0
  -30.4591  -17.2822   23.8070 H   0  0  0  0  0  0
  -31.8914  -16.2859   23.8432 H   0  0  0  0  0  0
  -32.5572  -16.9011   21.7131 H   0  0  0  0  0  0
  -31.6457  -18.3672   21.9797 H   0  0  0  0  0  0
  -29.1752  -15.5707   23.0226 H   0  0  0  0  0  0
  -30.5449  -14.4755   23.1658 H   0  0  0  0  0  0
  -31.1256  -16.8098   19.8734 H   0  0  0  0  0  0
  -24.2490  -22.6621   19.9462 H   0  0  0  0  0  0
  -23.8215  -22.6658   21.6720 H   0  0  0  0  0  0
  -23.6517  -21.2112   20.6913 H   0  0  0  0  0  0
  -27.8398  -20.6538   22.9063 H   0  0  0  0  0  0
  -26.9396  -19.3126   23.5512 H   0  0  0  0  0  0
  -25.4531  -21.2067   23.3057 H   0  0  0  0  0  0
  -24.9523  -19.9194   22.2667 H   0  0  0  0  0  0
  -29.2065  -24.0141   19.6920 H   0  0  0  0  0  0
  -27.7518  -24.5974   18.9694 H   0  0  0  0  0  0
  -29.0479  -25.4011   21.5796 H   0  0  0  0  0  0
  -27.3172  -25.6040   21.5000 H   0  0  0  0  0  0
  -26.0669  -21.1700   20.2970 H   0  0  0  0  0  0
  -25.9677  -18.8898   18.0480 H   0  0  0  0  0  0
  -27.4586  -22.3756   19.6613 H   0  0  0  0  0  0
  1 25  1  0  0  0
  1 30  2  0  0  0
  1 95  1  0  0  0
  2  3  1  0  0  0
  2 25  1  0  0  0
  2101  1  0  0  0
  2102  1  0  0  0
  3  4  1  0  0  0
  3103  1  0  0  0
  3104  1  0  0  0
  4  5  1  0  0  0
  4105  1  0  0  0
  4106  1  0  0  0
  5  6  1  0  0  0
  5 26  1  0  0  0
  5107  1  0  0  0
  6 25  1  0  0  0
  6108  1  0  0  0
  6109  1  0  0  0
  7  8  2  0  0  0
  7 26  1  0  0  0
  7 29  1  0  0  0
  8  9  1  0  0  0
  8 22  1  0  0  0
  9 10  1  0  0  0
  9 27  2  0  0  0
 10 11  2  0  0  0
 10 15  1  0  0  0
 11 12  1  0  0  0
 11110  1  0  0  0
 12 13  2  0  0  0
 12111  1  0  0  0
 13 14  1  0  0  0
 13 31  1  0  0  0
 14 15  2  0  0  0
 14112  1  0  0  0
 15113  1  0  0  0
 16 17  2  0  0  0
 16 21  1  0  0  0
 16 31  1  0  0  0
 17 18  1  0  0  0
 17114  1  0  0  0
 18 19  2  0  0  0
 18115  1  0  0  0
 19 20  1  0  0  0
 19 24  1  0  0  0
 20 21  2  0  0  0
 20116  1  0  0  0
 21 23  1  0  0  0
 22 28  1  0  0  0
 22 32  2  0  0  0
 26 27  1  0  0  0
 28117  1  0  0  0
 28118  1  0  0  0
 29119  1  0  0  0
 29120  1  0  0  0
 33 34  1  0  0  0
 33 66  1  0  0  0
 33 70  2  0  0  0
 34 36  1  0  0  0
 34 59  1  0  0  0
 34121  1  0  0  0
 35 44  2  0  0  0
 35 45  1  0  0  0
 35 68  1  0  0  0
 36 56  1  0  0  0
 36122  1  0  0  0
 37 39  1  0  0  0
 37 47  1  0  0  0
 37 66  1  0  0  0
 37123  1  0  0  0
 38 43  2  0  0  0
 38 46  1  0  0  0
 38 47  1  0  0  0
 39 64  1  0  0  0
 39 67  2  0  0  0
 40 52  1  0  0  0
 40 53  2  0  0  0
 40 58  1  0  0  0
 41124  1  0  0  0
 41125  1  0  0  0
 41126  1  0  0  0
 41 48  1  0  0  0
 42 43  1  0  0  0
 42 66  1  0  0  0
 42127  1  0  0  0
 42128  1  0  0  0
 43 44  1  0  0  0
 44129  1  0  0  0
 45 46  2  0  0  0
 45130  1  0  0  0
 46131  1  0  0  0
 47132  1  0  0  0
 47133  1  0  0  0
 48 56  1  0  0  0
 48 65  1  0  0  0
 48134  1  0  0  0
 49 50  1  0  0  0
 49 53  1  0  0  0
 49 64  1  0  0  0
 49135  1  0  0  0
 50 51  1  0  0  0
 50136  1  0  0  0
 50137  1  0  0  0
 51 52  1  0  0  0
 51138  1  0  0  0
 51139  1  0  0  0
 52140  1  0  0  0
 52141  1  0  0  0
 53 54  1  0  0  0
 54 55  2  0  0  0
 54142  1  0  0  0
 55 57  1  0  0  0
 55143  1  0  0  0
 56 69  2  0  0  0
 57 58  2  0  0  0
 57144  1  0  0  0
 58145  1  0  0  0
 59 60  1  0  0  0
 59 61  1  0  0  0
 59 62  1  0  0  0
 60146  1  0  0  0
 60147  1  0  0  0
 60148  1  0  0  0
 61149  1  0  0  0
 61150  1  0  0  0
 61151  1  0  0  0
 62152  1  0  0  0
 62153  1  0  0  0
 62154  1  0  0  0
 63 65  1  0  0  0
 63155  1  0  0  0
 63156  1  0  0  0
 63157  1  0  0  0
 64158  1  0  0  0
 65159  1  0  0  0
 68 93  1  0  0  0
 71 72  2  0  0  0
 71 73  1  0  0  0
 71160  1  0  0  0
 72 74  1  0  0  0
 72161  1  0  0  0
 73 78  2  0  0  0
 73162  1  0  0  0
 74 82  2  0  0  0
 74163  1  0  0  0
 75 79  2  0  0  0
 75 80  1  0  0  0
 75164  1  0  0  0
 76 79  1  0  0  0
 76 81  2  0  0  0
 76165  1  0  0  0
 77 80  2  0  0  0
 77 81  1  0  0  0
 77166  1  0  0  0
 78 82  1  0  0  0
 78 83  1  0  0  0
 79 88  1  0  0  0
 80 90  1  0  0  0
 81 96  1  0  0  0
 82100  1  0  0  0
 83 96  1  0  0  0
 83 98  2  0  0  0
 84 94  1  0  0  0
 84 97  1  0  0  0
 84 99  2  0  0  0
 85 86  1  0  0  0
 85 87  1  0  0  0
 85167  1  0  0  0
 85168  1  0  0  0
 86 88  1  0  0  0
 86169  1  0  0  0
 86170  1  0  0  0
 87 95  1  0  0  0
 87171  1  0  0  0
 87172  1  0  0  0
 88 95  1  0  0  0
 88173  1  0  0  0
 89174  1  0  0  0
 89175  1  0  0  0
 89176  1  0  0  0
 89 94  1  0  0  0
 90 91  1  0  0  0
 90177  1  0  0  0
 90178  1  0  0  0
 91 94  1  0  0  0
 91179  1  0  0  0
 91180  1  0  0  0
 92 93  1  0  0  0
 92 97  1  0  0  0
 92181  1  0  0  0
 92182  1  0  0  0
 93183  1  0  0  0
 93184  1  0  0  0
 94185  1  0  0  0
 96186  1  0  0  0
 97187  1  0  0  0
M  ISO  4   1 100  68 101  93 101  95 100
M  END
> <chiral flag>
0

> <version>
0

> <s_m_source_file>
/data/baiqing/PycharmProjects/Reinvent-master-3.2/result/LINK_invent/BTK/process_docking_weight1_custom_product_contain_oxygen_bond_distance_aromatic_linkinvent_7_9_3/rearranged_h_0003.sdf

> <i_m_source_file_index>
82

> <r_mmod_Potential_Energy-OPLS-2005>
180.065078735352

> <r_mmod_Stretch_Energy-OPLS-2005>
37.3678131103516

> <r_mmod_Bend_Energy-OPLS-2005>
155.949890136719

> <r_mmod_Torsional_Energy-OPLS-2005>
410.390228271484

> <r_mmod_Improper_Torsional_Energy-OPLS-2005>
10.8537874221802

> <r_mmod_Van_der_Waal_Energy-OPLS-2005>
172.110977172852

> <r_mmod_Electrostatic_Energy-OPLS-2005>
-386.970489501953

> <r_mmod_Solvation_Energy-OPLS-2005>
-233.510040283203

> <b_mmod_Minimization_Converged-OPLS-2005>
0

> <r_mmod_RMS_Derivative-OPLS-2005>
6.20214176177979

$$$$
82
                    3D
 Structure written by MMmdl.
152160  0  0  1  0            999 V2000
  -30.6493  -14.6606   20.4945 C   0  0  0  0  0  0
  -30.4246  -12.4107   19.4514 C   0  0  0  0  0  0
  -29.4996  -12.4989   18.2197 C   0  0  0  0  0  0
  -28.0249  -12.3364   18.6369 C   0  0  0  0  0  0
  -27.6430  -13.2255   19.8510 C   0  0  2  0  0  0
  -28.6890  -13.1264   20.9814 C   0  0  0  0  0  0
  -25.2514  -13.8189   20.5681 C   0  0  0  0  0  0
  -24.1801  -13.0441   20.9200 C   0  0  0  0  0  0
  -24.6386  -11.6916   20.8746 C   0  0  0  0  0  0
  -23.9064  -10.4291   21.0408 C   0  0  0  0  0  0
  -24.3616   -9.4207   21.9185 C   0  0  0  0  0  0
  -23.6292   -8.2242   22.0754 C   0  0  0  0  0  0
  -22.4275   -8.0278   21.3544 C   0  0  0  0  0  0
  -21.9910   -9.0251   20.4646 C   0  0  0  0  0  0
  -22.7236  -10.2132   20.3057 C   0  0  0  0  0  0
  -21.6854   -6.0733   22.5277 C   0  0  0  0  0  0
  -21.4014   -6.5637   23.8209 C   0  0  0  0  0  0
  -21.3660   -5.6791   24.9173 C   0  0  0  0  0  0
  -21.6046   -4.3053   24.7224 C   0  0  0  0  0  0
  -21.8819   -3.8144   23.4346 C   0  0  0  0  0  0
  -21.9193   -4.6961   22.3401 C   0  0  0  0  0  0
  -22.7823  -13.5225   21.1865 C   0  0  0  0  0  0
  -22.1661   -4.2144   21.0980 F   0  0  0  0  0  0
  -21.5632   -3.4538   25.7739 F   0  0  0  0  0  0
  -29.9936  -13.4603   20.3979 N   0  0  0  0  0  0
  -26.2938  -12.9386   20.3281 N   0  0  0  0  0  0
  -25.9314  -11.6534   20.5751 N   0  0  0  0  0  0
  -22.0475  -12.8210   22.0422 N   0  0  0  0  0  0
  -25.4206  -15.1911   20.4079 N   0  0  0  0  0  0
  -31.8354  -14.7519   20.1689 O   0  0  0  0  0  0
  -21.6640   -6.8874   21.4239 O   0  0  0  0  0  0
  -22.3506  -14.5532   20.6716 O   0  0  0  0  0  0
  -24.6261  -31.8588   23.2004 C   0  0  0  0  0  0
  -25.9105  -32.4774   23.8341 C   0  0  1  0  0  0
  -27.2245  -27.3179   20.1278 C   0  0  0  0  0  0
  -25.5923  -33.8574   24.2272 N   0  0  0  0  0  0
  -23.4203  -30.4801   21.5429 C   0  0  2  0  0  0
  -24.8670  -28.9256   20.1172 C   0  0  0  0  0  0
  -22.7473  -29.4620   22.4939 C   0  0  0  0  0  0
  -18.0286  -28.1394   22.8491 C   0  0  0  0  0  0
  -24.1486  -36.7290   23.2641 C   0  0  0  0  0  0
  -25.9596  -30.7903   21.3685 C   0  0  0  0  0  0
  -26.0354  -29.4144   20.7169 C   0  0  0  0  0  0
  -27.2215  -28.6234   20.7070 C   0  0  0  0  0  0
  -26.0366  -26.8695   19.5177 C   0  0  0  0  0  0
  -24.8687  -27.6588   19.5083 C   0  0  0  0  0  0
  -23.6356  -29.8083   20.1608 C   0  0  0  0  0  0
  -25.4112  -36.3081   24.0330 C   0  0  1  0  0  0
  -20.5887  -28.3693   23.1291 C   0  0  2  0  0  0
  -20.6776  -26.9417   22.5415 C   0  0  0  0  0  0
  -19.5750  -26.6393   21.5218 C   0  0  0  0  0  0
  -18.1930  -26.7937   22.1630 C   0  0  0  0  0  0
  -19.1539  -28.8861   23.2888 C   0  0  0  0  0  0
  -18.9462  -30.1465   23.8899 C   0  0  0  0  0  0
  -17.6461  -30.6595   24.0570 C   0  0  0  0  0  0
  -25.9050  -34.9450   23.5104 C   0  0  0  0  0  0
  -16.5353  -29.9094   23.6336 C   0  0  0  0  0  0
  -16.7274  -28.6516   23.0351 C   0  0  0  0  0  0
  -26.4493  -31.6585   25.0710 C   0  0  0  0  0  0
  -25.3729  -31.3720   26.1440 C   0  0  0  0  0  0
  -27.0336  -30.3013   24.6154 C   0  0  0  0  0  0
  -27.6053  -32.4317   25.7482 C   0  0  0  0  0  0
  -27.5577  -37.1803   24.8467 C   0  0  0  0  0  0
  -21.4187  -29.3043   22.3679 N   0  0  0  0  0  0
  -26.4289  -37.3776   23.9410 N   0  0  0  0  0  0
  -24.6876  -31.0603   22.0946 N   0  0  0  0  0  0
  -23.4194  -28.8171   23.3029 O   0  0  0  0  0  0
  -28.3440  -26.4807   20.1114 O   0  0  0  0  0  0
  -26.5619  -34.8920   22.4670 O   0  0  0  0  0  0
  -23.5425  -32.1378   23.7338 O   0  0  0  0  0  0
  -28.7360  -19.1166   20.9649 C   0  0  0  0  0  0
  -31.0018  -19.4483   20.2542 C   0  0  0  0  0  0
  -28.4748  -20.5207   20.7753 C   0  0  0  0  0  0
  -30.7474  -20.8370   20.0821 C   0  0  0  0  0  0
  -30.0234  -18.5443   20.7403 C   0  0  0  0  0  0
  -29.4937  -21.4321   20.3690 C   0  0  0  0  0  0
  -30.4966  -17.1145   21.2294 C   0  0  0  0  0  0
  -28.2290  -23.7675   20.0806 C   0  0  0  0  0  0
  -28.2645  -25.1877   20.8266 C   0  0  0  0  0  0
  -29.4064  -22.8683   20.2987 N   0  0  0  0  0  0
  -29.9223  -15.7872   20.8039 N   0  0  0  0  0  0
  -31.4664  -12.5243   19.1470 H   0  0  0  0  0  0
  -30.3552  -11.4269   19.9184 H   0  0  0  0  0  0
  -29.7673  -11.7339   17.4896 H   0  0  0  0  0  0
  -29.6376  -13.4598   17.7213 H   0  0  0  0  0  0
  -27.8691  -11.2860   18.8856 H   0  0  0  0  0  0
  -27.3675  -12.5480   17.7926 H   0  0  0  0  0  0
  -27.6481  -14.2533   19.4877 H   0  0  0  0  0  0
  -28.7092  -12.1210   21.4044 H   0  0  0  0  0  0
  -28.4364  -13.7971   21.8043 H   0  0  0  0  0  0
  -25.2763   -9.5683   22.4756 H   0  0  0  0  0  0
  -24.0002   -7.4634   22.7473 H   0  0  0  0  0  0
  -21.0841   -8.8770   19.8951 H   0  0  0  0  0  0
  -22.3695  -10.9670   19.6163 H   0  0  0  0  0  0
  -21.2005   -7.6145   23.9710 H   0  0  0  0  0  0
  -21.1484   -6.0523   25.9075 H   0  0  0  0  0  0
  -22.0598   -2.7606   23.2848 H   0  0  0  0  0  0
  -22.4098  -11.9870   22.4803 H   0  0  0  0  0  0
  -21.1094  -13.1230   22.2638 H   0  0  0  0  0  0
  -24.6514  -15.8435   20.5126 H   0  0  0  0  0  0
  -26.2635  -15.6290   20.0588 H   0  0  0  0  0  0
  -26.7173  -32.5447   23.1092 H   0  0  0  0  0  0
  -25.0066  -33.9713   25.0416 H   0  0  0  0  0  0
  -22.7144  -31.3004   21.3971 H   0  0  0  0  0  0
  -23.3746  -35.9626   23.3308 H   0  0  0  0  0  0
  -24.3576  -36.8905   22.2055 H   0  0  0  0  0  0
  -23.7237  -37.6494   23.6656 H   0  0  0  0  0  0
  -26.0864  -31.5498   20.5960 H   0  0  0  0  0  0
  -26.8418  -30.8448   21.9945 H   0  0  0  0  0  0
  -28.1240  -28.9973   21.1701 H   0  0  0  0  0  0
  -26.0118  -25.8950   19.0507 H   0  0  0  0  0  0
  -23.9721  -27.2787   19.0379 H   0  0  0  0  0  0
  -23.7567  -30.5810   19.4007 H   0  0  0  0  0  0
  -22.7551  -29.2377   19.8601 H   0  0  0  0  0  0
  -25.1293  -36.1933   25.0821 H   0  0  0  0  0  0
  -20.9985  -28.3271   24.1410 H   0  0  0  0  0  0
  -20.5689  -26.2302   23.3613 H   0  0  0  0  0  0
  -21.6646  -26.7455   22.1202 H   0  0  0  0  0  0
  -19.6909  -25.6304   21.1247 H   0  0  0  0  0  0
  -19.6689  -27.3207   20.6751 H   0  0  0  0  0  0
  -17.4202  -26.6693   21.4027 H   0  0  0  0  0  0
  -18.0328  -26.0080   22.9028 H   0  0  0  0  0  0
  -19.7934  -30.7290   24.2264 H   0  0  0  0  0  0
  -17.5012  -31.6273   24.5177 H   0  0  0  0  0  0
  -15.5352  -30.2998   23.7656 H   0  0  0  0  0  0
  -15.8675  -28.0839   22.7056 H   0  0  0  0  0  0
  -24.5901  -30.7071   25.7769 H   0  0  0  0  0  0
  -24.8921  -32.2886   26.4869 H   0  0  0  0  0  0
  -25.8056  -30.8894   27.0212 H   0  0  0  0  0  0
  -26.2905  -29.6762   24.1184 H   0  0  0  0  0  0
  -27.4051  -29.7268   25.4651 H   0  0  0  0  0  0
  -27.8767  -30.4309   23.9361 H   0  0  0  0  0  0
  -27.2664  -33.3615   26.2064 H   0  0  0  0  0  0
  -28.3861  -32.6883   25.0310 H   0  0  0  0  0  0
  -28.0722  -31.8437   26.5393 H   0  0  0  0  0  0
  -28.2603  -38.0092   24.7511 H   0  0  0  0  0  0
  -28.1064  -36.2625   24.6299 H   0  0  0  0  0  0
  -27.2297  -37.1462   25.8871 H   0  0  0  0  0  0
  -20.9368  -29.8751   21.6875 H   0  0  0  0  0  0
  -26.0171  -38.2851   24.1407 H   0  0  0  0  0  0
  -27.9472  -18.4921   21.3606 H   0  0  0  0  0  0
  -32.0071  -19.0934   20.0753 H   0  0  0  0  0  0
  -27.4911  -20.8984   21.0147 H   0  0  0  0  0  0
  -31.5699  -21.4607   19.7601 H   0  0  0  0  0  0
  -30.3855  -17.1352   22.3143 H   0  0  0  0  0  0
  -31.5775  -17.0775   21.0843 H   0  0  0  0  0  0
  -28.1131  -23.9332   19.0088 H   0  0  0  0  0  0
  -27.3292  -23.2355   20.3921 H   0  0  0  0  0  0
  -29.1096  -25.1825   21.5157 H   0  0  0  0  0  0
  -27.3970  -25.2245   21.4881 H   0  0  0  0  0  0
  -30.2922  -23.3330   20.1129 H   0  0  0  0  0  0
  -28.9353  -15.6543   20.9601 H   0  0  0  0  0  0
  1 25  1  0  0  0
  1 30  2  0  0  0
  1 81  1  0  0  0
  2  3  1  0  0  0
  2 25  1  0  0  0
  2 82  1  0  0  0
  2 83  1  0  0  0
  3  4  1  0  0  0
  3 84  1  0  0  0
  3 85  1  0  0  0
  4  5  1  0  0  0
  4 86  1  0  0  0
  4 87  1  0  0  0
  5  6  1  0  0  0
  5 26  1  0  0  0
  5 88  1  0  0  0
  6 25  1  0  0  0
  6 89  1  0  0  0
  6 90  1  0  0  0
  7  8  2  0  0  0
  7 26  1  0  0  0
  7 29  1  0  0  0
  8  9  1  0  0  0
  8 22  1  0  0  0
  9 10  1  0  0  0
  9 27  2  0  0  0
 10 11  2  0  0  0
 10 15  1  0  0  0
 11 12  1  0  0  0
 11 91  1  0  0  0
 12 13  2  0  0  0
 12 92  1  0  0  0
 13 14  1  0  0  0
 13 31  1  0  0  0
 14 15  2  0  0  0
 14 93  1  0  0  0
 15 94  1  0  0  0
 16 17  2  0  0  0
 16 21  1  0  0  0
 16 31  1  0  0  0
 17 18  1  0  0  0
 17 95  1  0  0  0
 18 19  2  0  0  0
 18 96  1  0  0  0
 19 20  1  0  0  0
 19 24  1  0  0  0
 20 21  2  0  0  0
 20 97  1  0  0  0
 21 23  1  0  0  0
 22 28  1  0  0  0
 22 32  2  0  0  0
 26 27  1  0  0  0
 28 98  1  0  0  0
 28 99  1  0  0  0
 29100  1  0  0  0
 29101  1  0  0  0
 33 34  1  0  0  0
 33 66  1  0  0  0
 33 70  2  0  0  0
 34 36  1  0  0  0
 34 59  1  0  0  0
 34102  1  0  0  0
 35 44  2  0  0  0
 35 45  1  0  0  0
 35 68  1  0  0  0
 36 56  1  0  0  0
 36103  1  0  0  0
 37 39  1  0  0  0
 37 47  1  0  0  0
 37 66  1  0  0  0
 37104  1  0  0  0
 38 43  2  0  0  0
 38 46  1  0  0  0
 38 47  1  0  0  0
 39 64  1  0  0  0
 39 67  2  0  0  0
 40 52  1  0  0  0
 40 53  2  0  0  0
 40 58  1  0  0  0
 41105  1  0  0  0
 41106  1  0  0  0
 41107  1  0  0  0
 41 48  1  0  0  0
 42 43  1  0  0  0
 42 66  1  0  0  0
 42108  1  0  0  0
 42109  1  0  0  0
 43 44  1  0  0  0
 44110  1  0  0  0
 45 46  2  0  0  0
 45111  1  0  0  0
 46112  1  0  0  0
 47113  1  0  0  0
 47114  1  0  0  0
 48 56  1  0  0  0
 48 65  1  0  0  0
 48115  1  0  0  0
 49 50  1  0  0  0
 49 53  1  0  0  0
 49 64  1  0  0  0
 49116  1  0  0  0
 50 51  1  0  0  0
 50117  1  0  0  0
 50118  1  0  0  0
 51 52  1  0  0  0
 51119  1  0  0  0
 51120  1  0  0  0
 52121  1  0  0  0
 52122  1  0  0  0
 53 54  1  0  0  0
 54 55  2  0  0  0
 54123  1  0  0  0
 55 57  1  0  0  0
 55124  1  0  0  0
 56 69  2  0  0  0
 57 58  2  0  0  0
 57125  1  0  0  0
 58126  1  0  0  0
 59 60  1  0  0  0
 59 61  1  0  0  0
 59 62  1  0  0  0
 60127  1  0  0  0
 60128  1  0  0  0
 60129  1  0  0  0
 61130  1  0  0  0
 61131  1  0  0  0
 61132  1  0  0  0
 62133  1  0  0  0
 62134  1  0  0  0
 62135  1  0  0  0
 63 65  1  0  0  0
 63136  1  0  0  0
 63137  1  0  0  0
 63138  1  0  0  0
 64139  1  0  0  0
 65140  1  0  0  0
 68 79  1  0  0  0
 71 73  2  0  0  0
 71 75  1  0  0  0
 71141  1  0  0  0
 72 74  1  0  0  0
 72 75  2  0  0  0
 72142  1  0  0  0
 73 76  1  0  0  0
 73143  1  0  0  0
 74 76  2  0  0  0
 74144  1  0  0  0
 75 77  1  0  0  0
 76 80  1  0  0  0
 77 81  1  0  0  0
 77145  1  0  0  0
 77146  1  0  0  0
 78 79  1  0  0  0
 78 80  1  0  0  0
 78147  1  0  0  0
 78148  1  0  0  0
 79149  1  0  0  0
 79150  1  0  0  0
 80151  1  0  0  0
 81152  1  0  0  0
M  ISO  4   1 100  68 101  79 101  81 100
M  END
> <chiral flag>
0

> <version>
0

> <s_m_source_file>
/data/baiqing/PycharmProjects/Reinvent-master-3.2/result/LINK_invent/BTK/process_docking_weight1_custom_product_contain_oxygen_bond_distance_aromatic_linkinvent_7_9_3/rearranged_h_0003.sdf

> <i_m_source_file_index>
83

> <r_mmod_Potential_Energy-OPLS-2005>
63.0585403442383

> <r_mmod_Stretch_Energy-OPLS-2005>
81.1610641479492

> <r_mmod_Bend_Energy-OPLS-2005>
174.89680480957

> <r_mmod_Torsional_Energy-OPLS-2005>
241.982162475586

> <r_mmod_Improper_Torsional_Energy-OPLS-2005>
6.58746862411499

> <r_mmod_Van_der_Waal_Energy-OPLS-2005>
138.201919555664

> <r_mmod_Electrostatic_Energy-OPLS-2005>
-409.924652099609

> <r_mmod_Solvation_Energy-OPLS-2005>
-222.65576171875

> <b_mmod_Minimization_Converged-OPLS-2005>
0

> <r_mmod_RMS_Derivative-OPLS-2005>
0.500587821006775

$$$$
83
                    3D
 Structure written by MMmdl.
147155  0  0  1  0            999 V2000
  -30.4075  -15.3385   20.3686 C   0  0  0  0  0  0
  -30.4394  -12.8683   19.5103 C   0  0  0  0  0  0
  -29.5353  -12.5855   18.2833 C   0  0  0  0  0  0
  -28.0893  -12.2930   18.7211 C   0  0  0  0  0  0
  -27.6063  -13.2779   19.8137 C   0  0  2  0  0  0
  -28.6417  -13.4868   20.9380 C   0  0  0  0  0  0
  -25.2377  -13.8243   20.5753 C   0  0  0  0  0  0
  -24.1737  -13.0429   20.9269 C   0  0  0  0  0  0
  -24.6398  -11.6928   20.8766 C   0  0  0  0  0  0
  -23.9094  -10.4288   21.0407 C   0  0  0  0  0  0
  -24.3638   -9.4202   21.9186 C   0  0  0  0  0  0
  -23.6304   -8.2241   22.0755 C   0  0  0  0  0  0
  -22.4285   -8.0282   21.3545 C   0  0  0  0  0  0
  -21.9928   -9.0257   20.4645 C   0  0  0  0  0  0
  -22.7265  -10.2131   20.3055 C   0  0  0  0  0  0
  -21.6855   -6.0738   22.5279 C   0  0  0  0  0  0
  -21.4016   -6.5641   23.8213 C   0  0  0  0  0  0
  -21.3660   -5.6793   24.9174 C   0  0  0  0  0  0
  -21.6044   -4.3056   24.7225 C   0  0  0  0  0  0
  -21.8819   -3.8148   23.4346 C   0  0  0  0  0  0
  -21.9193   -4.6965   22.3402 C   0  0  0  0  0  0
  -22.7753  -13.5180   21.1913 C   0  0  0  0  0  0
  -22.1661   -4.2151   21.0979 F   0  0  0  0  0  0
  -21.5628   -3.4539   25.7737 F   0  0  0  0  0  0
  -29.8534  -14.0220   20.2918 N   0  0  0  0  0  0
  -26.2801  -12.9521   20.3202 N   0  0  0  0  0  0
  -25.9334  -11.6624   20.5711 N   0  0  0  0  0  0
  -22.0412  -12.8161   22.0465 N   0  0  0  0  0  0
  -25.3993  -15.1980   20.4188 N   0  0  0  0  0  0
  -31.6420  -15.3254   20.2462 O   0  0  0  0  0  0
  -21.6644   -6.8882   21.4242 O   0  0  0  0  0  0
  -22.3433  -14.5481   20.6751 O   0  0  0  0  0  0
  -24.6676  -31.8193   23.1665 C   0  0  0  0  0  0
  -25.9335  -32.4567   23.8148 C   0  0  1  0  0  0
  -27.2191  -26.8807   20.2005 C   0  0  0  0  0  0
  -25.5984  -33.8383   24.2051 N   0  0  0  0  0  0
  -23.4844  -30.4287   21.5177 C   0  0  2  0  0  0
  -24.9377  -28.8020   20.1222 C   0  0  0  0  0  0
  -22.7687  -29.4421   22.4778 C   0  0  0  0  0  0
  -18.0326  -28.1411   22.8465 C   0  0  0  0  0  0
  -24.1494  -36.7197   23.2648 C   0  0  0  0  0  0
  -26.0566  -30.6118   21.4026 C   0  0  0  0  0  0
  -26.1252  -29.1943   20.7534 C   0  0  0  0  0  0
  -27.2630  -28.2590   20.7592 C   0  0  0  0  0  0
  -25.9986  -26.6489   19.5275 C   0  0  0  0  0  0
  -24.9018  -27.5500   19.4879 C   0  0  0  0  0  0
  -23.7278  -29.7379   20.1478 C   0  0  0  0  0  0
  -25.4137  -36.2954   24.0296 C   0  0  1  0  0  0
  -20.5953  -28.3760   23.1180 C   0  0  2  0  0  0
  -20.6801  -26.9438   22.5402 C   0  0  0  0  0  0
  -19.5775  -26.6377   21.5215 C   0  0  0  0  0  0
  -18.1957  -26.7943   22.1622 C   0  0  0  0  0  0
  -19.1588  -28.8907   23.2808 C   0  0  0  0  0  0
  -18.9497  -30.1496   23.8845 C   0  0  0  0  0  0
  -17.6489  -30.6599   24.0554 C   0  0  0  0  0  0
  -25.9105  -34.9339   23.4997 C   0  0  0  0  0  0
  -16.5379  -29.9085   23.6345 C   0  0  0  0  0  0
  -16.7307  -28.6506   23.0363 C   0  0  0  0  0  0
  -26.4569  -31.6528   25.0695 C   0  0  0  0  0  0
  -25.3682  -31.3791   26.1341 C   0  0  0  0  0  0
  -27.0475  -30.2890   24.6459 C   0  0  0  0  0  0
  -27.6050  -32.4348   25.7505 C   0  0  0  0  0  0
  -27.5568  -37.1756   24.8467 C   0  0  0  0  0  0
  -21.4353  -29.3043   22.3525 N   0  0  0  0  0  0
  -26.4278  -37.3695   23.9408 N   0  0  0  0  0  0
  -24.7582  -30.9814   22.0825 N   0  0  0  0  0  0
  -23.4213  -28.7999   23.3043 O   0  0  0  0  0  0
  -28.2246  -25.7619   20.1857 O   0  0  0  0  0  0
  -26.5721  -34.8883   22.4598 O   0  0  0  0  0  0
  -23.5734  -32.1182   23.6731 O   0  0  0  0  0  0
  -28.9453  -21.1695   17.9988 C   0  0  0  0  0  0
  -29.2196  -19.9454   18.6761 C   0  0  0  0  0  0
  -28.6601  -22.4175   18.6269 C   0  0  0  0  0  0
  -28.9239  -21.2205   20.7003 C   0  0  0  0  0  0
  -29.2567  -19.8277   20.0822 C   0  0  0  0  0  0
  -28.6045  -22.5905   20.0271 C   0  0  0  0  0  0
  -29.8038  -18.2707   20.7308 C   0  0  0  0  0  0
  -28.0097  -24.1588   20.6024 C   0  0  0  0  0  0
  -29.6295  -16.6212   20.3858 N   0  0  0  0  0  0
  -31.4482  -13.0988   19.1653 H   0  0  0  0  0  0
  -30.5387  -11.9797   20.1359 H   0  0  0  0  0  0
  -29.9296  -11.7509   17.7022 H   0  0  0  0  0  0
  -29.5454  -13.4526   17.6211 H   0  0  0  0  0  0
  -28.0631  -11.2750   19.1117 H   0  0  0  0  0  0
  -27.4172  -12.3093   17.8623 H   0  0  0  0  0  0
  -27.5076  -14.2341   19.2984 H   0  0  0  0  0  0
  -28.8363  -12.5627   21.4844 H   0  0  0  0  0  0
  -28.2690  -14.2079   21.6672 H   0  0  0  0  0  0
  -25.2779   -9.5677   22.4767 H   0  0  0  0  0  0
  -24.0008   -7.4632   22.7477 H   0  0  0  0  0  0
  -21.0859   -8.8781   19.8951 H   0  0  0  0  0  0
  -22.3724  -10.9673   19.6167 H   0  0  0  0  0  0
  -21.2010   -7.6149   23.9716 H   0  0  0  0  0  0
  -21.1482   -6.0523   25.9077 H   0  0  0  0  0  0
  -22.0597   -2.7610   23.2845 H   0  0  0  0  0  0
  -22.4047  -11.9832   22.4857 H   0  0  0  0  0  0
  -21.1022  -13.1164   22.2666 H   0  0  0  0  0  0
  -24.6265  -15.8451   20.5329 H   0  0  0  0  0  0
  -26.2357  -15.6418   20.0643 H   0  0  0  0  0  0
  -26.7408  -32.5095   23.0864 H   0  0  0  0  0  0
  -25.0072  -33.9453   25.0163 H   0  0  0  0  0  0
  -22.8002  -31.2613   21.3415 H   0  0  0  0  0  0
  -23.3771  -35.9511   23.3272 H   0  0  0  0  0  0
  -24.3570  -36.8885   22.2070 H   0  0  0  0  0  0
  -23.7237  -37.6366   23.6734 H   0  0  0  0  0  0
  -26.2389  -31.3476   20.6182 H   0  0  0  0  0  0
  -26.9157  -30.6743   22.0585 H   0  0  0  0  0  0
  -28.1689  -28.5669   21.2622 H   0  0  0  0  0  0
  -25.8699  -25.6954   19.0348 H   0  0  0  0  0  0
  -24.0014  -27.2428   18.9738 H   0  0  0  0  0  0
  -23.8906  -30.5027   19.3876 H   0  0  0  0  0  0
  -22.8360  -29.1960   19.8281 H   0  0  0  0  0  0
  -25.1338  -36.1743   25.0787 H   0  0  0  0  0  0
  -21.0037  -28.3369   24.1305 H   0  0  0  0  0  0
  -20.5680  -26.2380   23.3646 H   0  0  0  0  0  0
  -21.6664  -26.7409   22.1210 H   0  0  0  0  0  0
  -19.6934  -25.6274   21.1279 H   0  0  0  0  0  0
  -19.6713  -27.3158   20.6722 H   0  0  0  0  0  0
  -17.4226  -26.6685   21.4027 H   0  0  0  0  0  0
  -18.0352  -26.0099   22.9032 H   0  0  0  0  0  0
  -19.7972  -30.7327   24.2191 H   0  0  0  0  0  0
  -17.5039  -31.6274   24.5166 H   0  0  0  0  0  0
  -15.5377  -30.2969   23.7699 H   0  0  0  0  0  0
  -15.8708  -28.0806   22.7109 H   0  0  0  0  0  0
  -24.5883  -30.7122   25.7647 H   0  0  0  0  0  0
  -24.8852  -32.2996   26.4628 H   0  0  0  0  0  0
  -25.7902  -30.9048   27.0211 H   0  0  0  0  0  0
  -26.3154  -29.6552   24.1444 H   0  0  0  0  0  0
  -27.3969  -29.7271   25.5132 H   0  0  0  0  0  0
  -27.9108  -30.4062   23.9907 H   0  0  0  0  0  0
  -27.2610  -33.3698   26.1940 H   0  0  0  0  0  0
  -28.3937  -32.6831   25.0390 H   0  0  0  0  0  0
  -28.0634  -31.8571   26.5540 H   0  0  0  0  0  0
  -28.2565  -38.0071   24.7512 H   0  0  0  0  0  0
  -28.1085  -36.2596   24.6297 H   0  0  0  0  0  0
  -27.2284  -37.1400   25.8869 H   0  0  0  0  0  0
  -20.9620  -29.8722   21.6636 H   0  0  0  0  0  0
  -26.0121  -38.2751   24.1416 H   0  0  0  0  0  0
  -28.9516  -21.1496   16.9175 H   0  0  0  0  0  0
  -29.4437  -19.0700   18.0814 H   0  0  0  0  0  0
  -28.4390  -23.2690   17.9978 H   0  0  0  0  0  0
  -28.9082  -21.2402   21.7811 H   0  0  0  0  0  0
  -29.5077  -18.3294   21.7784 H   0  0  0  0  0  0
  -30.8867  -18.3942   20.7676 H   0  0  0  0  0  0
  -28.2486  -24.1429   21.6657 H   0  0  0  0  0  0
  -26.9275  -24.0300   20.5824 H   0  0  0  0  0  0
  -28.6486  -16.3991   20.3052 H   0  0  0  0  0  0
  1 25  1  0  0  0
  1 30  2  0  0  0
  1 79  1  0  0  0
  2  3  1  0  0  0
  2 25  1  0  0  0
  2 80  1  0  0  0
  2 81  1  0  0  0
  3  4  1  0  0  0
  3 82  1  0  0  0
  3 83  1  0  0  0
  4  5  1  0  0  0
  4 84  1  0  0  0
  4 85  1  0  0  0
  5  6  1  0  0  0
  5 26  1  0  0  0
  5 86  1  0  0  0
  6 25  1  0  0  0
  6 87  1  0  0  0
  6 88  1  0  0  0
  7  8  2  0  0  0
  7 26  1  0  0  0
  7 29  1  0  0  0
  8  9  1  0  0  0
  8 22  1  0  0  0
  9 10  1  0  0  0
  9 27  2  0  0  0
 10 11  2  0  0  0
 10 15  1  0  0  0
 11 12  1  0  0  0
 11 89  1  0  0  0
 12 13  2  0  0  0
 12 90  1  0  0  0
 13 14  1  0  0  0
 13 31  1  0  0  0
 14 15  2  0  0  0
 14 91  1  0  0  0
 15 92  1  0  0  0
 16 17  2  0  0  0
 16 21  1  0  0  0
 16 31  1  0  0  0
 17 18  1  0  0  0
 17 93  1  0  0  0
 18 19  2  0  0  0
 18 94  1  0  0  0
 19 20  1  0  0  0
 19 24  1  0  0  0
 20 21  2  0  0  0
 20 95  1  0  0  0
 21 23  1  0  0  0
 22 28  1  0  0  0
 22 32  2  0  0  0
 26 27  1  0  0  0
 28 96  1  0  0  0
 28 97  1  0  0  0
 29 98  1  0  0  0
 29 99  1  0  0  0
 33 34  1  0  0  0
 33 66  1  0  0  0
 33 70  2  0  0  0
 34 36  1  0  0  0
 34 59  1  0  0  0
 34100  1  0  0  0
 35 44  2  0  0  0
 35 45  1  0  0  0
 35 68  1  0  0  0
 36 56  1  0  0  0
 36101  1  0  0  0
 37 39  1  0  0  0
 37 47  1  0  0  0
 37 66  1  0  0  0
 37102  1  0  0  0
 38 43  2  0  0  0
 38 46  1  0  0  0
 38 47  1  0  0  0
 39 64  1  0  0  0
 39 67  2  0  0  0
 40 52  1  0  0  0
 40 53  2  0  0  0
 40 58  1  0  0  0
 41103  1  0  0  0
 41104  1  0  0  0
 41105  1  0  0  0
 41 48  1  0  0  0
 42 43  1  0  0  0
 42 66  1  0  0  0
 42106  1  0  0  0
 42107  1  0  0  0
 43 44  1  0  0  0
 44108  1  0  0  0
 45 46  2  0  0  0
 45109  1  0  0  0
 46110  1  0  0  0
 47111  1  0  0  0
 47112  1  0  0  0
 48 56  1  0  0  0
 48 65  1  0  0  0
 48113  1  0  0  0
 49 50  1  0  0  0
 49 53  1  0  0  0
 49 64  1  0  0  0
 49114  1  0  0  0
 50 51  1  0  0  0
 50115  1  0  0  0
 50116  1  0  0  0
 51 52  1  0  0  0
 51117  1  0  0  0
 51118  1  0  0  0
 52119  1  0  0  0
 52120  1  0  0  0
 53 54  1  0  0  0
 54 55  2  0  0  0
 54121  1  0  0  0
 55 57  1  0  0  0
 55122  1  0  0  0
 56 69  2  0  0  0
 57 58  2  0  0  0
 57123  1  0  0  0
 58124  1  0  0  0
 59 60  1  0  0  0
 59 61  1  0  0  0
 59 62  1  0  0  0
 60125  1  0  0  0
 60126  1  0  0  0
 60127  1  0  0  0
 61128  1  0  0  0
 61129  1  0  0  0
 61130  1  0  0  0
 62131  1  0  0  0
 62132  1  0  0  0
 62133  1  0  0  0
 63 65  1  0  0  0
 63134  1  0  0  0
 63135  1  0  0  0
 63136  1  0  0  0
 64137  1  0  0  0
 65138  1  0  0  0
 68 78  1  0  0  0
 71 72  2  0  0  0
 71 73  1  0  0  0
 71139  1  0  0  0
 72 75  1  0  0  0
 72140  1  0  0  0
 73 76  2  0  0  0
 73141  1  0  0  0
 74 75  2  0  0  0
 74 76  1  0  0  0
 74142  1  0  0  0
 75 77  1  0  0  0
 76 78  1  0  0  0
 77 79  1  0  0  0
 77143  1  0  0  0
 77144  1  0  0  0
 78145  1  0  0  0
 78146  1  0  0  0
 79147  1  0  0  0
M  ISO  4   1 100  68 101  78 101  79 100
M  END
> <chiral flag>
0

> <version>
0

> <s_m_source_file>
/data/baiqing/PycharmProjects/Reinvent-master-3.2/result/LINK_invent/BTK/process_docking_weight1_custom_product_contain_oxygen_bond_distance_aromatic_linkinvent_7_9_3/rearranged_h_0003.sdf

> <i_m_source_file_index>
84

> <r_mmod_Potential_Energy-OPLS-2005>
1401.74060058594

> <r_mmod_Stretch_Energy-OPLS-2005>
643.052795410156

> <r_mmod_Bend_Energy-OPLS-2005>
451.203063964844

> <r_mmod_Torsional_Energy-OPLS-2005>
238.437026977539

> <r_mmod_Improper_Torsional_Energy-OPLS-2005>
6.01917123794556

> <r_mmod_Van_der_Waal_Energy-OPLS-2005>
122.058601379395

> <r_mmod_Electrostatic_Energy-OPLS-2005>
-377.779266357422

> <r_mmod_Solvation_Energy-OPLS-2005>
-214.792663574219

> <b_mmod_Minimization_Converged-OPLS-2005>
1

> <r_mmod_RMS_Derivative-OPLS-2005>
0.046136412769556

$$$$
84
                    3D
 Structure written by MMmdl.
154163  0  0  1  0            999 V2000
  -30.4008  -15.3709   20.3882 C   0  0  0  0  0  0
  -30.4496  -12.9030   19.4897 C   0  0  0  0  0  0
  -29.5315  -12.5950   18.2763 C   0  0  0  0  0  0
  -28.0900  -12.2849   18.7216 C   0  0  0  0  0  0
  -27.6126  -13.2565   19.8252 C   0  0  2  0  0  0
  -28.6699  -13.4237   20.9460 C   0  0  0  0  0  0
  -25.2288  -13.8130   20.5640 C   0  0  0  0  0  0
  -24.1694  -13.0340   20.9267 C   0  0  0  0  0  0
  -24.6387  -11.6862   20.8812 C   0  0  0  0  0  0
  -23.9089  -10.4241   21.0435 C   0  0  0  0  0  0
  -24.3630   -9.4158   21.9208 C   0  0  0  0  0  0
  -23.6289   -8.2205   22.0765 C   0  0  0  0  0  0
  -22.4272   -8.0261   21.3546 C   0  0  0  0  0  0
  -21.9924   -9.0238   20.4646 C   0  0  0  0  0  0
  -22.7271  -10.2104   20.3065 C   0  0  0  0  0  0
  -21.6847   -6.0725   22.5274 C   0  0  0  0  0  0
  -21.4005   -6.5633   23.8205 C   0  0  0  0  0  0
  -21.3656   -5.6791   24.9171 C   0  0  0  0  0  0
  -21.6044   -4.3054   24.7225 C   0  0  0  0  0  0
  -21.8819   -3.8141   23.4348 C   0  0  0  0  0  0
  -21.9189   -4.6955   22.3400 C   0  0  0  0  0  0
  -22.7713  -13.5111   21.1899 C   0  0  0  0  0  0
  -22.1661   -4.2141   21.0979 F   0  0  0  0  0  0
  -21.5633   -3.4538   25.7740 F   0  0  0  0  0  0
  -29.8514  -14.0392   20.2964 N   0  0  0  0  0  0
  -26.2807  -12.9429   20.3265 N   0  0  0  0  0  0
  -25.9333  -11.6553   20.5811 N   0  0  0  0  0  0
  -22.0375  -12.8118   22.0473 N   0  0  0  0  0  0
  -25.3593  -15.1840   20.3817 N   0  0  0  0  0  0
  -31.6352  -15.3381   20.2409 O   0  0  0  0  0  0
  -21.6630   -6.8864   21.4236 O   0  0  0  0  0  0
  -22.3394  -14.5411   20.6731 O   0  0  0  0  0  0
  -24.6671  -31.8200   23.1654 C   0  0  0  0  0  0
  -25.9332  -32.4573   23.8139 C   0  0  1  0  0  0
  -27.2293  -26.8933   20.1971 C   0  0  0  0  0  0
  -25.5984  -33.8387   24.2045 N   0  0  0  0  0  0
  -23.4841  -30.4293   21.5156 C   0  0  2  0  0  0
  -24.9395  -28.8041   20.1212 C   0  0  0  0  0  0
  -22.7686  -29.4426   22.4760 C   0  0  0  0  0  0
  -18.0325  -28.1424   22.8462 C   0  0  0  0  0  0
  -24.1491  -36.7198   23.2649 C   0  0  0  0  0  0
  -26.0562  -30.6167   21.3994 C   0  0  0  0  0  0
  -26.1266  -29.2004   20.7502 C   0  0  0  0  0  0
  -27.2677  -28.2705   20.7557 C   0  0  0  0  0  0
  -26.0082  -26.6547   19.5265 C   0  0  0  0  0  0
  -24.9068  -27.5511   19.4890 C   0  0  0  0  0  0
  -23.7282  -29.7382   20.1458 C   0  0  0  0  0  0
  -25.4133  -36.2955   24.0295 C   0  0  1  0  0  0
  -20.5954  -28.3773   23.1179 C   0  0  2  0  0  0
  -20.6802  -26.9448   22.5404 C   0  0  0  0  0  0
  -19.5777  -26.6384   21.5219 C   0  0  0  0  0  0
  -18.1958  -26.7954   22.1619 C   0  0  0  0  0  0
  -19.1589  -28.8916   23.2809 C   0  0  0  0  0  0
  -18.9500  -30.1503   23.8852 C   0  0  0  0  0  0
  -17.6496  -30.6611   24.0559 C   0  0  0  0  0  0
  -25.9108  -34.9344   23.4992 C   0  0  0  0  0  0
  -16.5384  -29.9103   23.6346 C   0  0  0  0  0  0
  -16.7306  -28.6523   23.0363 C   0  0  0  0  0  0
  -26.4560  -31.6532   25.0686 C   0  0  0  0  0  0
  -25.3661  -31.3794   26.1322 C   0  0  0  0  0  0
  -27.0464  -30.2896   24.6440 C   0  0  0  0  0  0
  -27.6048  -32.4348   25.7490 C   0  0  0  0  0  0
  -27.5560  -37.1756   24.8467 C   0  0  0  0  0  0
  -21.4351  -29.3054   22.3518 N   0  0  0  0  0  0
  -26.4269  -37.3698   23.9409 N   0  0  0  0  0  0
  -24.7574  -30.9830   22.0807 N   0  0  0  0  0  0
  -23.4214  -28.8000   23.3020 O   0  0  0  0  0  0
  -28.2429  -25.7831   20.1869 O   0  0  0  0  0  0
  -26.5726  -34.8890   22.4595 O   0  0  0  0  0  0
  -23.5730  -32.1182   23.6722 O   0  0  0  0  0  0
  -29.2325  -21.2358   18.0277 C   0  0  0  0  0  0
  -29.4684  -20.0110   18.7178 C   0  0  0  0  0  0
  -28.8698  -22.4726   18.6389 C   0  0  0  0  0  0
  -28.9718  -21.2636   20.7164 C   0  0  0  0  0  0
  -29.3828  -19.8832   20.1197 C   0  0  0  0  0  0
  -28.6905  -22.6308   20.0303 C   0  0  0  0  0  0
  -27.9452  -17.5302   21.9247 C   0  0  0  0  0  0
  -29.2436  -18.2843   22.1906 C   0  0  0  0  0  0
  -28.2052  -16.7147   20.6470 C   0  0  0  0  0  0
  -29.8812  -18.3263   20.8062 C   0  0  1  0  0  0
  -28.0220  -24.1770   20.5734 C   0  0  0  0  0  0
  -29.6473  -16.6939   20.4339 N   0  0  0  0  0  0
  -31.4409  -13.1637   19.1168 H   0  0  0  0  0  0
  -30.6010  -12.0131   20.1029 H   0  0  0  0  0  0
  -29.9335  -11.7616   17.6981 H   0  0  0  0  0  0
  -29.5243  -13.4559   17.6059 H   0  0  0  0  0  0
  -28.0707  -11.2637   19.1037 H   0  0  0  0  0  0
  -27.4123  -12.3053   17.8671 H   0  0  0  0  0  0
  -27.5159  -14.2062   19.3010 H   0  0  0  0  0  0
  -28.9030  -12.4608   21.4027 H   0  0  0  0  0  0
  -28.3133  -14.0352   21.7741 H   0  0  0  0  0  0
  -25.2763   -9.5631   22.4801 H   0  0  0  0  0  0
  -23.9983   -7.4590   22.7486 H   0  0  0  0  0  0
  -21.0859   -8.8770   19.8943 H   0  0  0  0  0  0
  -22.3741  -10.9655   19.6180 H   0  0  0  0  0  0
  -21.1993   -7.6141   23.9704 H   0  0  0  0  0  0
  -21.1481   -6.0524   25.9074 H   0  0  0  0  0  0
  -22.0602   -2.7604   23.2851 H   0  0  0  0  0  0
  -22.4013  -11.9799   22.4882 H   0  0  0  0  0  0
  -21.0981  -13.1125   22.2658 H   0  0  0  0  0  0
  -24.5726  -15.8145   20.4898 H   0  0  0  0  0  0
  -26.1834  -15.6399   20.0163 H   0  0  0  0  0  0
  -26.7408  -32.5105   23.0860 H   0  0  0  0  0  0
  -25.0072  -33.9456   25.0155 H   0  0  0  0  0  0
  -22.8001  -31.2618   21.3376 H   0  0  0  0  0  0
  -23.3768  -35.9516   23.3285 H   0  0  0  0  0  0
  -24.3564  -36.8873   22.2070 H   0  0  0  0  0  0
  -23.7237  -37.6371   23.6730 H   0  0  0  0  0  0
  -26.2377  -31.3535   20.6157 H   0  0  0  0  0  0
  -26.9161  -30.6785   22.0546 H   0  0  0  0  0  0
  -28.1726  -28.5830   21.2571 H   0  0  0  0  0  0
  -25.8836  -25.7016   19.0318 H   0  0  0  0  0  0
  -24.0070  -27.2395   18.9774 H   0  0  0  0  0  0
  -23.8915  -30.5030   19.3855 H   0  0  0  0  0  0
  -22.8371  -29.1960   19.8243 H   0  0  0  0  0  0
  -25.1334  -36.1740   25.0787 H   0  0  0  0  0  0
  -21.0041  -28.3386   24.1301 H   0  0  0  0  0  0
  -20.5689  -26.2388   23.3648 H   0  0  0  0  0  0
  -21.6662  -26.7424   22.1205 H   0  0  0  0  0  0
  -19.6937  -25.6284   21.1282 H   0  0  0  0  0  0
  -19.6720  -27.3166   20.6731 H   0  0  0  0  0  0
  -17.4224  -26.6700   21.4023 H   0  0  0  0  0  0
  -18.0343  -26.0116   22.9033 H   0  0  0  0  0  0
  -19.7978  -30.7326   24.2200 H   0  0  0  0  0  0
  -17.5053  -31.6283   24.5175 H   0  0  0  0  0  0
  -15.5385  -30.2996   23.7702 H   0  0  0  0  0  0
  -15.8702  -28.0831   22.7109 H   0  0  0  0  0  0
  -24.5875  -30.7113   25.7614 H   0  0  0  0  0  0
  -24.8811  -32.2997   26.4590 H   0  0  0  0  0  0
  -25.7869  -30.9058   27.0199 H   0  0  0  0  0  0
  -26.3136  -29.6559   24.1430 H   0  0  0  0  0  0
  -27.3976  -29.7278   25.5106 H   0  0  0  0  0  0
  -27.9082  -30.4078   23.9868 H   0  0  0  0  0  0
  -27.2623  -33.3710   26.1909 H   0  0  0  0  0  0
  -28.3937  -32.6807   25.0368 H   0  0  0  0  0  0
  -28.0624  -31.8570   26.5528 H   0  0  0  0  0  0
  -28.2564  -38.0065   24.7512 H   0  0  0  0  0  0
  -28.1069  -36.2590   24.6298 H   0  0  0  0  0  0
  -27.2276  -37.1401   25.8870 H   0  0  0  0  0  0
  -20.9618  -29.8740   21.6636 H   0  0  0  0  0  0
  -26.0112  -38.2753   24.1429 H   0  0  0  0  0  0
  -29.3341  -21.2249   16.9514 H   0  0  0  0  0  0
  -29.7576  -19.1430   18.1406 H   0  0  0  0  0  0
  -28.6869  -23.3257   18.0001 H   0  0  0  0  0  0
  -28.8557  -21.2826   21.7902 H   0  0  0  0  0  0
  -27.1131  -18.2179   21.7649 H   0  0  0  0  0  0
  -27.6852  -16.8912   22.7697 H   0  0  0  0  0  0
  -29.8681  -17.6937   22.8637 H   0  0  0  0  0  0
  -29.1000  -19.2537   22.6649 H   0  0  0  0  0  0
  -27.7336  -17.1880   19.7841 H   0  0  0  0  0  0
  -27.7585  -15.7500   20.7575 H   0  0  0  0  0  0
  -30.9596  -18.4334   20.9329 H   0  0  0  0  0  0
  -28.1674  -24.1519   21.6531 H   0  0  0  0  0  0
  -26.9484  -24.0291   20.4574 H   0  0  0  0  0  0
  1 25  1  0  0  0
  1 30  2  0  0  0
  1 82  1  0  0  0
  2  3  1  0  0  0
  2 25  1  0  0  0
  2 83  1  0  0  0
  2 84  1  0  0  0
  3  4  1  0  0  0
  3 85  1  0  0  0
  3 86  1  0  0  0
  4  5  1  0  0  0
  4 87  1  0  0  0
  4 88  1  0  0  0
  5  6  1  0  0  0
  5 26  1  0  0  0
  5 89  1  0  0  0
  6 25  1  0  0  0
  6 90  1  0  0  0
  6 91  1  0  0  0
  7  8  2  0  0  0
  7 26  1  0  0  0
  7 29  1  0  0  0
  8  9  1  0  0  0
  8 22  1  0  0  0
  9 10  1  0  0  0
  9 27  2  0  0  0
 10 11  2  0  0  0
 10 15  1  0  0  0
 11 12  1  0  0  0
 11 92  1  0  0  0
 12 13  2  0  0  0
 12 93  1  0  0  0
 13 14  1  0  0  0
 13 31  1  0  0  0
 14 15  2  0  0  0
 14 94  1  0  0  0
 15 95  1  0  0  0
 16 17  2  0  0  0
 16 21  1  0  0  0
 16 31  1  0  0  0
 17 18  1  0  0  0
 17 96  1  0  0  0
 18 19  2  0  0  0
 18 97  1  0  0  0
 19 20  1  0  0  0
 19 24  1  0  0  0
 20 21  2  0  0  0
 20 98  1  0  0  0
 21 23  1  0  0  0
 22 28  1  0  0  0
 22 32  2  0  0  0
 26 27  1  0  0  0
 28 99  1  0  0  0
 28100  1  0  0  0
 29101  1  0  0  0
 29102  1  0  0  0
 33 34  1  0  0  0
 33 66  1  0  0  0
 33 70  2  0  0  0
 34 36  1  0  0  0
 34 59  1  0  0  0
 34103  1  0  0  0
 35 44  2  0  0  0
 35 45  1  0  0  0
 35 68  1  0  0  0
 36 56  1  0  0  0
 36104  1  0  0  0
 37 39  1  0  0  0
 37 47  1  0  0  0
 37 66  1  0  0  0
 37105  1  0  0  0
 38 43  2  0  0  0
 38 46  1  0  0  0
 38 47  1  0  0  0
 39 64  1  0  0  0
 39 67  2  0  0  0
 40 52  1  0  0  0
 40 53  2  0  0  0
 40 58  1  0  0  0
 41106  1  0  0  0
 41107  1  0  0  0
 41108  1  0  0  0
 41 48  1  0  0  0
 42 43  1  0  0  0
 42 66  1  0  0  0
 42109  1  0  0  0
 42110  1  0  0  0
 43 44  1  0  0  0
 44111  1  0  0  0
 45 46  2  0  0  0
 45112  1  0  0  0
 46113  1  0  0  0
 47114  1  0  0  0
 47115  1  0  0  0
 48 56  1  0  0  0
 48 65  1  0  0  0
 48116  1  0  0  0
 49 50  1  0  0  0
 49 53  1  0  0  0
 49 64  1  0  0  0
 49117  1  0  0  0
 50 51  1  0  0  0
 50118  1  0  0  0
 50119  1  0  0  0
 51 52  1  0  0  0
 51120  1  0  0  0
 51121  1  0  0  0
 52122  1  0  0  0
 52123  1  0  0  0
 53 54  1  0  0  0
 54 55  2  0  0  0
 54124  1  0  0  0
 55 57  1  0  0  0
 55125  1  0  0  0
 56 69  2  0  0  0
 57 58  2  0  0  0
 57126  1  0  0  0
 58127  1  0  0  0
 59 60  1  0  0  0
 59 61  1  0  0  0
 59 62  1  0  0  0
 60128  1  0  0  0
 60129  1  0  0  0
 60130  1  0  0  0
 61131  1  0  0  0
 61132  1  0  0  0
 61133  1  0  0  0
 62134  1  0  0  0
 62135  1  0  0  0
 62136  1  0  0  0
 63 65  1  0  0  0
 63137  1  0  0  0
 63138  1  0  0  0
 63139  1  0  0  0
 64140  1  0  0  0
 65141  1  0  0  0
 68 81  1  0  0  0
 71 72  2  0  0  0
 71 73  1  0  0  0
 71142  1  0  0  0
 72 75  1  0  0  0
 72143  1  0  0  0
 73 76  2  0  0  0
 73144  1  0  0  0
 74 75  2  0  0  0
 74 76  1  0  0  0
 74145  1  0  0  0
 75 80  1  0  0  0
 76 81  1  0  0  0
 77 78  1  0  0  0
 77 79  1  0  0  0
 77146  1  0  0  0
 77147  1  0  0  0
 78 80  1  0  0  0
 78148  1  0  0  0
 78149  1  0  0  0
 79 82  1  0  0  0
 79150  1  0  0  0
 79151  1  0  0  0
 80 82  1  0  0  0
 80152  1  0  0  0
 81153  1  0  0  0
 81154  1  0  0  0
M  ISO  4   1 100  68 101  81 101  82 100
M  END
> <chiral flag>
0

> <version>
0

> <s_m_source_file>
/data/baiqing/PycharmProjects/Reinvent-master-3.2/result/LINK_invent/BTK/process_docking_weight1_custom_product_contain_oxygen_bond_distance_aromatic_linkinvent_7_9_3/rearranged_h_0003.sdf

> <i_m_source_file_index>
85

> <r_mmod_Potential_Energy-OPLS-2005>
1710.54626464844

> <r_mmod_Stretch_Energy-OPLS-2005>
656.256652832031

> <r_mmod_Bend_Energy-OPLS-2005>
507.427001953125

> <r_mmod_Torsional_Energy-OPLS-2005>
342.660675048828

> <r_mmod_Improper_Torsional_Energy-OPLS-2005>
7.61475610733032

> <r_mmod_Van_der_Waal_Energy-OPLS-2005>
130.858901977539

> <r_mmod_Electrostatic_Energy-OPLS-2005>
-269.615234375

> <r_mmod_Solvation_Energy-OPLS-2005>
-197.317810058594

> <b_mmod_Minimization_Converged-OPLS-2005>
0

> <r_mmod_RMS_Derivative-OPLS-2005>
0.914314150810242

$$$$
85
                    3D
 Structure written by MMmdl.
157166  0  0  1  0            999 V2000
  -30.6251  -14.8603   20.4383 C   0  0  0  0  0  0
  -30.4223  -12.5397   19.4791 C   0  0  0  0  0  0
  -29.5037  -12.5111   18.2400 C   0  0  0  0  0  0
  -28.0391  -12.3054   18.6667 C   0  0  0  0  0  0
  -27.6242  -13.2385   19.8341 C   0  0  2  0  0  0
  -28.6729  -13.2749   20.9659 C   0  0  0  0  0  0
  -25.2446  -13.8190   20.5722 C   0  0  0  0  0  0
  -24.1759  -13.0425   20.9237 C   0  0  0  0  0  0
  -24.6372  -11.6909   20.8775 C   0  0  0  0  0  0
  -23.9061  -10.4285   21.0424 C   0  0  0  0  0  0
  -24.3614   -9.4197   21.9195 C   0  0  0  0  0  0
  -23.6290   -8.2233   22.0756 C   0  0  0  0  0  0
  -22.4273   -8.0276   21.3544 C   0  0  0  0  0  0
  -21.9912   -9.0249   20.4647 C   0  0  0  0  0  0
  -22.7239  -10.2128   20.3064 C   0  0  0  0  0  0
  -21.6850   -6.0734   22.5278 C   0  0  0  0  0  0
  -21.4011   -6.5637   23.8211 C   0  0  0  0  0  0
  -21.3657   -5.6792   24.9174 C   0  0  0  0  0  0
  -21.6045   -4.3054   24.7225 C   0  0  0  0  0  0
  -21.8819   -3.8145   23.4346 C   0  0  0  0  0  0
  -21.9190   -4.6963   22.3402 C   0  0  0  0  0  0
  -22.7783  -13.5205   21.1887 C   0  0  0  0  0  0
  -22.1660   -4.2149   21.0980 F   0  0  0  0  0  0
  -21.5629   -3.4539   25.7737 F   0  0  0  0  0  0
  -29.9538  -13.6478   20.3545 N   0  0  0  0  0  0
  -26.2862  -12.9405   20.3270 N   0  0  0  0  0  0
  -25.9302  -11.6545   20.5777 N   0  0  0  0  0  0
  -22.0431  -12.8194   22.0443 N   0  0  0  0  0  0
  -25.4106  -15.1912   20.4126 N   0  0  0  0  0  0
  -31.8394  -14.8489   20.2108 O   0  0  0  0  0  0
  -21.6635   -6.8875   21.4240 O   0  0  0  0  0  0
  -22.3472  -14.5510   20.6729 O   0  0  0  0  0  0
  -24.6387  -31.8489   23.1937 C   0  0  0  0  0  0
  -25.9182  -32.4720   23.8305 C   0  0  1  0  0  0
  -27.2105  -27.1862   20.1474 C   0  0  0  0  0  0
  -25.5952  -33.8525   24.2226 N   0  0  0  0  0  0
  -23.4394  -30.4708   21.5380 C   0  0  2  0  0  0
  -24.8874  -28.9072   20.1119 C   0  0  0  0  0  0
  -22.7540  -29.4569   22.4877 C   0  0  0  0  0  0
  -18.0301  -28.1390   22.8478 C   0  0  0  0  0  0
  -24.1489  -36.7259   23.2642 C   0  0  0  0  0  0
  -25.9923  -30.7382   21.3864 C   0  0  0  0  0  0
  -26.0634  -29.3541   20.7293 C   0  0  0  0  0  0
  -27.2301  -28.5088   20.7309 C   0  0  0  0  0  0
  -26.0164  -26.8354   19.4822 C   0  0  0  0  0  0
  -24.8736  -27.6591   19.4736 C   0  0  0  0  0  0
  -23.6632  -29.8049   20.1554 C   0  0  0  0  0  0
  -25.4118  -36.3046   24.0323 C   0  0  1  0  0  0
  -20.5910  -28.3709   23.1246 C   0  0  2  0  0  0
  -20.6788  -26.9418   22.5401 C   0  0  0  0  0  0
  -19.5762  -26.6381   21.5207 C   0  0  0  0  0  0
  -18.1942  -26.7931   22.1619 C   0  0  0  0  0  0
  -19.1557  -28.8865   23.2858 C   0  0  0  0  0  0
  -18.9477  -30.1465   23.8877 C   0  0  0  0  0  0
  -17.6475  -30.6590   24.0558 C   0  0  0  0  0  0
  -25.9066  -34.9421   23.5078 C   0  0  0  0  0  0
  -16.5366  -29.9084   23.6338 C   0  0  0  0  0  0
  -16.7287  -28.6504   23.0355 C   0  0  0  0  0  0
  -26.4527  -31.6569   25.0723 C   0  0  0  0  0  0
  -25.3728  -31.3735   26.1426 C   0  0  0  0  0  0
  -27.0395  -30.2977   24.6265 C   0  0  0  0  0  0
  -27.6066  -32.4331   25.7502 C   0  0  0  0  0  0
  -27.5574  -37.1785   24.8469 C   0  0  0  0  0  0
  -21.4237  -29.3050   22.3625 N   0  0  0  0  0  0
  -26.4285  -37.3754   23.9413 N   0  0  0  0  0  0
  -24.7094  -31.0393   22.0948 N   0  0  0  0  0  0
  -23.4206  -28.8104   23.2999 O   0  0  0  0  0  0
  -28.2662  -26.2224   20.1767 O   0  0  0  0  0  0
  -26.5639  -34.8909   22.4648 O   0  0  0  0  0  0
  -23.5519  -32.1339   23.7188 O   0  0  0  0  0  0
  -30.5497  -22.5299   18.6505 C   0  0  0  0  0  0
  -30.3513  -21.2150   19.1323 C   0  0  0  0  0  0
  -29.8008  -23.6313   19.1240 C   0  0  0  0  0  0
  -28.6304  -22.0849   20.5933 C   0  0  0  0  0  0
  -29.3931  -20.9132   20.1248 C   0  0  0  0  0  0
  -28.8097  -23.4703   20.1106 C   0  0  0  0  0  0
  -28.8665  -18.2697   19.5459 C   0  0  0  0  0  0
  -30.6082  -18.6866   21.1277 C   0  0  0  0  0  0
  -28.8242  -16.7125   19.9659 C   0  0  0  0  0  0
  -30.5655  -17.1565   21.5967 C   0  0  0  0  0  0
  -29.2833  -19.3565   20.6119 C   0  0  0  0  0  0
  -27.9452  -24.7679   20.5596 C   0  0  0  0  0  0
  -29.9833  -16.1011   20.6981 N   0  0  0  0  0  0
  -31.4594  -12.6657   19.1642 H   0  0  0  0  0  0
  -30.3871  -11.5883   20.0121 H   0  0  0  0  0  0
  -29.8104  -11.7169   17.5578 H   0  0  0  0  0  0
  -29.5990  -13.4468   17.6865 H   0  0  0  0  0  0
  -27.9315  -11.2642   18.9730 H   0  0  0  0  0  0
  -27.3716  -12.4421   17.8146 H   0  0  0  0  0  0
  -27.5774  -14.2330   19.3979 H   0  0  0  0  0  0
  -28.7460  -12.3099   21.4691 H   0  0  0  0  0  0
  -28.3874  -14.0038   21.7264 H   0  0  0  0  0  0
  -25.2758   -9.5672   22.4775 H   0  0  0  0  0  0
  -23.9996   -7.4623   22.7475 H   0  0  0  0  0  0
  -21.0844   -8.8771   19.8951 H   0  0  0  0  0  0
  -22.3702  -10.9671   19.6176 H   0  0  0  0  0  0
  -21.2003   -7.6146   23.9715 H   0  0  0  0  0  0
  -21.1480   -6.0522   25.9076 H   0  0  0  0  0  0
  -22.0600   -2.7609   23.2846 H   0  0  0  0  0  0
  -22.4049  -11.9856   22.4829 H   0  0  0  0  0  0
  -21.1049  -13.1221   22.2653 H   0  0  0  0  0  0
  -24.6427  -15.8437   20.5271 H   0  0  0  0  0  0
  -26.2608  -15.6322   20.0886 H   0  0  0  0  0  0
  -26.7242  -32.5344   23.1033 H   0  0  0  0  0  0
  -25.0114  -33.9652   25.0383 H   0  0  0  0  0  0
  -22.7399  -31.2955   21.3877 H   0  0  0  0  0  0
  -23.3759  -35.9583   23.3301 H   0  0  0  0  0  0
  -24.3577  -36.8885   22.2057 H   0  0  0  0  0  0
  -23.7234  -37.6452   23.6676 H   0  0  0  0  0  0
  -26.1434  -31.4952   20.6154 H   0  0  0  0  0  0
  -26.8651  -30.7867   22.0259 H   0  0  0  0  0  0
  -28.1289  -28.8451   21.2287 H   0  0  0  0  0  0
  -25.9451  -25.8903   18.9639 H   0  0  0  0  0  0
  -23.9793  -27.3173   18.9711 H   0  0  0  0  0  0
  -23.7984  -30.5816   19.4017 H   0  0  0  0  0  0
  -22.7789  -29.2461   19.8438 H   0  0  0  0  0  0
  -25.1305  -36.1880   25.0815 H   0  0  0  0  0  0
  -21.0009  -28.3294   24.1365 H   0  0  0  0  0  0
  -20.5683  -26.2319   23.3613 H   0  0  0  0  0  0
  -21.6655  -26.7425   22.1196 H   0  0  0  0  0  0
  -19.6925  -25.6286   21.1249 H   0  0  0  0  0  0
  -19.6704  -27.3182   20.6729 H   0  0  0  0  0  0
  -17.4211  -26.6673   21.4025 H   0  0  0  0  0  0
  -18.0345  -26.0075   22.9017 H   0  0  0  0  0  0
  -19.7951  -30.7286   24.2238 H   0  0  0  0  0  0
  -17.5030  -31.6268   24.5163 H   0  0  0  0  0  0
  -15.5367  -30.2981   23.7674 H   0  0  0  0  0  0
  -15.8686  -28.0820   22.7081 H   0  0  0  0  0  0
  -24.5926  -30.7059   25.7754 H   0  0  0  0  0  0
  -24.8897  -32.2907   26.4808 H   0  0  0  0  0  0
  -25.8031  -30.8947   27.0232 H   0  0  0  0  0  0
  -26.3003  -29.6696   24.1280 H   0  0  0  0  0  0
  -27.4044  -29.7274   25.4819 H   0  0  0  0  0  0
  -27.8895  -30.4240   23.9555 H   0  0  0  0  0  0
  -27.2671  -33.3659   26.2021 H   0  0  0  0  0  0
  -28.3908  -32.6841   25.0346 H   0  0  0  0  0  0
  -28.0698  -31.8489   26.5463 H   0  0  0  0  0  0
  -28.2586  -38.0088   24.7520 H   0  0  0  0  0  0
  -28.1077  -36.2618   24.6295 H   0  0  0  0  0  0
  -27.2293  -37.1430   25.8872 H   0  0  0  0  0  0
  -20.9436  -29.8775   21.6821 H   0  0  0  0  0  0
  -26.0155  -38.2821   24.1425 H   0  0  0  0  0  0
  -31.2986  -22.6985   17.8887 H   0  0  0  0  0  0
  -30.9600  -20.4206   18.7229 H   0  0  0  0  0  0
  -29.9849  -24.6144   18.7128 H   0  0  0  0  0  0
  -27.8746  -21.9177   21.3481 H   0  0  0  0  0  0
  -27.8881  -18.5417   19.1482 H   0  0  0  0  0  0
  -29.5464  -18.3558   18.6971 H   0  0  0  0  0  0
  -31.3669  -18.7662   20.3484 H   0  0  0  0  0  0
  -30.9909  -19.2856   21.9549 H   0  0  0  0  0  0
  -28.6529  -16.1357   19.0569 H   0  0  0  0  0  0
  -27.9491  -16.5540   20.5958 H   0  0  0  0  0  0
  -29.9905  -17.1103   22.5222 H   0  0  0  0  0  0
  -31.5769  -16.8637   21.8836 H   0  0  0  0  0  0
  -28.5533  -19.3360   21.4223 H   0  0  0  0  0  0
  -27.9390  -24.7527   21.6496 H   0  0  0  0  0  0
  -26.9207  -24.5235   20.2877 H   0  0  0  0  0  0
  1 25  1  0  0  0
  1 30  2  0  0  0
  1 83  1  0  0  0
  2  3  1  0  0  0
  2 25  1  0  0  0
  2 84  1  0  0  0
  2 85  1  0  0  0
  3  4  1  0  0  0
  3 86  1  0  0  0
  3 87  1  0  0  0
  4  5  1  0  0  0
  4 88  1  0  0  0
  4 89  1  0  0  0
  5  6  1  0  0  0
  5 26  1  0  0  0
  5 90  1  0  0  0
  6 25  1  0  0  0
  6 91  1  0  0  0
  6 92  1  0  0  0
  7  8  2  0  0  0
  7 26  1  0  0  0
  7 29  1  0  0  0
  8  9  1  0  0  0
  8 22  1  0  0  0
  9 10  1  0  0  0
  9 27  2  0  0  0
 10 11  2  0  0  0
 10 15  1  0  0  0
 11 12  1  0  0  0
 11 93  1  0  0  0
 12 13  2  0  0  0
 12 94  1  0  0  0
 13 14  1  0  0  0
 13 31  1  0  0  0
 14 15  2  0  0  0
 14 95  1  0  0  0
 15 96  1  0  0  0
 16 17  2  0  0  0
 16 21  1  0  0  0
 16 31  1  0  0  0
 17 18  1  0  0  0
 17 97  1  0  0  0
 18 19  2  0  0  0
 18 98  1  0  0  0
 19 20  1  0  0  0
 19 24  1  0  0  0
 20 21  2  0  0  0
 20 99  1  0  0  0
 21 23  1  0  0  0
 22 28  1  0  0  0
 22 32  2  0  0  0
 26 27  1  0  0  0
 28100  1  0  0  0
 28101  1  0  0  0
 29102  1  0  0  0
 29103  1  0  0  0
 33 34  1  0  0  0
 33 66  1  0  0  0
 33 70  2  0  0  0
 34 36  1  0  0  0
 34 59  1  0  0  0
 34104  1  0  0  0
 35 44  2  0  0  0
 35 45  1  0  0  0
 35 68  1  0  0  0
 36 56  1  0  0  0
 36105  1  0  0  0
 37 39  1  0  0  0
 37 47  1  0  0  0
 37 66  1  0  0  0
 37106  1  0  0  0
 38 43  2  0  0  0
 38 46  1  0  0  0
 38 47  1  0  0  0
 39 64  1  0  0  0
 39 67  2  0  0  0
 40 52  1  0  0  0
 40 53  2  0  0  0
 40 58  1  0  0  0
 41107  1  0  0  0
 41108  1  0  0  0
 41109  1  0  0  0
 41 48  1  0  0  0
 42 43  1  0  0  0
 42 66  1  0  0  0
 42110  1  0  0  0
 42111  1  0  0  0
 43 44  1  0  0  0
 44112  1  0  0  0
 45 46  2  0  0  0
 45113  1  0  0  0
 46114  1  0  0  0
 47115  1  0  0  0
 47116  1  0  0  0
 48 56  1  0  0  0
 48 65  1  0  0  0
 48117  1  0  0  0
 49 50  1  0  0  0
 49 53  1  0  0  0
 49 64  1  0  0  0
 49118  1  0  0  0
 50 51  1  0  0  0
 50119  1  0  0  0
 50120  1  0  0  0
 51 52  1  0  0  0
 51121  1  0  0  0
 51122  1  0  0  0
 52123  1  0  0  0
 52124  1  0  0  0
 53 54  1  0  0  0
 54 55  2  0  0  0
 54125  1  0  0  0
 55 57  1  0  0  0
 55126  1  0  0  0
 56 69  2  0  0  0
 57 58  2  0  0  0
 57127  1  0  0  0
 58128  1  0  0  0
 59 60  1  0  0  0
 59 61  1  0  0  0
 59 62  1  0  0  0
 60129  1  0  0  0
 60130  1  0  0  0
 60131  1  0  0  0
 61132  1  0  0  0
 61133  1  0  0  0
 61134  1  0  0  0
 62135  1  0  0  0
 62136  1  0  0  0
 62137  1  0  0  0
 63 65  1  0  0  0
 63138  1  0  0  0
 63139  1  0  0  0
 63140  1  0  0  0
 64141  1  0  0  0
 65142  1  0  0  0
 68 82  1  0  0  0
 71 72  2  0  0  0
 71 73  1  0  0  0
 71143  1  0  0  0
 72 75  1  0  0  0
 72144  1  0  0  0
 73 76  2  0  0  0
 73145  1  0  0  0
 74 75  2  0  0  0
 74 76  1  0  0  0
 74146  1  0  0  0
 75 81  1  0  0  0
 76 82  1  0  0  0
 77 79  1  0  0  0
 77 81  1  0  0  0
 77147  1  0  0  0
 77148  1  0  0  0
 78 80  1  0  0  0
 78 81  1  0  0  0
 78149  1  0  0  0
 78150  1  0  0  0
 79 83  1  0  0  0
 79151  1  0  0  0
 79152  1  0  0  0
 80 83  1  0  0  0
 80153  1  0  0  0
 80154  1  0  0  0
 81155  1  0  0  0
 82156  1  0  0  0
 82157  1  0  0  0
M  ISO  4   1 100  68 101  82 101  83 100
M  END
> <chiral flag>
0

> <version>
0

> <s_m_source_file>
/data/baiqing/PycharmProjects/Reinvent-master-3.2/result/LINK_invent/BTK/process_docking_weight1_custom_product_contain_oxygen_bond_distance_aromatic_linkinvent_7_9_3/rearranged_h_0003.sdf

> <i_m_source_file_index>
86

> <r_mmod_Potential_Energy-OPLS-2005>
554.944641113281

> <r_mmod_Stretch_Energy-OPLS-2005>
177.343124389648

> <r_mmod_Bend_Energy-OPLS-2005>
217.416442871094

> <r_mmod_Torsional_Energy-OPLS-2005>
343.445617675781

> <r_mmod_Improper_Torsional_Energy-OPLS-2005>
2.19480967521667

> <r_mmod_Van_der_Waal_Energy-OPLS-2005>
132.541778564453

> <r_mmod_Electrostatic_Energy-OPLS-2005>
-267.993469238281

> <r_mmod_Solvation_Energy-OPLS-2005>
-195.901062011719

> <b_mmod_Minimization_Converged-OPLS-2005>
0

> <r_mmod_RMS_Derivative-OPLS-2005>
0.53320986032486

$$$$
86
                    3D
 Structure written by MMmdl.
163172  0  0  1  0            999 V2000
  -30.7055  -14.4513   20.5750 C   0  0  0  0  0  0
  -30.4190  -12.2917   19.4252 C   0  0  0  0  0  0
  -29.4952  -12.5072   18.2088 C   0  0  0  0  0  0
  -28.0151  -12.3699   18.6177 C   0  0  0  0  0  0
  -27.6629  -13.2056   19.8780 C   0  0  2  0  0  0
  -28.7014  -12.9757   20.9993 C   0  0  0  0  0  0
  -25.2591  -13.8158   20.5683 C   0  0  0  0  0  0
  -24.1835  -13.0438   20.9164 C   0  0  0  0  0  0
  -24.6385  -11.6904   20.8726 C   0  0  0  0  0  0
  -23.9053  -10.4290   21.0398 C   0  0  0  0  0  0
  -24.3609   -9.4210   21.9179 C   0  0  0  0  0  0
  -23.6288   -8.2243   22.0754 C   0  0  0  0  0  0
  -22.4270   -8.0278   21.3545 C   0  0  0  0  0  0
  -21.9903   -9.0246   20.4643 C   0  0  0  0  0  0
  -22.7228  -10.2125   20.3046 C   0  0  0  0  0  0
  -21.6852   -6.0733   22.5280 C   0  0  0  0  0  0
  -21.4012   -6.5639   23.8214 C   0  0  0  0  0  0
  -21.3659   -5.6790   24.9175 C   0  0  0  0  0  0
  -21.6044   -4.3052   24.7226 C   0  0  0  0  0  0
  -21.8819   -3.8145   23.4344 C   0  0  0  0  0  0
  -21.9194   -4.6962   22.3400 C   0  0  0  0  0  0
  -22.7858  -13.5239   21.1832 C   0  0  0  0  0  0
  -22.1661   -4.2148   21.0977 F   0  0  0  0  0  0
  -21.5630   -3.4533   25.7735 F   0  0  0  0  0  0
  -30.0376  -13.2726   20.4534 N   0  0  0  0  0  0
  -26.3025  -12.9326   20.3372 N   0  0  0  0  0  0
  -25.9313  -11.6485   20.5761 N   0  0  0  0  0  0
  -22.0494  -12.8222   22.0374 N   0  0  0  0  0  0
  -25.4329  -15.1876   20.4110 N   0  0  0  0  0  0
  -31.8316  -14.6223   20.0991 O   0  0  0  0  0  0
  -21.6638   -6.8873   21.4240 O   0  0  0  0  0  0
  -22.3553  -14.5559   20.6700 O   0  0  0  0  0  0
  -24.6109  -31.8698   23.2117 C   0  0  0  0  0  0
  -25.9012  -32.4836   23.8407 C   0  0  1  0  0  0
  -27.2470  -27.4515   20.1057 C   0  0  0  0  0  0
  -25.5876  -33.8633   24.2342 N   0  0  0  0  0  0
  -23.3998  -30.4910   21.5502 C   0  0  2  0  0  0
  -24.8515  -28.9559   20.1186 C   0  0  0  0  0  0
  -22.7396  -29.4663   22.5000 C   0  0  0  0  0  0
  -18.0264  -28.1378   22.8494 C   0  0  0  0  0  0
  -24.1481  -36.7316   23.2628 C   0  0  0  0  0  0
  -25.9243  -30.8404   21.3629 C   0  0  0  0  0  0
  -26.0055  -29.4714   20.7216 C   0  0  0  0  0  0
  -27.2046  -28.7256   20.7229 C   0  0  0  0  0  0
  -26.0820  -26.9551   19.4877 C   0  0  0  0  0  0
  -24.8826  -27.6932   19.5006 C   0  0  0  0  0  0
  -23.6102  -29.8185   20.1660 C   0  0  0  0  0  0
  -25.4093  -36.3118   24.0345 C   0  0  1  0  0  0
  -20.5853  -28.3656   23.1329 C   0  0  2  0  0  0
  -20.6755  -26.9398   22.5423 C   0  0  0  0  0  0
  -19.5739  -26.6395   21.5213 C   0  0  0  0  0  0
  -18.1915  -26.7929   22.1620 C   0  0  0  0  0  0
  -19.1514  -28.8834   23.2911 C   0  0  0  0  0  0
  -18.9446  -30.1441   23.8919 C   0  0  0  0  0  0
  -17.6449  -30.6585   24.0572 C   0  0  0  0  0  0
  -25.9029  -34.9486   23.5145 C   0  0  0  0  0  0
  -16.5338  -29.9090   23.6328 C   0  0  0  0  0  0
  -16.7254  -28.6509   23.0343 C   0  0  0  0  0  0
  -26.4457  -31.6598   25.0717 C   0  0  0  0  0  0
  -25.3740  -31.3686   26.1476 C   0  0  0  0  0  0
  -27.0287  -30.3051   24.6056 C   0  0  0  0  0  0
  -27.6043  -32.4306   25.7473 C   0  0  0  0  0  0
  -27.5597  -37.1788   24.8435 C   0  0  0  0  0  0
  -21.4126  -29.3027   22.3740 N   0  0  0  0  0  0
  -26.4270  -37.3814   23.9442 N   0  0  0  0  0  0
  -24.6628  -31.0812   22.1009 N   0  0  0  0  0  0
  -23.4181  -28.8211   23.3035 O   0  0  0  0  0  0
  -28.3762  -26.6642   20.0453 O   0  0  0  0  0  0
  -26.5599  -34.8934   22.4711 O   0  0  0  0  0  0
  -23.5308  -32.1436   23.7526 O   0  0  0  0  0  0
  -31.0996  -18.8866   20.0095 C   0  0  0  0  0  0
  -29.4333  -19.1031   21.7596 C   0  0  0  0  0  0
  -31.0284  -17.4829   20.1081 C   0  0  0  0  0  0
  -29.3628  -17.6944   21.8609 C   0  0  0  0  0  0
  -30.3058  -19.7137   20.8317 C   0  0  0  0  0  0
  -30.1623  -16.8624   21.0431 C   0  0  0  0  0  0
  -29.1379  -21.9605   20.3004 C   0  0  0  0  0  0
  -30.9500  -21.8961   21.9978 C   0  0  0  0  0  0
  -29.3905  -23.4762   20.0898 C   0  0  0  0  0  0
  -31.2087  -23.3986   21.7679 C   0  0  0  0  0  0
  -30.4319  -21.2367   20.7139 C   0  0  1  0  0  0
  -30.3302  -25.5813   21.0470 C   0  0  0  0  0  0
  -29.1562  -26.5684   21.2355 C   0  0  0  0  0  0
  -30.0132  -15.4429   21.1722 N   0  0  0  0  0  0
  -30.0071  -24.1374   21.2787 N   0  3  1  0  0  0
  -31.4658  -12.3787   19.1286 H   0  0  0  0  0  0
  -30.3063  -11.2791   19.8157 H   0  0  0  0  0  0
  -29.7343  -11.7905   17.4220 H   0  0  0  0  0  0
  -29.6687  -13.4976   17.7838 H   0  0  0  0  0  0
  -27.8220  -11.3134   18.8085 H   0  0  0  0  0  0
  -27.3664  -12.6497   17.7868 H   0  0  0  0  0  0
  -27.7109  -14.2554   19.5876 H   0  0  0  0  0  0
  -28.6693  -11.9382   21.3353 H   0  0  0  0  0  0
  -28.4613  -13.5696   21.8818 H   0  0  0  0  0  0
  -25.2755   -9.5688   22.4749 H   0  0  0  0  0  0
  -24.0002   -7.4635   22.7471 H   0  0  0  0  0  0
  -21.0837   -8.8755   19.8947 H   0  0  0  0  0  0
  -22.3689  -10.9655   19.6147 H   0  0  0  0  0  0
  -21.2000   -7.6148   23.9718 H   0  0  0  0  0  0
  -21.1481   -6.0518   25.9079 H   0  0  0  0  0  0
  -22.0597   -2.7607   23.2841 H   0  0  0  0  0  0
  -22.4099  -11.9866   22.4736 H   0  0  0  0  0  0
  -21.1107  -13.1241   22.2569 H   0  0  0  0  0  0
  -24.6693  -15.8459   20.5202 H   0  0  0  0  0  0
  -26.2934  -15.6262   20.1069 H   0  0  0  0  0  0
  -26.7086  -32.5570   23.1183 H   0  0  0  0  0  0
  -25.0015  -33.9796   25.0480 H   0  0  0  0  0  0
  -22.6876  -31.3065   21.4088 H   0  0  0  0  0  0
  -23.3760  -35.9628   23.3250 H   0  0  0  0  0  0
  -24.3598  -36.8965   22.2052 H   0  0  0  0  0  0
  -23.7202  -37.6501   23.6656 H   0  0  0  0  0  0
  -26.0276  -31.6012   20.5878 H   0  0  0  0  0  0
  -26.8151  -30.9042   21.9755 H   0  0  0  0  0  0
  -28.0870  -29.1476   21.1819 H   0  0  0  0  0  0
  -26.1030  -25.9885   19.0042 H   0  0  0  0  0  0
  -23.9974  -27.2902   19.0279 H   0  0  0  0  0  0
  -23.7148  -30.5897   19.4022 H   0  0  0  0  0  0
  -22.7366  -29.2329   19.8733 H   0  0  0  0  0  0
  -25.1257  -36.1973   25.0833 H   0  0  0  0  0  0
  -20.9942  -28.3216   24.1451 H   0  0  0  0  0  0
  -20.5653  -26.2265   23.3608 H   0  0  0  0  0  0
  -21.6629  -26.7447   22.1216 H   0  0  0  0  0  0
  -19.6903  -25.6316   21.1218 H   0  0  0  0  0  0
  -19.6682  -27.3229   20.6763 H   0  0  0  0  0  0
  -17.4192  -26.6684   21.4016 H   0  0  0  0  0  0
  -18.0312  -26.0062   22.9006 H   0  0  0  0  0  0
  -19.7923  -30.7246   24.2301 H   0  0  0  0  0  0
  -17.5009  -31.6266   24.5173 H   0  0  0  0  0  0
  -15.5342  -30.3001   23.7648 H   0  0  0  0  0  0
  -15.8653  -28.0843   22.7039 H   0  0  0  0  0  0
  -24.5899  -30.7048   25.7812 H   0  0  0  0  0  0
  -24.8944  -32.2835   26.4965 H   0  0  0  0  0  0
  -25.8106  -30.8824   27.0208 H   0  0  0  0  0  0
  -26.2821  -29.6821   24.1113 H   0  0  0  0  0  0
  -27.4083  -29.7268   25.4489 H   0  0  0  0  0  0
  -27.8642  -30.4396   23.9183 H   0  0  0  0  0  0
  -27.2673  -33.3600   26.2075 H   0  0  0  0  0  0
  -28.3837  -32.6871   25.0285 H   0  0  0  0  0  0
  -28.0723  -31.8408   26.5365 H   0  0  0  0  0  0
  -28.2517  -38.0182   24.7635 H   0  0  0  0  0  0
  -28.1194  -36.2731   24.6052 H   0  0  0  0  0  0
  -27.2357  -37.1170   25.8838 H   0  0  0  0  0  0
  -20.9283  -29.8751   21.6966 H   0  0  0  0  0  0
  -26.0157  -38.2873   24.1531 H   0  0  0  0  0  0
  -31.7775  -19.3230   19.2892 H   0  0  0  0  0  0
  -28.8144  -19.7125   22.4033 H   0  0  0  0  0  0
  -31.6499  -16.9090   19.4379 H   0  0  0  0  0  0
  -28.6827  -17.2576   22.5791 H   0  0  0  0  0  0
  -28.7542  -21.5290   19.3751 H   0  0  0  0  0  0
  -28.3619  -21.8118   21.0521 H   0  0  0  0  0  0
  -30.2424  -21.7558   22.8160 H   0  0  0  0  0  0
  -31.8791  -21.4178   22.3102 H   0  0  0  0  0  0
  -28.4505  -23.9701   19.8417 H   0  0  0  0  0  0
  -30.0441  -23.6106   19.2262 H   0  0  0  0  0  0
  -32.0202  -23.5194   21.0480 H   0  0  0  0  0  0
  -31.5575  -23.8414   22.7020 H   0  0  0  0  0  0
  -31.1698  -21.4263   19.9318 H   0  0  0  0  0  0
  -31.0806  -25.8782   21.7811 H   0  0  0  0  0  0
  -30.8059  -25.7273   20.0765 H   0  0  0  0  0  0
  -29.5810  -27.5475   21.4582 H   0  0  0  0  0  0
  -28.5377  -26.2880   22.0897 H   0  0  0  0  0  0
  -29.1779  -15.1347   21.6464 H   0  0  0  0  0  0
  -29.3291  -24.0985   22.0270 H   0  0  0  0  0  0
  1 25  1  0  0  0
  1 30  2  0  0  0
  1 84  1  0  0  0
  2  3  1  0  0  0
  2 25  1  0  0  0
  2 86  1  0  0  0
  2 87  1  0  0  0
  3  4  1  0  0  0
  3 88  1  0  0  0
  3 89  1  0  0  0
  4  5  1  0  0  0
  4 90  1  0  0  0
  4 91  1  0  0  0
  5  6  1  0  0  0
  5 26  1  0  0  0
  5 92  1  0  0  0
  6 25  1  0  0  0
  6 93  1  0  0  0
  6 94  1  0  0  0
  7  8  2  0  0  0
  7 26  1  0  0  0
  7 29  1  0  0  0
  8  9  1  0  0  0
  8 22  1  0  0  0
  9 10  1  0  0  0
  9 27  2  0  0  0
 10 11  2  0  0  0
 10 15  1  0  0  0
 11 12  1  0  0  0
 11 95  1  0  0  0
 12 13  2  0  0  0
 12 96  1  0  0  0
 13 14  1  0  0  0
 13 31  1  0  0  0
 14 15  2  0  0  0
 14 97  1  0  0  0
 15 98  1  0  0  0
 16 17  2  0  0  0
 16 21  1  0  0  0
 16 31  1  0  0  0
 17 18  1  0  0  0
 17 99  1  0  0  0
 18 19  2  0  0  0
 18100  1  0  0  0
 19 20  1  0  0  0
 19 24  1  0  0  0
 20 21  2  0  0  0
 20101  1  0  0  0
 21 23  1  0  0  0
 22 28  1  0  0  0
 22 32  2  0  0  0
 26 27  1  0  0  0
 28102  1  0  0  0
 28103  1  0  0  0
 29104  1  0  0  0
 29105  1  0  0  0
 33 34  1  0  0  0
 33 66  1  0  0  0
 33 70  2  0  0  0
 34 36  1  0  0  0
 34 59  1  0  0  0
 34106  1  0  0  0
 35 44  2  0  0  0
 35 45  1  0  0  0
 35 68  1  0  0  0
 36 56  1  0  0  0
 36107  1  0  0  0
 37 39  1  0  0  0
 37 47  1  0  0  0
 37 66  1  0  0  0
 37108  1  0  0  0
 38 43  2  0  0  0
 38 46  1  0  0  0
 38 47  1  0  0  0
 39 64  1  0  0  0
 39 67  2  0  0  0
 40 52  1  0  0  0
 40 53  2  0  0  0
 40 58  1  0  0  0
 41109  1  0  0  0
 41110  1  0  0  0
 41111  1  0  0  0
 41 48  1  0  0  0
 42 43  1  0  0  0
 42 66  1  0  0  0
 42112  1  0  0  0
 42113  1  0  0  0
 43 44  1  0  0  0
 44114  1  0  0  0
 45 46  2  0  0  0
 45115  1  0  0  0
 46116  1  0  0  0
 47117  1  0  0  0
 47118  1  0  0  0
 48 56  1  0  0  0
 48 65  1  0  0  0
 48119  1  0  0  0
 49 50  1  0  0  0
 49 53  1  0  0  0
 49 64  1  0  0  0
 49120  1  0  0  0
 50 51  1  0  0  0
 50121  1  0  0  0
 50122  1  0  0  0
 51 52  1  0  0  0
 51123  1  0  0  0
 51124  1  0  0  0
 52125  1  0  0  0
 52126  1  0  0  0
 53 54  1  0  0  0
 54 55  2  0  0  0
 54127  1  0  0  0
 55 57  1  0  0  0
 55128  1  0  0  0
 56 69  2  0  0  0
 57 58  2  0  0  0
 57129  1  0  0  0
 58130  1  0  0  0
 59 60  1  0  0  0
 59 61  1  0  0  0
 59 62  1  0  0  0
 60131  1  0  0  0
 60132  1  0  0  0
 60133  1  0  0  0
 61134  1  0  0  0
 61135  1  0  0  0
 61136  1  0  0  0
 62137  1  0  0  0
 62138  1  0  0  0
 62139  1  0  0  0
 63 65  1  0  0  0
 63140  1  0  0  0
 63141  1  0  0  0
 63142  1  0  0  0
 64143  1  0  0  0
 65144  1  0  0  0
 68 83  1  0  0  0
 71 73  2  0  0  0
 71 75  1  0  0  0
 71145  1  0  0  0
 72 74  1  0  0  0
 72 75  2  0  0  0
 72146  1  0  0  0
 73 76  1  0  0  0
 73147  1  0  0  0
 74 76  2  0  0  0
 74148  1  0  0  0
 75 81  1  0  0  0
 76 84  1  0  0  0
 77 79  1  0  0  0
 77 81  1  0  0  0
 77149  1  0  0  0
 77150  1  0  0  0
 78 80  1  0  0  0
 78 81  1  0  0  0
 78151  1  0  0  0
 78152  1  0  0  0
 79 85  1  0  0  0
 79153  1  0  0  0
 79154  1  0  0  0
 80 85  1  0  0  0
 80155  1  0  0  0
 80156  1  0  0  0
 81157  1  0  0  0
 82 83  1  0  0  0
 82158  1  0  0  0
 82159  1  0  0  0
 82 85  1  0  0  0
 83160  1  0  0  0
 83161  1  0  0  0
 84162  1  0  0  0
 85163  1  0  0  0
M  CHG  1  85   1
M  ISO  4   1 100  68 101  83 101  84 100
M  END
> <chiral flag>
0

> <version>
0

> <s_m_source_file>
/data/baiqing/PycharmProjects/Reinvent-master-3.2/result/LINK_invent/BTK/process_docking_weight1_custom_product_contain_oxygen_bond_distance_aromatic_linkinvent_7_9_3/rearranged_h_0003.sdf

> <i_m_source_file_index>
87

> <r_mmod_Potential_Energy-OPLS-2005>
-116.643402099609

> <r_mmod_Stretch_Energy-OPLS-2005>
37.8896369934082

> <r_mmod_Bend_Energy-OPLS-2005>
104.207641601562

> <r_mmod_Torsional_Energy-OPLS-2005>
257.503295898438

> <r_mmod_Improper_Torsional_Energy-OPLS-2005>
2.8865077495575

> <r_mmod_Van_der_Waal_Energy-OPLS-2005>
159.701919555664

> <r_mmod_Electrostatic_Energy-OPLS-2005>
-267.300842285156

> <r_mmod_Solvation_Energy-OPLS-2005>
-421.754913330078

> <b_mmod_Minimization_Converged-OPLS-2005>
0

> <r_mmod_RMS_Derivative-OPLS-2005>
0.618270814418793

$$$$
87
                    3D
 Structure written by MMmdl.
162170  0  0  1  0            999 V2000
  -30.6717  -14.4685   20.5432 C   0  0  0  0  0  0
  -30.4282  -12.2963   19.4168 C   0  0  0  0  0  0
  -29.4946  -12.4810   18.2024 C   0  0  0  0  0  0
  -28.0144  -12.3474   18.6210 C   0  0  0  0  0  0
  -27.6593  -13.2001   19.8689 C   0  0  2  0  0  0
  -28.7006  -12.9741   20.9887 C   0  0  0  0  0  0
  -25.2590  -13.8158   20.5669 C   0  0  0  0  0  0
  -24.1833  -13.0450   20.9155 C   0  0  0  0  0  0
  -24.6367  -11.6907   20.8727 C   0  0  0  0  0  0
  -23.9039  -10.4291   21.0403 C   0  0  0  0  0  0
  -24.3599   -9.4215   21.9186 C   0  0  0  0  0  0
  -23.6280   -8.2246   22.0760 C   0  0  0  0  0  0
  -22.4266   -8.0275   21.3542 C   0  0  0  0  0  0
  -21.9894   -9.0246   20.4645 C   0  0  0  0  0  0
  -22.7216  -10.2124   20.3051 C   0  0  0  0  0  0
  -21.6846   -6.0733   22.5281 C   0  0  0  0  0  0
  -21.4010   -6.5637   23.8216 C   0  0  0  0  0  0
  -21.3659   -5.6790   24.9181 C   0  0  0  0  0  0
  -21.6048   -4.3052   24.7227 C   0  0  0  0  0  0
  -21.8824   -3.8143   23.4353 C   0  0  0  0  0  0
  -21.9195   -4.6958   22.3406 C   0  0  0  0  0  0
  -22.7851  -13.5264   21.1828 C   0  0  0  0  0  0
  -22.1658   -4.2149   21.0980 F   0  0  0  0  0  0
  -21.5626   -3.4531   25.7737 F   0  0  0  0  0  0
  -30.0312  -13.2756   20.4360 N   0  0  0  0  0  0
  -26.3007  -12.9308   20.3329 N   0  0  0  0  0  0
  -25.9287  -11.6480   20.5748 N   0  0  0  0  0  0
  -22.0482  -12.8243   22.0369 N   0  0  0  0  0  0
  -25.4356  -15.1881   20.4106 N   0  0  0  0  0  0
  -31.8128  -14.6693   20.1195 O   0  0  0  0  0  0
  -21.6631   -6.8866   21.4235 O   0  0  0  0  0  0
  -22.3546  -14.5590   20.6711 O   0  0  0  0  0  0
  -24.6161  -31.8683   23.2083 C   0  0  0  0  0  0
  -25.9048  -32.4820   23.8383 C   0  0  1  0  0  0
  -27.2361  -27.4399   20.1042 C   0  0  0  0  0  0
  -25.5894  -33.8612   24.2325 N   0  0  0  0  0  0
  -23.4026  -30.4935   21.5459 C   0  0  2  0  0  0
  -24.8507  -28.9552   20.1137 C   0  0  0  0  0  0
  -22.7394  -29.4691   22.4947 C   0  0  0  0  0  0
  -18.0265  -28.1347   22.8492 C   0  0  0  0  0  0
  -24.1477  -36.7323   23.2643 C   0  0  0  0  0  0
  -25.9302  -30.8391   21.3548 C   0  0  0  0  0  0
  -26.0089  -29.4713   20.7079 C   0  0  0  0  0  0
  -27.2060  -28.7227   20.6946 C   0  0  0  0  0  0
  -26.0628  -26.9349   19.5019 C   0  0  0  0  0  0
  -24.8724  -27.6871   19.5065 C   0  0  0  0  0  0
  -23.6126  -29.8220   20.1609 C   0  0  0  0  0  0
  -25.4088  -36.3105   24.0345 C   0  0  1  0  0  0
  -20.5856  -28.3666   23.1254 C   0  0  2  0  0  0
  -20.6739  -26.9425   22.5307 C   0  0  0  0  0  0
  -19.5693  -26.6366   21.5154 C   0  0  0  0  0  0
  -18.1887  -26.7917   22.1559 C   0  0  0  0  0  0
  -19.1520  -28.8806   23.2883 C   0  0  0  0  0  0
  -18.9463  -30.1403   23.8923 C   0  0  0  0  0  0
  -17.6474  -30.6563   24.0571 C   0  0  0  0  0  0
  -25.9020  -34.9468   23.5134 C   0  0  0  0  0  0
  -16.5364  -29.9076   23.6328 C   0  0  0  0  0  0
  -16.7272  -28.6487   23.0362 C   0  0  0  0  0  0
  -26.4496  -31.6588   25.0701 C   0  0  0  0  0  0
  -25.3769  -31.3674   26.1448 C   0  0  0  0  0  0
  -27.0327  -30.3044   24.6045 C   0  0  0  0  0  0
  -27.6078  -32.4300   25.7475 C   0  0  0  0  0  0
  -27.5566  -37.1819   24.8466 C   0  0  0  0  0  0
  -21.4118  -29.3076   22.3683 N   0  0  0  0  0  0
  -26.4271  -37.3783   23.9416 N   0  0  0  0  0  0
  -24.6685  -31.0797   22.0972 N   0  0  0  0  0  0
  -23.4171  -28.8232   23.2996 O   0  0  0  0  0  0
  -28.4090  -26.7172   20.1117 O   0  0  0  0  0  0
  -26.5589  -34.8917   22.4697 O   0  0  0  0  0  0
  -23.5354  -32.1446   23.7467 O   0  0  0  0  0  0
  -27.1002  -18.4419   22.5068 C   0  0  0  0  0  0
  -28.1851  -17.5870   22.2259 C   0  0  0  0  0  0
  -26.8008  -19.5208   21.6516 C   0  0  0  0  0  0
  -28.6823  -18.9019   20.2342 C   0  0  0  0  0  0
  -28.9876  -17.8129   21.0872 C   0  0  0  0  0  0
  -27.5826  -19.7567   20.4966 C   0  0  0  0  0  0
  -25.7360  -20.7144   19.0402 C   0  0  0  0  0  0
  -30.1819  -16.9036   20.7941 C   0  0  0  0  0  0
  -28.5893  -24.3853   19.3373 C   0  0  0  0  0  0
  -28.7206  -22.8800   19.6959 C   0  0  0  0  0  0
  -28.3242  -25.3414   20.5185 C   0  0  0  0  0  0
  -27.1988  -20.8639   19.5002 C   0  0  1  0  0  0
  -29.8886  -15.4768   20.9555 N   0  0  0  0  0  0
  -27.4214  -22.2369   20.0240 N   0  3  0  0  0  0
  -31.4706  -12.4082   19.1141 H   0  0  0  0  0  0
  -30.3400  -11.2862   19.8178 H   0  0  0  0  0  0
  -29.7336  -11.7364   17.4413 H   0  0  0  0  0  0
  -29.6627  -13.4566   17.7435 H   0  0  0  0  0  0
  -27.8309  -11.2927   18.8345 H   0  0  0  0  0  0
  -27.3595  -12.6031   17.7877 H   0  0  0  0  0  0
  -27.7039  -14.2460   19.5634 H   0  0  0  0  0  0
  -28.6755  -11.9372   21.3244 H   0  0  0  0  0  0
  -28.4655  -13.5685   21.8734 H   0  0  0  0  0  0
  -25.2748   -9.5695   22.4755 H   0  0  0  0  0  0
  -24.0001   -7.4644   22.7490 H   0  0  0  0  0  0
  -21.0830   -8.8776   19.8939 H   0  0  0  0  0  0
  -22.3705  -10.9667   19.6154 H   0  0  0  0  0  0
  -21.1995   -7.6144   23.9726 H   0  0  0  0  0  0
  -21.1475   -6.0511   25.9087 H   0  0  0  0  0  0
  -22.0604   -2.7602   23.2857 H   0  0  0  0  0  0
  -22.4075  -11.9892   22.4755 H   0  0  0  0  0  0
  -21.1108  -13.1283   22.2588 H   0  0  0  0  0  0
  -24.6836  -15.8527   20.5547 H   0  0  0  0  0  0
  -26.3042  -15.6311   20.1398 H   0  0  0  0  0  0
  -26.7131  -32.5548   23.1158 H   0  0  0  0  0  0
  -25.0024  -33.9761   25.0459 H   0  0  0  0  0  0
  -22.6925  -31.3112   21.4016 H   0  0  0  0  0  0
  -23.3715  -35.9684   23.3316 H   0  0  0  0  0  0
  -24.3577  -36.8929   22.2060 H   0  0  0  0  0  0
  -23.7257  -37.6541   23.6657 H   0  0  0  0  0  0
  -26.0268  -31.6002   20.5781 H   0  0  0  0  0  0
  -26.8233  -30.9052   21.9646 H   0  0  0  0  0  0
  -28.1043  -29.1192   21.1490 H   0  0  0  0  0  0
  -26.0662  -25.9681   19.0187 H   0  0  0  0  0  0
  -23.9837  -27.2856   19.0378 H   0  0  0  0  0  0
  -23.7202  -30.5959   19.3993 H   0  0  0  0  0  0
  -22.7401  -29.2381   19.8644 H   0  0  0  0  0  0
  -25.1271  -36.1969   25.0841 H   0  0  0  0  0  0
  -20.9989  -28.3190   24.1357 H   0  0  0  0  0  0
  -20.5755  -26.2273   23.3473 H   0  0  0  0  0  0
  -21.6584  -26.7521   22.1038 H   0  0  0  0  0  0
  -19.6828  -25.6243   21.1235 H   0  0  0  0  0  0
  -19.6584  -27.3137   20.6644 H   0  0  0  0  0  0
  -17.4189  -26.6707   21.3914 H   0  0  0  0  0  0
  -18.0267  -26.0011   22.8897 H   0  0  0  0  0  0
  -19.7960  -30.7191   24.2300 H   0  0  0  0  0  0
  -17.5041  -31.6263   24.5132 H   0  0  0  0  0  0
  -15.5369  -30.3007   23.7601 H   0  0  0  0  0  0
  -15.8653  -28.0831   22.7110 H   0  0  0  0  0  0
  -24.5940  -30.7033   25.7763 H   0  0  0  0  0  0
  -24.8962  -32.2821   26.4939 H   0  0  0  0  0  0
  -25.8126  -30.8810   27.0179 H   0  0  0  0  0  0
  -26.2855  -29.6800   24.1138 H   0  0  0  0  0  0
  -27.4163  -29.7291   25.4474 H   0  0  0  0  0  0
  -27.8655  -30.4381   23.9135 H   0  0  0  0  0  0
  -27.2712  -33.3585   26.2098 H   0  0  0  0  0  0
  -28.3879  -32.6880   25.0299 H   0  0  0  0  0  0
  -28.0765  -31.8393   26.5359 H   0  0  0  0  0  0
  -28.2597  -38.0105   24.7494 H   0  0  0  0  0  0
  -28.1052  -36.2637   24.6310 H   0  0  0  0  0  0
  -27.2298  -37.1491   25.8874 H   0  0  0  0  0  0
  -20.9266  -29.8880   21.6996 H   0  0  0  0  0  0
  -26.0167  -38.2862   24.1412 H   0  0  0  0  0  0
  -26.4912  -18.2671   23.3830 H   0  0  0  0  0  0
  -28.4065  -16.7656   22.8945 H   0  0  0  0  0  0
  -25.9544  -20.1518   21.8837 H   0  0  0  0  0  0
  -29.2880  -19.0703   19.3539 H   0  0  0  0  0  0
  -25.5533  -19.7160   18.6410 H   0  0  0  0  0  0
  -25.4938  -21.4263   18.2499 H   0  0  0  0  0  0
  -25.0312  -20.8756   19.8531 H   0  0  0  0  0  0
  -30.9972  -17.1800   21.4646 H   0  0  0  0  0  0
  -30.5295  -17.0916   19.7761 H   0  0  0  0  0  0
  -29.5301  -24.6916   18.8776 H   0  0  0  0  0  0
  -27.8352  -24.5236   18.5622 H   0  0  0  0  0  0
  -29.4251  -22.7267   20.5150 H   0  0  0  0  0  0
  -29.1670  -22.3869   18.8322 H   0  0  0  0  0  0
  -27.3766  -25.1103   21.0116 H   0  0  0  0  0  0
  -29.0913  -25.1900   21.2775 H   0  0  0  0  0  0
  -27.8030  -20.7254   18.6005 H   0  0  0  0  0  0
  -28.9572  -15.2319   21.2497 H   0  0  0  0  0  0
  -26.6966  -22.8041   19.6183 H   0  0  0  0  0  0
  -27.2859  -22.2406   21.0220 H   0  0  0  0  0  0
  1 25  1  0  0  0
  1 30  2  0  0  0
  1 83  1  0  0  0
  2  3  1  0  0  0
  2 25  1  0  0  0
  2 85  1  0  0  0
  2 86  1  0  0  0
  3  4  1  0  0  0
  3 87  1  0  0  0
  3 88  1  0  0  0
  4  5  1  0  0  0
  4 89  1  0  0  0
  4 90  1  0  0  0
  5  6  1  0  0  0
  5 26  1  0  0  0
  5 91  1  0  0  0
  6 25  1  0  0  0
  6 92  1  0  0  0
  6 93  1  0  0  0
  7  8  2  0  0  0
  7 26  1  0  0  0
  7 29  1  0  0  0
  8  9  1  0  0  0
  8 22  1  0  0  0
  9 10  1  0  0  0
  9 27  2  0  0  0
 10 11  2  0  0  0
 10 15  1  0  0  0
 11 12  1  0  0  0
 11 94  1  0  0  0
 12 13  2  0  0  0
 12 95  1  0  0  0
 13 14  1  0  0  0
 13 31  1  0  0  0
 14 15  2  0  0  0
 14 96  1  0  0  0
 15 97  1  0  0  0
 16 17  2  0  0  0
 16 21  1  0  0  0
 16 31  1  0  0  0
 17 18  1  0  0  0
 17 98  1  0  0  0
 18 19  2  0  0  0
 18 99  1  0  0  0
 19 20  1  0  0  0
 19 24  1  0  0  0
 20 21  2  0  0  0
 20100  1  0  0  0
 21 23  1  0  0  0
 22 28  1  0  0  0
 22 32  2  0  0  0
 26 27  1  0  0  0
 28101  1  0  0  0
 28102  1  0  0  0
 29103  1  0  0  0
 29104  1  0  0  0
 33 34  1  0  0  0
 33 66  1  0  0  0
 33 70  2  0  0  0
 34 36  1  0  0  0
 34 59  1  0  0  0
 34105  1  0  0  0
 35 44  2  0  0  0
 35 45  1  0  0  0
 35 68  1  0  0  0
 36 56  1  0  0  0
 36106  1  0  0  0
 37 39  1  0  0  0
 37 47  1  0  0  0
 37 66  1  0  0  0
 37107  1  0  0  0
 38 43  2  0  0  0
 38 46  1  0  0  0
 38 47  1  0  0  0
 39 64  1  0  0  0
 39 67  2  0  0  0
 40 52  1  0  0  0
 40 53  2  0  0  0
 40 58  1  0  0  0
 41108  1  0  0  0
 41109  1  0  0  0
 41110  1  0  0  0
 41 48  1  0  0  0
 42 43  1  0  0  0
 42 66  1  0  0  0
 42111  1  0  0  0
 42112  1  0  0  0
 43 44  1  0  0  0
 44113  1  0  0  0
 45 46  2  0  0  0
 45114  1  0  0  0
 46115  1  0  0  0
 47116  1  0  0  0
 47117  1  0  0  0
 48 56  1  0  0  0
 48 65  1  0  0  0
 48118  1  0  0  0
 49 50  1  0  0  0
 49 53  1  0  0  0
 49 64  1  0  0  0
 49119  1  0  0  0
 50 51  1  0  0  0
 50120  1  0  0  0
 50121  1  0  0  0
 51 52  1  0  0  0
 51122  1  0  0  0
 51123  1  0  0  0
 52124  1  0  0  0
 52125  1  0  0  0
 53 54  1  0  0  0
 54 55  2  0  0  0
 54126  1  0  0  0
 55 57  1  0  0  0
 55127  1  0  0  0
 56 69  2  0  0  0
 57 58  2  0  0  0
 57128  1  0  0  0
 58129  1  0  0  0
 59 60  1  0  0  0
 59 61  1  0  0  0
 59 62  1  0  0  0
 60130  1  0  0  0
 60131  1  0  0  0
 60132  1  0  0  0
 61133  1  0  0  0
 61134  1  0  0  0
 61135  1  0  0  0
 62136  1  0  0  0
 62137  1  0  0  0
 62138  1  0  0  0
 63 65  1  0  0  0
 63139  1  0  0  0
 63140  1  0  0  0
 63141  1  0  0  0
 64142  1  0  0  0
 65143  1  0  0  0
 68 81  1  0  0  0
 71 72  2  0  0  0
 71 73  1  0  0  0
 71144  1  0  0  0
 72 75  1  0  0  0
 72145  1  0  0  0
 73 76  2  0  0  0
 73146  1  0  0  0
 74 75  2  0  0  0
 74 76  1  0  0  0
 74147  1  0  0  0
 75 78  1  0  0  0
 76 82  1  0  0  0
 77148  1  0  0  0
 77149  1  0  0  0
 77150  1  0  0  0
 77 82  1  0  0  0
 78 83  1  0  0  0
 78151  1  0  0  0
 78152  1  0  0  0
 79 80  1  0  0  0
 79 81  1  0  0  0
 79153  1  0  0  0
 79154  1  0  0  0
 80 84  1  0  0  0
 80155  1  0  0  0
 80156  1  0  0  0
 81157  1  0  0  0
 81158  1  0  0  0
 82 84  1  0  0  0
 82159  1  0  0  0
 83160  1  0  0  0
 84161  1  0  0  0
 84162  1  0  0  0
M  CHG  1  84   1
M  ISO  4   1 100  68 101  81 101  83 100
M  END
> <chiral flag>
0

> <version>
0

> <s_m_source_file>
/data/baiqing/PycharmProjects/Reinvent-master-3.2/result/LINK_invent/BTK/process_docking_weight1_custom_product_contain_oxygen_bond_distance_aromatic_linkinvent_7_9_3/rearranged_h_0003.sdf

> <i_m_source_file_index>
88

> <r_mmod_Potential_Energy-OPLS-2005>
-290.145385742188

> <r_mmod_Stretch_Energy-OPLS-2005>
36.1474761962891

> <r_mmod_Bend_Energy-OPLS-2005>
90.9372024536133

> <r_mmod_Torsional_Energy-OPLS-2005>
225.785766601562

> <r_mmod_Improper_Torsional_Energy-OPLS-2005>
5.05170154571533

> <r_mmod_Van_der_Waal_Energy-OPLS-2005>
144.678924560547

> <r_mmod_Electrostatic_Energy-OPLS-2005>
-340.202117919922

> <r_mmod_Solvation_Energy-OPLS-2005>
-465.648864746094

> <b_mmod_Minimization_Converged-OPLS-2005>
0

> <r_mmod_RMS_Derivative-OPLS-2005>
3.28066062927246

$$$$
88
                    3D
 Structure written by MMmdl.
144152  0  0  1  0            999 V2000
  -30.3021  -15.5932   20.3329 C   0  0  0  0  0  0
  -30.4326  -13.0479   19.5373 C   0  0  0  0  0  0
  -29.5520  -12.6461   18.3194 C   0  0  0  0  0  0
  -28.1210  -12.2991   18.7600 C   0  0  0  0  0  0
  -27.5995  -13.3023   19.8140 C   0  0  2  0  0  0
  -28.6192  -13.6098   20.9351 C   0  0  0  0  0  0
  -25.2337  -13.8274   20.5781 C   0  0  0  0  0  0
  -24.1722  -13.0430   20.9285 C   0  0  0  0  0  0
  -24.6417  -11.6940   20.8764 C   0  0  0  0  0  0
  -23.9117  -10.4290   21.0399 C   0  0  0  0  0  0
  -24.3652   -9.4203   21.9181 C   0  0  0  0  0  0
  -23.6312   -8.2246   22.0754 C   0  0  0  0  0  0
  -22.4292   -8.0288   21.3546 C   0  0  0  0  0  0
  -21.9939   -9.0264   20.4645 C   0  0  0  0  0  0
  -22.7284  -10.2134   20.3051 C   0  0  0  0  0  0
  -21.6858   -6.0741   22.5279 C   0  0  0  0  0  0
  -21.4018   -6.5643   23.8213 C   0  0  0  0  0  0
  -21.3661   -5.6794   24.9174 C   0  0  0  0  0  0
  -21.6044   -4.3056   24.7224 C   0  0  0  0  0  0
  -21.8818   -3.8150   23.4344 C   0  0  0  0  0  0
  -21.9194   -4.6968   22.3402 C   0  0  0  0  0  0
  -22.7734  -13.5165   21.1921 C   0  0  0  0  0  0
  -22.1661   -4.2153   21.0979 F   0  0  0  0  0  0
  -21.5627   -3.4539   25.7736 F   0  0  0  0  0  0
  -29.8007  -14.2227   20.2856 N   0  0  0  0  0  0
  -26.2785  -12.9597   20.3223 N   0  0  0  0  0  0
  -25.9362  -11.6674   20.5699 N   0  0  0  0  0  0
  -22.0396  -12.8143   22.0473 N   0  0  0  0  0  0
  -25.3915  -15.2015   20.4212 N   0  0  0  0  0  0
  -31.5371  -15.5643   20.1684 O   0  0  0  0  0  0
  -21.6647   -6.8889   21.4243 O   0  0  0  0  0  0
  -22.3409  -14.5464   20.6757 O   0  0  0  0  0  0
  -24.6831  -31.8011   23.1526 C   0  0  0  0  0  0
  -25.9415  -32.4474   23.8070 C   0  0  1  0  0  0
  -27.2274  -26.7157   20.2118 C   0  0  0  0  0  0
  -25.5996  -33.8299   24.1956 N   0  0  0  0  0  0
  -23.5088  -30.4037   21.5064 C   0  0  2  0  0  0
  -24.9668  -28.7480   20.1182 C   0  0  0  0  0  0
  -22.7764  -29.4322   22.4715 C   0  0  0  0  0  0
  -18.0338  -28.1421   22.8455 C   0  0  0  0  0  0
  -24.1496  -36.7158   23.2652 C   0  0  0  0  0  0
  -26.0894  -30.5386   21.4154 C   0  0  0  0  0  0
  -26.1562  -29.1049   20.7648 C   0  0  0  0  0  0
  -27.2730  -28.1167   20.7789 C   0  0  0  0  0  0
  -26.0047  -26.5663   19.5091 C   0  0  0  0  0  0
  -24.9293  -27.5037   19.4667 C   0  0  0  0  0  0
  -23.7624  -29.7017   20.1415 C   0  0  0  0  0  0
  -25.4146  -36.2900   24.0282 C   0  0  1  0  0  0
  -20.5974  -28.3781   23.1142 C   0  0  2  0  0  0
  -20.6805  -26.9441   22.5403 C   0  0  0  0  0  0
  -19.5781  -26.6371   21.5216 C   0  0  0  0  0  0
  -18.1964  -26.7949   22.1619 C   0  0  0  0  0  0
  -19.1605  -28.8925   23.2779 C   0  0  0  0  0  0
  -18.9510  -30.1509   23.8825 C   0  0  0  0  0  0
  -17.6500  -30.6604   24.0550 C   0  0  0  0  0  0
  -25.9124  -34.9289   23.4955 C   0  0  0  0  0  0
  -16.5389  -29.9086   23.6350 C   0  0  0  0  0  0
  -16.7318  -28.6508   23.0366 C   0  0  0  0  0  0
  -26.4594  -31.6505   25.0689 C   0  0  0  0  0  0
  -25.3661  -31.3820   26.1304 C   0  0  0  0  0  0
  -27.0525  -30.2844   24.6583 C   0  0  0  0  0  0
  -27.6042  -32.4365   25.7508 C   0  0  0  0  0  0
  -27.5564  -37.1737   24.8466 C   0  0  0  0  0  0
  -21.4412  -29.3030   22.3464 N   0  0  0  0  0  0
  -26.4273  -37.3659   23.9406 N   0  0  0  0  0  0
  -24.7838  -30.9469   22.0774 N   0  0  0  0  0  0
  -23.4211  -28.7922   23.3056 O   0  0  0  0  0  0
  -28.1833  -25.4944   20.2808 O   0  0  0  0  0  0
  -26.5764  -34.8864   22.4572 O   0  0  0  0  0  0
  -23.5852  -32.1079   23.6486 O   0  0  0  0  0  0
  -29.2152  -21.2102   21.2850 C   0  0  0  0  0  0
  -28.4680  -20.9815   19.2114 C   0  0  0  0  0  0
  -29.5547  -19.7084   21.3189 C   0  0  0  0  0  0
  -28.7956  -19.4896   19.2463 C   0  0  0  0  0  0
  -28.6202  -22.0723   20.2165 C   0  0  0  0  0  0
  -29.3952  -18.6241   20.2984 C   0  0  0  0  0  0
  -27.8596  -23.7811   20.1605 C   0  0  0  0  0  0
  -29.4728  -16.9054   20.3744 N   0  0  0  0  0  0
  -31.4270  -13.3120   19.1754 H   0  0  0  0  0  0
  -30.5883  -12.1960   20.2015 H   0  0  0  0  0  0
  -29.9972  -11.8055   17.7855 H   0  0  0  0  0  0
  -29.5208  -13.4766   17.6126 H   0  0  0  0  0  0
  -28.1388  -11.2971   19.1903 H   0  0  0  0  0  0
  -27.4518  -12.2545   17.8999 H   0  0  0  0  0  0
  -27.4696  -14.2308   19.2564 H   0  0  0  0  0  0
  -28.8689  -12.7178   21.5116 H   0  0  0  0  0  0
  -28.1952  -14.3242   21.6424 H   0  0  0  0  0  0
  -25.2792   -9.5675   22.4765 H   0  0  0  0  0  0
  -24.0012   -7.4637   22.7479 H   0  0  0  0  0  0
  -21.0869   -8.8793   19.8951 H   0  0  0  0  0  0
  -22.3745  -10.9677   19.6162 H   0  0  0  0  0  0
  -21.2013   -7.6151   23.9718 H   0  0  0  0  0  0
  -21.1483   -6.0523   25.9077 H   0  0  0  0  0  0
  -22.0595   -2.7612   23.2843 H   0  0  0  0  0  0
  -22.4036  -11.9820   22.4872 H   0  0  0  0  0  0
  -21.1003  -13.1140   22.2670 H   0  0  0  0  0  0
  -24.6148  -15.8447   20.5307 H   0  0  0  0  0  0
  -26.2216  -15.6451   20.0524 H   0  0  0  0  0  0
  -26.7498  -32.4951   23.0785 H   0  0  0  0  0  0
  -25.0053  -33.9339   25.0048 H   0  0  0  0  0  0
  -22.8336  -31.2408   21.3174 H   0  0  0  0  0  0
  -23.3775  -35.9470   23.3267 H   0  0  0  0  0  0
  -24.3564  -36.8867   22.2076 H   0  0  0  0  0  0
  -23.7240  -37.6318   23.6760 H   0  0  0  0  0  0
  -26.2912  -31.2650   20.6272 H   0  0  0  0  0  0
  -26.9406  -30.6057   22.0807 H   0  0  0  0  0  0
  -28.1680  -28.3958   21.3169 H   0  0  0  0  0  0
  -25.8372  -25.6248   19.0063 H   0  0  0  0  0  0
  -24.0317  -27.2214   18.9338 H   0  0  0  0  0  0
  -23.9365  -30.4623   19.3796 H   0  0  0  0  0  0
  -22.8675  -29.1676   19.8174 H   0  0  0  0  0  0
  -25.1355  -36.1664   25.0772 H   0  0  0  0  0  0
  -21.0055  -28.3406   24.1269 H   0  0  0  0  0  0
  -20.5670  -26.2405   23.3665 H   0  0  0  0  0  0
  -21.6667  -26.7385   22.1221 H   0  0  0  0  0  0
  -19.6938  -25.6262   21.1294 H   0  0  0  0  0  0
  -19.6725  -27.3140   20.6714 H   0  0  0  0  0  0
  -17.4233  -26.6689   21.4023 H   0  0  0  0  0  0
  -18.0354  -26.0109   22.9033 H   0  0  0  0  0  0
  -19.7985  -30.7344   24.2163 H   0  0  0  0  0  0
  -17.5050  -31.6276   24.5167 H   0  0  0  0  0  0
  -15.5386  -30.2965   23.7716 H   0  0  0  0  0  0
  -15.8719  -28.0803   22.7123 H   0  0  0  0  0  0
  -24.5869  -30.7145   25.7603 H   0  0  0  0  0  0
  -24.8823  -32.3041   26.4534 H   0  0  0  0  0  0
  -25.7838  -30.9110   27.0211 H   0  0  0  0  0  0
  -26.3240  -29.6459   24.1575 H   0  0  0  0  0  0
  -27.3954  -29.7289   25.5322 H   0  0  0  0  0  0
  -27.9220  -30.3970   24.0106 H   0  0  0  0  0  0
  -27.2581  -33.3734   26.1884 H   0  0  0  0  0  0
  -28.3957  -32.6817   25.0414 H   0  0  0  0  0  0
  -28.0596  -31.8630   26.5592 H   0  0  0  0  0  0
  -28.2551  -38.0060   24.7511 H   0  0  0  0  0  0
  -28.1090  -36.2582   24.6297 H   0  0  0  0  0  0
  -27.2278  -37.1377   25.8867 H   0  0  0  0  0  0
  -20.9716  -29.8686   21.6531 H   0  0  0  0  0  0
  -26.0101  -38.2707   24.1416 H   0  0  0  0  0  0
  -29.3875  -21.7246   22.2200 H   0  0  0  0  0  0
  -27.9811  -21.2980   18.2995 H   0  0  0  0  0  0
  -29.9269  -19.3646   22.2737 H   0  0  0  0  0  0
  -28.4989  -18.9566   18.3538 H   0  0  0  0  0  0
  -27.0553  -23.6708   20.8879 H   0  0  0  0  0  0
  -27.3414  -23.7369   19.2027 H   0  0  0  0  0  0
  -28.5226  -16.5669   20.4124 H   0  0  0  0  0  0
  1 25  1  0  0  0
  1 30  2  0  0  0
  1 78  1  0  0  0
  2  3  1  0  0  0
  2 25  1  0  0  0
  2 79  1  0  0  0
  2 80  1  0  0  0
  3  4  1  0  0  0
  3 81  1  0  0  0
  3 82  1  0  0  0
  4  5  1  0  0  0
  4 83  1  0  0  0
  4 84  1  0  0  0
  5  6  1  0  0  0
  5 26  1  0  0  0
  5 85  1  0  0  0
  6 25  1  0  0  0
  6 86  1  0  0  0
  6 87  1  0  0  0
  7  8  2  0  0  0
  7 26  1  0  0  0
  7 29  1  0  0  0
  8  9  1  0  0  0
  8 22  1  0  0  0
  9 10  1  0  0  0
  9 27  2  0  0  0
 10 11  2  0  0  0
 10 15  1  0  0  0
 11 12  1  0  0  0
 11 88  1  0  0  0
 12 13  2  0  0  0
 12 89  1  0  0  0
 13 14  1  0  0  0
 13 31  1  0  0  0
 14 15  2  0  0  0
 14 90  1  0  0  0
 15 91  1  0  0  0
 16 17  2  0  0  0
 16 21  1  0  0  0
 16 31  1  0  0  0
 17 18  1  0  0  0
 17 92  1  0  0  0
 18 19  2  0  0  0
 18 93  1  0  0  0
 19 20  1  0  0  0
 19 24  1  0  0  0
 20 21  2  0  0  0
 20 94  1  0  0  0
 21 23  1  0  0  0
 22 28  1  0  0  0
 22 32  2  0  0  0
 26 27  1  0  0  0
 28 95  1  0  0  0
 28 96  1  0  0  0
 29 97  1  0  0  0
 29 98  1  0  0  0
 33 34  1  0  0  0
 33 66  1  0  0  0
 33 70  2  0  0  0
 34 36  1  0  0  0
 34 59  1  0  0  0
 34 99  1  0  0  0
 35 44  2  0  0  0
 35 45  1  0  0  0
 35 68  1  0  0  0
 36 56  1  0  0  0
 36100  1  0  0  0
 37 39  1  0  0  0
 37 47  1  0  0  0
 37 66  1  0  0  0
 37101  1  0  0  0
 38 43  2  0  0  0
 38 46  1  0  0  0
 38 47  1  0  0  0
 39 64  1  0  0  0
 39 67  2  0  0  0
 40 52  1  0  0  0
 40 53  2  0  0  0
 40 58  1  0  0  0
 41102  1  0  0  0
 41103  1  0  0  0
 41104  1  0  0  0
 41 48  1  0  0  0
 42 43  1  0  0  0
 42 66  1  0  0  0
 42105  1  0  0  0
 42106  1  0  0  0
 43 44  1  0  0  0
 44107  1  0  0  0
 45 46  2  0  0  0
 45108  1  0  0  0
 46109  1  0  0  0
 47110  1  0  0  0
 47111  1  0  0  0
 48 56  1  0  0  0
 48 65  1  0  0  0
 48112  1  0  0  0
 49 50  1  0  0  0
 49 53  1  0  0  0
 49 64  1  0  0  0
 49113  1  0  0  0
 50 51  1  0  0  0
 50114  1  0  0  0
 50115  1  0  0  0
 51 52  1  0  0  0
 51116  1  0  0  0
 51117  1  0  0  0
 52118  1  0  0  0
 52119  1  0  0  0
 53 54  1  0  0  0
 54 55  2  0  0  0
 54120  1  0  0  0
 55 57  1  0  0  0
 55121  1  0  0  0
 56 69  2  0  0  0
 57 58  2  0  0  0
 57122  1  0  0  0
 58123  1  0  0  0
 59 60  1  0  0  0
 59 61  1  0  0  0
 59 62  1  0  0  0
 60124  1  0  0  0
 60125  1  0  0  0
 60126  1  0  0  0
 61127  1  0  0  0
 61128  1  0  0  0
 61129  1  0  0  0
 62130  1  0  0  0
 62131  1  0  0  0
 62132  1  0  0  0
 63 65  1  0  0  0
 63133  1  0  0  0
 63134  1  0  0  0
 63135  1  0  0  0
 64136  1  0  0  0
 65137  1  0  0  0
 68 77  1  0  0  0
 71 73  2  0  0  0
 71 75  1  0  0  0
 71138  1  0  0  0
 72 74  1  0  0  0
 72 75  2  0  0  0
 72139  1  0  0  0
 73 76  1  0  0  0
 73140  1  0  0  0
 74 76  2  0  0  0
 74141  1  0  0  0
 75 77  1  0  0  0
 76 78  1  0  0  0
 77142  1  0  0  0
 77143  1  0  0  0
 78144  1  0  0  0
M  ISO  4   1 100  68 101  77 101  78 100
M  END
> <chiral flag>
0

> <version>
0

> <s_m_source_file>
/data/baiqing/PycharmProjects/Reinvent-master-3.2/result/LINK_invent/BTK/process_docking_weight1_custom_product_contain_oxygen_bond_distance_aromatic_linkinvent_7_9_3/rearranged_h_0003.sdf

> <i_m_source_file_index>
89

> <r_mmod_Potential_Energy-OPLS-2005>
2267.25439453125

> <r_mmod_Stretch_Energy-OPLS-2005>
909.600280761719

> <r_mmod_Bend_Energy-OPLS-2005>
657.110290527344

> <r_mmod_Torsional_Energy-OPLS-2005>
259.846252441406

> <r_mmod_Improper_Torsional_Energy-OPLS-2005>
10.6979417800903

> <r_mmod_Van_der_Waal_Energy-OPLS-2005>
132.425323486328

> <r_mmod_Electrostatic_Energy-OPLS-2005>
-345.95654296875

> <r_mmod_Solvation_Energy-OPLS-2005>
-215.57307434082

> <b_mmod_Minimization_Converged-OPLS-2005>
0

> <r_mmod_RMS_Derivative-OPLS-2005>
0.113339096307755

$$$$
89
                    3D
 Structure written by MMmdl.
152160  0  0  1  0            999 V2000
  -30.5144  -14.9564   20.3936 C   0  0  0  0  0  0
  -30.4520  -12.5889   19.4876 C   0  0  0  0  0  0
  -29.5246  -12.5287   18.2509 C   0  0  0  0  0  0
  -28.0576  -12.3093   18.6712 C   0  0  0  0  0  0
  -27.6302  -13.2356   19.8392 C   0  0  2  0  0  0
  -28.6806  -13.2590   20.9715 C   0  0  0  0  0  0
  -25.2418  -13.7998   20.5809 C   0  0  0  0  0  0
  -24.1745  -13.0273   20.9314 C   0  0  0  0  0  0
  -24.6386  -11.6792   20.8783 C   0  0  0  0  0  0
  -23.9070  -10.4200   21.0417 C   0  0  0  0  0  0
  -24.3615   -9.4130   21.9197 C   0  0  0  0  0  0
  -23.6277   -8.2186   22.0764 C   0  0  0  0  0  0
  -22.4259   -8.0245   21.3548 C   0  0  0  0  0  0
  -21.9898   -9.0215   20.4647 C   0  0  0  0  0  0
  -22.7247  -10.2077   20.3053 C   0  0  0  0  0  0
  -21.6834   -6.0720   22.5280 C   0  0  0  0  0  0
  -21.4006   -6.5629   23.8212 C   0  0  0  0  0  0
  -21.3660   -5.6787   24.9175 C   0  0  0  0  0  0
  -21.6043   -4.3050   24.7224 C   0  0  0  0  0  0
  -21.8820   -3.8138   23.4346 C   0  0  0  0  0  0
  -21.9185   -4.6952   22.3402 C   0  0  0  0  0  0
  -22.7773  -13.5103   21.1925 C   0  0  0  0  0  0
  -22.1658   -4.2140   21.0978 F   0  0  0  0  0  0
  -21.5626   -3.4533   25.7739 F   0  0  0  0  0  0
  -29.9560  -13.6788   20.3703 N   0  0  0  0  0  0
  -26.2881  -12.9306   20.3251 N   0  0  0  0  0  0
  -25.9319  -11.6439   20.5728 N   0  0  0  0  0  0
  -22.0393  -12.8124   22.0475 N   0  0  0  0  0  0
  -25.3848  -15.1666   20.4318 N   0  0  0  0  0  0
  -31.7219  -15.0598   20.1509 O   0  0  0  0  0  0
  -21.6612   -6.8856   21.4244 O   0  0  0  0  0  0
  -22.3492  -14.5419   20.6751 O   0  0  0  0  0  0
  -24.6403  -31.8441   23.1873 C   0  0  0  0  0  0
  -25.9184  -32.4695   23.8267 C   0  0  1  0  0  0
  -27.2442  -27.1669   20.1354 C   0  0  0  0  0  0
  -25.5937  -33.8500   24.2187 N   0  0  0  0  0  0
  -23.4449  -30.4598   21.5313 C   0  0  2  0  0  0
  -24.8994  -28.8880   20.1043 C   0  0  0  0  0  0
  -22.7557  -29.4534   22.4857 C   0  0  0  0  0  0
  -18.0303  -28.1396   22.8473 C   0  0  0  0  0  0
  -24.1492  -36.7263   23.2644 C   0  0  0  0  0  0
  -25.9967  -30.7252   21.3829 C   0  0  0  0  0  0
  -26.0708  -29.3382   20.7239 C   0  0  0  0  0  0
  -27.2359  -28.4896   20.7302 C   0  0  0  0  0  0
  -26.0438  -26.8046   19.4838 C   0  0  0  0  0  0
  -24.8967  -27.6326   19.4727 C   0  0  0  0  0  0
  -23.6709  -29.7844   20.1508 C   0  0  0  0  0  0
  -25.4122  -36.3034   24.0318 C   0  0  1  0  0  0
  -20.5912  -28.3714   23.1242 C   0  0  2  0  0  0
  -20.6785  -26.9417   22.5409 C   0  0  0  0  0  0
  -19.5764  -26.6380   21.5212 C   0  0  0  0  0  0
  -18.1945  -26.7935   22.1619 C   0  0  0  0  0  0
  -19.1558  -28.8872   23.2852 C   0  0  0  0  0  0
  -18.9474  -30.1467   23.8881 C   0  0  0  0  0  0
  -17.6468  -30.6590   24.0561 C   0  0  0  0  0  0
  -25.9066  -34.9406   23.5065 C   0  0  0  0  0  0
  -16.5362  -29.9080   23.6334 C   0  0  0  0  0  0
  -16.7289  -28.6503   23.0351 C   0  0  0  0  0  0
  -26.4513  -31.6564   25.0706 C   0  0  0  0  0  0
  -25.3703  -31.3750   26.1406 C   0  0  0  0  0  0
  -27.0378  -30.2965   24.6280 C   0  0  0  0  0  0
  -27.6045  -32.4328   25.7490 C   0  0  0  0  0  0
  -27.5574  -37.1793   24.8467 C   0  0  0  0  0  0
  -21.4252  -29.3035   22.3612 N   0  0  0  0  0  0
  -26.4291  -37.3741   23.9400 N   0  0  0  0  0  0
  -24.7132  -31.0308   22.0895 N   0  0  0  0  0  0
  -23.4205  -28.8095   23.3014 O   0  0  0  0  0  0
  -28.3284  -26.2294   20.2658 O   0  0  0  0  0  0
  -26.5655  -34.8902   22.4646 O   0  0  0  0  0  0
  -23.5528  -32.1306   23.7106 O   0  0  0  0  0  0
  -30.6599  -19.9692   20.4897 C   0  0  0  0  0  0
  -30.7450  -18.5136   20.5763 C   0  0  0  0  0  0
  -28.3886  -19.8400   19.9565 C   0  0  0  0  0  0
  -29.4760  -20.7293   20.1700 C   0  0  0  0  0  0
  -28.4523  -18.3851   20.0017 C   0  0  0  0  0  0
  -29.6473  -17.6172   20.3343 C   0  0  0  0  0  0
  -29.4196  -22.3098   19.9291 C   0  0  0  0  0  0
  -28.5032  -23.3707   20.1213 C   0  0  0  0  0  0
  -27.1967  -17.6910   19.5641 C   0  0  0  0  0  0
  -28.5115  -24.8972   19.5129 C   0  0  0  0  0  0
  -26.0547  -18.2072   20.0037 N   0  0  0  0  0  0
  -29.6412  -16.0753   20.4699 N   0  0  0  0  0  0
  -27.2240  -16.6936   18.8472 O   0  0  0  0  0  0
  -31.4819  -12.7631   19.1722 H   0  0  0  0  0  0
  -30.4572  -11.6362   20.0187 H   0  0  0  0  0  0
  -29.8440  -11.7335   17.5760 H   0  0  0  0  0  0
  -29.6080  -13.4601   17.6885 H   0  0  0  0  0  0
  -27.9557  -11.2666   18.9750 H   0  0  0  0  0  0
  -27.3940  -12.4431   17.8158 H   0  0  0  0  0  0
  -27.5878  -14.2355   19.4137 H   0  0  0  0  0  0
  -28.7728  -12.2792   21.4422 H   0  0  0  0  0  0
  -28.3812  -13.9524   21.7595 H   0  0  0  0  0  0
  -25.2757   -9.5601   22.4777 H   0  0  0  0  0  0
  -23.9966   -7.4572   22.7490 H   0  0  0  0  0  0
  -21.0827   -8.8746   19.8955 H   0  0  0  0  0  0
  -22.3726  -10.9622   19.6161 H   0  0  0  0  0  0
  -21.2005   -7.6139   23.9712 H   0  0  0  0  0  0
  -21.1488   -6.0517   25.9077 H   0  0  0  0  0  0
  -22.0603   -2.7603   23.2846 H   0  0  0  0  0  0
  -22.3996  -11.9780   22.4870 H   0  0  0  0  0  0
  -21.1012  -13.1160   22.2670 H   0  0  0  0  0  0
  -24.5761  -15.7679   20.5316 H   0  0  0  0  0  0
  -26.1336  -15.5930   19.8882 H   0  0  0  0  0  0
  -26.7251  -32.5309   23.1000 H   0  0  0  0  0  0
  -25.0054  -33.9611   25.0316 H   0  0  0  0  0  0
  -22.7466  -31.2846   21.3754 H   0  0  0  0  0  0
  -23.3749  -35.9602   23.3305 H   0  0  0  0  0  0
  -24.3580  -36.8895   22.2060 H   0  0  0  0  0  0
  -23.7255  -37.6465   23.6681 H   0  0  0  0  0  0
  -26.1493  -31.4805   20.6108 H   0  0  0  0  0  0
  -26.8681  -30.7767   22.0243 H   0  0  0  0  0  0
  -28.1253  -28.8268   21.2437 H   0  0  0  0  0  0
  -25.9480  -25.8352   19.0196 H   0  0  0  0  0  0
  -23.9990  -27.2778   18.9860 H   0  0  0  0  0  0
  -23.8007  -30.5577   19.3928 H   0  0  0  0  0  0
  -22.7879  -29.2213   19.8441 H   0  0  0  0  0  0
  -25.1313  -36.1870   25.0813 H   0  0  0  0  0  0
  -21.0005  -28.3305   24.1361 H   0  0  0  0  0  0
  -20.5675  -26.2323   23.3625 H   0  0  0  0  0  0
  -21.6653  -26.7420   22.1211 H   0  0  0  0  0  0
  -19.6924  -25.6285   21.1253 H   0  0  0  0  0  0
  -19.6707  -27.3177   20.6731 H   0  0  0  0  0  0
  -17.4213  -26.6671   21.4027 H   0  0  0  0  0  0
  -18.0347  -26.0086   22.9023 H   0  0  0  0  0  0
  -19.7947  -30.7289   24.2246 H   0  0  0  0  0  0
  -17.5020  -31.6265   24.5165 H   0  0  0  0  0  0
  -15.5363  -30.2974   23.7671 H   0  0  0  0  0  0
  -15.8688  -28.0813   22.7076 H   0  0  0  0  0  0
  -24.5885  -30.7095   25.7728 H   0  0  0  0  0  0
  -24.8886  -32.2928   26.4786 H   0  0  0  0  0  0
  -25.7988  -30.8953   27.0214 H   0  0  0  0  0  0
  -26.2988  -29.6685   24.1289 H   0  0  0  0  0  0
  -27.3998  -29.7269   25.4850 H   0  0  0  0  0  0
  -27.8891  -30.4206   23.9584 H   0  0  0  0  0  0
  -27.2640  -33.3642   26.2027 H   0  0  0  0  0  0
  -28.3877  -32.6869   25.0335 H   0  0  0  0  0  0
  -28.0691  -31.8484   26.5442 H   0  0  0  0  0  0
  -28.2599  -38.0080   24.7487 H   0  0  0  0  0  0
  -28.1063  -36.2610   24.6328 H   0  0  0  0  0  0
  -27.2291  -37.1481   25.8870 H   0  0  0  0  0  0
  -20.9462  -29.8739   21.6781 H   0  0  0  0  0  0
  -26.0163  -38.2817   24.1379 H   0  0  0  0  0  0
  -31.5701  -20.5249   20.6642 H   0  0  0  0  0  0
  -31.7016  -18.0835   20.8397 H   0  0  0  0  0  0
  -27.4628  -20.3082   19.6519 H   0  0  0  0  0  0
  -30.2992  -22.6304   19.3879 H   0  0  0  0  0  0
  -27.6014  -23.1370   20.6688 H   0  0  0  0  0  0
  -27.8242  -24.8814   18.6690 H   0  0  0  0  0  0
  -29.4873  -24.9974   19.0376 H   0  0  0  0  0  0
  -26.0670  -19.0052   20.6212 H   0  0  0  0  0  0
  -25.1714  -17.8104   19.7234 H   0  0  0  0  0  0
  -28.6990  -15.7218   20.5392 H   0  0  0  0  0  0
  1 25  1  0  0  0
  1 30  2  0  0  0
  1 82  1  0  0  0
  2  3  1  0  0  0
  2 25  1  0  0  0
  2 84  1  0  0  0
  2 85  1  0  0  0
  3  4  1  0  0  0
  3 86  1  0  0  0
  3 87  1  0  0  0
  4  5  1  0  0  0
  4 88  1  0  0  0
  4 89  1  0  0  0
  5  6  1  0  0  0
  5 26  1  0  0  0
  5 90  1  0  0  0
  6 25  1  0  0  0
  6 91  1  0  0  0
  6 92  1  0  0  0
  7  8  2  0  0  0
  7 26  1  0  0  0
  7 29  1  0  0  0
  8  9  1  0  0  0
  8 22  1  0  0  0
  9 10  1  0  0  0
  9 27  2  0  0  0
 10 11  2  0  0  0
 10 15  1  0  0  0
 11 12  1  0  0  0
 11 93  1  0  0  0
 12 13  2  0  0  0
 12 94  1  0  0  0
 13 14  1  0  0  0
 13 31  1  0  0  0
 14 15  2  0  0  0
 14 95  1  0  0  0
 15 96  1  0  0  0
 16 17  2  0  0  0
 16 21  1  0  0  0
 16 31  1  0  0  0
 17 18  1  0  0  0
 17 97  1  0  0  0
 18 19  2  0  0  0
 18 98  1  0  0  0
 19 20  1  0  0  0
 19 24  1  0  0  0
 20 21  2  0  0  0
 20 99  1  0  0  0
 21 23  1  0  0  0
 22 28  1  0  0  0
 22 32  2  0  0  0
 26 27  1  0  0  0
 28100  1  0  0  0
 28101  1  0  0  0
 29102  1  0  0  0
 29103  1  0  0  0
 33 34  1  0  0  0
 33 66  1  0  0  0
 33 70  2  0  0  0
 34 36  1  0  0  0
 34 59  1  0  0  0
 34104  1  0  0  0
 35 44  2  0  0  0
 35 45  1  0  0  0
 35 68  1  0  0  0
 36 56  1  0  0  0
 36105  1  0  0  0
 37 39  1  0  0  0
 37 47  1  0  0  0
 37 66  1  0  0  0
 37106  1  0  0  0
 38 43  2  0  0  0
 38 46  1  0  0  0
 38 47  1  0  0  0
 39 64  1  0  0  0
 39 67  2  0  0  0
 40 52  1  0  0  0
 40 53  2  0  0  0
 40 58  1  0  0  0
 41107  1  0  0  0
 41108  1  0  0  0
 41109  1  0  0  0
 41 48  1  0  0  0
 42 43  1  0  0  0
 42 66  1  0  0  0
 42110  1  0  0  0
 42111  1  0  0  0
 43 44  1  0  0  0
 44112  1  0  0  0
 45 46  2  0  0  0
 45113  1  0  0  0
 46114  1  0  0  0
 47115  1  0  0  0
 47116  1  0  0  0
 48 56  1  0  0  0
 48 65  1  0  0  0
 48117  1  0  0  0
 49 50  1  0  0  0
 49 53  1  0  0  0
 49 64  1  0  0  0
 49118  1  0  0  0
 50 51  1  0  0  0
 50119  1  0  0  0
 50120  1  0  0  0
 51 52  1  0  0  0
 51121  1  0  0  0
 51122  1  0  0  0
 52123  1  0  0  0
 52124  1  0  0  0
 53 54  1  0  0  0
 54 55  2  0  0  0
 54125  1  0  0  0
 55 57  1  0  0  0
 55126  1  0  0  0
 56 69  2  0  0  0
 57 58  2  0  0  0
 57127  1  0  0  0
 58128  1  0  0  0
 59 60  1  0  0  0
 59 61  1  0  0  0
 59 62  1  0  0  0
 60129  1  0  0  0
 60130  1  0  0  0
 60131  1  0  0  0
 61132  1  0  0  0
 61133  1  0  0  0
 61134  1  0  0  0
 62135  1  0  0  0
 62136  1  0  0  0
 62137  1  0  0  0
 63 65  1  0  0  0
 63138  1  0  0  0
 63139  1  0  0  0
 63140  1  0  0  0
 64141  1  0  0  0
 65142  1  0  0  0
 68 80  1  0  0  0
 71 72  2  0  0  0
 71 74  1  0  0  0
 71143  1  0  0  0
 72 76  1  0  0  0
 72144  1  0  0  0
 73 74  2  0  0  0
 73 75  1  0  0  0
 73145  1  0  0  0
 74 77  1  0  0  0
 75 76  2  0  0  0
 75 79  1  0  0  0
 76 82  1  0  0  0
 77 78  2  0  0  0
 77146  1  0  0  0
 78 80  1  0  0  0
 78147  1  0  0  0
 79 81  1  0  0  0
 79 83  2  0  0  0
 80148  1  0  0  0
 80149  1  0  0  0
 81150  1  0  0  0
 81151  1  0  0  0
 82152  1  0  0  0
M  ISO  4   1 100  68 101  80 101  82 100
M  END
> <chiral flag>
0

> <version>
0

> <s_m_source_file>
/data/baiqing/PycharmProjects/Reinvent-master-3.2/result/LINK_invent/BTK/process_docking_weight1_custom_product_contain_oxygen_bond_distance_aromatic_linkinvent_7_9_3/rearranged_h_0003.sdf

> <i_m_source_file_index>
90

> <r_mmod_Potential_Energy-OPLS-2005>
376.914367675781

> <r_mmod_Stretch_Energy-OPLS-2005>
218.863327026367

> <r_mmod_Bend_Energy-OPLS-2005>
264.907684326172

> <r_mmod_Torsional_Energy-OPLS-2005>
247.345275878906

> <r_mmod_Improper_Torsional_Energy-OPLS-2005>
9.86914253234863

> <r_mmod_Van_der_Waal_Energy-OPLS-2005>
137.789642333984

> <r_mmod_Electrostatic_Energy-OPLS-2005>
-462.468170166016

> <r_mmod_Solvation_Energy-OPLS-2005>
-225.101959228516

> <b_mmod_Minimization_Converged-OPLS-2005>
0

> <r_mmod_RMS_Derivative-OPLS-2005>
1.00760471820831

$$$$
90
                    3D
 Structure written by MMmdl.
212221  0  0  1  0            999 V2000
  -30.7121  -14.3994   20.6248 C   0  0  0  0  0  0
  -30.4203  -12.2829   19.3990 C   0  0  0  0  0  0
  -29.4884  -12.5188   18.1939 C   0  0  0  0  0  0
  -28.0106  -12.3734   18.6081 C   0  0  0  0  0  0
  -27.6640  -13.1950   19.8778 C   0  0  2  0  0  0
  -28.7003  -12.9287   20.9911 C   0  0  0  0  0  0
  -25.2600  -13.8138   20.5661 C   0  0  0  0  0  0
  -24.1829  -13.0422   20.9140 C   0  0  0  0  0  0
  -24.6370  -11.6889   20.8710 C   0  0  0  0  0  0
  -23.9039  -10.4275   21.0393 C   0  0  0  0  0  0
  -24.3595   -9.4203   21.9177 C   0  0  0  0  0  0
  -23.6273   -8.2236   22.0756 C   0  0  0  0  0  0
  -22.4261   -8.0267   21.3540 C   0  0  0  0  0  0
  -21.9881   -9.0242   20.4651 C   0  0  0  0  0  0
  -22.7208  -10.2119   20.3051 C   0  0  0  0  0  0
  -21.6849   -6.0723   22.5280 C   0  0  0  0  0  0
  -21.4015   -6.5631   23.8215 C   0  0  0  0  0  0
  -21.3660   -5.6786   24.9174 C   0  0  0  0  0  0
  -21.6044   -4.3048   24.7226 C   0  0  0  0  0  0
  -21.8820   -3.8138   23.4349 C   0  0  0  0  0  0
  -21.9193   -4.6954   22.3402 C   0  0  0  0  0  0
  -22.7872  -13.5251   21.1827 C   0  0  0  0  0  0
  -22.1663   -4.2137   21.0982 F   0  0  0  0  0  0
  -21.5625   -3.4538   25.7741 F   0  0  0  0  0  0
  -30.0386  -13.2343   20.4515 N   0  0  0  0  0  0
  -26.3026  -12.9282   20.3361 N   0  0  0  0  0  0
  -25.9288  -11.6452   20.5729 N   0  0  0  0  0  0
  -22.0500  -12.8240   22.0383 N   0  0  0  0  0  0
  -25.4362  -15.1845   20.4121 N   0  0  0  0  0  0
  -31.7970  -14.6494   20.0905 O   0  0  0  0  0  0
  -21.6632   -6.8861   21.4238 O   0  0  0  0  0  0
  -22.3562  -14.5561   20.6689 O   0  0  0  0  0  0
  -24.6108  -31.8724   23.2156 C   0  0  0  0  0  0
  -25.9020  -32.4832   23.8437 C   0  0  1  0  0  0
  -27.2244  -27.4697   20.0620 C   0  0  0  0  0  0
  -25.5918  -33.8637   24.2367 N   0  0  0  0  0  0
  -23.3950  -30.4974   21.5584 C   0  0  2  0  0  0
  -24.8370  -28.9678   20.1219 C   0  0  0  0  0  0
  -22.7375  -29.4689   22.5046 C   0  0  0  0  0  0
  -18.0247  -28.1387   22.8450 C   0  0  0  0  0  0
  -24.1503  -36.7316   23.2627 C   0  0  0  0  0  0
  -25.9220  -30.8438   21.3628 C   0  0  0  0  0  0
  -25.9982  -29.4794   20.7136 C   0  0  0  0  0  0
  -27.1977  -28.7315   20.6919 C   0  0  0  0  0  0
  -26.0376  -26.9537   19.5039 C   0  0  0  0  0  0
  -24.8464  -27.6970   19.5258 C   0  0  0  0  0  0
  -23.5978  -29.8304   20.1733 C   0  0  0  0  0  0
  -25.4121  -36.3125   24.0328 C   0  0  1  0  0  0
  -20.5831  -28.3667   23.1334 C   0  0  2  0  0  0
  -20.6758  -26.9423   22.5421 C   0  0  0  0  0  0
  -19.5770  -26.6409   21.5191 C   0  0  0  0  0  0
  -18.1901  -26.7965   22.1510 C   0  0  0  0  0  0
  -19.1486  -28.8829   23.2901 C   0  0  0  0  0  0
  -18.9411  -30.1432   23.8925 C   0  0  0  0  0  0
  -17.6420  -30.6583   24.0565 C   0  0  0  0  0  0
  -25.9045  -34.9476   23.5142 C   0  0  0  0  0  0
  -16.5312  -29.9085   23.6344 C   0  0  0  0  0  0
  -16.7235  -28.6513   23.0342 C   0  0  0  0  0  0
  -26.4464  -31.6583   25.0736 C   0  0  0  0  0  0
  -25.3739  -31.3673   26.1479 C   0  0  0  0  0  0
  -27.0270  -30.3031   24.6070 C   0  0  0  0  0  0
  -27.6070  -32.4279   25.7475 C   0  0  0  0  0  0
  -27.5584  -37.1814   24.8466 C   0  0  0  0  0  0
  -21.4109  -29.3025   22.3744 N   0  0  0  0  0  0
  -26.4311  -37.3796   23.9382 N   0  0  0  0  0  0
  -24.6609  -31.0855   22.1040 N   0  0  0  0  0  0
  -23.4165  -28.8242   23.3083 O   0  0  0  0  0  0
  -28.3848  -26.7412   19.9851 O   0  0  0  0  0  0
  -26.5605  -34.8909   22.4708 O   0  0  0  0  0  0
  -23.5314  -32.1462   23.7580 O   0  0  0  0  0  0
  -21.2149  -20.4500   14.2483 C   0  0  0  0  0  0
  -22.5813  -20.4023   14.5845 C   0  0  0  0  0  0
  -22.0318  -21.0252   16.8748 C   0  0  0  0  0  0
  -20.2501  -20.7892   15.2179 C   0  0  0  0  0  0
  -20.6614  -21.0749   16.5444 C   0  0  0  0  0  0
  -22.9998  -20.6907   15.9001 C   0  0  0  0  0  0
  -25.9684  -22.7087   16.2599 C   0  0  0  0  0  0
  -18.7811  -20.8124   14.8153 C   0  0  0  0  0  0
  -19.6549  -21.4637   17.6208 C   0  0  0  0  0  0
  -17.8706  -21.5179   15.8309 C   0  0  0  0  0  0
  -18.2086  -21.0952   17.2639 C   0  0  0  0  0  0
  -22.8118  -24.3128   15.8502 C   0  0  0  0  0  0
  -26.0419  -26.2764   14.8755 C   0  0  0  0  0  0
  -30.2754  -25.3470   16.9875 C   0  0  0  0  0  0
  -30.1623  -24.5767   19.3586 C   0  0  0  0  0  0
  -23.8336  -25.4481   15.7111 C   0  0  0  0  0  0
  -28.5169  -17.5976   20.0888 C   0  0  0  0  0  0
  -30.0266  -17.6171   20.3931 C   0  0  0  0  0  0
  -28.1241  -18.6208   19.0084 C   0  0  0  0  0  0
  -30.4566  -16.7040   21.5597 C   0  0  0  0  0  0
  -26.6259  -18.5830   18.6547 C   0  0  0  0  0  0
  -24.8287  -19.6280   17.3115 C   0  0  0  0  0  0
  -28.1174  -24.3490   17.9242 C   0  0  0  0  0  0
  -28.9631  -26.6860   18.6762 C   0  0  0  0  0  0
  -24.4838  -20.6955   16.2481 C   0  0  2  0  0  0
  -26.0173  -24.2323   16.5077 C   0  0  2  0  0  0
  -25.2832  -25.0173   15.3570 C   0  0  2  0  0  0
  -29.3552  -25.2473   18.2273 C   0  0  0  0  0  0
  -24.8746  -22.0458   16.6538 N   0  0  0  0  0  0
  -30.0608  -15.3136   21.3549 N   0  0  0  0  0  0
  -26.2644  -19.6138   17.6594 N   0  3  0  0  0  0
  -27.4319  -24.6616   16.6413 N   0  3  0  0  0  0
  -26.9208  -22.1375   15.7240 O   0  0  0  0  0  0
  -31.4644  -12.3870   19.0985 H   0  0  0  0  0  0
  -30.3176  -11.2605   19.7661 H   0  0  0  0  0  0
  -29.7218  -11.8167   17.3922 H   0  0  0  0  0  0
  -29.6592  -13.5165   17.7866 H   0  0  0  0  0  0
  -27.8207  -11.3155   18.7910 H   0  0  0  0  0  0
  -27.3574  -12.6609   17.7837 H   0  0  0  0  0  0
  -27.7229  -14.2480   19.6052 H   0  0  0  0  0  0
  -28.6656  -11.8810   21.2925 H   0  0  0  0  0  0
  -28.4548  -13.4894   21.8934 H   0  0  0  0  0  0
  -25.2743   -9.5679   22.4750 H   0  0  0  0  0  0
  -23.9989   -7.4626   22.7471 H   0  0  0  0  0  0
  -21.0813   -8.8754   19.8961 H   0  0  0  0  0  0
  -22.3666  -10.9653   19.6155 H   0  0  0  0  0  0
  -21.2013   -7.6141   23.9709 H   0  0  0  0  0  0
  -21.1482   -6.0519   25.9074 H   0  0  0  0  0  0
  -22.0600   -2.7601   23.2856 H   0  0  0  0  0  0
  -22.4100  -11.9892   22.4761 H   0  0  0  0  0  0
  -21.1131  -13.1290   22.2605 H   0  0  0  0  0  0
  -24.6803  -15.8451   20.5557 H   0  0  0  0  0  0
  -26.3141  -15.6209   20.1674 H   0  0  0  0  0  0
  -26.7091  -32.5561   23.1197 H   0  0  0  0  0  0
  -25.0118  -33.9834   25.0541 H   0  0  0  0  0  0
  -22.6791  -31.3113   21.4283 H   0  0  0  0  0  0
  -23.3756  -35.9665   23.3344 H   0  0  0  0  0  0
  -24.3593  -36.8899   22.2040 H   0  0  0  0  0  0
  -23.7270  -37.6532   23.6622 H   0  0  0  0  0  0
  -26.0291  -31.6095   20.5926 H   0  0  0  0  0  0
  -26.8130  -30.9014   21.9765 H   0  0  0  0  0  0
  -28.0996  -29.1285   21.1361 H   0  0  0  0  0  0
  -26.0167  -25.9768   19.0572 H   0  0  0  0  0  0
  -23.9434  -27.2862   19.0958 H   0  0  0  0  0  0
  -23.6981  -30.6051   19.4119 H   0  0  0  0  0  0
  -22.7222  -29.2471   19.8816 H   0  0  0  0  0  0
  -25.1295  -36.2021   25.0823 H   0  0  0  0  0  0
  -20.9907  -28.3234   24.1460 H   0  0  0  0  0  0
  -20.5675  -26.2267   23.3576 H   0  0  0  0  0  0
  -21.6634  -26.7508   22.1211 H   0  0  0  0  0  0
  -19.6978  -25.6327   21.1216 H   0  0  0  0  0  0
  -19.6765  -27.3224   20.6734 H   0  0  0  0  0  0
  -17.4234  -26.6794   21.3837 H   0  0  0  0  0  0
  -18.0192  -26.0064   22.8832 H   0  0  0  0  0  0
  -19.7878  -30.7238   24.2307 H   0  0  0  0  0  0
  -17.4971  -31.6247   24.5191 H   0  0  0  0  0  0
  -15.5319  -30.2992   23.7683 H   0  0  0  0  0  0
  -15.8615  -28.0869   22.7059 H   0  0  0  0  0  0
  -24.5934  -30.6982   25.7814 H   0  0  0  0  0  0
  -24.8877  -32.2814   26.4915 H   0  0  0  0  0  0
  -25.8102  -30.8856   27.0239 H   0  0  0  0  0  0
  -26.2786  -29.6796   24.1148 H   0  0  0  0  0  0
  -27.4086  -29.7261   25.4509 H   0  0  0  0  0  0
  -27.8613  -30.4370   23.9172 H   0  0  0  0  0  0
  -27.2737  -33.3608   26.2042 H   0  0  0  0  0  0
  -28.3865  -32.6786   25.0256 H   0  0  0  0  0  0
  -28.0728  -31.8379   26.5379 H   0  0  0  0  0  0
  -28.2632  -38.0083   24.7503 H   0  0  0  0  0  0
  -28.1059  -36.2621   24.6329 H   0  0  0  0  0  0
  -27.2295  -37.1516   25.8867 H   0  0  0  0  0  0
  -20.9271  -29.8754   21.6963 H   0  0  0  0  0  0
  -26.0215  -38.2886   24.1347 H   0  0  0  0  0  0
  -20.9093  -20.2261   13.2350 H   0  0  0  0  0  0
  -23.3044  -20.1536   13.8196 H   0  0  0  0  0  0
  -22.3381  -21.2606   17.8850 H   0  0  0  0  0  0
  -18.4573  -19.7774   14.6986 H   0  0  0  0  0  0
  -18.6738  -21.2801   13.8358 H   0  0  0  0  0  0
  -19.7255  -22.5423   17.7705 H   0  0  0  0  0  0
  -19.9303  -21.0001   18.5695 H   0  0  0  0  0  0
  -16.8252  -21.3075   15.6012 H   0  0  0  0  0  0
  -17.9928  -22.5987   15.7422 H   0  0  0  0  0  0
  -17.5178  -21.5511   17.9743 H   0  0  0  0  0  0
  -18.0766  -20.0159   17.3543 H   0  0  0  0  0  0
  -21.7953  -24.7028   15.8199 H   0  0  0  0  0  0
  -22.9146  -23.7921   16.8018 H   0  0  0  0  0  0
  -22.9001  -23.5860   15.0406 H   0  0  0  0  0  0
  -25.4750  -26.8103   14.1110 H   0  0  0  0  0  0
  -26.9943  -26.0264   14.4059 H   0  0  0  0  0  0
  -26.2229  -26.9800   15.6896 H   0  0  0  0  0  0
  -30.5639  -24.3636   16.6121 H   0  0  0  0  0  0
  -31.1960  -25.8849   17.2232 H   0  0  0  0  0  0
  -29.8067  -25.8922   16.1666 H   0  0  0  0  0  0
  -30.5035  -23.5807   19.0691 H   0  0  0  0  0  0
  -29.5624  -24.4618   20.2613 H   0  0  0  0  0  0
  -31.0435  -25.1625   19.6251 H   0  0  0  0  0  0
  -23.8254  -26.0637   16.6117 H   0  0  0  0  0  0
  -23.4624  -26.0980   14.9176 H   0  0  0  0  0  0
  -27.9574  -17.8015   21.0037 H   0  0  0  0  0  0
  -28.2235  -16.6000   19.7614 H   0  0  0  0  0  0
  -30.3335  -18.6385   20.6267 H   0  0  0  0  0  0
  -30.5781  -17.3405   19.4930 H   0  0  0  0  0  0
  -28.7131  -18.4381   18.1083 H   0  0  0  0  0  0
  -28.3916  -19.6203   19.3539 H   0  0  0  0  0  0
  -30.0058  -17.0550   22.4884 H   0  0  0  0  0  0
  -31.5357  -16.7680   21.7042 H   0  0  0  0  0  0
  -26.0297  -18.7325   19.5564 H   0  0  0  0  0  0
  -26.3610  -17.5992   18.2632 H   0  0  0  0  0  0
  -24.5387  -18.6441   16.9404 H   0  0  0  0  0  0
  -24.2487  -19.8019   18.2180 H   0  0  0  0  0  0
  -27.4287  -24.3983   18.7660 H   0  0  0  0  0  0
  -28.4265  -23.3033   17.8735 H   0  0  0  0  0  0
  -28.3282  -27.1590   17.9227 H   0  0  0  0  0  0
  -29.8623  -27.3014   18.7211 H   0  0  0  0  0  0
  -25.0259  -20.4368   15.3350 H   0  0  0  0  0  0
  -25.5121  -24.4447   17.4498 H   0  0  0  0  0  0
  -25.2159  -24.3698   14.4781 H   0  0  0  0  0  0
  -24.1460  -22.5900   17.0939 H   0  0  0  0  0  0
  -29.1806  -15.0203   21.7539 H   0  0  0  0  0  0
  -26.7971  -19.4697   16.8158 H   0  0  0  0  0  0
  -26.5054  -20.5199   18.0254 H   0  0  0  0  0  0
  -27.9300  -24.1980   15.8937 H   0  0  0  0  0  0
  -27.4470  -25.6529   16.4701 H   0  0  0  0  0  0
  1 25  1  0  0  0
  1 30  2  0  0  0
  1100  1  0  0  0
  2  3  1  0  0  0
  2 25  1  0  0  0
  2104  1  0  0  0
  2105  1  0  0  0
  3  4  1  0  0  0
  3106  1  0  0  0
  3107  1  0  0  0
  4  5  1  0  0  0
  4108  1  0  0  0
  4109  1  0  0  0
  5  6  1  0  0  0
  5 26  1  0  0  0
  5110  1  0  0  0
  6 25  1  0  0  0
  6111  1  0  0  0
  6112  1  0  0  0
  7  8  2  0  0  0
  7 26  1  0  0  0
  7 29  1  0  0  0
  8  9  1  0  0  0
  8 22  1  0  0  0
  9 10  1  0  0  0
  9 27  2  0  0  0
 10 11  2  0  0  0
 10 15  1  0  0  0
 11 12  1  0  0  0
 11113  1  0  0  0
 12 13  2  0  0  0
 12114  1  0  0  0
 13 14  1  0  0  0
 13 31  1  0  0  0
 14 15  2  0  0  0
 14115  1  0  0  0
 15116  1  0  0  0
 16 17  2  0  0  0
 16 21  1  0  0  0
 16 31  1  0  0  0
 17 18  1  0  0  0
 17117  1  0  0  0
 18 19  2  0  0  0
 18118  1  0  0  0
 19 20  1  0  0  0
 19 24  1  0  0  0
 20 21  2  0  0  0
 20119  1  0  0  0
 21 23  1  0  0  0
 22 28  1  0  0  0
 22 32  2  0  0  0
 26 27  1  0  0  0
 28120  1  0  0  0
 28121  1  0  0  0
 29122  1  0  0  0
 29123  1  0  0  0
 33 34  1  0  0  0
 33 66  1  0  0  0
 33 70  2  0  0  0
 34 36  1  0  0  0
 34 59  1  0  0  0
 34124  1  0  0  0
 35 44  2  0  0  0
 35 45  1  0  0  0
 35 68  1  0  0  0
 36 56  1  0  0  0
 36125  1  0  0  0
 37 39  1  0  0  0
 37 47  1  0  0  0
 37 66  1  0  0  0
 37126  1  0  0  0
 38 43  2  0  0  0
 38 46  1  0  0  0
 38 47  1  0  0  0
 39 64  1  0  0  0
 39 67  2  0  0  0
 40 52  1  0  0  0
 40 53  2  0  0  0
 40 58  1  0  0  0
 41127  1  0  0  0
 41128  1  0  0  0
 41129  1  0  0  0
 41 48  1  0  0  0
 42 43  1  0  0  0
 42 66  1  0  0  0
 42130  1  0  0  0
 42131  1  0  0  0
 43 44  1  0  0  0
 44132  1  0  0  0
 45 46  2  0  0  0
 45133  1  0  0  0
 46134  1  0  0  0
 47135  1  0  0  0
 47136  1  0  0  0
 48 56  1  0  0  0
 48 65  1  0  0  0
 48137  1  0  0  0
 49 50  1  0  0  0
 49 53  1  0  0  0
 49 64  1  0  0  0
 49138  1  0  0  0
 50 51  1  0  0  0
 50139  1  0  0  0
 50140  1  0  0  0
 51 52  1  0  0  0
 51141  1  0  0  0
 51142  1  0  0  0
 52143  1  0  0  0
 52144  1  0  0  0
 53 54  1  0  0  0
 54 55  2  0  0  0
 54145  1  0  0  0
 55 57  1  0  0  0
 55146  1  0  0  0
 56 69  2  0  0  0
 57 58  2  0  0  0
 57147  1  0  0  0
 58148  1  0  0  0
 59 60  1  0  0  0
 59 61  1  0  0  0
 59 62  1  0  0  0
 60149  1  0  0  0
 60150  1  0  0  0
 60151  1  0  0  0
 61152  1  0  0  0
 61153  1  0  0  0
 61154  1  0  0  0
 62155  1  0  0  0
 62156  1  0  0  0
 62157  1  0  0  0
 63 65  1  0  0  0
 63158  1  0  0  0
 63159  1  0  0  0
 63160  1  0  0  0
 64161  1  0  0  0
 65162  1  0  0  0
 68 94  1  0  0  0
 71 72  2  0  0  0
 71 74  1  0  0  0
 71163  1  0  0  0
 72 76  1  0  0  0
 72164  1  0  0  0
 73 75  1  0  0  0
 73 76  2  0  0  0
 73165  1  0  0  0
 74 75  2  0  0  0
 74 78  1  0  0  0
 75 79  1  0  0  0
 76 95  1  0  0  0
 77 96  1  0  0  0
 77 99  1  0  0  0
 77103  2  0  0  0
 78 80  1  0  0  0
 78166  1  0  0  0
 78167  1  0  0  0
 79 81  1  0  0  0
 79168  1  0  0  0
 79169  1  0  0  0
 80 81  1  0  0  0
 80170  1  0  0  0
 80171  1  0  0  0
 81172  1  0  0  0
 81173  1  0  0  0
 82 86  1  0  0  0
 82174  1  0  0  0
 82175  1  0  0  0
 82176  1  0  0  0
 83177  1  0  0  0
 83178  1  0  0  0
 83179  1  0  0  0
 83 97  1  0  0  0
 84180  1  0  0  0
 84181  1  0  0  0
 84182  1  0  0  0
 84 98  1  0  0  0
 85 98  1  0  0  0
 85183  1  0  0  0
 85184  1  0  0  0
 85185  1  0  0  0
 86 97  1  0  0  0
 86186  1  0  0  0
 86187  1  0  0  0
 87 88  1  0  0  0
 87 89  1  0  0  0
 87188  1  0  0  0
 87189  1  0  0  0
 88 90  1  0  0  0
 88190  1  0  0  0
 88191  1  0  0  0
 89 91  1  0  0  0
 89192  1  0  0  0
 89193  1  0  0  0
 90100  1  0  0  0
 90194  1  0  0  0
 90195  1  0  0  0
 91101  1  0  0  0
 91196  1  0  0  0
 91197  1  0  0  0
 92101  1  0  0  0
 92198  1  0  0  0
 92199  1  0  0  0
 92 95  1  0  0  0
 93 98  1  0  0  0
 93102  1  0  0  0
 93200  1  0  0  0
 93201  1  0  0  0
 94 98  1  0  0  0
 94202  1  0  0  0
 94203  1  0  0  0
 95 99  1  0  0  0
 95204  1  0  0  0
 96 97  1  0  0  0
 96102  1  0  0  0
 96205  1  0  0  0
 97206  1  0  0  0
 99207  1  0  0  0
100208  1  0  0  0
101209  1  0  0  0
101210  1  0  0  0
102211  1  0  0  0
102212  1  0  0  0
M  CHG  2 101   1 102   1
M  ISO  4   1 100  68 101  94 101 100 100
M  END
> <chiral flag>
0

> <version>
0

> <s_m_source_file>
/data/baiqing/PycharmProjects/Reinvent-master-3.2/result/LINK_invent/BTK/process_docking_weight1_custom_product_contain_oxygen_bond_distance_aromatic_linkinvent_7_9_3/rearranged_h_0003.sdf

> <i_m_source_file_index>
91

> <r_mmod_Potential_Energy-OPLS-2005>
-433.649658203125

> <r_mmod_Stretch_Energy-OPLS-2005>
40.0127944946289

> <r_mmod_Bend_Energy-OPLS-2005>
111.384346008301

> <r_mmod_Torsional_Energy-OPLS-2005>
339.946624755859

> <r_mmod_Improper_Torsional_Energy-OPLS-2005>
2.98341536521912

> <r_mmod_Van_der_Waal_Energy-OPLS-2005>
142.531143188477

> <r_mmod_Electrostatic_Energy-OPLS-2005>
-163.01203918457

> <r_mmod_Solvation_Energy-OPLS-2005>
-915.379577636719

> <b_mmod_Minimization_Converged-OPLS-2005>
0

> <r_mmod_RMS_Derivative-OPLS-2005>
2.61047577857971

$$$$
91
                    3D
 Structure written by MMmdl.
150158  0  0  1  0            999 V2000
  -30.4148  -15.4922   20.3454 C   0  0  0  0  0  0
  -30.4110  -12.9824   19.5307 C   0  0  0  0  0  0
  -29.5316  -12.6171   18.3075 C   0  0  0  0  0  0
  -28.0998  -12.2931   18.7540 C   0  0  0  0  0  0
  -27.5933  -13.3012   19.8128 C   0  0  2  0  0  0
  -28.6164  -13.6083   20.9311 C   0  0  0  0  0  0
  -25.2318  -13.8297   20.5816 C   0  0  0  0  0  0
  -24.1698  -13.0448   20.9295 C   0  0  0  0  0  0
  -24.6389  -11.6955   20.8780 C   0  0  0  0  0  0
  -23.9103  -10.4296   21.0409 C   0  0  0  0  0  0
  -24.3645   -9.4206   21.9185 C   0  0  0  0  0  0
  -23.6310   -8.2245   22.0753 C   0  0  0  0  0  0
  -22.4288   -8.0288   21.3547 C   0  0  0  0  0  0
  -21.9934   -9.0264   20.4647 C   0  0  0  0  0  0
  -22.7274  -10.2138   20.3057 C   0  0  0  0  0  0
  -21.6857   -6.0739   22.5278 C   0  0  0  0  0  0
  -21.4020   -6.5642   23.8212 C   0  0  0  0  0  0
  -21.3661   -5.6795   24.9175 C   0  0  0  0  0  0
  -21.6045   -4.3057   24.7224 C   0  0  0  0  0  0
  -21.8818   -3.8148   23.4345 C   0  0  0  0  0  0
  -21.9193   -4.6965   22.3401 C   0  0  0  0  0  0
  -22.7712  -13.5178   21.1930 C   0  0  0  0  0  0
  -22.1660   -4.2152   21.0978 F   0  0  0  0  0  0
  -21.5625   -3.4541   25.7736 F   0  0  0  0  0  0
  -29.8063  -14.1788   20.2668 N   0  0  0  0  0  0
  -26.2749  -12.9614   20.3259 N   0  0  0  0  0  0
  -25.9332  -11.6691   20.5733 N   0  0  0  0  0  0
  -22.0377  -12.8149   22.0478 N   0  0  0  0  0  0
  -25.3945  -15.2037   20.4269 N   0  0  0  0  0  0
  -31.6422  -15.3537   20.1831 O   0  0  0  0  0  0
  -21.6648   -6.8887   21.4242 O   0  0  0  0  0  0
  -22.3392  -14.5479   20.6769 O   0  0  0  0  0  0
  -24.6761  -31.8082   23.1573 C   0  0  0  0  0  0
  -25.9378  -32.4506   23.8095 C   0  0  1  0  0  0
  -27.2183  -26.7801   20.2035 C   0  0  0  0  0  0
  -25.5988  -33.8328   24.1988 N   0  0  0  0  0  0
  -23.4981  -30.4133   21.5094 C   0  0  2  0  0  0
  -24.9534  -28.7703   20.1125 C   0  0  0  0  0  0
  -22.7733  -29.4356   22.4730 C   0  0  0  0  0  0
  -18.0336  -28.1414   22.8464 C   0  0  0  0  0  0
  -24.1495  -36.7174   23.2652 C   0  0  0  0  0  0
  -26.0742  -30.5659   21.4102 C   0  0  0  0  0  0
  -26.1392  -29.1397   20.7580 C   0  0  0  0  0  0
  -27.2594  -28.1690   20.7749 C   0  0  0  0  0  0
  -26.0047  -26.6016   19.4972 C   0  0  0  0  0  0
  -24.9207  -27.5264   19.4589 C   0  0  0  0  0  0
  -23.7467  -29.7168   20.1409 C   0  0  0  0  0  0
  -25.4141  -36.2918   24.0287 C   0  0  1  0  0  0
  -20.5967  -28.3770   23.1160 C   0  0  2  0  0  0
  -20.6802  -26.9438   22.5404 C   0  0  0  0  0  0
  -19.5774  -26.6372   21.5219 C   0  0  0  0  0  0
  -18.1959  -26.7944   22.1626 C   0  0  0  0  0  0
  -19.1600  -28.8916   23.2795 C   0  0  0  0  0  0
  -18.9506  -30.1501   23.8837 C   0  0  0  0  0  0
  -17.6496  -30.6599   24.0554 C   0  0  0  0  0  0
  -25.9116  -34.9307   23.4971 C   0  0  0  0  0  0
  -16.5387  -29.9082   23.6346 C   0  0  0  0  0  0
  -16.7317  -28.6504   23.0366 C   0  0  0  0  0  0
  -26.4578  -31.6511   25.0687 C   0  0  0  0  0  0
  -25.3662  -31.3808   26.1315 C   0  0  0  0  0  0
  -27.0500  -30.2857   24.6532 C   0  0  0  0  0  0
  -27.6035  -32.4360   25.7504 C   0  0  0  0  0  0
  -27.5564  -37.1745   24.8468 C   0  0  0  0  0  0
  -21.4386  -29.3035   22.3489 N   0  0  0  0  0  0
  -26.4274  -37.3670   23.9406 N   0  0  0  0  0  0
  -24.7720  -30.9605   22.0785 N   0  0  0  0  0  0
  -23.4217  -28.7949   23.3039 O   0  0  0  0  0  0
  -28.1927  -25.6027   20.3084 O   0  0  0  0  0  0
  -26.5749  -34.8871   22.4582 O   0  0  0  0  0  0
  -23.5798  -32.1121   23.6578 O   0  0  0  0  0  0
  -28.5071  -17.7105   20.5805 C   0  0  0  0  0  0
  -30.5849  -18.1983   19.7660 C   0  0  0  0  0  0
  -28.2678  -19.4130   20.8770 C   0  0  0  0  0  0
  -30.3409  -19.8585   20.1141 C   0  0  0  0  0  0
  -28.9045  -22.2980   20.5810 C   0  0  0  0  0  0
  -28.0493  -23.9000   20.0444 C   0  0  0  0  0  0
  -29.8418  -16.9299   20.3046 N   0  0  0  0  0  0
  -28.9707  -20.6109   20.1293 N   0  3  0  0  0  0
  -31.4189  -13.1938   19.1716 H   0  0  0  0  0  0
  -30.5243  -12.1258   20.1973 H   0  0  0  0  0  0
  -29.9583  -11.7722   17.7652 H   0  0  0  0  0  0
  -29.5159  -13.4558   17.6099 H   0  0  0  0  0  0
  -28.1069  -11.2901   19.1826 H   0  0  0  0  0  0
  -27.4261  -12.2575   17.8971 H   0  0  0  0  0  0
  -27.4652  -14.2308   19.2561 H   0  0  0  0  0  0
  -28.8479  -12.7237   21.5263 H   0  0  0  0  0  0
  -28.2077  -14.3485   21.6208 H   0  0  0  0  0  0
  -25.2783   -9.5681   22.4771 H   0  0  0  0  0  0
  -24.0011   -7.4637   22.7477 H   0  0  0  0  0  0
  -21.0860   -8.8794   19.8954 H   0  0  0  0  0  0
  -22.3731  -10.9682   19.6172 H   0  0  0  0  0  0
  -21.2019   -7.6152   23.9718 H   0  0  0  0  0  0
  -21.1482   -6.0523   25.9079 H   0  0  0  0  0  0
  -22.0594   -2.7609   23.2843 H   0  0  0  0  0  0
  -22.4019  -11.9822   22.4865 H   0  0  0  0  0  0
  -21.0990  -13.1150   22.2692 H   0  0  0  0  0  0
  -24.6241  -15.8535   20.5418 H   0  0  0  0  0  0
  -26.2417  -15.6450   20.0948 H   0  0  0  0  0  0
  -26.7457  -32.4999   23.0809 H   0  0  0  0  0  0
  -25.0055  -33.9378   25.0086 H   0  0  0  0  0  0
  -22.8191  -31.2487   21.3262 H   0  0  0  0  0  0
  -23.3767  -35.9493   23.3276 H   0  0  0  0  0  0
  -24.3564  -36.8867   22.2074 H   0  0  0  0  0  0
  -23.7247  -37.6343   23.6746 H   0  0  0  0  0  0
  -26.2712  -31.2963   20.6245 H   0  0  0  0  0  0
  -26.9279  -30.6288   22.0728 H   0  0  0  0  0  0
  -28.1513  -28.4530   21.3153 H   0  0  0  0  0  0
  -25.8532  -25.6561   18.9966 H   0  0  0  0  0  0
  -24.0243  -27.2375   18.9273 H   0  0  0  0  0  0
  -23.9164  -30.4800   19.3805 H   0  0  0  0  0  0
  -22.8527  -29.1803   19.8184 H   0  0  0  0  0  0
  -25.1347  -36.1692   25.0778 H   0  0  0  0  0  0
  -21.0056  -28.3389   24.1284 H   0  0  0  0  0  0
  -20.5670  -26.2395   23.3660 H   0  0  0  0  0  0
  -21.6663  -26.7387   22.1219 H   0  0  0  0  0  0
  -19.6928  -25.6266   21.1289 H   0  0  0  0  0  0
  -19.6709  -27.3149   20.6721 H   0  0  0  0  0  0
  -17.4227  -26.6693   21.4029 H   0  0  0  0  0  0
  -18.0345  -26.0097   22.9033 H   0  0  0  0  0  0
  -19.7980  -30.7335   24.2177 H   0  0  0  0  0  0
  -17.5045  -31.6270   24.5172 H   0  0  0  0  0  0
  -15.5383  -30.2966   23.7696 H   0  0  0  0  0  0
  -15.8720  -28.0798   22.7115 H   0  0  0  0  0  0
  -24.5867  -30.7134   25.7620 H   0  0  0  0  0  0
  -24.8828  -32.3024   26.4565 H   0  0  0  0  0  0
  -25.7857  -30.9089   27.0209 H   0  0  0  0  0  0
  -26.3195  -29.6485   24.1536 H   0  0  0  0  0  0
  -27.3968  -29.7285   25.5243 H   0  0  0  0  0  0
  -27.9162  -30.3998   24.0013 H   0  0  0  0  0  0
  -27.2573  -33.3718   26.1904 H   0  0  0  0  0  0
  -28.3938  -32.6831   25.0404 H   0  0  0  0  0  0
  -28.0602  -31.8612   26.5570 H   0  0  0  0  0  0
  -28.2558  -38.0061   24.7505 H   0  0  0  0  0  0
  -28.1083  -36.2584   24.6306 H   0  0  0  0  0  0
  -27.2279  -37.1398   25.8870 H   0  0  0  0  0  0
  -20.9672  -29.8709   21.6583 H   0  0  0  0  0  0
  -26.0107  -38.2723   24.1408 H   0  0  0  0  0  0
  -27.8886  -17.4764   19.7135 H   0  0  0  0  0  0
  -28.0223  -17.1782   21.3995 H   0  0  0  0  0  0
  -31.6441  -18.0140   19.9484 H   0  0  0  0  0  0
  -30.4908  -18.1107   18.6828 H   0  0  0  0  0  0
  -28.4967  -19.5651   21.9330 H   0  0  0  0  0  0
  -27.1964  -19.6045   20.8119 H   0  0  0  0  0  0
  -30.9825  -20.4214   19.4362 H   0  0  0  0  0  0
  -30.7806  -20.0318   21.0978 H   0  0  0  0  0  0
  -28.7760  -22.2650   21.6623 H   0  0  0  0  0  0
  -29.9520  -22.5739   20.4635 H   0  0  0  0  0  0
  -26.9983  -23.7157   20.2660 H   0  0  0  0  0  0
  -28.0914  -23.8508   18.9566 H   0  0  0  0  0  0
  -28.6395  -20.5811   19.1761 H   0  0  0  0  0  0
  1 25  1  0  0  0
  1 30  2  0  0  0
  1 77  1  0  0  0
  2  3  1  0  0  0
  2 25  1  0  0  0
  2 79  1  0  0  0
  2 80  1  0  0  0
  3  4  1  0  0  0
  3 81  1  0  0  0
  3 82  1  0  0  0
  4  5  1  0  0  0
  4 83  1  0  0  0
  4 84  1  0  0  0
  5  6  1  0  0  0
  5 26  1  0  0  0
  5 85  1  0  0  0
  6 25  1  0  0  0
  6 86  1  0  0  0
  6 87  1  0  0  0
  7  8  2  0  0  0
  7 26  1  0  0  0
  7 29  1  0  0  0
  8  9  1  0  0  0
  8 22  1  0  0  0
  9 10  1  0  0  0
  9 27  2  0  0  0
 10 11  2  0  0  0
 10 15  1  0  0  0
 11 12  1  0  0  0
 11 88  1  0  0  0
 12 13  2  0  0  0
 12 89  1  0  0  0
 13 14  1  0  0  0
 13 31  1  0  0  0
 14 15  2  0  0  0
 14 90  1  0  0  0
 15 91  1  0  0  0
 16 17  2  0  0  0
 16 21  1  0  0  0
 16 31  1  0  0  0
 17 18  1  0  0  0
 17 92  1  0  0  0
 18 19  2  0  0  0
 18 93  1  0  0  0
 19 20  1  0  0  0
 19 24  1  0  0  0
 20 21  2  0  0  0
 20 94  1  0  0  0
 21 23  1  0  0  0
 22 28  1  0  0  0
 22 32  2  0  0  0
 26 27  1  0  0  0
 28 95  1  0  0  0
 28 96  1  0  0  0
 29 97  1  0  0  0
 29 98  1  0  0  0
 33 34  1  0  0  0
 33 66  1  0  0  0
 33 70  2  0  0  0
 34 36  1  0  0  0
 34 59  1  0  0  0
 34 99  1  0  0  0
 35 44  2  0  0  0
 35 45  1  0  0  0
 35 68  1  0  0  0
 36 56  1  0  0  0
 36100  1  0  0  0
 37 39  1  0  0  0
 37 47  1  0  0  0
 37 66  1  0  0  0
 37101  1  0  0  0
 38 43  2  0  0  0
 38 46  1  0  0  0
 38 47  1  0  0  0
 39 64  1  0  0  0
 39 67  2  0  0  0
 40 52  1  0  0  0
 40 53  2  0  0  0
 40 58  1  0  0  0
 41102  1  0  0  0
 41103  1  0  0  0
 41104  1  0  0  0
 41 48  1  0  0  0
 42 43  1  0  0  0
 42 66  1  0  0  0
 42105  1  0  0  0
 42106  1  0  0  0
 43 44  1  0  0  0
 44107  1  0  0  0
 45 46  2  0  0  0
 45108  1  0  0  0
 46109  1  0  0  0
 47110  1  0  0  0
 47111  1  0  0  0
 48 56  1  0  0  0
 48 65  1  0  0  0
 48112  1  0  0  0
 49 50  1  0  0  0
 49 53  1  0  0  0
 49 64  1  0  0  0
 49113  1  0  0  0
 50 51  1  0  0  0
 50114  1  0  0  0
 50115  1  0  0  0
 51 52  1  0  0  0
 51116  1  0  0  0
 51117  1  0  0  0
 52118  1  0  0  0
 52119  1  0  0  0
 53 54  1  0  0  0
 54 55  2  0  0  0
 54120  1  0  0  0
 55 57  1  0  0  0
 55121  1  0  0  0
 56 69  2  0  0  0
 57 58  2  0  0  0
 57122  1  0  0  0
 58123  1  0  0  0
 59 60  1  0  0  0
 59 61  1  0  0  0
 59 62  1  0  0  0
 60124  1  0  0  0
 60125  1  0  0  0
 60126  1  0  0  0
 61127  1  0  0  0
 61128  1  0  0  0
 61129  1  0  0  0
 62130  1  0  0  0
 62131  1  0  0  0
 62132  1  0  0  0
 63 65  1  0  0  0
 63133  1  0  0  0
 63134  1  0  0  0
 63135  1  0  0  0
 64136  1  0  0  0
 65137  1  0  0  0
 68 76  1  0  0  0
 71 73  1  0  0  0
 71 77  1  0  0  0
 71138  1  0  0  0
 71139  1  0  0  0
 72 74  1  0  0  0
 72 77  1  0  0  0
 72140  1  0  0  0
 72141  1  0  0  0
 73 78  1  0  0  0
 73142  1  0  0  0
 73143  1  0  0  0
 74 78  1  0  0  0
 74144  1  0  0  0
 74145  1  0  0  0
 75 76  1  0  0  0
 75146  1  0  0  0
 75147  1  0  0  0
 75 78  1  0  0  0
 76148  1  0  0  0
 76149  1  0  0  0
 78150  1  0  0  0
M  CHG  1  78   1
M  ISO  4   1 100  68 101  76 101  77 100
M  END
> <chiral flag>
0

> <version>
0

> <s_m_source_file>
/data/baiqing/PycharmProjects/Reinvent-master-3.2/result/LINK_invent/BTK/process_docking_weight1_custom_product_contain_oxygen_bond_distance_aromatic_linkinvent_7_9_3/rearranged_h_0003.sdf

> <i_m_source_file_index>
92

> <r_mmod_Potential_Energy-OPLS-2005>
2069.70849609375

> <r_mmod_Stretch_Energy-OPLS-2005>
822.303466796875

> <r_mmod_Bend_Energy-OPLS-2005>
682.106689453125

> <r_mmod_Torsional_Energy-OPLS-2005>
364.669525146484

> <r_mmod_Improper_Torsional_Energy-OPLS-2005>
7.53518962860107

> <r_mmod_Van_der_Waal_Energy-OPLS-2005>
115.253486633301

> <r_mmod_Electrostatic_Energy-OPLS-2005>
-187.556671142578

> <r_mmod_Solvation_Energy-OPLS-2005>
-448.615417480469

> <b_mmod_Minimization_Converged-OPLS-2005>
0

> <r_mmod_RMS_Derivative-OPLS-2005>
0.569041132926941

$$$$
92
                    3D
 Structure written by MMmdl.
157165  0  0  1  0            999 V2000
  -30.6890  -14.4455   20.5972 C   0  0  0  0  0  0
  -30.4300  -12.2975   19.4113 C   0  0  0  0  0  0
  -29.4930  -12.5083   18.2034 C   0  0  0  0  0  0
  -28.0163  -12.3577   18.6203 C   0  0  0  0  0  0
  -27.6651  -13.1943   19.8793 C   0  0  2  0  0  0
  -28.7050  -12.9421   20.9953 C   0  0  0  0  0  0
  -25.2599  -13.8126   20.5665 C   0  0  0  0  0  0
  -24.1843  -13.0425   20.9187 C   0  0  0  0  0  0
  -24.6379  -11.6888   20.8741 C   0  0  0  0  0  0
  -23.9043  -10.4285   21.0410 C   0  0  0  0  0  0
  -24.3597   -9.4205   21.9189 C   0  0  0  0  0  0
  -23.6278   -8.2238   22.0756 C   0  0  0  0  0  0
  -22.4263   -8.0273   21.3545 C   0  0  0  0  0  0
  -21.9894   -9.0246   20.4647 C   0  0  0  0  0  0
  -22.7218  -10.2128   20.3059 C   0  0  0  0  0  0
  -21.6839   -6.0732   22.5278 C   0  0  0  0  0  0
  -21.4007   -6.5637   23.8213 C   0  0  0  0  0  0
  -21.3662   -5.6792   24.9175 C   0  0  0  0  0  0
  -21.6044   -4.3055   24.7225 C   0  0  0  0  0  0
  -21.8818   -3.8145   23.4346 C   0  0  0  0  0  0
  -21.9190   -4.6962   22.3401 C   0  0  0  0  0  0
  -22.7871  -13.5240   21.1848 C   0  0  0  0  0  0
  -22.1657   -4.2149   21.0978 F   0  0  0  0  0  0
  -21.5634   -3.4539   25.7740 F   0  0  0  0  0  0
  -30.0408  -13.2587   20.4535 N   0  0  0  0  0  0
  -26.3031  -12.9276   20.3367 N   0  0  0  0  0  0
  -25.9301  -11.6451   20.5769 N   0  0  0  0  0  0
  -22.0493  -12.8237   22.0393 N   0  0  0  0  0  0
  -25.4320  -15.1839   20.4035 N   0  0  0  0  0  0
  -31.8010  -14.6718   20.1084 O   0  0  0  0  0  0
  -21.6627   -6.8872   21.4242 O   0  0  0  0  0  0
  -22.3572  -14.5554   20.6701 O   0  0  0  0  0  0
  -24.6115  -31.8696   23.2118 C   0  0  0  0  0  0
  -25.9023  -32.4831   23.8406 C   0  0  1  0  0  0
  -27.2499  -27.4611   20.0945 C   0  0  0  0  0  0
  -25.5893  -33.8627   24.2335 N   0  0  0  0  0  0
  -23.3991  -30.4922   21.5511 C   0  0  2  0  0  0
  -24.8509  -28.9596   20.1185 C   0  0  0  0  0  0
  -22.7395  -29.4667   22.5004 C   0  0  0  0  0  0
  -18.0265  -28.1371   22.8492 C   0  0  0  0  0  0
  -24.1484  -36.7321   23.2634 C   0  0  0  0  0  0
  -25.9236  -30.8433   21.3629 C   0  0  0  0  0  0
  -26.0058  -29.4752   20.7201 C   0  0  0  0  0  0
  -27.2068  -28.7317   20.7183 C   0  0  0  0  0  0
  -26.0808  -26.9608   19.4865 C   0  0  0  0  0  0
  -24.8805  -27.6968   19.5024 C   0  0  0  0  0  0
  -23.6092  -29.8216   20.1666 C   0  0  0  0  0  0
  -25.4102  -36.3114   24.0337 C   0  0  1  0  0  0
  -20.5852  -28.3658   23.1322 C   0  0  2  0  0  0
  -20.6753  -26.9400   22.5410 C   0  0  0  0  0  0
  -19.5738  -26.6390   21.5201 C   0  0  0  0  0  0
  -18.1915  -26.7916   22.1614 C   0  0  0  0  0  0
  -19.1515  -28.8831   23.2904 C   0  0  0  0  0  0
  -18.9447  -30.1433   23.8921 C   0  0  0  0  0  0
  -17.6456  -30.6584   24.0568 C   0  0  0  0  0  0
  -25.9029  -34.9478   23.5132 C   0  0  0  0  0  0
  -16.5345  -29.9089   23.6328 C   0  0  0  0  0  0
  -16.7258  -28.6500   23.0354 C   0  0  0  0  0  0
  -26.4467  -31.6591   25.0710 C   0  0  0  0  0  0
  -25.3759  -31.3694   26.1483 C   0  0  0  0  0  0
  -27.0274  -30.3033   24.6045 C   0  0  0  0  0  0
  -27.6051  -32.4295   25.7472 C   0  0  0  0  0  0
  -27.5585  -37.1806   24.8457 C   0  0  0  0  0  0
  -21.4124  -29.3031   22.3737 N   0  0  0  0  0  0
  -26.4285  -37.3802   23.9418 N   0  0  0  0  0  0
  -24.6623  -31.0821   22.1011 N   0  0  0  0  0  0
  -23.4171  -28.8215   23.3044 O   0  0  0  0  0  0
  -28.3724  -26.6671   20.0081 O   0  0  0  0  0  0
  -26.5593  -34.8929   22.4694 O   0  0  0  0  0  0
  -23.5316  -32.1439   23.7528 O   0  0  0  0  0  0
  -28.8684  -18.8566   20.4024 C   0  0  0  0  0  0
  -31.2286  -18.9321   20.9841 C   0  0  0  0  0  0
  -28.8547  -17.4666   20.6396 C   0  0  0  0  0  0
  -31.2223  -17.5357   21.2021 C   0  0  0  0  0  0
  -30.0535  -19.6059   20.5722 C   0  0  0  0  0  0
  -30.0357  -16.7913   21.0141 C   0  0  0  0  0  0
  -30.0718  -21.0751   20.2344 C   0  0  0  0  0  0
  -29.9987  -24.2837   21.0271 C   0  0  0  0  0  0
  -30.4670  -25.7344   20.7681 C   0  0  0  0  0  0
  -31.1397  -23.2649   20.7983 C   0  0  0  0  0  0
  -29.3967  -26.8237   20.9809 C   0  0  0  0  0  0
  -29.9714  -15.3889   21.2327 N   0  0  0  0  0  0
  -30.7757  -21.8680   21.0544 N   0  0  0  0  0  0
  -29.4576  -21.4996   19.2536 O   0  0  0  0  0  0
  -31.4724  -12.4108   19.1081 H   0  0  0  0  0  0
  -30.3408  -11.2786   19.7914 H   0  0  0  0  0  0
  -29.7323  -11.7937   17.4150 H   0  0  0  0  0  0
  -29.6540  -13.5001   17.7782 H   0  0  0  0  0  0
  -27.8382  -11.3004   18.8221 H   0  0  0  0  0  0
  -27.3578  -12.6228   17.7930 H   0  0  0  0  0  0
  -27.7202  -14.2446   19.5930 H   0  0  0  0  0  0
  -28.6802  -11.8951   21.3012 H   0  0  0  0  0  0
  -28.4607  -13.5036   21.8979 H   0  0  0  0  0  0
  -25.2736   -9.5685   22.4772 H   0  0  0  0  0  0
  -23.9983   -7.4630   22.7479 H   0  0  0  0  0  0
  -21.0826   -8.8771   19.8952 H   0  0  0  0  0  0
  -22.3677  -10.9673   19.6176 H   0  0  0  0  0  0
  -21.1995   -7.6145   23.9718 H   0  0  0  0  0  0
  -21.1486   -6.0520   25.9081 H   0  0  0  0  0  0
  -22.0596   -2.7607   23.2844 H   0  0  0  0  0  0
  -22.4075  -11.9873   22.4762 H   0  0  0  0  0  0
  -21.1123  -13.1293   22.2605 H   0  0  0  0  0  0
  -24.6606  -15.8352   20.5003 H   0  0  0  0  0  0
  -26.2679  -15.6127   20.0294 H   0  0  0  0  0  0
  -26.7103  -32.5566   23.1190 H   0  0  0  0  0  0
  -25.0051  -33.9788   25.0486 H   0  0  0  0  0  0
  -22.6874  -31.3081   21.4105 H   0  0  0  0  0  0
  -23.3750  -35.9646   23.3265 H   0  0  0  0  0  0
  -24.3596  -36.8967   22.2056 H   0  0  0  0  0  0
  -23.7215  -37.6508   23.6669 H   0  0  0  0  0  0
  -26.0249  -31.6052   20.5880 H   0  0  0  0  0  0
  -26.8151  -30.9072   21.9745 H   0  0  0  0  0  0
  -28.0890  -29.1503   21.1807 H   0  0  0  0  0  0
  -26.1024  -25.9944   19.0025 H   0  0  0  0  0  0
  -23.9944  -27.2918   19.0330 H   0  0  0  0  0  0
  -23.7132  -30.5953   19.4049 H   0  0  0  0  0  0
  -22.7353  -29.2364   19.8728 H   0  0  0  0  0  0
  -25.1267  -36.1986   25.0827 H   0  0  0  0  0  0
  -20.9936  -28.3224   24.1446 H   0  0  0  0  0  0
  -20.5655  -26.2269   23.3596 H   0  0  0  0  0  0
  -21.6628  -26.7446   22.1212 H   0  0  0  0  0  0
  -19.6908  -25.6308   21.1211 H   0  0  0  0  0  0
  -19.6676  -27.3215   20.6741 H   0  0  0  0  0  0
  -17.4183  -26.6667   21.4015 H   0  0  0  0  0  0
  -18.0322  -26.0046   22.9000 H   0  0  0  0  0  0
  -19.7927  -30.7225   24.2315 H   0  0  0  0  0  0
  -17.5018  -31.6267   24.5161 H   0  0  0  0  0  0
  -15.5349  -30.3007   23.7632 H   0  0  0  0  0  0
  -15.8652  -28.0827   22.7072 H   0  0  0  0  0  0
  -24.5896  -30.7079   25.7828 H   0  0  0  0  0  0
  -24.9009  -32.2859   26.4992 H   0  0  0  0  0  0
  -25.8135  -30.8811   27.0202 H   0  0  0  0  0  0
  -26.2781  -29.6810   24.1129 H   0  0  0  0  0  0
  -27.4087  -29.7247   25.4467 H   0  0  0  0  0  0
  -27.8609  -30.4344   23.9134 H   0  0  0  0  0  0
  -27.2679  -33.3603   26.2046 H   0  0  0  0  0  0
  -28.3874  -32.6832   25.0304 H   0  0  0  0  0  0
  -28.0695  -31.8411   26.5395 H   0  0  0  0  0  0
  -28.2574  -38.0134   24.7558 H   0  0  0  0  0  0
  -28.1105  -36.2668   24.6207 H   0  0  0  0  0  0
  -27.2317  -37.1380   25.8861 H   0  0  0  0  0  0
  -20.9286  -29.8767   21.6972 H   0  0  0  0  0  0
  -26.0174  -38.2871   24.1453 H   0  0  0  0  0  0
  -27.9613  -19.3496   20.0802 H   0  0  0  0  0  0
  -32.1531  -19.4787   21.1098 H   0  0  0  0  0  0
  -27.9318  -16.9218   20.5045 H   0  0  0  0  0  0
  -32.1338  -17.0417   21.5094 H   0  0  0  0  0  0
  -29.1598  -24.0532   20.3693 H   0  0  0  0  0  0
  -29.6253  -24.1970   22.0479 H   0  0  0  0  0  0
  -30.8523  -25.8165   19.7509 H   0  0  0  0  0  0
  -31.3104  -25.9523   21.4242 H   0  0  0  0  0  0
  -31.9773  -23.5081   21.4539 H   0  0  0  0  0  0
  -31.5214  -23.3521   19.7794 H   0  0  0  0  0  0
  -29.8643  -27.8027   20.8683 H   0  0  0  0  0  0
  -28.9837  -26.7638   21.9891 H   0  0  0  0  0  0
  -29.0847  -15.0429   21.5664 H   0  0  0  0  0  0
  -31.2017  -21.4209   21.8557 H   0  0  0  0  0  0
  1 25  1  0  0  0
  1 30  2  0  0  0
  1 82  1  0  0  0
  2  3  1  0  0  0
  2 25  1  0  0  0
  2 85  1  0  0  0
  2 86  1  0  0  0
  3  4  1  0  0  0
  3 87  1  0  0  0
  3 88  1  0  0  0
  4  5  1  0  0  0
  4 89  1  0  0  0
  4 90  1  0  0  0
  5  6  1  0  0  0
  5 26  1  0  0  0
  5 91  1  0  0  0
  6 25  1  0  0  0
  6 92  1  0  0  0
  6 93  1  0  0  0
  7  8  2  0  0  0
  7 26  1  0  0  0
  7 29  1  0  0  0
  8  9  1  0  0  0
  8 22  1  0  0  0
  9 10  1  0  0  0
  9 27  2  0  0  0
 10 11  2  0  0  0
 10 15  1  0  0  0
 11 12  1  0  0  0
 11 94  1  0  0  0
 12 13  2  0  0  0
 12 95  1  0  0  0
 13 14  1  0  0  0
 13 31  1  0  0  0
 14 15  2  0  0  0
 14 96  1  0  0  0
 15 97  1  0  0  0
 16 17  2  0  0  0
 16 21  1  0  0  0
 16 31  1  0  0  0
 17 18  1  0  0  0
 17 98  1  0  0  0
 18 19  2  0  0  0
 18 99  1  0  0  0
 19 20  1  0  0  0
 19 24  1  0  0  0
 20 21  2  0  0  0
 20100  1  0  0  0
 21 23  1  0  0  0
 22 28  1  0  0  0
 22 32  2  0  0  0
 26 27  1  0  0  0
 28101  1  0  0  0
 28102  1  0  0  0
 29103  1  0  0  0
 29104  1  0  0  0
 33 34  1  0  0  0
 33 66  1  0  0  0
 33 70  2  0  0  0
 34 36  1  0  0  0
 34 59  1  0  0  0
 34105  1  0  0  0
 35 44  2  0  0  0
 35 45  1  0  0  0
 35 68  1  0  0  0
 36 56  1  0  0  0
 36106  1  0  0  0
 37 39  1  0  0  0
 37 47  1  0  0  0
 37 66  1  0  0  0
 37107  1  0  0  0
 38 43  2  0  0  0
 38 46  1  0  0  0
 38 47  1  0  0  0
 39 64  1  0  0  0
 39 67  2  0  0  0
 40 52  1  0  0  0
 40 53  2  0  0  0
 40 58  1  0  0  0
 41108  1  0  0  0
 41109  1  0  0  0
 41110  1  0  0  0
 41 48  1  0  0  0
 42 43  1  0  0  0
 42 66  1  0  0  0
 42111  1  0  0  0
 42112  1  0  0  0
 43 44  1  0  0  0
 44113  1  0  0  0
 45 46  2  0  0  0
 45114  1  0  0  0
 46115  1  0  0  0
 47116  1  0  0  0
 47117  1  0  0  0
 48 56  1  0  0  0
 48 65  1  0  0  0
 48118  1  0  0  0
 49 50  1  0  0  0
 49 53  1  0  0  0
 49 64  1  0  0  0
 49119  1  0  0  0
 50 51  1  0  0  0
 50120  1  0  0  0
 50121  1  0  0  0
 51 52  1  0  0  0
 51122  1  0  0  0
 51123  1  0  0  0
 52124  1  0  0  0
 52125  1  0  0  0
 53 54  1  0  0  0
 54 55  2  0  0  0
 54126  1  0  0  0
 55 57  1  0  0  0
 55127  1  0  0  0
 56 69  2  0  0  0
 57 58  2  0  0  0
 57128  1  0  0  0
 58129  1  0  0  0
 59 60  1  0  0  0
 59 61  1  0  0  0
 59 62  1  0  0  0
 60130  1  0  0  0
 60131  1  0  0  0
 60132  1  0  0  0
 61133  1  0  0  0
 61134  1  0  0  0
 61135  1  0  0  0
 62136  1  0  0  0
 62137  1  0  0  0
 62138  1  0  0  0
 63 65  1  0  0  0
 63139  1  0  0  0
 63140  1  0  0  0
 63141  1  0  0  0
 64142  1  0  0  0
 65143  1  0  0  0
 68 81  1  0  0  0
 71 73  2  0  0  0
 71 75  1  0  0  0
 71144  1  0  0  0
 72 74  1  0  0  0
 72 75  2  0  0  0
 72145  1  0  0  0
 73 76  1  0  0  0
 73146  1  0  0  0
 74 76  2  0  0  0
 74147  1  0  0  0
 75 77  1  0  0  0
 76 82  1  0  0  0
 77 83  1  0  0  0
 77 84  2  0  0  0
 78 79  1  0  0  0
 78 80  1  0  0  0
 78148  1  0  0  0
 78149  1  0  0  0
 79 81  1  0  0  0
 79150  1  0  0  0
 79151  1  0  0  0
 80 83  1  0  0  0
 80152  1  0  0  0
 80153  1  0  0  0
 81154  1  0  0  0
 81155  1  0  0  0
 82156  1  0  0  0
 83157  1  0  0  0
M  ISO  4   1 100  68 101  81 101  82 100
M  END
> <chiral flag>
0

> <version>
0

> <s_m_source_file>
/data/baiqing/PycharmProjects/Reinvent-master-3.2/result/LINK_invent/BTK/process_docking_weight1_custom_product_contain_oxygen_bond_distance_aromatic_linkinvent_7_9_3/rearranged_h_0003.sdf

> <i_m_source_file_index>
93

> <r_mmod_Potential_Energy-OPLS-2005>
-116.879859924316

> <r_mmod_Stretch_Energy-OPLS-2005>
33.6862373352051

> <r_mmod_Bend_Energy-OPLS-2005>
96.3188934326172

> <r_mmod_Torsional_Energy-OPLS-2005>
233.015335083008

> <r_mmod_Improper_Torsional_Energy-OPLS-2005>
5.05354976654053

> <r_mmod_Van_der_Waal_Energy-OPLS-2005>
149.34797668457

> <r_mmod_Electrostatic_Energy-OPLS-2005>
-407.414459228516

> <r_mmod_Solvation_Energy-OPLS-2005>
-236.073532104492

> <b_mmod_Minimization_Converged-OPLS-2005>
0

> <r_mmod_RMS_Derivative-OPLS-2005>
1.07347118854523

$$$$
93
                    3D
 Structure written by MMmdl.
166175  0  0  1  0            999 V2000
  -30.7636  -14.3055   20.7446 C   0  0  0  0  0  0
  -30.4295  -12.2889   19.3660 C   0  0  0  0  0  0
  -29.4788  -12.5401   18.1802 C   0  0  0  0  0  0
  -28.0056  -12.3864   18.6028 C   0  0  0  0  0  0
  -27.6718  -13.1899   19.8858 C   0  0  2  0  0  0
  -28.7071  -12.8727   20.9846 C   0  0  0  0  0  0
  -25.2639  -13.8124   20.5669 C   0  0  0  0  0  0
  -24.1873  -13.0434   20.9172 C   0  0  0  0  0  0
  -24.6394  -11.6888   20.8729 C   0  0  0  0  0  0
  -23.9055  -10.4285   21.0402 C   0  0  0  0  0  0
  -24.3606   -9.4202   21.9184 C   0  0  0  0  0  0
  -23.6284   -8.2237   22.0748 C   0  0  0  0  0  0
  -22.4267   -8.0274   21.3534 C   0  0  0  0  0  0
  -21.9905   -9.0251   20.4638 C   0  0  0  0  0  0
  -22.7232  -10.2131   20.3048 C   0  0  0  0  0  0
  -21.6847   -6.0740   22.5281 C   0  0  0  0  0  0
  -21.4006   -6.5638   23.8218 C   0  0  0  0  0  0
  -21.3663   -5.6786   24.9178 C   0  0  0  0  0  0
  -21.6045   -4.3049   24.7224 C   0  0  0  0  0  0
  -21.8823   -3.8148   23.4342 C   0  0  0  0  0  0
  -21.9192   -4.6968   22.3399 C   0  0  0  0  0  0
  -22.7894  -13.5235   21.1847 C   0  0  0  0  0  0
  -22.1662   -4.2153   21.0977 F   0  0  0  0  0  0
  -21.5637   -3.4529   25.7738 F   0  0  0  0  0  0
  -30.0538  -13.1864   20.4644 N   0  0  0  0  0  0
  -26.3068  -12.9267   20.3385 N   0  0  0  0  0  0
  -25.9308  -11.6437   20.5744 N   0  0  0  0  0  0
  -22.0539  -12.8214   22.0393 N   0  0  0  0  0  0
  -25.4416  -15.1844   20.4075 N   0  0  0  0  0  0
  -31.7555  -14.6674   20.0990 O   0  0  0  0  0  0
  -21.6627   -6.8880   21.4239 O   0  0  0  0  0  0
  -22.3589  -14.5568   20.6733 O   0  0  0  0  0  0
  -24.6097  -31.8720   23.2143 C   0  0  0  0  0  0
  -25.9022  -32.4847   23.8402 C   0  0  1  0  0  0
  -27.2372  -27.4860   20.0853 C   0  0  0  0  0  0
  -25.5902  -33.8642   24.2353 N   0  0  0  0  0  0
  -23.3967  -30.4941   21.5521 C   0  0  2  0  0  0
  -24.8437  -28.9693   20.1145 C   0  0  0  0  0  0
  -22.7408  -29.4640   22.4992 C   0  0  0  0  0  0
  -18.0271  -28.1380   22.8467 C   0  0  0  0  0  0
  -24.1498  -36.7339   23.2626 C   0  0  0  0  0  0
  -25.9157  -30.8538   21.3588 C   0  0  0  0  0  0
  -25.9964  -29.4879   20.7173 C   0  0  0  0  0  0
  -27.1955  -28.7482   20.7130 C   0  0  0  0  0  0
  -26.0749  -26.9751   19.4736 C   0  0  0  0  0  0
  -24.8727  -27.7072   19.4956 C   0  0  0  0  0  0
  -23.6052  -29.8324   20.1634 C   0  0  0  0  0  0
  -25.4112  -36.3133   24.0332 C   0  0  1  0  0  0
  -20.5861  -28.3652   23.1329 C   0  0  2  0  0  0
  -20.6794  -26.9411   22.5394 C   0  0  0  0  0  0
  -19.5774  -26.6401   21.5191 C   0  0  0  0  0  0
  -18.1940  -26.7930   22.1594 C   0  0  0  0  0  0
  -19.1518  -28.8830   23.2891 C   0  0  0  0  0  0
  -18.9458  -30.1439   23.8906 C   0  0  0  0  0  0
  -17.6464  -30.6588   24.0561 C   0  0  0  0  0  0
  -25.9026  -34.9492   23.5141 C   0  0  0  0  0  0
  -16.5355  -29.9097   23.6312 C   0  0  0  0  0  0
  -16.7263  -28.6520   23.0311 C   0  0  0  0  0  0
  -26.4473  -31.6592   25.0685 C   0  0  0  0  0  0
  -25.3736  -31.3682   26.1433 C   0  0  0  0  0  0
  -27.0283  -30.3053   24.5960 C   0  0  0  0  0  0
  -27.6055  -32.4284   25.7480 C   0  0  0  0  0  0
  -27.5588  -37.1847   24.8455 C   0  0  0  0  0  0
  -21.4134  -29.3022   22.3764 N   0  0  0  0  0  0
  -26.4305  -37.3815   23.9400 N   0  0  0  0  0  0
  -24.6586  -31.0869   22.1021 N   0  0  0  0  0  0
  -23.4205  -28.8169   23.2998 O   0  0  0  0  0  0
  -28.3846  -26.7433   20.0101 O   0  0  0  0  0  0
  -26.5585  -34.8937   22.4696 O   0  0  0  0  0  0
  -23.5304  -32.1417   23.7588 O   0  0  0  0  0  0
  -32.1551  -18.0833   22.7343 C   0  0  0  0  0  0
  -29.7601  -18.5175   22.5771 C   0  0  0  0  0  0
  -31.9275  -16.7270   22.4295 C   0  0  0  0  0  0
  -29.5280  -17.1602   22.3022 C   0  0  0  0  0  0
  -31.0758  -18.9922   22.7866 C   0  0  0  0  0  0
  -30.6134  -16.2729   22.1877 C   0  0  0  0  0  0
  -31.3998  -21.1738   21.6071 C   0  0  0  0  0  0
  -30.3320  -21.1668   23.9237 C   0  0  0  0  0  0
  -31.5050  -22.7031   21.7161 C   0  0  0  0  0  0
  -30.5172  -22.6916   23.9526 C   0  0  0  0  0  0
  -31.3486  -20.4788   22.9821 C   0  0  1  0  0  0
  -29.5350  -25.1363   21.2481 C   0  0  0  0  0  0
  -30.2808  -24.7125   22.5243 C   0  0  0  0  0  0
  -29.1275  -26.6090   21.2135 C   0  0  0  0  0  0
  -30.3432  -14.9339   21.8492 N   0  0  0  0  0  0
  -30.4213  -23.2377   22.5772 N   0  3  1  0  0  0
  -31.4659  -12.4309   19.0523 H   0  0  0  0  0  0
  -30.3647  -11.2522   19.6994 H   0  0  0  0  0  0
  -29.7077  -11.8534   17.3649 H   0  0  0  0  0  0
  -29.6438  -13.5454   17.7888 H   0  0  0  0  0  0
  -27.8136  -11.3262   18.7694 H   0  0  0  0  0  0
  -27.3478  -12.6890   17.7878 H   0  0  0  0  0  0
  -27.7477  -14.2503   19.6434 H   0  0  0  0  0  0
  -28.6704  -11.8087   21.2277 H   0  0  0  0  0  0
  -28.4432  -13.3791   21.9127 H   0  0  0  0  0  0
  -25.2757   -9.5676   22.4751 H   0  0  0  0  0  0
  -24.0001   -7.4624   22.7459 H   0  0  0  0  0  0
  -21.0844   -8.8765   19.8936 H   0  0  0  0  0  0
  -22.3700  -10.9664   19.6149 H   0  0  0  0  0  0
  -21.1987   -7.6145   23.9722 H   0  0  0  0  0  0
  -21.1486   -6.0514   25.9083 H   0  0  0  0  0  0
  -22.0601   -2.7609   23.2837 H   0  0  0  0  0  0
  -22.4131  -11.9820   22.4698 H   0  0  0  0  0  0
  -21.1174  -13.1251   22.2653 H   0  0  0  0  0  0
  -24.6833  -15.8478   20.5245 H   0  0  0  0  0  0
  -26.2975  -15.6136   20.0782 H   0  0  0  0  0  0
  -26.7099  -32.5581   23.1183 H   0  0  0  0  0  0
  -25.0077  -33.9790   25.0516 H   0  0  0  0  0  0
  -22.6810  -31.3074   21.4175 H   0  0  0  0  0  0
  -23.3750  -35.9684   23.3297 H   0  0  0  0  0  0
  -24.3601  -36.8928   22.2036 H   0  0  0  0  0  0
  -23.7256  -37.6549   23.6643 H   0  0  0  0  0  0
  -26.0038  -31.6182   20.5861 H   0  0  0  0  0  0
  -26.8125  -30.9210   21.9623 H   0  0  0  0  0  0
  -28.0859  -29.1547   21.1725 H   0  0  0  0  0  0
  -26.1002  -26.0147   18.9795 H   0  0  0  0  0  0
  -23.9849  -27.3088   19.0245 H   0  0  0  0  0  0
  -23.7165  -30.6097   19.4057 H   0  0  0  0  0  0
  -22.7294  -29.2553   19.8622 H   0  0  0  0  0  0
  -25.1300  -36.2005   25.0826 H   0  0  0  0  0  0
  -20.9928  -28.3221   24.1460 H   0  0  0  0  0  0
  -20.5778  -26.2240   23.3565 H   0  0  0  0  0  0
  -21.6658  -26.7535   22.1147 H   0  0  0  0  0  0
  -19.6962  -25.6326   21.1199 H   0  0  0  0  0  0
  -19.6725  -27.3227   20.6744 H   0  0  0  0  0  0
  -17.4226  -26.6645   21.3991 H   0  0  0  0  0  0
  -18.0350  -26.0072   22.8990 H   0  0  0  0  0  0
  -19.7941  -30.7222   24.2298 H   0  0  0  0  0  0
  -17.5037  -31.6276   24.5174 H   0  0  0  0  0  0
  -15.5365  -30.3016   23.7650 H   0  0  0  0  0  0
  -15.8652  -28.0881   22.6998 H   0  0  0  0  0  0
  -24.5922  -30.7017   25.7773 H   0  0  0  0  0  0
  -24.8912  -32.2832   26.4877 H   0  0  0  0  0  0
  -25.8079  -30.8862   27.0190 H   0  0  0  0  0  0
  -26.2786  -29.6856   24.1025 H   0  0  0  0  0  0
  -27.4099  -29.7245   25.4359 H   0  0  0  0  0  0
  -27.8611  -30.4408   23.9052 H   0  0  0  0  0  0
  -27.2670  -33.3569   26.2100 H   0  0  0  0  0  0
  -28.3889  -32.6842   25.0334 H   0  0  0  0  0  0
  -28.0698  -31.8343   26.5363 H   0  0  0  0  0  0
  -28.2606  -38.0152   24.7526 H   0  0  0  0  0  0
  -28.1086  -36.2672   24.6287 H   0  0  0  0  0  0
  -27.2293  -37.1501   25.8853 H   0  0  0  0  0  0
  -20.9308  -29.8738   21.6976 H   0  0  0  0  0  0
  -26.0193  -38.2889   24.1416 H   0  0  0  0  0  0
  -33.1694  -18.4251   22.8909 H   0  0  0  0  0  0
  -28.9092  -19.1817   22.5881 H   0  0  0  0  0  0
  -32.7632  -16.0444   22.3639 H   0  0  0  0  0  0
  -28.5158  -16.8186   22.1322 H   0  0  0  0  0  0
  -32.2444  -20.7892   21.0327 H   0  0  0  0  0  0
  -30.5074  -20.9239   21.0322 H   0  0  0  0  0  0
  -29.3056  -20.9781   23.6132 H   0  0  0  0  0  0
  -30.4236  -20.7568   24.9292 H   0  0  0  0  0  0
  -31.4468  -23.1282   20.7142 H   0  0  0  0  0  0
  -32.4753  -22.9956   22.1199 H   0  0  0  0  0  0
  -31.4758  -22.9609   24.3995 H   0  0  0  0  0  0
  -29.7409  -23.1240   24.5846 H   0  0  0  0  0  0
  -32.3336  -20.5824   23.4435 H   0  0  0  0  0  0
  -28.6265  -24.5395   21.1522 H   0  0  0  0  0  0
  -30.1348  -24.9230   20.3631 H   0  0  0  0  0  0
  -29.7009  -25.0476   23.3856 H   0  0  0  0  0  0
  -31.2549  -25.1998   22.5974 H   0  0  0  0  0  0
  -30.0004  -27.2643   21.1969 H   0  0  0  0  0  0
  -28.5326  -26.8482   22.0995 H   0  0  0  0  0  0
  -29.5207  -14.5218   22.2641 H   0  0  0  0  0  0
  -29.5540  -22.8822   22.2033 H   0  0  0  0  0  0
  1 25  1  0  0  0
  1 30  2  0  0  0
  1 85  1  0  0  0
  2  3  1  0  0  0
  2 25  1  0  0  0
  2 87  1  0  0  0
  2 88  1  0  0  0
  3  4  1  0  0  0
  3 89  1  0  0  0
  3 90  1  0  0  0
  4  5  1  0  0  0
  4 91  1  0  0  0
  4 92  1  0  0  0
  5  6  1  0  0  0
  5 26  1  0  0  0
  5 93  1  0  0  0
  6 25  1  0  0  0
  6 94  1  0  0  0
  6 95  1  0  0  0
  7  8  2  0  0  0
  7 26  1  0  0  0
  7 29  1  0  0  0
  8  9  1  0  0  0
  8 22  1  0  0  0
  9 10  1  0  0  0
  9 27  2  0  0  0
 10 11  2  0  0  0
 10 15  1  0  0  0
 11 12  1  0  0  0
 11 96  1  0  0  0
 12 13  2  0  0  0
 12 97  1  0  0  0
 13 14  1  0  0  0
 13 31  1  0  0  0
 14 15  2  0  0  0
 14 98  1  0  0  0
 15 99  1  0  0  0
 16 17  2  0  0  0
 16 21  1  0  0  0
 16 31  1  0  0  0
 17 18  1  0  0  0
 17100  1  0  0  0
 18 19  2  0  0  0
 18101  1  0  0  0
 19 20  1  0  0  0
 19 24  1  0  0  0
 20 21  2  0  0  0
 20102  1  0  0  0
 21 23  1  0  0  0
 22 28  1  0  0  0
 22 32  2  0  0  0
 26 27  1  0  0  0
 28103  1  0  0  0
 28104  1  0  0  0
 29105  1  0  0  0
 29106  1  0  0  0
 33 34  1  0  0  0
 33 66  1  0  0  0
 33 70  2  0  0  0
 34 36  1  0  0  0
 34 59  1  0  0  0
 34107  1  0  0  0
 35 44  2  0  0  0
 35 45  1  0  0  0
 35 68  1  0  0  0
 36 56  1  0  0  0
 36108  1  0  0  0
 37 39  1  0  0  0
 37 47  1  0  0  0
 37 66  1  0  0  0
 37109  1  0  0  0
 38 43  2  0  0  0
 38 46  1  0  0  0
 38 47  1  0  0  0
 39 64  1  0  0  0
 39 67  2  0  0  0
 40 52  1  0  0  0
 40 53  2  0  0  0
 40 58  1  0  0  0
 41110  1  0  0  0
 41111  1  0  0  0
 41112  1  0  0  0
 41 48  1  0  0  0
 42 43  1  0  0  0
 42 66  1  0  0  0
 42113  1  0  0  0
 42114  1  0  0  0
 43 44  1  0  0  0
 44115  1  0  0  0
 45 46  2  0  0  0
 45116  1  0  0  0
 46117  1  0  0  0
 47118  1  0  0  0
 47119  1  0  0  0
 48 56  1  0  0  0
 48 65  1  0  0  0
 48120  1  0  0  0
 49 50  1  0  0  0
 49 53  1  0  0  0
 49 64  1  0  0  0
 49121  1  0  0  0
 50 51  1  0  0  0
 50122  1  0  0  0
 50123  1  0  0  0
 51 52  1  0  0  0
 51124  1  0  0  0
 51125  1  0  0  0
 52126  1  0  0  0
 52127  1  0  0  0
 53 54  1  0  0  0
 54 55  2  0  0  0
 54128  1  0  0  0
 55 57  1  0  0  0
 55129  1  0  0  0
 56 69  2  0  0  0
 57 58  2  0  0  0
 57130  1  0  0  0
 58131  1  0  0  0
 59 60  1  0  0  0
 59 61  1  0  0  0
 59 62  1  0  0  0
 60132  1  0  0  0
 60133  1  0  0  0
 60134  1  0  0  0
 61135  1  0  0  0
 61136  1  0  0  0
 61137  1  0  0  0
 62138  1  0  0  0
 62139  1  0  0  0
 62140  1  0  0  0
 63 65  1  0  0  0
 63141  1  0  0  0
 63142  1  0  0  0
 63143  1  0  0  0
 64144  1  0  0  0
 65145  1  0  0  0
 68 84  1  0  0  0
 71 73  2  0  0  0
 71 75  1  0  0  0
 71146  1  0  0  0
 72 74  1  0  0  0
 72 75  2  0  0  0
 72147  1  0  0  0
 73 76  1  0  0  0
 73148  1  0  0  0
 74 76  2  0  0  0
 74149  1  0  0  0
 75 81  1  0  0  0
 76 85  1  0  0  0
 77 79  1  0  0  0
 77 81  1  0  0  0
 77150  1  0  0  0
 77151  1  0  0  0
 78 80  1  0  0  0
 78 81  1  0  0  0
 78152  1  0  0  0
 78153  1  0  0  0
 79 86  1  0  0  0
 79154  1  0  0  0
 79155  1  0  0  0
 80 86  1  0  0  0
 80156  1  0  0  0
 80157  1  0  0  0
 81158  1  0  0  0
 82 83  1  0  0  0
 82 84  1  0  0  0
 82159  1  0  0  0
 82160  1  0  0  0
 83161  1  0  0  0
 83162  1  0  0  0
 83 86  1  0  0  0
 84163  1  0  0  0
 84164  1  0  0  0
 85165  1  0  0  0
 86166  1  0  0  0
M  CHG  1  86   1
M  ISO  4   1 100  68 101  84 101  85 100
M  END
> <chiral flag>
0

> <version>
0

> <s_m_source_file>
/data/baiqing/PycharmProjects/Reinvent-master-3.2/result/LINK_invent/BTK/process_docking_weight1_custom_product_contain_oxygen_bond_distance_aromatic_linkinvent_7_9_3/rearranged_h_0003.sdf

> <i_m_source_file_index>
94

> <r_mmod_Potential_Energy-OPLS-2005>
-143.428192138672

> <r_mmod_Stretch_Energy-OPLS-2005>
30.5415019989014

> <r_mmod_Bend_Energy-OPLS-2005>
92.7013778686523

> <r_mmod_Torsional_Energy-OPLS-2005>
268.809295654297

> <r_mmod_Improper_Torsional_Energy-OPLS-2005>
3.74177074432373

> <r_mmod_Van_der_Waal_Energy-OPLS-2005>
164.045318603516

> <r_mmod_Electrostatic_Energy-OPLS-2005>
-268.627685546875

> <r_mmod_Solvation_Energy-OPLS-2005>
-442.416137695312

> <b_mmod_Minimization_Converged-OPLS-2005>
0

> <r_mmod_RMS_Derivative-OPLS-2005>
2.6097559928894

$$$$
94
                    3D
 Structure written by MMmdl.
159167  0  0  1  0            999 V2000
  -30.7281  -14.4050   20.5869 C   0  0  0  0  0  0
  -30.4087  -12.2663   19.4225 C   0  0  0  0  0  0
  -29.4930  -12.5007   18.2052 C   0  0  0  0  0  0
  -28.0106  -12.3803   18.6103 C   0  0  0  0  0  0
  -27.6623  -13.2064   19.8780 C   0  0  2  0  0  0
  -28.6984  -12.9683   21.0009 C   0  0  0  0  0  0
  -25.2575  -13.8161   20.5657 C   0  0  0  0  0  0
  -24.1833  -13.0433   20.9163 C   0  0  0  0  0  0
  -24.6382  -11.6905   20.8736 C   0  0  0  0  0  0
  -23.9055  -10.4292   21.0414 C   0  0  0  0  0  0
  -24.3612   -9.4213   21.9195 C   0  0  0  0  0  0
  -23.6290   -8.2247   22.0762 C   0  0  0  0  0  0
  -22.4273   -8.0285   21.3550 C   0  0  0  0  0  0
  -21.9915   -9.0248   20.4641 C   0  0  0  0  0  0
  -22.7240  -10.2129   20.3050 C   0  0  0  0  0  0
  -21.6843   -6.0747   22.5282 C   0  0  0  0  0  0
  -21.4012   -6.5645   23.8219 C   0  0  0  0  0  0
  -21.3655   -5.6798   24.9178 C   0  0  0  0  0  0
  -21.6033   -4.3059   24.7225 C   0  0  0  0  0  0
  -21.8823   -3.8159   23.4343 C   0  0  0  0  0  0
  -21.9193   -4.6977   22.3405 C   0  0  0  0  0  0
  -22.7865  -13.5229   21.1847 C   0  0  0  0  0  0
  -22.1656   -4.2166   21.0979 F   0  0  0  0  0  0
  -21.5627   -3.4547   25.7735 F   0  0  0  0  0  0
  -30.0386  -13.2441   20.4546 N   0  0  0  0  0  0
  -26.3016  -12.9336   20.3355 N   0  0  0  0  0  0
  -25.9308  -11.6498   20.5759 N   0  0  0  0  0  0
  -22.0505  -12.8212   22.0396 N   0  0  0  0  0  0
  -25.4288  -15.1878   20.4063 N   0  0  0  0  0  0
  -31.8546  -14.5774   20.1100 O   0  0  0  0  0  0
  -21.6627   -6.8890   21.4245 O   0  0  0  0  0  0
  -22.3564  -14.5557   20.6726 O   0  0  0  0  0  0
  -24.6085  -31.8716   23.2143 C   0  0  0  0  0  0
  -25.8989  -32.4846   23.8437 C   0  0  1  0  0  0
  -27.2364  -27.4833   20.0726 C   0  0  0  0  0  0
  -25.5842  -33.8646   24.2355 N   0  0  0  0  0  0
  -23.3958  -30.4966   21.5528 C   0  0  2  0  0  0
  -24.8417  -28.9632   20.1210 C   0  0  0  0  0  0
  -22.7370  -29.4685   22.4991 C   0  0  0  0  0  0
  -18.0265  -28.1396   22.8510 C   0  0  0  0  0  0
  -24.1483  -36.7323   23.2646 C   0  0  0  0  0  0
  -25.9197  -30.8483   21.3625 C   0  0  0  0  0  0
  -25.9982  -29.4814   20.7188 C   0  0  0  0  0  0
  -27.1982  -28.7413   20.7062 C   0  0  0  0  0  0
  -26.0610  -26.9557   19.4962 C   0  0  0  0  0  0
  -24.8628  -27.6942   19.5154 C   0  0  0  0  0  0
  -23.6027  -29.8272   20.1679 C   0  0  0  0  0  0
  -25.4106  -36.3132   24.0343 C   0  0  1  0  0  0
  -20.5852  -28.3682   23.1337 C   0  0  2  0  0  0
  -20.6747  -26.9424   22.5432 C   0  0  0  0  0  0
  -19.5727  -26.6401   21.5226 C   0  0  0  0  0  0
  -18.1904  -26.7943   22.1634 C   0  0  0  0  0  0
  -19.1513  -28.8848   23.2930 C   0  0  0  0  0  0
  -18.9435  -30.1447   23.8951 C   0  0  0  0  0  0
  -17.6444  -30.6605   24.0586 C   0  0  0  0  0  0
  -25.9015  -34.9490   23.5152 C   0  0  0  0  0  0
  -16.5337  -29.9121   23.6321 C   0  0  0  0  0  0
  -16.7262  -28.6529   23.0364 C   0  0  0  0  0  0
  -26.4432  -31.6600   25.0741 C   0  0  0  0  0  0
  -25.3686  -31.3629   26.1457 C   0  0  0  0  0  0
  -27.0281  -30.3071   24.6056 C   0  0  0  0  0  0
  -27.6008  -32.4306   25.7511 C   0  0  0  0  0  0
  -27.5582  -37.1814   24.8471 C   0  0  0  0  0  0
  -21.4101  -29.3058   22.3737 N   0  0  0  0  0  0
  -26.4299  -37.3803   23.9406 N   0  0  0  0  0  0
  -24.6599  -31.0847   22.1026 N   0  0  0  0  0  0
  -23.4158  -28.8208   23.3010 O   0  0  0  0  0  0
  -28.4156  -26.7874   20.0149 O   0  0  0  0  0  0
  -26.5610  -34.8932   22.4731 O   0  0  0  0  0  0
  -23.5279  -32.1452   23.7550 O   0  0  0  0  0  0
  -31.6230  -18.7309   20.4641 C   0  0  0  0  0  0
  -29.4251  -18.6380   19.4084 C   0  0  0  0  0  0
  -31.4118  -17.4544   21.0193 C   0  0  0  0  0  0
  -29.2071  -17.3667   19.9738 C   0  0  0  0  0  0
  -30.6477  -19.3111   19.6255 C   0  0  0  0  0  0
  -30.2208  -16.7510   20.7359 C   0  0  0  0  0  0
  -30.9407  -20.6239   18.9169 C   0  0  0  0  0  0
  -29.5436  -24.1600   19.2427 C   0  0  0  0  0  0
  -30.0085  -25.5255   18.7109 C   0  0  0  0  0  0
  -30.5464  -23.0476   18.9055 C   0  0  0  0  0  0
  -28.8850  -26.5631   18.6896 C   0  0  0  0  0  0
  -30.0460  -15.4109   21.1528 N   0  0  0  0  0  0
  -30.1503  -21.7394   19.4625 N   0  3  0  0  0  0
  -31.4578  -12.3375   19.1308 H   0  0  0  0  0  0
  -30.2777  -11.2547   19.8085 H   0  0  0  0  0  0
  -29.7235  -11.7815   17.4180 H   0  0  0  0  0  0
  -29.6823  -13.4889   17.7831 H   0  0  0  0  0  0
  -27.7999  -11.3251   18.7872 H   0  0  0  0  0  0
  -27.3698  -12.6821   17.7807 H   0  0  0  0  0  0
  -27.7119  -14.2572   19.5939 H   0  0  0  0  0  0
  -28.6533  -11.9341   21.3446 H   0  0  0  0  0  0
  -28.4654  -13.5728   21.8789 H   0  0  0  0  0  0
  -25.2756   -9.5686   22.4777 H   0  0  0  0  0  0
  -23.9996   -7.4637   22.7484 H   0  0  0  0  0  0
  -21.0860   -8.8762   19.8935 H   0  0  0  0  0  0
  -22.3712  -10.9665   19.6153 H   0  0  0  0  0  0
  -21.2005   -7.6150   23.9726 H   0  0  0  0  0  0
  -21.1464   -6.0525   25.9079 H   0  0  0  0  0  0
  -22.0609   -2.7623   23.2837 H   0  0  0  0  0  0
  -22.4115  -11.9839   22.4727 H   0  0  0  0  0  0
  -21.1129  -13.1254   22.2617 H   0  0  0  0  0  0
  -24.6597  -15.8424   20.5007 H   0  0  0  0  0  0
  -26.2822  -15.6253   20.0846 H   0  0  0  0  0  0
  -26.7063  -32.5592   23.1211 H   0  0  0  0  0  0
  -24.9923  -33.9835   25.0451 H   0  0  0  0  0  0
  -22.6841  -31.3133   21.4138 H   0  0  0  0  0  0
  -23.3750  -35.9646   23.3309 H   0  0  0  0  0  0
  -24.3565  -36.8950   22.2060 H   0  0  0  0  0  0
  -23.7223  -37.6522   23.6664 H   0  0  0  0  0  0
  -26.0194  -31.6115   20.5898 H   0  0  0  0  0  0
  -26.8119  -30.9098   21.9735 H   0  0  0  0  0  0
  -28.0971  -29.1399   21.1565 H   0  0  0  0  0  0
  -26.0703  -25.9797   19.0312 H   0  0  0  0  0  0
  -23.9707  -27.2868   19.0613 H   0  0  0  0  0  0
  -23.7097  -30.6021   19.4069 H   0  0  0  0  0  0
  -22.7269  -29.2473   19.8742 H   0  0  0  0  0  0
  -25.1280  -36.2008   25.0836 H   0  0  0  0  0  0
  -20.9970  -28.3260   24.1452 H   0  0  0  0  0  0
  -20.5645  -26.2303   23.3619 H   0  0  0  0  0  0
  -21.6619  -26.7459   22.1249 H   0  0  0  0  0  0
  -19.6892  -25.6318   21.1236 H   0  0  0  0  0  0
  -19.6656  -27.3222   20.6766 H   0  0  0  0  0  0
  -17.4181  -26.6737   21.4032 H   0  0  0  0  0  0
  -18.0285  -26.0070   22.9014 H   0  0  0  0  0  0
  -19.7909  -30.7245   24.2362 H   0  0  0  0  0  0
  -17.4996  -31.6286   24.5192 H   0  0  0  0  0  0
  -15.5333  -30.3045   23.7580 H   0  0  0  0  0  0
  -15.8671  -28.0837   22.7071 H   0  0  0  0  0  0
  -24.5936  -30.6890   25.7760 H   0  0  0  0  0  0
  -24.8750  -32.2731   26.4889 H   0  0  0  0  0  0
  -25.8042  -30.8826   27.0225 H   0  0  0  0  0  0
  -26.2833  -29.6832   24.1084 H   0  0  0  0  0  0
  -27.4079  -29.7286   25.4485 H   0  0  0  0  0  0
  -27.8640  -30.4451   23.9186 H   0  0  0  0  0  0
  -27.2657  -33.3600   26.2139 H   0  0  0  0  0  0
  -28.3814  -32.6873   25.0329 H   0  0  0  0  0  0
  -28.0679  -31.8377   26.5393 H   0  0  0  0  0  0
  -28.2602  -38.0116   24.7544 H   0  0  0  0  0  0
  -28.1090  -36.2644   24.6288 H   0  0  0  0  0  0
  -27.2289  -37.1473   25.8875 H   0  0  0  0  0  0
  -20.9231  -29.8811   21.7002 H   0  0  0  0  0  0
  -26.0196  -38.2878   24.1415 H   0  0  0  0  0  0
  -32.5603  -19.2385   20.6508 H   0  0  0  0  0  0
  -28.6632  -19.0690   18.7750 H   0  0  0  0  0  0
  -32.1905  -16.9977   21.6143 H   0  0  0  0  0  0
  -28.2839  -16.8453   19.7623 H   0  0  0  0  0  0
  -30.7357  -20.5092   17.8512 H   0  0  0  0  0  0
  -32.0040  -20.8554   19.0033 H   0  0  0  0  0  0
  -28.5716  -23.9105   18.8142 H   0  0  0  0  0  0
  -29.3987  -24.2253   20.3215 H   0  0  0  0  0  0
  -30.3848  -25.4145   17.6929 H   0  0  0  0  0  0
  -30.8464  -25.8907   19.3065 H   0  0  0  0  0  0
  -31.5381  -23.3082   19.2795 H   0  0  0  0  0  0
  -30.6330  -22.9658   17.8203 H   0  0  0  0  0  0
  -28.0978  -26.2195   18.0160 H   0  0  0  0  0  0
  -29.2601  -27.5015   18.2807 H   0  0  0  0  0  0
  -29.1251  -15.1533   21.4752 H   0  0  0  0  0  0
  -30.2616  -21.7511   20.4631 H   0  0  0  0  0  0
  -29.1801  -21.5653   19.2586 H   0  0  0  0  0  0
  1 25  1  0  0  0
  1 30  2  0  0  0
  1 82  1  0  0  0
  2  3  1  0  0  0
  2 25  1  0  0  0
  2 84  1  0  0  0
  2 85  1  0  0  0
  3  4  1  0  0  0
  3 86  1  0  0  0
  3 87  1  0  0  0
  4  5  1  0  0  0
  4 88  1  0  0  0
  4 89  1  0  0  0
  5  6  1  0  0  0
  5 26  1  0  0  0
  5 90  1  0  0  0
  6 25  1  0  0  0
  6 91  1  0  0  0
  6 92  1  0  0  0
  7  8  2  0  0  0
  7 26  1  0  0  0
  7 29  1  0  0  0
  8  9  1  0  0  0
  8 22  1  0  0  0
  9 10  1  0  0  0
  9 27  2  0  0  0
 10 11  2  0  0  0
 10 15  1  0  0  0
 11 12  1  0  0  0
 11 93  1  0  0  0
 12 13  2  0  0  0
 12 94  1  0  0  0
 13 14  1  0  0  0
 13 31  1  0  0  0
 14 15  2  0  0  0
 14 95  1  0  0  0
 15 96  1  0  0  0
 16 17  2  0  0  0
 16 21  1  0  0  0
 16 31  1  0  0  0
 17 18  1  0  0  0
 17 97  1  0  0  0
 18 19  2  0  0  0
 18 98  1  0  0  0
 19 20  1  0  0  0
 19 24  1  0  0  0
 20 21  2  0  0  0
 20 99  1  0  0  0
 21 23  1  0  0  0
 22 28  1  0  0  0
 22 32  2  0  0  0
 26 27  1  0  0  0
 28100  1  0  0  0
 28101  1  0  0  0
 29102  1  0  0  0
 29103  1  0  0  0
 33 34  1  0  0  0
 33 66  1  0  0  0
 33 70  2  0  0  0
 34 36  1  0  0  0
 34 59  1  0  0  0
 34104  1  0  0  0
 35 44  2  0  0  0
 35 45  1  0  0  0
 35 68  1  0  0  0
 36 56  1  0  0  0
 36105  1  0  0  0
 37 39  1  0  0  0
 37 47  1  0  0  0
 37 66  1  0  0  0
 37106  1  0  0  0
 38 43  2  0  0  0
 38 46  1  0  0  0
 38 47  1  0  0  0
 39 64  1  0  0  0
 39 67  2  0  0  0
 40 52  1  0  0  0
 40 53  2  0  0  0
 40 58  1  0  0  0
 41107  1  0  0  0
 41108  1  0  0  0
 41109  1  0  0  0
 41 48  1  0  0  0
 42 43  1  0  0  0
 42 66  1  0  0  0
 42110  1  0  0  0
 42111  1  0  0  0
 43 44  1  0  0  0
 44112  1  0  0  0
 45 46  2  0  0  0
 45113  1  0  0  0
 46114  1  0  0  0
 47115  1  0  0  0
 47116  1  0  0  0
 48 56  1  0  0  0
 48 65  1  0  0  0
 48117  1  0  0  0
 49 50  1  0  0  0
 49 53  1  0  0  0
 49 64  1  0  0  0
 49118  1  0  0  0
 50 51  1  0  0  0
 50119  1  0  0  0
 50120  1  0  0  0
 51 52  1  0  0  0
 51121  1  0  0  0
 51122  1  0  0  0
 52123  1  0  0  0
 52124  1  0  0  0
 53 54  1  0  0  0
 54 55  2  0  0  0
 54125  1  0  0  0
 55 57  1  0  0  0
 55126  1  0  0  0
 56 69  2  0  0  0
 57 58  2  0  0  0
 57127  1  0  0  0
 58128  1  0  0  0
 59 60  1  0  0  0
 59 61  1  0  0  0
 59 62  1  0  0  0
 60129  1  0  0  0
 60130  1  0  0  0
 60131  1  0  0  0
 61132  1  0  0  0
 61133  1  0  0  0
 61134  1  0  0  0
 62135  1  0  0  0
 62136  1  0  0  0
 62137  1  0  0  0
 63 65  1  0  0  0
 63138  1  0  0  0
 63139  1  0  0  0
 63140  1  0  0  0
 64141  1  0  0  0
 65142  1  0  0  0
 68 81  1  0  0  0
 71 73  2  0  0  0
 71 75  1  0  0  0
 71143  1  0  0  0
 72 74  1  0  0  0
 72 75  2  0  0  0
 72144  1  0  0  0
 73 76  1  0  0  0
 73145  1  0  0  0
 74 76  2  0  0  0
 74146  1  0  0  0
 75 77  1  0  0  0
 76 82  1  0  0  0
 77 83  1  0  0  0
 77147  1  0  0  0
 77148  1  0  0  0
 78 79  1  0  0  0
 78 80  1  0  0  0
 78149  1  0  0  0
 78150  1  0  0  0
 79 81  1  0  0  0
 79151  1  0  0  0
 79152  1  0  0  0
 80 83  1  0  0  0
 80153  1  0  0  0
 80154  1  0  0  0
 81155  1  0  0  0
 81156  1  0  0  0
 82157  1  0  0  0
 83158  1  0  0  0
 83159  1  0  0  0
M  CHG  1  83   1
M  ISO  4   1 100  68 101  81 101  82 100
M  END
> <chiral flag>
0

> <version>
0

> <s_m_source_file>
/data/baiqing/PycharmProjects/Reinvent-master-3.2/result/LINK_invent/BTK/process_docking_weight1_custom_product_contain_oxygen_bond_distance_aromatic_linkinvent_7_9_3/rearranged_h_0003.sdf

> <i_m_source_file_index>
95

> <r_mmod_Potential_Energy-OPLS-2005>
-246.105285644531

> <r_mmod_Stretch_Energy-OPLS-2005>
29.8059921264648

> <r_mmod_Bend_Energy-OPLS-2005>
80.8831253051758

> <r_mmod_Torsional_Energy-OPLS-2005>
246.131927490234

> <r_mmod_Improper_Torsional_Energy-OPLS-2005>
5.75335454940796

> <r_mmod_Van_der_Waal_Energy-OPLS-2005>
151.840667724609

> <r_mmod_Electrostatic_Energy-OPLS-2005>
-299.892944335938

> <r_mmod_Solvation_Energy-OPLS-2005>
-469.631408691406

> <b_mmod_Minimization_Converged-OPLS-2005>
0

> <r_mmod_RMS_Derivative-OPLS-2005>
1.9610892534256

$$$$
