0
                    3D
 Structure written by MMmdl.
157165  0  0  1  0            999 V2000
  -30.7439  -14.4695   20.5906 C   0  0  0  0  0  0
  -30.4166  -12.3080   19.4328 C   0  0  0  0  0  0
  -29.4953  -12.4990   18.2132 C   0  0  0  0  0  0
  -28.0166  -12.3637   18.6186 C   0  0  0  0  0  0
  -27.6603  -13.2109   19.8703 C   0  0  2  0  0  0
  -28.7030  -13.0190   20.9939 C   0  0  0  0  0  0
  -25.2564  -13.8175   20.5722 C   0  0  0  0  0  0
  -24.1829  -13.0435   20.9217 C   0  0  0  0  0  0
  -24.6366  -11.6914   20.8727 C   0  0  0  0  0  0
  -23.9015  -10.4295   21.0382 C   0  0  0  0  0  0
  -24.3562   -9.4207   21.9158 C   0  0  0  0  0  0
  -23.6246   -8.2231   22.0723 C   0  0  0  0  0  0
  -22.4238   -8.0240   21.3511 C   0  0  0  0  0  0
  -21.9865   -9.0226   20.4633 C   0  0  0  0  0  0
  -22.7183  -10.2114   20.3040 C   0  0  0  0  0  0
  -21.6854   -6.0683   22.5282 C   0  0  0  0  0  0
  -21.4023   -6.5583   23.8217 C   0  0  0  0  0  0
  -21.3689   -5.6745   24.9187 C   0  0  0  0  0  0
  -21.6043   -4.3000   24.7236 C   0  0  0  0  0  0
  -21.8824   -3.8085   23.4360 C   0  0  0  0  0  0
  -21.9199   -4.6907   22.3408 C   0  0  0  0  0  0
  -22.7838  -13.5221   21.1864 C   0  0  0  0  0  0
  -22.1667   -4.2088   21.0986 F   0  0  0  0  0  0
  -21.5647   -3.4485   25.7750 F   0  0  0  0  0  0
  -30.0378  -13.3110   20.4435 N   0  0  0  0  0  0
  -26.3012  -12.9366   20.3357 N   0  0  0  0  0  0
  -25.9293  -11.6520   20.5721 N   0  0  0  0  0  0
  -22.0422  -12.8293   22.0441 N   0  0  0  0  0  0
  -25.4234  -15.1889   20.4198 N   0  0  0  0  0  0
  -31.8677  -14.6236   20.1067 O   0  0  0  0  0  0
  -21.6616   -6.8816   21.4229 O   0  0  0  0  0  0
  -22.3530  -14.5493   20.6650 O   0  0  0  0  0  0
  -24.6169  -31.8648   23.2083 C   0  0  0  0  0  0
  -25.9044  -32.4822   23.8412 C   0  0  1  0  0  0
  -27.2423  -27.4275   20.0947 C   0  0  0  0  0  0
  -25.5889  -33.8640   24.2337 N   0  0  0  0  0  0
  -23.4093  -30.4875   21.5452 C   0  0  2  0  0  0
  -24.8600  -28.9591   20.1100 C   0  0  0  0  0  0
  -22.7452  -29.4631   22.4942 C   0  0  0  0  0  0
  -18.0316  -28.1411   22.8529 C   0  0  0  0  0  0
  -24.1489  -36.7317   23.2637 C   0  0  0  0  0  0
  -25.9405  -30.8312   21.3634 C   0  0  0  0  0  0
  -26.0225  -29.4669   20.7071 C   0  0  0  0  0  0
  -27.2204  -28.7107   20.6957 C   0  0  0  0  0  0
  -26.0682  -26.9516   19.4685 C   0  0  0  0  0  0
  -24.8764  -27.7033   19.4827 C   0  0  0  0  0  0
  -23.6197  -29.8218   20.1606 C   0  0  0  0  0  0
  -25.4109  -36.3118   24.0334 C   0  0  1  0  0  0
  -20.5887  -28.3689   23.1334 C   0  0  2  0  0  0
  -20.6768  -26.9426   22.5443 C   0  0  0  0  0  0
  -19.5749  -26.6421   21.5224 C   0  0  0  0  0  0
  -18.1937  -26.7977   22.1616 C   0  0  0  0  0  0
  -19.1551  -28.8861   23.2941 C   0  0  0  0  0  0
  -18.9470  -30.1470   23.8921 C   0  0  0  0  0  0
  -17.6465  -30.6607   24.0615 C   0  0  0  0  0  0
  -25.9023  -34.9487   23.5127 C   0  0  0  0  0  0
  -16.5372  -29.9105   23.6355 C   0  0  0  0  0  0
  -16.7283  -28.6545   23.0349 C   0  0  0  0  0  0
  -26.4470  -31.6608   25.0738 C   0  0  0  0  0  0
  -25.3756  -31.3717   26.1482 C   0  0  0  0  0  0
  -27.0284  -30.3055   24.6107 C   0  0  0  0  0  0
  -27.6064  -32.4335   25.7487 C   0  0  0  0  0  0
  -27.5586  -37.1805   24.8458 C   0  0  0  0  0  0
  -21.4175  -29.3032   22.3729 N   0  0  0  0  0  0
  -26.4296  -37.3802   23.9415 N   0  0  0  0  0  0
  -24.6737  -31.0761   22.0967 N   0  0  0  0  0  0
  -23.4234  -28.8153   23.2978 O   0  0  0  0  0  0
  -28.3793  -26.6391   20.1220 O   0  0  0  0  0  0
  -26.5589  -34.8916   22.4691 O   0  0  0  0  0  0
  -23.5352  -32.1387   23.7438 O   0  0  0  0  0  0
  -31.3247  -19.5524   21.6955 C   0  0  0  0  0  0
  -31.8275  -17.1707   21.7366 C   0  0  0  0  0  0
  -29.9972  -19.2954   21.2766 C   0  0  0  0  0  0
  -29.6018  -17.9333   21.0362 C   0  0  0  0  0  0
  -30.5164  -16.8644   21.2921 C   0  0  0  0  0  0
  -32.2347  -18.5033   21.9102 C   0  0  0  0  0  0
  -29.0187  -20.4584   21.2456 C   0  0  0  0  0  0
  -28.2083  -17.5997   20.4870 C   0  0  0  0  0  0
  -29.1713  -24.2181   20.4451 C   0  0  0  0  0  0
  -28.6623  -22.8959   21.0836 C   0  0  0  0  0  0
  -28.1873  -25.3735   20.7895 C   0  0  0  0  0  0
  -30.0889  -15.4935   21.1824 N   0  0  0  0  0  0
  -29.4641  -21.6754   20.8596 N   0  0  0  0  0  0
  -27.8535  -20.2933   21.6188 O   0  0  0  0  0  0
  -33.5020  -18.7795   22.3128 F   0  0  0  0  0  0
  -31.4614  -12.3913   19.1275 H   0  0  0  0  0  0
  -30.3026  -11.3036   19.8437 H   0  0  0  0  0  0
  -29.7345  -11.7680   17.4406 H   0  0  0  0  0  0
  -29.6671  -13.4840   17.7752 H   0  0  0  0  0  0
  -27.8175  -11.3068   18.8076 H   0  0  0  0  0  0
  -27.3708  -12.6447   17.7878 H   0  0  0  0  0  0
  -27.6949  -14.2565   19.5666 H   0  0  0  0  0  0
  -28.6775  -11.9906   21.3577 H   0  0  0  0  0  0
  -28.4558  -13.6430   21.8556 H   0  0  0  0  0  0
  -25.2700   -9.5691   22.4740 H   0  0  0  0  0  0
  -23.9956   -7.4615   22.7438 H   0  0  0  0  0  0
  -21.0798   -8.8736   19.8939 H   0  0  0  0  0  0
  -22.3606  -10.9645   19.6158 H   0  0  0  0  0  0
  -21.1995   -7.6082   23.9705 H   0  0  0  0  0  0
  -21.1542   -6.0466   25.9093 H   0  0  0  0  0  0
  -22.0584   -2.7531   23.2889 H   0  0  0  0  0  0
  -22.3972  -12.0006   22.4985 H   0  0  0  0  0  0
  -21.1006  -13.1348   22.2496 H   0  0  0  0  0  0
  -24.6436  -15.8304   20.5238 H   0  0  0  0  0  0
  -26.2670  -15.6416   20.0942 H   0  0  0  0  0  0
  -26.7136  -32.5542   23.1200 H   0  0  0  0  0  0
  -25.0104  -33.9840   25.0525 H   0  0  0  0  0  0
  -22.6978  -31.3033   21.4051 H   0  0  0  0  0  0
  -23.3752  -35.9647   23.3297 H   0  0  0  0  0  0
  -24.3574  -36.8923   22.2048 H   0  0  0  0  0  0
  -23.7228  -37.6521   23.6640 H   0  0  0  0  0  0
  -26.0542  -31.5985   20.5966 H   0  0  0  0  0  0
  -26.8299  -30.8871   21.9760 H   0  0  0  0  0  0
  -28.1156  -29.0995   21.1620 H   0  0  0  0  0  0
  -26.0643  -25.9958   18.9643 H   0  0  0  0  0  0
  -23.9863  -27.3153   19.0068 H   0  0  0  0  0  0
  -23.7290  -30.5961   19.4019 H   0  0  0  0  0  0
  -22.7475  -29.2319   19.8706 H   0  0  0  0  0  0
  -25.1299  -36.1988   25.0826 H   0  0  0  0  0  0
  -21.0041  -28.3254   24.1437 H   0  0  0  0  0  0
  -20.5669  -26.2283   23.3614 H   0  0  0  0  0  0
  -21.6650  -26.7469   22.1243 H   0  0  0  0  0  0
  -19.6896  -25.6343   21.1227 H   0  0  0  0  0  0
  -19.6674  -27.3247   20.6786 H   0  0  0  0  0  0
  -17.4233  -26.6809   21.3992 H   0  0  0  0  0  0
  -18.0260  -26.0096   22.8964 H   0  0  0  0  0  0
  -19.7938  -30.7336   24.2235 H   0  0  0  0  0  0
  -17.5003  -31.6265   24.5247 H   0  0  0  0  0  0
  -15.5351  -30.3011   23.7628 H   0  0  0  0  0  0
  -15.8694  -28.0882   22.6984 H   0  0  0  0  0  0
  -24.5938  -30.7050   25.7829 H   0  0  0  0  0  0
  -24.8943  -32.2877   26.4930 H   0  0  0  0  0  0
  -25.8109  -30.8896   27.0253 H   0  0  0  0  0  0
  -26.2807  -29.6823   24.1174 H   0  0  0  0  0  0
  -27.4075  -29.7263   25.4556 H   0  0  0  0  0  0
  -27.8665  -30.4377   23.9248 H   0  0  0  0  0  0
  -27.2689  -33.3632   26.2096 H   0  0  0  0  0  0
  -28.3839  -32.6906   25.0281 H   0  0  0  0  0  0
  -28.0784  -31.8457   26.5358 H   0  0  0  0  0  0
  -28.2616  -38.0096   24.7534 H   0  0  0  0  0  0
  -28.1068  -36.2632   24.6265 H   0  0  0  0  0  0
  -27.2308  -37.1461   25.8861 H   0  0  0  0  0  0
  -20.9284  -29.8772   21.7010 H   0  0  0  0  0  0
  -26.0172  -38.2879   24.1422 H   0  0  0  0  0  0
  -31.6572  -20.5622   21.8931 H   0  0  0  0  0  0
  -32.5400  -16.3861   21.9586 H   0  0  0  0  0  0
  -27.4742  -17.5429   21.2937 H   0  0  0  0  0  0
  -28.1886  -16.6581   19.9416 H   0  0  0  0  0  0
  -27.8668  -18.3465   19.7678 H   0  0  0  0  0  0
  -29.2313  -24.0891   19.3653 H   0  0  0  0  0  0
  -30.1744  -24.4554   20.7954 H   0  0  0  0  0  0
  -27.6591  -22.7129   20.6974 H   0  0  0  0  0  0
  -28.5560  -23.0374   22.1631 H   0  0  0  0  0  0
  -28.2334  -25.5674   21.8618 H   0  0  0  0  0  0
  -27.1861  -24.9860   20.6081 H   0  0  0  0  0  0
  -29.1376  -15.2979   21.4430 H   0  0  0  0  0  0
  -30.4148  -21.7607   20.5206 H   0  0  0  0  0  0
  1 25  1  0  0  0
  1 30  2  0  0  0
  1 82  1  0  0  0
  2  3  1  0  0  0
  2 25  1  0  0  0
  2 86  1  0  0  0
  2 87  1  0  0  0
  3  4  1  0  0  0
  3 88  1  0  0  0
  3 89  1  0  0  0
  4  5  1  0  0  0
  4 90  1  0  0  0
  4 91  1  0  0  0
  5  6  1  0  0  0
  5 26  1  0  0  0
  5 92  1  0  0  0
  6 25  1  0  0  0
  6 93  1  0  0  0
  6 94  1  0  0  0
  7  8  2  0  0  0
  7 26  1  0  0  0
  7 29  1  0  0  0
  8  9  1  0  0  0
  8 22  1  0  0  0
  9 10  1  0  0  0
  9 27  2  0  0  0
 10 11  2  0  0  0
 10 15  1  0  0  0
 11 12  1  0  0  0
 11 95  1  0  0  0
 12 13  2  0  0  0
 12 96  1  0  0  0
 13 14  1  0  0  0
 13 31  1  0  0  0
 14 15  2  0  0  0
 14 97  1  0  0  0
 15 98  1  0  0  0
 16 17  2  0  0  0
 16 21  1  0  0  0
 16 31  1  0  0  0
 17 18  1  0  0  0
 17 99  1  0  0  0
 18 19  2  0  0  0
 18100  1  0  0  0
 19 20  1  0  0  0
 19 24  1  0  0  0
 20 21  2  0  0  0
 20101  1  0  0  0
 21 23  1  0  0  0
 22 28  1  0  0  0
 22 32  2  0  0  0
 26 27  1  0  0  0
 28102  1  0  0  0
 28103  1  0  0  0
 29104  1  0  0  0
 29105  1  0  0  0
 33 34  1  0  0  0
 33 66  1  0  0  0
 33 70  2  0  0  0
 34 36  1  0  0  0
 34 59  1  0  0  0
 34106  1  0  0  0
 35 44  2  0  0  0
 35 45  1  0  0  0
 35 68  1  0  0  0
 36 56  1  0  0  0
 36107  1  0  0  0
 37 39  1  0  0  0
 37 47  1  0  0  0
 37 66  1  0  0  0
 37108  1  0  0  0
 38 43  2  0  0  0
 38 46  1  0  0  0
 38 47  1  0  0  0
 39 64  1  0  0  0
 39 67  2  0  0  0
 40 52  1  0  0  0
 40 53  2  0  0  0
 40 58  1  0  0  0
 41109  1  0  0  0
 41110  1  0  0  0
 41111  1  0  0  0
 41 48  1  0  0  0
 42 43  1  0  0  0
 42 66  1  0  0  0
 42112  1  0  0  0
 42113  1  0  0  0
 43 44  1  0  0  0
 44114  1  0  0  0
 45 46  2  0  0  0
 45115  1  0  0  0
 46116  1  0  0  0
 47117  1  0  0  0
 47118  1  0  0  0
 48 56  1  0  0  0
 48 65  1  0  0  0
 48119  1  0  0  0
 49 50  1  0  0  0
 49 53  1  0  0  0
 49 64  1  0  0  0
 49120  1  0  0  0
 50 51  1  0  0  0
 50121  1  0  0  0
 50122  1  0  0  0
 51 52  1  0  0  0
 51123  1  0  0  0
 51124  1  0  0  0
 52125  1  0  0  0
 52126  1  0  0  0
 53 54  1  0  0  0
 54 55  2  0  0  0
 54127  1  0  0  0
 55 57  1  0  0  0
 55128  1  0  0  0
 56 69  2  0  0  0
 57 58  2  0  0  0
 57129  1  0  0  0
 58130  1  0  0  0
 59 60  1  0  0  0
 59 61  1  0  0  0
 59 62  1  0  0  0
 60131  1  0  0  0
 60132  1  0  0  0
 60133  1  0  0  0
 61134  1  0  0  0
 61135  1  0  0  0
 61136  1  0  0  0
 62137  1  0  0  0
 62138  1  0  0  0
 62139  1  0  0  0
 63 65  1  0  0  0
 63140  1  0  0  0
 63141  1  0  0  0
 63142  1  0  0  0
 64143  1  0  0  0
 65144  1  0  0  0
 68 81  1  0  0  0
 71 73  2  0  0  0
 71 76  1  0  0  0
 71145  1  0  0  0
 72 75  1  0  0  0
 72 76  2  0  0  0
 72146  1  0  0  0
 73 74  1  0  0  0
 73 77  1  0  0  0
 74 75  2  0  0  0
 74 78  1  0  0  0
 75 82  1  0  0  0
 76 85  1  0  0  0
 77 83  1  0  0  0
 77 84  2  0  0  0
 78147  1  0  0  0
 78148  1  0  0  0
 78149  1  0  0  0
 79 80  1  0  0  0
 79 81  1  0  0  0
 79150  1  0  0  0
 79151  1  0  0  0
 80 83  1  0  0  0
 80152  1  0  0  0
 80153  1  0  0  0
 81154  1  0  0  0
 81155  1  0  0  0
 82156  1  0  0  0
 83157  1  0  0  0
M  ISO  4   1 100  68 101  81 101  82 100
M  END
> <chiral flag>
0

> <version>
0

> <s_m_source_file>
/data/baiqing/PycharmProjects/Reinvent-master-3.2/result/LINK_invent/BTK/process_docking_weight1_custom_product_contain_oxygen_bond_distance_aromatic_linkinvent_7_9_3/rearranged_h_0050.sdf

> <i_m_source_file_index>
1

> <r_mmod_Potential_Energy-OPLS-2005>
-89.7074203491211

> <r_mmod_Stretch_Energy-OPLS-2005>
47.0000648498535

> <r_mmod_Bend_Energy-OPLS-2005>
100.890739440918

> <r_mmod_Torsional_Energy-OPLS-2005>
251.864074707031

> <r_mmod_Improper_Torsional_Energy-OPLS-2005>
4.1743745803833

> <r_mmod_Van_der_Waal_Energy-OPLS-2005>
160.852066040039

> <r_mmod_Electrostatic_Energy-OPLS-2005>
-446.67626953125

> <r_mmod_Solvation_Energy-OPLS-2005>
-223.385070800781

> <b_mmod_Minimization_Converged-OPLS-2005>
0

> <r_mmod_RMS_Derivative-OPLS-2005>
5.47445106506348

$$$$
1
                    3D
 Structure written by MMmdl.
167176  0  0  1  0            999 V2000
  -30.6405  -14.6034   20.5233 C   0  0  0  0  0  0
  -30.4243  -12.3734   19.4428 C   0  0  0  0  0  0
  -29.4993  -12.5131   18.2142 C   0  0  0  0  0  0
  -28.0183  -12.3636   18.6227 C   0  0  0  0  0  0
  -27.6491  -13.2192   19.8644 C   0  0  2  0  0  0
  -28.6945  -13.0628   20.9903 C   0  0  0  0  0  0
  -25.2526  -13.8186   20.5676 C   0  0  0  0  0  0
  -24.1811  -13.0438   20.9213 C   0  0  0  0  0  0
  -24.6398  -11.6922   20.8756 C   0  0  0  0  0  0
  -23.9076  -10.4301   21.0412 C   0  0  0  0  0  0
  -24.3634   -9.4217   21.9189 C   0  0  0  0  0  0
  -23.6299   -8.2261   22.0765 C   0  0  0  0  0  0
  -22.4280   -8.0293   21.3556 C   0  0  0  0  0  0
  -21.9922   -9.0273   20.4667 C   0  0  0  0  0  0
  -22.7254  -10.2143   20.3062 C   0  0  0  0  0  0
  -21.6862   -6.0744   22.5284 C   0  0  0  0  0  0
  -21.4032   -6.5653   23.8219 C   0  0  0  0  0  0
  -21.3656   -5.6798   24.9179 C   0  0  0  0  0  0
  -21.6036   -4.3062   24.7227 C   0  0  0  0  0  0
  -21.8820   -3.8158   23.4359 C   0  0  0  0  0  0
  -21.9203   -4.6978   22.3406 C   0  0  0  0  0  0
  -22.7825  -13.5227   21.1843 C   0  0  0  0  0  0
  -22.1661   -4.2160   21.0985 F   0  0  0  0  0  0
  -21.5624   -3.4545   25.7743 F   0  0  0  0  0  0
  -30.0046  -13.3972   20.4184 N   0  0  0  0  0  0
  -26.2964  -12.9369   20.3334 N   0  0  0  0  0  0
  -25.9326  -11.6524   20.5786 N   0  0  0  0  0  0
  -22.0480  -12.8208   22.0410 N   0  0  0  0  0  0
  -25.4196  -15.1903   20.4020 N   0  0  0  0  0  0
  -31.8122  -14.7406   20.1577 O   0  0  0  0  0  0
  -21.6651   -6.8887   21.4244 O   0  0  0  0  0  0
  -22.3501  -14.5523   20.6680 O   0  0  0  0  0  0
  -24.6252  -31.8616   23.2052 C   0  0  0  0  0  0
  -25.9110  -32.4778   23.8379 C   0  0  1  0  0  0
  -27.2189  -27.3139   20.1351 C   0  0  0  0  0  0
  -25.5937  -33.8583   24.2311 N   0  0  0  0  0  0
  -23.4191  -30.4873   21.5444 C   0  0  2  0  0  0
  -24.8676  -28.9436   20.1100 C   0  0  0  0  0  0
  -22.7457  -29.4652   22.4916 C   0  0  0  0  0  0
  -18.0287  -28.1392   22.8500 C   0  0  0  0  0  0
  -24.1493  -36.7280   23.2638 C   0  0  0  0  0  0
  -25.9608  -30.7915   21.3800 C   0  0  0  0  0  0
  -26.0348  -29.4205   20.7185 C   0  0  0  0  0  0
  -27.2129  -28.6181   20.7199 C   0  0  0  0  0  0
  -26.0273  -26.8884   19.5042 C   0  0  0  0  0  0
  -24.8672  -27.6841   19.4917 C   0  0  0  0  0  0
  -23.6362  -29.8244   20.1585 C   0  0  0  0  0  0
  -25.4117  -36.3082   24.0334 C   0  0  1  0  0  0
  -20.5889  -28.3714   23.1271 C   0  0  2  0  0  0
  -20.6788  -26.9433   22.5407 C   0  0  0  0  0  0
  -19.5753  -26.6396   21.5219 C   0  0  0  0  0  0
  -18.1935  -26.7938   22.1632 C   0  0  0  0  0  0
  -19.1542  -28.8866   23.2891 C   0  0  0  0  0  0
  -18.9463  -30.1464   23.8916 C   0  0  0  0  0  0
  -17.6462  -30.6593   24.0570 C   0  0  0  0  0  0
  -25.9050  -34.9451   23.5117 C   0  0  0  0  0  0
  -16.5353  -29.9089   23.6334 C   0  0  0  0  0  0
  -16.7272  -28.6503   23.0370 C   0  0  0  0  0  0
  -26.4509  -31.6586   25.0746 C   0  0  0  0  0  0
  -25.3741  -31.3717   26.1465 C   0  0  0  0  0  0
  -27.0371  -30.3007   24.6236 C   0  0  0  0  0  0
  -27.6081  -32.4324   25.7500 C   0  0  0  0  0  0
  -27.5586  -37.1796   24.8457 C   0  0  0  0  0  0
  -21.4176  -29.3068   22.3650 N   0  0  0  0  0  0
  -26.4294  -37.3777   23.9407 N   0  0  0  0  0  0
  -24.6861  -31.0636   22.0993 N   0  0  0  0  0  0
  -23.4183  -28.8185   23.2992 O   0  0  0  0  0  0
  -28.3442  -26.4772   20.2094 O   0  0  0  0  0  0
  -26.5611  -34.8911   22.4679 O   0  0  0  0  0  0
  -23.5419  -32.1418   23.7380 O   0  0  0  0  0  0
  -29.3294  -18.1700   20.9010 C   0  0  0  0  0  0
  -31.4550  -17.3519   21.7254 C   0  0  0  0  0  0
  -29.6298  -19.5182   21.3093 C   0  0  0  0  0  0
  -31.7948  -18.6524   22.1604 C   0  0  0  0  0  0
  -30.8699  -19.7307   21.9928 C   0  0  0  0  0  0
  -30.2193  -17.0655   21.1160 C   0  0  0  0  0  0
  -29.4783  -22.7312   19.7742 C   0  0  0  0  0  0
  -29.8875  -21.9731   18.7401 C   0  0  0  0  0  0
  -29.5915  -24.2764   19.8514 C   0  0  0  0  0  0
  -27.3644  -24.2205   21.0304 C   0  0  0  0  0  0
  -28.0776  -23.0724   21.8375 C   0  0  0  0  0  0
  -28.2268  -25.0113   19.9942 C   0  0  1  0  0  0
  -31.1968  -21.0935   22.5999 C   0  0  0  0  0  0
  -28.5462  -20.6528   21.1011 C   0  0  0  0  0  0
  -33.1544  -18.8374   22.8480 C   0  0  0  0  0  0
  -29.8514  -15.6850   20.8219 N   0  0  0  0  0  0
  -28.9516  -22.1258   21.0576 N   0  3  1  0  0  0
  -33.9283  -17.7570   22.7365 F   0  0  0  0  0  0
  -33.8249  -19.8548   22.3063 F   0  0  0  0  0  0
  -32.9802  -19.0694   24.1493 F   0  0  0  0  0  0
  -31.4691  -12.4829   19.1471 H   0  0  0  0  0  0
  -30.3405  -11.3762   19.8775 H   0  0  0  0  0  0
  -29.7539  -11.7686   17.4593 H   0  0  0  0  0  0
  -29.6571  -13.4861   17.7460 H   0  0  0  0  0  0
  -27.8390  -11.3081   18.8312 H   0  0  0  0  0  0
  -27.3681  -12.6213   17.7847 H   0  0  0  0  0  0
  -27.6693  -14.2580   19.5361 H   0  0  0  0  0  0
  -28.7013  -12.0390   21.3669 H   0  0  0  0  0  0
  -28.4533  -13.6948   21.8465 H   0  0  0  0  0  0
  -25.2787   -9.5692   22.4750 H   0  0  0  0  0  0
  -24.0021   -7.4650   22.7483 H   0  0  0  0  0  0
  -21.0860   -8.8805   19.8961 H   0  0  0  0  0  0
  -22.3735  -10.9689   19.6160 H   0  0  0  0  0  0
  -21.2032   -7.6160   23.9731 H   0  0  0  0  0  0
  -21.1456   -6.0529   25.9078 H   0  0  0  0  0  0
  -22.0598   -2.7626   23.2863 H   0  0  0  0  0  0
  -22.4105  -11.9866   22.4771 H   0  0  0  0  0  0
  -21.1103  -13.1231   22.2631 H   0  0  0  0  0  0
  -24.6396  -15.8343   20.4862 H   0  0  0  0  0  0
  -26.2467  -15.6273   20.0173 H   0  0  0  0  0  0
  -26.7180  -32.5467   23.1130 H   0  0  0  0  0  0
  -25.0095  -33.9743   25.0464 H   0  0  0  0  0  0
  -22.7136  -31.3086   21.4007 H   0  0  0  0  0  0
  -23.3769  -35.9598   23.3289 H   0  0  0  0  0  0
  -24.3587  -36.8911   22.2054 H   0  0  0  0  0  0
  -23.7236  -37.6473   23.6666 H   0  0  0  0  0  0
  -26.1031  -31.5635   20.6225 H   0  0  0  0  0  0
  -26.8349  -30.8317   22.0179 H   0  0  0  0  0  0
  -28.1054  -28.9774   21.2133 H   0  0  0  0  0  0
  -25.9529  -25.9239   19.0279 H   0  0  0  0  0  0
  -23.9717  -27.3113   19.0145 H   0  0  0  0  0  0
  -23.7558  -30.6023   19.4029 H   0  0  0  0  0  0
  -22.7568  -29.2537   19.8540 H   0  0  0  0  0  0
  -25.1304  -36.1932   25.0829 H   0  0  0  0  0  0
  -21.0007  -28.3304   24.1378 H   0  0  0  0  0  0
  -20.5710  -26.2320   23.3614 H   0  0  0  0  0  0
  -21.6652  -26.7475   22.1179 H   0  0  0  0  0  0
  -19.6914  -25.6306   21.1252 H   0  0  0  0  0  0
  -19.6680  -27.3206   20.6750 H   0  0  0  0  0  0
  -17.4204  -26.6707   21.4032 H   0  0  0  0  0  0
  -18.0319  -26.0071   22.9016 H   0  0  0  0  0  0
  -19.7933  -30.7287   24.2291 H   0  0  0  0  0  0
  -17.5008  -31.6271   24.5172 H   0  0  0  0  0  0
  -15.5356  -30.3000   23.7645 H   0  0  0  0  0  0
  -15.8671  -28.0815   22.7102 H   0  0  0  0  0  0
  -24.5884  -30.7121   25.7756 H   0  0  0  0  0  0
  -24.8976  -32.2885   26.4947 H   0  0  0  0  0  0
  -25.8047  -30.8815   27.0204 H   0  0  0  0  0  0
  -26.2966  -29.6718   24.1273 H   0  0  0  0  0  0
  -27.4062  -29.7305   25.4775 H   0  0  0  0  0  0
  -27.8840  -30.4276   23.9487 H   0  0  0  0  0  0
  -27.2702  -33.3610   26.2106 H   0  0  0  0  0  0
  -28.3860  -32.6904   25.0302 H   0  0  0  0  0  0
  -28.0785  -31.8434   26.5381 H   0  0  0  0  0  0
  -28.2582  -38.0116   24.7538 H   0  0  0  0  0  0
  -28.1115  -36.2653   24.6246 H   0  0  0  0  0  0
  -27.2305  -37.1385   25.8858 H   0  0  0  0  0  0
  -20.9341  -29.8768   21.6848 H   0  0  0  0  0  0
  -26.0176  -38.2849   24.1423 H   0  0  0  0  0  0
  -28.3718  -17.9766   20.4384 H   0  0  0  0  0  0
  -32.1487  -16.5471   21.9130 H   0  0  0  0  0  0
  -30.3044  -22.4271   17.8534 H   0  0  0  0  0  0
  -29.8355  -20.8936   18.7505 H   0  0  0  0  0  0
  -30.1001  -24.6315   18.9557 H   0  0  0  0  0  0
  -30.2474  -24.5335   20.6833 H   0  0  0  0  0  0
  -26.9241  -24.9190   21.7425 H   0  0  0  0  0  0
  -26.5113  -23.7876   20.5067 H   0  0  0  0  0  0
  -27.3469  -22.5333   22.4404 H   0  0  0  0  0  0
  -28.7332  -23.5470   22.5679 H   0  0  0  0  0  0
  -27.7690  -24.8700   19.0150 H   0  0  0  0  0  0
  -31.4910  -21.8056   21.8280 H   0  0  0  0  0  0
  -32.0054  -21.0678   23.3257 H   0  0  0  0  0  0
  -30.3408  -21.4777   23.1529 H   0  0  0  0  0  0
  -27.8548  -20.5035   21.9303 H   0  0  0  0  0  0
  -27.9537  -20.4324   20.2125 H   0  0  0  0  0  0
  -28.8683  -15.4733   20.8879 H   0  0  0  0  0  0
  -29.7501  -22.0739   21.6737 H   0  0  0  0  0  0
  1 25  1  0  0  0
  1 30  2  0  0  0
  1 86  1  0  0  0
  2  3  1  0  0  0
  2 25  1  0  0  0
  2 91  1  0  0  0
  2 92  1  0  0  0
  3  4  1  0  0  0
  3 93  1  0  0  0
  3 94  1  0  0  0
  4  5  1  0  0  0
  4 95  1  0  0  0
  4 96  1  0  0  0
  5  6  1  0  0  0
  5 26  1  0  0  0
  5 97  1  0  0  0
  6 25  1  0  0  0
  6 98  1  0  0  0
  6 99  1  0  0  0
  7  8  2  0  0  0
  7 26  1  0  0  0
  7 29  1  0  0  0
  8  9  1  0  0  0
  8 22  1  0  0  0
  9 10  1  0  0  0
  9 27  2  0  0  0
 10 11  2  0  0  0
 10 15  1  0  0  0
 11 12  1  0  0  0
 11100  1  0  0  0
 12 13  2  0  0  0
 12101  1  0  0  0
 13 14  1  0  0  0
 13 31  1  0  0  0
 14 15  2  0  0  0
 14102  1  0  0  0
 15103  1  0  0  0
 16 17  2  0  0  0
 16 21  1  0  0  0
 16 31  1  0  0  0
 17 18  1  0  0  0
 17104  1  0  0  0
 18 19  2  0  0  0
 18105  1  0  0  0
 19 20  1  0  0  0
 19 24  1  0  0  0
 20 21  2  0  0  0
 20106  1  0  0  0
 21 23  1  0  0  0
 22 28  1  0  0  0
 22 32  2  0  0  0
 26 27  1  0  0  0
 28107  1  0  0  0
 28108  1  0  0  0
 29109  1  0  0  0
 29110  1  0  0  0
 33 34  1  0  0  0
 33 66  1  0  0  0
 33 70  2  0  0  0
 34 36  1  0  0  0
 34 59  1  0  0  0
 34111  1  0  0  0
 35 44  2  0  0  0
 35 45  1  0  0  0
 35 68  1  0  0  0
 36 56  1  0  0  0
 36112  1  0  0  0
 37 39  1  0  0  0
 37 47  1  0  0  0
 37 66  1  0  0  0
 37113  1  0  0  0
 38 43  2  0  0  0
 38 46  1  0  0  0
 38 47  1  0  0  0
 39 64  1  0  0  0
 39 67  2  0  0  0
 40 52  1  0  0  0
 40 53  2  0  0  0
 40 58  1  0  0  0
 41114  1  0  0  0
 41115  1  0  0  0
 41116  1  0  0  0
 41 48  1  0  0  0
 42 43  1  0  0  0
 42 66  1  0  0  0
 42117  1  0  0  0
 42118  1  0  0  0
 43 44  1  0  0  0
 44119  1  0  0  0
 45 46  2  0  0  0
 45120  1  0  0  0
 46121  1  0  0  0
 47122  1  0  0  0
 47123  1  0  0  0
 48 56  1  0  0  0
 48 65  1  0  0  0
 48124  1  0  0  0
 49 50  1  0  0  0
 49 53  1  0  0  0
 49 64  1  0  0  0
 49125  1  0  0  0
 50 51  1  0  0  0
 50126  1  0  0  0
 50127  1  0  0  0
 51 52  1  0  0  0
 51128  1  0  0  0
 51129  1  0  0  0
 52130  1  0  0  0
 52131  1  0  0  0
 53 54  1  0  0  0
 54 55  2  0  0  0
 54132  1  0  0  0
 55 57  1  0  0  0
 55133  1  0  0  0
 56 69  2  0  0  0
 57 58  2  0  0  0
 57134  1  0  0  0
 58135  1  0  0  0
 59 60  1  0  0  0
 59 61  1  0  0  0
 59 62  1  0  0  0
 60136  1  0  0  0
 60137  1  0  0  0
 60138  1  0  0  0
 61139  1  0  0  0
 61140  1  0  0  0
 61141  1  0  0  0
 62142  1  0  0  0
 62143  1  0  0  0
 62144  1  0  0  0
 63 65  1  0  0  0
 63145  1  0  0  0
 63146  1  0  0  0
 63147  1  0  0  0
 64148  1  0  0  0
 65149  1  0  0  0
 68 82  1  0  0  0
 71 73  2  0  0  0
 71 76  1  0  0  0
 71150  1  0  0  0
 72 74  1  0  0  0
 72 76  2  0  0  0
 72151  1  0  0  0
 73 75  1  0  0  0
 73 84  1  0  0  0
 74 75  2  0  0  0
 74 85  1  0  0  0
 75 83  1  0  0  0
 76 86  1  0  0  0
 77 78  2  0  0  0
 77 79  1  0  0  0
 77 87  1  0  0  0
 78152  1  0  0  0
 78153  1  0  0  0
 79 82  1  0  0  0
 79154  1  0  0  0
 79155  1  0  0  0
 80 81  1  0  0  0
 80 82  1  0  0  0
 80156  1  0  0  0
 80157  1  0  0  0
 81 87  1  0  0  0
 81158  1  0  0  0
 81159  1  0  0  0
 82160  1  0  0  0
 83161  1  0  0  0
 83162  1  0  0  0
 83163  1  0  0  0
 84164  1  0  0  0
 84165  1  0  0  0
 84 87  1  0  0  0
 85 88  1  0  0  0
 85 89  1  0  0  0
 85 90  1  0  0  0
 86166  1  0  0  0
 87167  1  0  0  0
M  CHG  1  87   1
M  ISO  4   1 100  68 101  82 101  86 100
M  END
> <chiral flag>
0

> <version>
0

> <s_m_source_file>
/data/baiqing/PycharmProjects/Reinvent-master-3.2/result/LINK_invent/BTK/process_docking_weight1_custom_product_contain_oxygen_bond_distance_aromatic_linkinvent_7_9_3/rearranged_h_0050.sdf

> <i_m_source_file_index>
2

> <r_mmod_Potential_Energy-OPLS-2005>
43.2090339660645

> <r_mmod_Stretch_Energy-OPLS-2005>
85.1307601928711

> <r_mmod_Bend_Energy-OPLS-2005>
155.973236083984

> <r_mmod_Torsional_Energy-OPLS-2005>
256.098968505859

> <r_mmod_Improper_Torsional_Energy-OPLS-2005>
6.29148149490356

> <r_mmod_Van_der_Waal_Energy-OPLS-2005>
169.363510131836

> <r_mmod_Electrostatic_Energy-OPLS-2005>
-214.010894775391

> <r_mmod_Solvation_Energy-OPLS-2005>
-460.353607177734

> <b_mmod_Minimization_Converged-OPLS-2005>
0

> <r_mmod_RMS_Derivative-OPLS-2005>
2.57556772232056

$$$$
2
                    3D
 Structure written by MMmdl.
165174  0  0  1  0            999 V2000
  -30.6413  -14.5814   20.5264 C   0  0  0  0  0  0
  -30.4371  -12.3607   19.4428 C   0  0  0  0  0  0
  -29.5055  -12.5118   18.2193 C   0  0  0  0  0  0
  -28.0271  -12.3584   18.6301 C   0  0  0  0  0  0
  -27.6601  -13.2117   19.8737 C   0  0  2  0  0  0
  -28.7040  -13.0260   20.9989 C   0  0  0  0  0  0
  -25.2580  -13.8158   20.5677 C   0  0  0  0  0  0
  -24.1834  -13.0432   20.9167 C   0  0  0  0  0  0
  -24.6398  -11.6903   20.8728 C   0  0  0  0  0  0
  -23.9062  -10.4292   21.0404 C   0  0  0  0  0  0
  -24.3615   -9.4204   21.9181 C   0  0  0  0  0  0
  -23.6293   -8.2238   22.0751 C   0  0  0  0  0  0
  -22.4274   -8.0276   21.3542 C   0  0  0  0  0  0
  -21.9908   -9.0252   20.4646 C   0  0  0  0  0  0
  -22.7237  -10.2131   20.3052 C   0  0  0  0  0  0
  -21.6849   -6.0732   22.5282 C   0  0  0  0  0  0
  -21.4012   -6.5637   23.8215 C   0  0  0  0  0  0
  -21.3660   -5.6790   24.9176 C   0  0  0  0  0  0
  -21.6044   -4.3052   24.7226 C   0  0  0  0  0  0
  -21.8818   -3.8145   23.4345 C   0  0  0  0  0  0
  -21.9193   -4.6962   22.3401 C   0  0  0  0  0  0
  -22.7856  -13.5232   21.1835 C   0  0  0  0  0  0
  -22.1660   -4.2145   21.0980 F   0  0  0  0  0  0
  -21.5632   -3.4536   25.7738 F   0  0  0  0  0  0
  -30.0279  -13.3616   20.4460 N   0  0  0  0  0  0
  -26.3023  -12.9337   20.3364 N   0  0  0  0  0  0
  -25.9334  -11.6493   20.5773 N   0  0  0  0  0  0
  -22.0495  -12.8232   22.0397 N   0  0  0  0  0  0
  -25.4291  -15.1876   20.4099 N   0  0  0  0  0  0
  -31.7782  -14.7695   20.0835 O   0  0  0  0  0  0
  -21.6637   -6.8874   21.4242 O   0  0  0  0  0  0
  -22.3541  -14.5540   20.6690 O   0  0  0  0  0  0
  -24.6218  -31.8628   23.2051 C   0  0  0  0  0  0
  -25.9087  -32.4789   23.8365 C   0  0  1  0  0  0
  -27.2317  -27.3589   20.1016 C   0  0  0  0  0  0
  -25.5920  -33.8591   24.2295 N   0  0  0  0  0  0
  -23.4128  -30.4859   21.5477 C   0  0  2  0  0  0
  -24.8582  -28.9444   20.1121 C   0  0  0  0  0  0
  -22.7449  -29.4634   22.4963 C   0  0  0  0  0  0
  -18.0280  -28.1380   22.8491 C   0  0  0  0  0  0
  -24.1491  -36.7303   23.2639 C   0  0  0  0  0  0
  -25.9496  -30.8039   21.3706 C   0  0  0  0  0  0
  -26.0234  -29.4339   20.7136 C   0  0  0  0  0  0
  -27.2091  -28.6497   20.7037 C   0  0  0  0  0  0
  -26.0387  -26.9066   19.4892 C   0  0  0  0  0  0
  -24.8648  -27.6833   19.4960 C   0  0  0  0  0  0
  -23.6239  -29.8192   20.1627 C   0  0  0  0  0  0
  -25.4113  -36.3092   24.0332 C   0  0  1  0  0  0
  -20.5875  -28.3676   23.1304 C   0  0  2  0  0  0
  -20.6767  -26.9407   22.5416 C   0  0  0  0  0  0
  -19.5747  -26.6383   21.5215 C   0  0  0  0  0  0
  -18.1926  -26.7926   22.1625 C   0  0  0  0  0  0
  -19.1531  -28.8846   23.2891 C   0  0  0  0  0  0
  -18.9453  -30.1449   23.8902 C   0  0  0  0  0  0
  -17.6454  -30.6584   24.0562 C   0  0  0  0  0  0
  -25.9047  -34.9458   23.5112 C   0  0  0  0  0  0
  -16.5343  -29.9083   23.6332 C   0  0  0  0  0  0
  -16.7268  -28.6500   23.0354 C   0  0  0  0  0  0
  -26.4484  -31.6591   25.0726 C   0  0  0  0  0  0
  -25.3731  -31.3720   26.1460 C   0  0  0  0  0  0
  -27.0314  -30.3023   24.6151 C   0  0  0  0  0  0
  -27.6057  -32.4317   25.7487 C   0  0  0  0  0  0
  -27.5583  -37.1805   24.8463 C   0  0  0  0  0  0
  -21.4172  -29.3036   22.3708 N   0  0  0  0  0  0
  -26.4292  -37.3783   23.9407 N   0  0  0  0  0  0
  -24.6800  -31.0669   22.0984 N   0  0  0  0  0  0
  -23.4197  -28.8180   23.3029 O   0  0  0  0  0  0
  -28.3911  -26.5779   20.1498 O   0  0  0  0  0  0
  -26.5613  -34.8918   22.4675 O   0  0  0  0  0  0
  -23.5395  -32.1409   23.7407 O   0  0  0  0  0  0
  -30.5319  -19.1256   19.6731 C   0  0  0  0  0  0
  -30.7372  -17.7409   19.9449 C   0  0  0  0  0  0
  -28.5653  -19.1229   21.0713 C   0  0  0  0  0  0
  -29.4290  -19.8451   20.2106 C   0  0  0  0  0  0
  -29.8361  -17.0132   20.7666 C   0  0  0  0  0  0
  -28.7640  -17.7417   21.3381 C   0  0  0  0  0  0
  -30.4712  -23.4366   19.9545 C   0  0  0  0  0  0
  -33.7865  -21.8891   20.5488 C   0  0  0  0  0  0
  -31.7995  -23.2014   19.9858 C   0  0  0  0  0  0
  -32.4536  -22.0434   20.5692 C   0  0  0  0  0  0
  -29.8789  -24.7371   19.3499 C   0  0  0  0  0  0
  -27.5931  -24.1525   20.4285 C   0  0  0  0  0  0
  -28.4064  -23.1720   21.3085 C   0  0  0  0  0  0
  -28.4171  -25.2027   19.6378 C   0  0  1  0  0  0
  -29.0768  -21.2939   19.7331 C   0  0  0  0  0  0
  -29.8746  -15.5857   21.0280 N   0  0  0  0  0  0
  -29.4971  -22.4696   20.5810 N   0  3  2  0  0  0
  -27.8801  -17.0875   22.1296 F   0  0  0  0  0  0
  -31.4796  -12.4792   19.1426 H   0  0  0  0  0  0
  -30.3613  -11.3560   19.8610 H   0  0  0  0  0  0
  -29.7600  -11.7723   17.4588 H   0  0  0  0  0  0
  -29.6561  -13.4894   17.7580 H   0  0  0  0  0  0
  -27.8534  -11.3030   18.8427 H   0  0  0  0  0  0
  -27.3738  -12.6105   17.7938 H   0  0  0  0  0  0
  -27.6917  -14.2545   19.5569 H   0  0  0  0  0  0
  -28.7035  -11.9938   21.3524 H   0  0  0  0  0  0
  -28.4514  -13.6308   21.8709 H   0  0  0  0  0  0
  -25.2760   -9.5676   22.4757 H   0  0  0  0  0  0
  -23.9997   -7.4629   22.7474 H   0  0  0  0  0  0
  -21.0829   -8.8773   19.8962 H   0  0  0  0  0  0
  -22.3696  -10.9664   19.6158 H   0  0  0  0  0  0
  -21.2000   -7.6147   23.9712 H   0  0  0  0  0  0
  -21.1488   -6.0522   25.9078 H   0  0  0  0  0  0
  -22.0599   -2.7607   23.2844 H   0  0  0  0  0  0
  -22.4115  -11.9893   22.4779 H   0  0  0  0  0  0
  -21.1120  -13.1269   22.2615 H   0  0  0  0  0  0
  -24.6688  -15.8454   20.5403 H   0  0  0  0  0  0
  -26.2968  -15.6345   20.1433 H   0  0  0  0  0  0
  -26.7155  -32.5470   23.1121 H   0  0  0  0  0  0
  -25.0069  -33.9740   25.0440 H   0  0  0  0  0  0
  -22.7044  -31.3048   21.4066 H   0  0  0  0  0  0
  -23.3748  -35.9642   23.3301 H   0  0  0  0  0  0
  -24.3587  -36.8919   22.2054 H   0  0  0  0  0  0
  -23.7248  -37.6509   23.6654 H   0  0  0  0  0  0
  -26.0755  -31.5686   20.6023 H   0  0  0  0  0  0
  -26.8324  -30.8529   21.9965 H   0  0  0  0  0  0
  -28.1049  -29.0230   21.1801 H   0  0  0  0  0  0
  -25.9755  -25.9415   19.0110 H   0  0  0  0  0  0
  -23.9693  -27.2995   19.0274 H   0  0  0  0  0  0
  -23.7371  -30.5940   19.4036 H   0  0  0  0  0  0
  -22.7452  -29.2442   19.8650 H   0  0  0  0  0  0
  -25.1294  -36.1946   25.0827 H   0  0  0  0  0  0
  -20.9965  -28.3238   24.1424 H   0  0  0  0  0  0
  -20.5672  -26.2285   23.3608 H   0  0  0  0  0  0
  -21.6633  -26.7445   22.1204 H   0  0  0  0  0  0
  -19.6903  -25.6295   21.1244 H   0  0  0  0  0  0
  -19.6685  -27.3196   20.6745 H   0  0  0  0  0  0
  -17.4200  -26.6680   21.4022 H   0  0  0  0  0  0
  -18.0320  -26.0064   22.9017 H   0  0  0  0  0  0
  -19.7926  -30.7263   24.2275 H   0  0  0  0  0  0
  -17.5007  -31.6266   24.5156 H   0  0  0  0  0  0
  -15.5342  -30.2981   23.7652 H   0  0  0  0  0  0
  -15.8669  -28.0816   22.7068 H   0  0  0  0  0  0
  -24.5903  -30.7075   25.7790 H   0  0  0  0  0  0
  -24.8924  -32.2882   26.4904 H   0  0  0  0  0  0
  -25.8065  -30.8885   27.0226 H   0  0  0  0  0  0
  -26.2871  -29.6787   24.1188 H   0  0  0  0  0  0
  -27.4033  -29.7268   25.4640 H   0  0  0  0  0  0
  -27.8735  -30.4314   23.9348 H   0  0  0  0  0  0
  -27.2679  -33.3613   26.2083 H   0  0  0  0  0  0
  -28.3857  -32.6886   25.0308 H   0  0  0  0  0  0
  -28.0740  -31.8432   26.5390 H   0  0  0  0  0  0
  -28.2597  -38.0106   24.7515 H   0  0  0  0  0  0
  -28.1080  -36.2638   24.6274 H   0  0  0  0  0  0
  -27.2306  -37.1439   25.8867 H   0  0  0  0  0  0
  -20.9342  -29.8759   21.6923 H   0  0  0  0  0  0
  -26.0177  -38.2863   24.1398 H   0  0  0  0  0  0
  -31.2132  -19.6227   18.9952 H   0  0  0  0  0  0
  -31.5729  -17.2410   19.4772 H   0  0  0  0  0  0
  -27.6991  -19.6089   21.4963 H   0  0  0  0  0  0
  -34.2537  -21.0188   20.9883 H   0  0  0  0  0  0
  -34.4366  -22.6252   20.0953 H   0  0  0  0  0  0
  -32.4347  -23.9546   19.5392 H   0  0  0  0  0  0
  -31.8756  -21.2641   21.0436 H   0  0  0  0  0  0
  -30.0084  -24.6578   18.2694 H   0  0  0  0  0  0
  -30.5482  -25.5473   19.6419 H   0  0  0  0  0  0
  -26.8480  -24.6514   21.0483 H   0  0  0  0  0  0
  -27.0171  -23.5641   19.7137 H   0  0  0  0  0  0
  -27.7435  -22.4415   21.7732 H   0  0  0  0  0  0
  -28.8574  -23.7303   22.1306 H   0  0  0  0  0  0
  -27.9677  -25.2615   18.6454 H   0  0  0  0  0  0
  -28.0005  -21.3395   19.5647 H   0  0  0  0  0  0
  -29.5068  -21.4211   18.7388 H   0  0  0  0  0  0
  -29.0454  -15.2531   21.4973 H   0  0  0  0  0  0
  -30.0036  -22.0163   21.3258 H   0  0  0  0  0  0
  1 25  1  0  0  0
  1 30  2  0  0  0
  1 86  1  0  0  0
  2  3  1  0  0  0
  2 25  1  0  0  0
  2 89  1  0  0  0
  2 90  1  0  0  0
  3  4  1  0  0  0
  3 91  1  0  0  0
  3 92  1  0  0  0
  4  5  1  0  0  0
  4 93  1  0  0  0
  4 94  1  0  0  0
  5  6  1  0  0  0
  5 26  1  0  0  0
  5 95  1  0  0  0
  6 25  1  0  0  0
  6 96  1  0  0  0
  6 97  1  0  0  0
  7  8  2  0  0  0
  7 26  1  0  0  0
  7 29  1  0  0  0
  8  9  1  0  0  0
  8 22  1  0  0  0
  9 10  1  0  0  0
  9 27  2  0  0  0
 10 11  2  0  0  0
 10 15  1  0  0  0
 11 12  1  0  0  0
 11 98  1  0  0  0
 12 13  2  0  0  0
 12 99  1  0  0  0
 13 14  1  0  0  0
 13 31  1  0  0  0
 14 15  2  0  0  0
 14100  1  0  0  0
 15101  1  0  0  0
 16 17  2  0  0  0
 16 21  1  0  0  0
 16 31  1  0  0  0
 17 18  1  0  0  0
 17102  1  0  0  0
 18 19  2  0  0  0
 18103  1  0  0  0
 19 20  1  0  0  0
 19 24  1  0  0  0
 20 21  2  0  0  0
 20104  1  0  0  0
 21 23  1  0  0  0
 22 28  1  0  0  0
 22 32  2  0  0  0
 26 27  1  0  0  0
 28105  1  0  0  0
 28106  1  0  0  0
 29107  1  0  0  0
 29108  1  0  0  0
 33 34  1  0  0  0
 33 66  1  0  0  0
 33 70  2  0  0  0
 34 36  1  0  0  0
 34 59  1  0  0  0
 34109  1  0  0  0
 35 44  2  0  0  0
 35 45  1  0  0  0
 35 68  1  0  0  0
 36 56  1  0  0  0
 36110  1  0  0  0
 37 39  1  0  0  0
 37 47  1  0  0  0
 37 66  1  0  0  0
 37111  1  0  0  0
 38 43  2  0  0  0
 38 46  1  0  0  0
 38 47  1  0  0  0
 39 64  1  0  0  0
 39 67  2  0  0  0
 40 52  1  0  0  0
 40 53  2  0  0  0
 40 58  1  0  0  0
 41112  1  0  0  0
 41113  1  0  0  0
 41114  1  0  0  0
 41 48  1  0  0  0
 42 43  1  0  0  0
 42 66  1  0  0  0
 42115  1  0  0  0
 42116  1  0  0  0
 43 44  1  0  0  0
 44117  1  0  0  0
 45 46  2  0  0  0
 45118  1  0  0  0
 46119  1  0  0  0
 47120  1  0  0  0
 47121  1  0  0  0
 48 56  1  0  0  0
 48 65  1  0  0  0
 48122  1  0  0  0
 49 50  1  0  0  0
 49 53  1  0  0  0
 49 64  1  0  0  0
 49123  1  0  0  0
 50 51  1  0  0  0
 50124  1  0  0  0
 50125  1  0  0  0
 51 52  1  0  0  0
 51126  1  0  0  0
 51127  1  0  0  0
 52128  1  0  0  0
 52129  1  0  0  0
 53 54  1  0  0  0
 54 55  2  0  0  0
 54130  1  0  0  0
 55 57  1  0  0  0
 55131  1  0  0  0
 56 69  2  0  0  0
 57 58  2  0  0  0
 57132  1  0  0  0
 58133  1  0  0  0
 59 60  1  0  0  0
 59 61  1  0  0  0
 59 62  1  0  0  0
 60134  1  0  0  0
 60135  1  0  0  0
 60136  1  0  0  0
 61137  1  0  0  0
 61138  1  0  0  0
 61139  1  0  0  0
 62140  1  0  0  0
 62141  1  0  0  0
 62142  1  0  0  0
 63 65  1  0  0  0
 63143  1  0  0  0
 63144  1  0  0  0
 63145  1  0  0  0
 64146  1  0  0  0
 65147  1  0  0  0
 68 84  1  0  0  0
 71 72  2  0  0  0
 71 74  1  0  0  0
 71148  1  0  0  0
 72 75  1  0  0  0
 72149  1  0  0  0
 73 74  2  0  0  0
 73 76  1  0  0  0
 73150  1  0  0  0
 74 85  1  0  0  0
 75 76  2  0  0  0
 75 86  1  0  0  0
 76 88  1  0  0  0
 77 79  2  0  0  0
 77 81  1  0  0  0
 77 87  1  0  0  0
 78 80  2  0  0  0
 78151  1  0  0  0
 78152  1  0  0  0
 79 80  1  0  0  0
 79153  1  0  0  0
 80154  1  0  0  0
 81 84  1  0  0  0
 81155  1  0  0  0
 81156  1  0  0  0
 82 83  1  0  0  0
 82 84  1  0  0  0
 82157  1  0  0  0
 82158  1  0  0  0
 83 87  1  0  0  0
 83159  1  0  0  0
 83160  1  0  0  0
 84161  1  0  0  0
 85162  1  0  0  0
 85163  1  0  0  0
 85 87  1  0  0  0
 86164  1  0  0  0
 87165  1  0  0  0
M  CHG  1  87   1
M  ISO  4   1 100  68 101  84 101  86 100
M  END
> <chiral flag>
0

> <version>
0

> <s_m_source_file>
/data/baiqing/PycharmProjects/Reinvent-master-3.2/result/LINK_invent/BTK/process_docking_weight1_custom_product_contain_oxygen_bond_distance_aromatic_linkinvent_7_9_3/rearranged_h_0050.sdf

> <i_m_source_file_index>
3

> <r_mmod_Potential_Energy-OPLS-2005>
-108.578971862793

> <r_mmod_Stretch_Energy-OPLS-2005>
62.0402488708496

> <r_mmod_Bend_Energy-OPLS-2005>
160.965728759766

> <r_mmod_Torsional_Energy-OPLS-2005>
241.969879150391

> <r_mmod_Improper_Torsional_Energy-OPLS-2005>
4.27861881256104

> <r_mmod_Van_der_Waal_Energy-OPLS-2005>
144.192138671875

> <r_mmod_Electrostatic_Energy-OPLS-2005>
-310.272491455078

> <r_mmod_Solvation_Energy-OPLS-2005>
-442.166839599609

> <b_mmod_Minimization_Converged-OPLS-2005>
0

> <r_mmod_RMS_Derivative-OPLS-2005>
0.874818027019501

$$$$
3
                    3D
 Structure written by MMmdl.
160169  0  0  1  0            999 V2000
  -30.5276  -14.8875   20.3813 C   0  0  0  0  0  0
  -30.4539  -12.5352   19.4955 C   0  0  0  0  0  0
  -29.5343  -12.5374   18.2503 C   0  0  0  0  0  0
  -28.0581  -12.3351   18.6506 C   0  0  0  0  0  0
  -27.6348  -13.2449   19.8349 C   0  0  2  0  0  0
  -28.6795  -13.2286   20.9682 C   0  0  0  0  0  0
  -25.2439  -13.8096   20.5791 C   0  0  0  0  0  0
  -24.1747  -13.0338   20.9226 C   0  0  0  0  0  0
  -24.6387  -11.6849   20.8718 C   0  0  0  0  0  0
  -23.9083  -10.4233   21.0378 C   0  0  0  0  0  0
  -24.3621   -9.4163   21.9172 C   0  0  0  0  0  0
  -23.6284   -8.2216   22.0746 C   0  0  0  0  0  0
  -22.4267   -8.0255   21.3526 C   0  0  0  0  0  0
  -21.9912   -9.0236   20.4633 C   0  0  0  0  0  0
  -22.7254  -10.2099   20.3030 C   0  0  0  0  0  0
  -21.6849   -6.0728   22.5275 C   0  0  0  0  0  0
  -21.4017   -6.5627   23.8207 C   0  0  0  0  0  0
  -21.3658   -5.6771   24.9172 C   0  0  0  0  0  0
  -21.6047   -4.3034   24.7216 C   0  0  0  0  0  0
  -21.8816   -3.8139   23.4327 C   0  0  0  0  0  0
  -21.9190   -4.6958   22.3394 C   0  0  0  0  0  0
  -22.7771  -13.5148   21.1870 C   0  0  0  0  0  0
  -22.1657   -4.2159   21.0962 F   0  0  0  0  0  0
  -21.5635   -3.4509   25.7720 F   0  0  0  0  0  0
  -29.9814  -13.6117   20.4011 N   0  0  0  0  0  0
  -26.2895  -12.9388   20.3211 N   0  0  0  0  0  0
  -25.9317  -11.6506   20.5657 N   0  0  0  0  0  0
  -22.0391  -12.8175   22.0425 N   0  0  0  0  0  0
  -25.4003  -15.1800   20.4473 N   0  0  0  0  0  0
  -31.7438  -14.9811   20.2019 O   0  0  0  0  0  0
  -21.6618   -6.8866   21.4236 O   0  0  0  0  0  0
  -22.3476  -14.5457   20.6691 O   0  0  0  0  0  0
  -24.6385  -31.8490   23.1944 C   0  0  0  0  0  0
  -25.9175  -32.4712   23.8319 C   0  0  1  0  0  0
  -27.2201  -27.1914   20.1330 C   0  0  0  0  0  0
  -25.5945  -33.8529   24.2217 N   0  0  0  0  0  0
  -23.4398  -30.4724   21.5384 C   0  0  2  0  0  0
  -24.8883  -28.9122   20.1112 C   0  0  0  0  0  0
  -22.7540  -29.4583   22.4877 C   0  0  0  0  0  0
  -18.0304  -28.1400   22.8484 C   0  0  0  0  0  0
  -24.1479  -36.7256   23.2643 C   0  0  0  0  0  0
  -25.9942  -30.7385   21.3890 C   0  0  0  0  0  0
  -26.0639  -29.3568   20.7275 C   0  0  0  0  0  0
  -27.2296  -28.5101   20.7268 C   0  0  0  0  0  0
  -26.0137  -26.8417   19.4796 C   0  0  0  0  0  0
  -24.8721  -27.6662   19.4732 C   0  0  0  0  0  0
  -23.6630  -29.8071   20.1557 C   0  0  0  0  0  0
  -25.4112  -36.3044   24.0318 C   0  0  1  0  0  0
  -20.5911  -28.3728   23.1260 C   0  0  2  0  0  0
  -20.6791  -26.9442   22.5409 C   0  0  0  0  0  0
  -19.5765  -26.6388   21.5220 C   0  0  0  0  0  0
  -18.1946  -26.7944   22.1624 C   0  0  0  0  0  0
  -19.1558  -28.8878   23.2870 C   0  0  0  0  0  0
  -18.9472  -30.1471   23.8901 C   0  0  0  0  0  0
  -17.6467  -30.6604   24.0559 C   0  0  0  0  0  0
  -25.9061  -34.9417   23.5066 C   0  0  0  0  0  0
  -16.5363  -29.9099   23.6332 C   0  0  0  0  0  0
  -16.7289  -28.6513   23.0370 C   0  0  0  0  0  0
  -26.4525  -31.6582   25.0749 C   0  0  0  0  0  0
  -25.3715  -31.3781   26.1451 C   0  0  0  0  0  0
  -27.0362  -30.2966   24.6311 C   0  0  0  0  0  0
  -27.6051  -32.4351   25.7533 C   0  0  0  0  0  0
  -27.5572  -37.1782   24.8464 C   0  0  0  0  0  0
  -21.4241  -29.3061   22.3632 N   0  0  0  0  0  0
  -26.4271  -37.3755   23.9421 N   0  0  0  0  0  0
  -24.7102  -31.0393   22.0953 N   0  0  0  0  0  0
  -23.4210  -28.8132   23.3006 O   0  0  0  0  0  0
  -28.2965  -26.2426   20.2100 O   0  0  0  0  0  0
  -26.5644  -34.8905   22.4640 O   0  0  0  0  0  0
  -23.5512  -32.1350   23.7190 O   0  0  0  0  0  0
  -28.3224  -23.5117   17.6595 C   0  0  0  0  0  0
  -28.4797  -19.6140   19.8082 C   0  0  0  0  0  0
  -30.9140  -18.0825   20.9133 C   0  0  0  0  0  0
  -30.3644  -20.5410   20.8076 C   0  0  0  0  0  0
  -28.1164  -24.6510   18.3359 C   0  0  0  0  0  0
  -28.6184  -18.2344   19.7854 C   0  0  0  0  0  0
  -31.0705  -19.4243   21.1953 C   0  0  0  0  0  0
  -29.2098  -20.7400   20.1244 C   0  0  0  0  0  0
  -29.7410  -17.3384   20.3453 C   0  0  0  0  0  0
  -28.5332  -22.1921   18.2557 C   0  0  0  0  0  0
  -28.9659  -23.4569   20.3661 C   0  0  0  0  0  0
  -28.1063  -24.7644   19.8343 C   0  0  1  0  0  0
  -27.6140  -17.4689   18.9342 C   0  0  0  0  0  0
  -32.2418  -19.7365   22.1211 C   0  0  0  0  0  0
  -29.5850  -15.9979   20.2976 N   0  0  0  0  0  0
  -28.8266  -22.1018   19.6013 N   0  0  0  0  0  0
  -28.4778  -21.2089   17.5095 O   0  0  0  0  0  0
  -31.4945  -12.6779   19.1993 H   0  0  0  0  0  0
  -30.4232  -11.5705   20.0041 H   0  0  0  0  0  0
  -29.8460  -11.7613   17.5517 H   0  0  0  0  0  0
  -29.6381  -13.4873   17.7231 H   0  0  0  0  0  0
  -27.9285  -11.2878   18.9260 H   0  0  0  0  0  0
  -27.4086  -12.5090   17.7919 H   0  0  0  0  0  0
  -27.6076  -14.2566   19.4304 H   0  0  0  0  0  0
  -28.7390  -12.2441   21.4341 H   0  0  0  0  0  0
  -28.3964  -13.9266   21.7579 H   0  0  0  0  0  0
  -25.2759   -9.5658   22.4747 H   0  0  0  0  0  0
  -23.9990   -7.4612   22.7476 H   0  0  0  0  0  0
  -21.0835   -8.8763   19.8943 H   0  0  0  0  0  0
  -22.3714  -10.9640   19.6142 H   0  0  0  0  0  0
  -21.2007   -7.6132   23.9726 H   0  0  0  0  0  0
  -21.1495   -6.0489   25.9078 H   0  0  0  0  0  0
  -22.0603   -2.7602   23.2804 H   0  0  0  0  0  0
  -22.4001  -11.9858   22.4848 H   0  0  0  0  0  0
  -21.1014  -13.1235   22.2613 H   0  0  0  0  0  0
  -24.6407  -15.8383   20.5848 H   0  0  0  0  0  0
  -26.2764  -15.6181   20.1939 H   0  0  0  0  0  0
  -26.7250  -32.5333   23.1062 H   0  0  0  0  0  0
  -25.0083  -33.9659   25.0357 H   0  0  0  0  0  0
  -22.7411  -31.2984   21.3877 H   0  0  0  0  0  0
  -23.3754  -35.9571   23.3274 H   0  0  0  0  0  0
  -24.3584  -36.8917   22.2067 H   0  0  0  0  0  0
  -23.7200  -37.6433   23.6694 H   0  0  0  0  0  0
  -26.1464  -31.4975   20.6210 H   0  0  0  0  0  0
  -26.8668  -30.7842   22.0298 H   0  0  0  0  0  0
  -28.1259  -28.8429   21.2315 H   0  0  0  0  0  0
  -25.9012  -25.8948   18.9758 H   0  0  0  0  0  0
  -23.9728  -27.3238   18.9787 H   0  0  0  0  0  0
  -23.7969  -30.5829   19.4010 H   0  0  0  0  0  0
  -22.7796  -29.2443   19.8461 H   0  0  0  0  0  0
  -25.1288  -36.1872   25.0807 H   0  0  0  0  0  0
  -21.0012  -28.3308   24.1378 H   0  0  0  0  0  0
  -20.5708  -26.2341   23.3621 H   0  0  0  0  0  0
  -21.6655  -26.7474   22.1186 H   0  0  0  0  0  0
  -19.6936  -25.6288   21.1273 H   0  0  0  0  0  0
  -19.6704  -27.3181   20.6738 H   0  0  0  0  0  0
  -17.4216  -26.6700   21.4022 H   0  0  0  0  0  0
  -18.0353  -26.0083   22.9022 H   0  0  0  0  0  0
  -19.7942  -30.7278   24.2286 H   0  0  0  0  0  0
  -17.5027  -31.6287   24.5161 H   0  0  0  0  0  0
  -15.5359  -30.3009   23.7653 H   0  0  0  0  0  0
  -15.8690  -28.0824   22.7111 H   0  0  0  0  0  0
  -24.5849  -30.7190   25.7775 H   0  0  0  0  0  0
  -24.8965  -32.2974   26.4879 H   0  0  0  0  0  0
  -25.7996  -30.8931   27.0227 H   0  0  0  0  0  0
  -26.2958  -29.6718   24.1299 H   0  0  0  0  0  0
  -27.3951  -29.7255   25.4888 H   0  0  0  0  0  0
  -27.8895  -30.4198   23.9630 H   0  0  0  0  0  0
  -27.2622  -33.3653   26.2084 H   0  0  0  0  0  0
  -28.3878  -32.6921   25.0380 H   0  0  0  0  0  0
  -28.0700  -31.8496   26.5475 H   0  0  0  0  0  0
  -28.2563  -38.0107   24.7533 H   0  0  0  0  0  0
  -28.1085  -36.2632   24.6235 H   0  0  0  0  0  0
  -27.2306  -37.1364   25.8873 H   0  0  0  0  0  0
  -20.9451  -29.8745   21.6785 H   0  0  0  0  0  0
  -26.0133  -38.2814   24.1458 H   0  0  0  0  0  0
  -28.3226  -23.5654   16.5808 H   0  0  0  0  0  0
  -27.4808  -19.8972   19.5107 H   0  0  0  0  0  0
  -31.7215  -17.4459   21.2400 H   0  0  0  0  0  0
  -30.8847  -21.4672   21.0127 H   0  0  0  0  0  0
  -27.9664  -25.5670   17.7819 H   0  0  0  0  0  0
  -28.7294  -23.2842   21.4165 H   0  0  0  0  0  0
  -30.0243  -23.7184   20.3436 H   0  0  0  0  0  0
  -27.0893  -24.5229   20.1461 H   0  0  0  0  0  0
  -26.8392  -18.1068   18.5075 H   0  0  0  0  0  0
  -27.1148  -16.7304   19.5446 H   0  0  0  0  0  0
  -28.1127  -16.9566   18.1091 H   0  0  0  0  0  0
  -32.4761  -18.9043   22.7863 H   0  0  0  0  0  0
  -32.0264  -20.5927   22.7627 H   0  0  0  0  0  0
  -33.1354  -19.9683   21.5412 H   0  0  0  0  0  0
  1 25  1  0  0  0
  1 30  2  0  0  0
  1 85  1  0  0  0
  2  3  1  0  0  0
  2 25  1  0  0  0
  2 88  1  0  0  0
  2 89  1  0  0  0
  3  4  1  0  0  0
  3 90  1  0  0  0
  3 91  1  0  0  0
  4  5  1  0  0  0
  4 92  1  0  0  0
  4 93  1  0  0  0
  5  6  1  0  0  0
  5 26  1  0  0  0
  5 94  1  0  0  0
  6 25  1  0  0  0
  6 95  1  0  0  0
  6 96  1  0  0  0
  7  8  2  0  0  0
  7 26  1  0  0  0
  7 29  1  0  0  0
  8  9  1  0  0  0
  8 22  1  0  0  0
  9 10  1  0  0  0
  9 27  2  0  0  0
 10 11  2  0  0  0
 10 15  1  0  0  0
 11 12  1  0  0  0
 11 97  1  0  0  0
 12 13  2  0  0  0
 12 98  1  0  0  0
 13 14  1  0  0  0
 13 31  1  0  0  0
 14 15  2  0  0  0
 14 99  1  0  0  0
 15100  1  0  0  0
 16 17  2  0  0  0
 16 21  1  0  0  0
 16 31  1  0  0  0
 17 18  1  0  0  0
 17101  1  0  0  0
 18 19  2  0  0  0
 18102  1  0  0  0
 19 20  1  0  0  0
 19 24  1  0  0  0
 20 21  2  0  0  0
 20103  1  0  0  0
 21 23  1  0  0  0
 22 28  1  0  0  0
 22 32  2  0  0  0
 26 27  1  0  0  0
 28104  1  0  0  0
 28105  1  0  0  0
 29106  1  0  0  0
 29107  1  0  0  0
 33 34  1  0  0  0
 33 66  1  0  0  0
 33 70  2  0  0  0
 34 36  1  0  0  0
 34 59  1  0  0  0
 34108  1  0  0  0
 35 44  2  0  0  0
 35 45  1  0  0  0
 35 68  1  0  0  0
 36 56  1  0  0  0
 36109  1  0  0  0
 37 39  1  0  0  0
 37 47  1  0  0  0
 37 66  1  0  0  0
 37110  1  0  0  0
 38 43  2  0  0  0
 38 46  1  0  0  0
 38 47  1  0  0  0
 39 64  1  0  0  0
 39 67  2  0  0  0
 40 52  1  0  0  0
 40 53  2  0  0  0
 40 58  1  0  0  0
 41111  1  0  0  0
 41112  1  0  0  0
 41113  1  0  0  0
 41 48  1  0  0  0
 42 43  1  0  0  0
 42 66  1  0  0  0
 42114  1  0  0  0
 42115  1  0  0  0
 43 44  1  0  0  0
 44116  1  0  0  0
 45 46  2  0  0  0
 45117  1  0  0  0
 46118  1  0  0  0
 47119  1  0  0  0
 47120  1  0  0  0
 48 56  1  0  0  0
 48 65  1  0  0  0
 48121  1  0  0  0
 49 50  1  0  0  0
 49 53  1  0  0  0
 49 64  1  0  0  0
 49122  1  0  0  0
 50 51  1  0  0  0
 50123  1  0  0  0
 50124  1  0  0  0
 51 52  1  0  0  0
 51125  1  0  0  0
 51126  1  0  0  0
 52127  1  0  0  0
 52128  1  0  0  0
 53 54  1  0  0  0
 54 55  2  0  0  0
 54129  1  0  0  0
 55 57  1  0  0  0
 55130  1  0  0  0
 56 69  2  0  0  0
 57 58  2  0  0  0
 57131  1  0  0  0
 58132  1  0  0  0
 59 60  1  0  0  0
 59 61  1  0  0  0
 59 62  1  0  0  0
 60133  1  0  0  0
 60134  1  0  0  0
 60135  1  0  0  0
 61136  1  0  0  0
 61137  1  0  0  0
 61138  1  0  0  0
 62139  1  0  0  0
 62140  1  0  0  0
 62141  1  0  0  0
 63 65  1  0  0  0
 63142  1  0  0  0
 63143  1  0  0  0
 63144  1  0  0  0
 64145  1  0  0  0
 65146  1  0  0  0
 68 82  1  0  0  0
 71 75  2  0  0  0
 71 80  1  0  0  0
 71147  1  0  0  0
 72 76  2  0  0  0
 72 78  1  0  0  0
 72148  1  0  0  0
 73 77  2  0  0  0
 73 79  1  0  0  0
 73149  1  0  0  0
 74 77  1  0  0  0
 74 78  2  0  0  0
 74150  1  0  0  0
 75 82  1  0  0  0
 75151  1  0  0  0
 76 79  1  0  0  0
 76 83  1  0  0  0
 77 84  1  0  0  0
 78 86  1  0  0  0
 79 85  2  0  0  0
 80 86  1  0  0  0
 80 87  2  0  0  0
 81 82  1  0  0  0
 81 86  1  0  0  0
 81152  1  0  0  0
 81153  1  0  0  0
 82154  1  0  0  0
 83155  1  0  0  0
 83156  1  0  0  0
 83157  1  0  0  0
 84158  1  0  0  0
 84159  1  0  0  0
 84160  1  0  0  0
M  ISO  4   1 100  68 101  82 101  85 100
M  END
> <chiral flag>
0

> <version>
0

> <s_m_source_file>
/data/baiqing/PycharmProjects/Reinvent-master-3.2/result/LINK_invent/BTK/process_docking_weight1_custom_product_contain_oxygen_bond_distance_aromatic_linkinvent_7_9_3/rearranged_h_0050.sdf

> <i_m_source_file_index>
4

> <r_mmod_Potential_Energy-OPLS-2005>
499.317901611328

> <r_mmod_Stretch_Energy-OPLS-2005>
199.651580810547

> <r_mmod_Bend_Energy-OPLS-2005>
291.377349853516

> <r_mmod_Torsional_Energy-OPLS-2005>
191.407562255859

> <r_mmod_Improper_Torsional_Energy-OPLS-2005>
7.54343891143799

> <r_mmod_Van_der_Waal_Energy-OPLS-2005>
167.246826171875

> <r_mmod_Electrostatic_Energy-OPLS-2005>
-325.313110351562

> <r_mmod_Solvation_Energy-OPLS-2005>
-185.030319213867

> <b_mmod_Minimization_Converged-OPLS-2005>
0

> <r_mmod_RMS_Derivative-OPLS-2005>
2.71352338790894

$$$$
4
                    3D
 Structure written by MMmdl.
156164  0  0  1  0            999 V2000
  -30.6382  -14.6485   20.5076 C   0  0  0  0  0  0
  -30.4401  -12.3746   19.4609 C   0  0  0  0  0  0
  -29.5124  -12.5090   18.2321 C   0  0  0  0  0  0
  -28.0333  -12.3477   18.6386 C   0  0  0  0  0  0
  -27.6526  -13.2197   19.8654 C   0  0  2  0  0  0
  -28.6878  -13.0744   21.0010 C   0  0  0  0  0  0
  -25.2546  -13.8183   20.5678 C   0  0  0  0  0  0
  -24.1811  -13.0443   20.9171 C   0  0  0  0  0  0
  -24.6376  -11.6915   20.8717 C   0  0  0  0  0  0
  -23.9048  -10.4296   21.0391 C   0  0  0  0  0  0
  -24.3603   -9.4218   21.9175 C   0  0  0  0  0  0
  -23.6284   -8.2248   22.0748 C   0  0  0  0  0  0
  -22.4265   -8.0277   21.3541 C   0  0  0  0  0  0
  -21.9898   -9.0244   20.4638 C   0  0  0  0  0  0
  -22.7219  -10.2128   20.3046 C   0  0  0  0  0  0
  -21.6855   -6.0729   22.5274 C   0  0  0  0  0  0
  -21.4015   -6.5635   23.8206 C   0  0  0  0  0  0
  -21.3663   -5.6792   24.9172 C   0  0  0  0  0  0
  -21.6048   -4.3054   24.7228 C   0  0  0  0  0  0
  -21.8819   -3.8140   23.4349 C   0  0  0  0  0  0
  -21.9192   -4.6955   22.3401 C   0  0  0  0  0  0
  -22.7836  -13.5231   21.1849 C   0  0  0  0  0  0
  -22.1658   -4.2140   21.0980 F   0  0  0  0  0  0
  -21.5636   -3.4538   25.7739 F   0  0  0  0  0  0
  -30.0125  -13.3795   20.4486 N   0  0  0  0  0  0
  -26.2973  -12.9369   20.3306 N   0  0  0  0  0  0
  -25.9305  -11.6517   20.5737 N   0  0  0  0  0  0
  -22.0487  -12.8216   22.0411 N   0  0  0  0  0  0
  -25.4294  -15.1901   20.4123 N   0  0  0  0  0  0
  -31.7765  -14.8636   20.0840 O   0  0  0  0  0  0
  -21.6641   -6.8867   21.4234 O   0  0  0  0  0  0
  -22.3513  -14.5539   20.6708 O   0  0  0  0  0  0
  -24.6276  -31.8599   23.2027 C   0  0  0  0  0  0
  -25.9122  -32.4775   23.8359 C   0  0  1  0  0  0
  -27.2217  -27.3101   20.1123 C   0  0  0  0  0  0
  -25.5932  -33.8580   24.2284 N   0  0  0  0  0  0
  -23.4213  -30.4847   21.5461 C   0  0  2  0  0  0
  -24.8672  -28.9429   20.1105 C   0  0  0  0  0  0
  -22.7478  -29.4627   22.4934 C   0  0  0  0  0  0
  -18.0286  -28.1378   22.8490 C   0  0  0  0  0  0
  -24.1494  -36.7293   23.2636 C   0  0  0  0  0  0
  -25.9648  -30.7861   21.3776 C   0  0  0  0  0  0
  -26.0384  -29.4147   20.7164 C   0  0  0  0  0  0
  -27.2190  -28.6105   20.7085 C   0  0  0  0  0  0
  -26.0242  -26.9002   19.4770 C   0  0  0  0  0  0
  -24.8628  -27.6909   19.4817 C   0  0  0  0  0  0
  -23.6360  -29.8233   20.1607 C   0  0  0  0  0  0
  -25.4120  -36.3082   24.0323 C   0  0  1  0  0  0
  -20.5888  -28.3691   23.1279 C   0  0  2  0  0  0
  -20.6781  -26.9419   22.5404 C   0  0  0  0  0  0
  -19.5757  -26.6386   21.5207 C   0  0  0  0  0  0
  -18.1934  -26.7924   22.1618 C   0  0  0  0  0  0
  -19.1538  -28.8852   23.2881 C   0  0  0  0  0  0
  -18.9461  -30.1449   23.8906 C   0  0  0  0  0  0
  -17.6461  -30.6585   24.0561 C   0  0  0  0  0  0
  -25.9056  -34.9446   23.5100 C   0  0  0  0  0  0
  -16.5354  -29.9080   23.6331 C   0  0  0  0  0  0
  -16.7274  -28.6490   23.0366 C   0  0  0  0  0  0
  -26.4505  -31.6581   25.0727 C   0  0  0  0  0  0
  -25.3741  -31.3707   26.1450 C   0  0  0  0  0  0
  -27.0345  -30.3000   24.6184 C   0  0  0  0  0  0
  -27.6066  -32.4314   25.7502 C   0  0  0  0  0  0
  -27.5583  -37.1803   24.8463 C   0  0  0  0  0  0
  -21.4191  -29.3048   22.3678 N   0  0  0  0  0  0
  -26.4300  -37.3775   23.9405 N   0  0  0  0  0  0
  -24.6901  -31.0597   22.0987 N   0  0  0  0  0  0
  -23.4194  -28.8162   23.3018 O   0  0  0  0  0  0
  -28.3272  -26.4394   20.1680 O   0  0  0  0  0  0
  -26.5621  -34.8911   22.4666 O   0  0  0  0  0  0
  -23.5437  -32.1405   23.7346 O   0  0  0  0  0  0
  -30.0517  -19.3095   21.8748 C   0  0  0  0  0  0
  -30.0551  -17.8865   21.9618 C   0  0  0  0  0  0
  -29.7649  -17.7444   19.5856 C   0  0  0  0  0  0
  -29.9064  -20.0045   20.6438 C   0  0  0  0  0  0
  -29.7580  -19.1763   19.4893 C   0  0  0  0  0  0
  -29.9265  -17.0558   20.8203 C   0  0  0  0  0  0
  -29.1974  -23.9564   20.3661 C   0  0  0  0  0  0
  -29.5954  -19.8101   18.1186 C   0  0  0  0  0  0
  -27.6185  -22.0521   20.1910 C   0  0  0  0  0  0
  -30.0853  -21.5809   20.5992 C   0  0  0  0  0  0
  -28.0410  -24.9840   20.0256 C   0  0  0  0  0  0
  -28.9720  -22.5841   20.3731 N   0  0  0  0  0  0
  -30.3212  -24.4136   20.6000 O   0  0  0  0  0  0
  -29.7579  -15.6608   20.9609 O   0  0  0  0  0  0
  -31.4829  -12.5085   19.1692 H   0  0  0  0  0  0
  -30.3684  -11.3744   19.8914 H   0  0  0  0  0  0
  -29.7757  -11.7666   17.4776 H   0  0  0  0  0  0
  -29.6591  -13.4847   17.7656 H   0  0  0  0  0  0
  -27.8689  -11.2944   18.8695 H   0  0  0  0  0  0
  -27.3818  -12.5767   17.7943 H   0  0  0  0  0  0
  -27.6751  -14.2567   19.5292 H   0  0  0  0  0  0
  -28.6803  -12.0580   21.3978 H   0  0  0  0  0  0
  -28.4385  -13.7257   21.8402 H   0  0  0  0  0  0
  -25.2745   -9.5703   22.4753 H   0  0  0  0  0  0
  -23.9998   -7.4642   22.7469 H   0  0  0  0  0  0
  -21.0832   -8.8748   19.8945 H   0  0  0  0  0  0
  -22.3663  -10.9659   19.6154 H   0  0  0  0  0  0
  -21.2005   -7.6141   23.9703 H   0  0  0  0  0  0
  -21.1491   -6.0527   25.9075 H   0  0  0  0  0  0
  -22.0597   -2.7602   23.2853 H   0  0  0  0  0  0
  -22.4103  -11.9865   22.4778 H   0  0  0  0  0  0
  -21.1103  -13.1235   22.2625 H   0  0  0  0  0  0
  -24.6742  -15.8561   20.5343 H   0  0  0  0  0  0
  -26.3007  -15.6239   20.1318 H   0  0  0  0  0  0
  -26.7189  -32.5436   23.1108 H   0  0  0  0  0  0
  -25.0089  -33.9739   25.0433 H   0  0  0  0  0  0
  -22.7162  -31.3058   21.4039 H   0  0  0  0  0  0
  -23.3756  -35.9626   23.3299 H   0  0  0  0  0  0
  -24.3593  -36.8916   22.2052 H   0  0  0  0  0  0
  -23.7246  -37.6491   23.6664 H   0  0  0  0  0  0
  -26.1019  -31.5512   20.6125 H   0  0  0  0  0  0
  -26.8428  -30.8301   22.0099 H   0  0  0  0  0  0
  -28.1152  -28.9667   21.1971 H   0  0  0  0  0  0
  -25.9458  -25.9486   18.9740 H   0  0  0  0  0  0
  -23.9669  -27.3255   18.9983 H   0  0  0  0  0  0
  -23.7555  -30.6001   19.4047 H   0  0  0  0  0  0
  -22.7560  -29.2529   19.8580 H   0  0  0  0  0  0
  -25.1305  -36.1934   25.0816 H   0  0  0  0  0  0
  -20.9975  -28.3264   24.1401 H   0  0  0  0  0  0
  -20.5688  -26.2303   23.3604 H   0  0  0  0  0  0
  -21.6653  -26.7457   22.1199 H   0  0  0  0  0  0
  -19.6926  -25.6297   21.1242 H   0  0  0  0  0  0
  -19.6688  -27.3195   20.6736 H   0  0  0  0  0  0
  -17.4209  -26.6671   21.4016 H   0  0  0  0  0  0
  -18.0338  -26.0058   22.9006 H   0  0  0  0  0  0
  -19.7937  -30.7263   24.2281 H   0  0  0  0  0  0
  -17.5016  -31.6269   24.5156 H   0  0  0  0  0  0
  -15.5355  -30.2985   23.7648 H   0  0  0  0  0  0
  -15.8670  -28.0800   22.7097 H   0  0  0  0  0  0
  -24.5935  -30.7036   25.7774 H   0  0  0  0  0  0
  -24.8914  -32.2862   26.4875 H   0  0  0  0  0  0
  -25.8074  -30.8889   27.0224 H   0  0  0  0  0  0
  -26.2912  -29.6747   24.1222 H   0  0  0  0  0  0
  -27.4051  -29.7258   25.4686 H   0  0  0  0  0  0
  -27.8786  -30.4280   23.9404 H   0  0  0  0  0  0
  -27.2683  -33.3618   26.2078 H   0  0  0  0  0  0
  -28.3883  -32.6866   25.0333 H   0  0  0  0  0  0
  -28.0729  -31.8436   26.5420 H   0  0  0  0  0  0
  -28.2597  -38.0102   24.7520 H   0  0  0  0  0  0
  -28.1082  -36.2635   24.6284 H   0  0  0  0  0  0
  -27.2303  -37.1443   25.8865 H   0  0  0  0  0  0
  -20.9366  -29.8773   21.6893 H   0  0  0  0  0  0
  -26.0174  -38.2849   24.1402 H   0  0  0  0  0  0
  -30.1820  -19.8766   22.7865 H   0  0  0  0  0  0
  -30.1444  -17.4270   22.9364 H   0  0  0  0  0  0
  -29.6234  -17.1563   18.6893 H   0  0  0  0  0  0
  -29.5634  -19.0566   17.3311 H   0  0  0  0  0  0
  -30.4226  -20.4834   17.8968 H   0  0  0  0  0  0
  -28.6672  -20.3784   18.0679 H   0  0  0  0  0  0
  -26.9387  -22.4573   20.9413 H   0  0  0  0  0  0
  -27.5638  -20.9692   20.2854 H   0  0  0  0  0  0
  -27.2321  -22.3103   19.2043 H   0  0  0  0  0  0
  -30.8494  -21.7837   19.8475 H   0  0  0  0  0  0
  -30.5579  -21.8638   21.5414 H   0  0  0  0  0  0
  -27.1882  -24.7383   20.6589 H   0  0  0  0  0  0
  -27.7603  -24.7808   18.9919 H   0  0  0  0  0  0
  1 25  1  0  0  0
  1 30  2  0  0  0
  1 84  1  0  0  0
  2  3  1  0  0  0
  2 25  1  0  0  0
  2 85  1  0  0  0
  2 86  1  0  0  0
  3  4  1  0  0  0
  3 87  1  0  0  0
  3 88  1  0  0  0
  4  5  1  0  0  0
  4 89  1  0  0  0
  4 90  1  0  0  0
  5  6  1  0  0  0
  5 26  1  0  0  0
  5 91  1  0  0  0
  6 25  1  0  0  0
  6 92  1  0  0  0
  6 93  1  0  0  0
  7  8  2  0  0  0
  7 26  1  0  0  0
  7 29  1  0  0  0
  8  9  1  0  0  0
  8 22  1  0  0  0
  9 10  1  0  0  0
  9 27  2  0  0  0
 10 11  2  0  0  0
 10 15  1  0  0  0
 11 12  1  0  0  0
 11 94  1  0  0  0
 12 13  2  0  0  0
 12 95  1  0  0  0
 13 14  1  0  0  0
 13 31  1  0  0  0
 14 15  2  0  0  0
 14 96  1  0  0  0
 15 97  1  0  0  0
 16 17  2  0  0  0
 16 21  1  0  0  0
 16 31  1  0  0  0
 17 18  1  0  0  0
 17 98  1  0  0  0
 18 19  2  0  0  0
 18 99  1  0  0  0
 19 20  1  0  0  0
 19 24  1  0  0  0
 20 21  2  0  0  0
 20100  1  0  0  0
 21 23  1  0  0  0
 22 28  1  0  0  0
 22 32  2  0  0  0
 26 27  1  0  0  0
 28101  1  0  0  0
 28102  1  0  0  0
 29103  1  0  0  0
 29104  1  0  0  0
 33 34  1  0  0  0
 33 66  1  0  0  0
 33 70  2  0  0  0
 34 36  1  0  0  0
 34 59  1  0  0  0
 34105  1  0  0  0
 35 44  2  0  0  0
 35 45  1  0  0  0
 35 68  1  0  0  0
 36 56  1  0  0  0
 36106  1  0  0  0
 37 39  1  0  0  0
 37 47  1  0  0  0
 37 66  1  0  0  0
 37107  1  0  0  0
 38 43  2  0  0  0
 38 46  1  0  0  0
 38 47  1  0  0  0
 39 64  1  0  0  0
 39 67  2  0  0  0
 40 52  1  0  0  0
 40 53  2  0  0  0
 40 58  1  0  0  0
 41108  1  0  0  0
 41109  1  0  0  0
 41110  1  0  0  0
 41 48  1  0  0  0
 42 43  1  0  0  0
 42 66  1  0  0  0
 42111  1  0  0  0
 42112  1  0  0  0
 43 44  1  0  0  0
 44113  1  0  0  0
 45 46  2  0  0  0
 45114  1  0  0  0
 46115  1  0  0  0
 47116  1  0  0  0
 47117  1  0  0  0
 48 56  1  0  0  0
 48 65  1  0  0  0
 48118  1  0  0  0
 49 50  1  0  0  0
 49 53  1  0  0  0
 49 64  1  0  0  0
 49119  1  0  0  0
 50 51  1  0  0  0
 50120  1  0  0  0
 50121  1  0  0  0
 51 52  1  0  0  0
 51122  1  0  0  0
 51123  1  0  0  0
 52124  1  0  0  0
 52125  1  0  0  0
 53 54  1  0  0  0
 54 55  2  0  0  0
 54126  1  0  0  0
 55 57  1  0  0  0
 55127  1  0  0  0
 56 69  2  0  0  0
 57 58  2  0  0  0
 57128  1  0  0  0
 58129  1  0  0  0
 59 60  1  0  0  0
 59 61  1  0  0  0
 59 62  1  0  0  0
 60130  1  0  0  0
 60131  1  0  0  0
 60132  1  0  0  0
 61133  1  0  0  0
 61134  1  0  0  0
 61135  1  0  0  0
 62136  1  0  0  0
 62137  1  0  0  0
 62138  1  0  0  0
 63 65  1  0  0  0
 63139  1  0  0  0
 63140  1  0  0  0
 63141  1  0  0  0
 64142  1  0  0  0
 65143  1  0  0  0
 68 81  1  0  0  0
 71 72  2  0  0  0
 71 74  1  0  0  0
 71144  1  0  0  0
 72 76  1  0  0  0
 72145  1  0  0  0
 73 75  1  0  0  0
 73 76  2  0  0  0
 73146  1  0  0  0
 74 75  2  0  0  0
 74 80  1  0  0  0
 75 78  1  0  0  0
 76 84  1  0  0  0
 77 81  1  0  0  0
 77 82  1  0  0  0
 77 83  2  0  0  0
 78147  1  0  0  0
 78148  1  0  0  0
 78149  1  0  0  0
 79 82  1  0  0  0
 79150  1  0  0  0
 79151  1  0  0  0
 79152  1  0  0  0
 80 82  1  0  0  0
 80153  1  0  0  0
 80154  1  0  0  0
 81155  1  0  0  0
 81156  1  0  0  0
M  ISO  4   1 100  68 101  81 101  84 100
M  END
> <chiral flag>
0

> <version>
0

> <s_m_source_file>
/data/baiqing/PycharmProjects/Reinvent-master-3.2/result/LINK_invent/BTK/process_docking_weight1_custom_product_contain_oxygen_bond_distance_aromatic_linkinvent_7_9_3/rearranged_h_0050.sdf

> <i_m_source_file_index>
5

> <r_mmod_Potential_Energy-OPLS-2005>
126.663925170898

> <r_mmod_Stretch_Energy-OPLS-2005>
91.8185424804688

> <r_mmod_Bend_Energy-OPLS-2005>
140.561798095703

> <r_mmod_Torsional_Energy-OPLS-2005>
192.512084960938

> <r_mmod_Improper_Torsional_Energy-OPLS-2005>
5.14911365509033

> <r_mmod_Van_der_Waal_Energy-OPLS-2005>
146.421295166016

> <r_mmod_Electrostatic_Energy-OPLS-2005>
-277.067291259766

> <r_mmod_Solvation_Energy-OPLS-2005>
-224.184204101562

> <b_mmod_Minimization_Converged-OPLS-2005>
0

> <r_mmod_RMS_Derivative-OPLS-2005>
0.99403327703476

$$$$
5
                    3D
 Structure written by MMmdl.
157165  0  0  1  0            999 V2000
  -30.7426  -14.4036   20.6454 C   0  0  0  0  0  0
  -30.4212  -12.2969   19.4021 C   0  0  0  0  0  0
  -29.4871  -12.5170   18.1959 C   0  0  0  0  0  0
  -28.0106  -12.3739   18.6129 C   0  0  0  0  0  0
  -27.6652  -13.2025   19.8786 C   0  0  2  0  0  0
  -28.7049  -12.9537   20.9935 C   0  0  0  0  0  0
  -25.2607  -13.8157   20.5685 C   0  0  0  0  0  0
  -24.1844  -13.0444   20.9167 C   0  0  0  0  0  0
  -24.6389  -11.6906   20.8717 C   0  0  0  0  0  0
  -23.9051  -10.4294   21.0393 C   0  0  0  0  0  0
  -24.3608   -9.4212   21.9174 C   0  0  0  0  0  0
  -23.6289   -8.2246   22.0746 C   0  0  0  0  0  0
  -22.4268   -8.0280   21.3541 C   0  0  0  0  0  0
  -21.9899   -9.0251   20.4643 C   0  0  0  0  0  0
  -22.7221  -10.2133   20.3049 C   0  0  0  0  0  0
  -21.6852   -6.0734   22.5278 C   0  0  0  0  0  0
  -21.4013   -6.5639   23.8211 C   0  0  0  0  0  0
  -21.3659   -5.6791   24.9176 C   0  0  0  0  0  0
  -21.6042   -4.3053   24.7222 C   0  0  0  0  0  0
  -21.8822   -3.8145   23.4343 C   0  0  0  0  0  0
  -21.9195   -4.6962   22.3403 C   0  0  0  0  0  0
  -22.7868  -13.5249   21.1837 C   0  0  0  0  0  0
  -22.1663   -4.2149   21.0975 F   0  0  0  0  0  0
  -21.5629   -3.4536   25.7736 F   0  0  0  0  0  0
  -30.0429  -13.2549   20.4511 N   0  0  0  0  0  0
  -26.3041  -12.9319   20.3380 N   0  0  0  0  0  0
  -25.9315  -11.6481   20.5754 N   0  0  0  0  0  0
  -22.0504  -12.8239   22.0393 N   0  0  0  0  0  0
  -25.4373  -15.1872   20.4124 N   0  0  0  0  0  0
  -31.8123  -14.6468   20.0794 O   0  0  0  0  0  0
  -21.6638   -6.8874   21.4238 O   0  0  0  0  0  0
  -22.3556  -14.5558   20.6695 O   0  0  0  0  0  0
  -24.6129  -31.8676   23.2106 C   0  0  0  0  0  0
  -25.9030  -32.4825   23.8383 C   0  0  1  0  0  0
  -27.2381  -27.4501   20.0917 C   0  0  0  0  0  0
  -25.5888  -33.8622   24.2314 N   0  0  0  0  0  0
  -23.3996  -30.4905   21.5508 C   0  0  2  0  0  0
  -24.8454  -28.9584   20.1135 C   0  0  0  0  0  0
  -22.7405  -29.4644   22.4998 C   0  0  0  0  0  0
  -18.0267  -28.1378   22.8479 C   0  0  0  0  0  0
  -24.1485  -36.7313   23.2636 C   0  0  0  0  0  0
  -25.9262  -30.8388   21.3601 C   0  0  0  0  0  0
  -26.0042  -29.4752   20.7062 C   0  0  0  0  0  0
  -27.2032  -28.7302   20.6865 C   0  0  0  0  0  0
  -26.0602  -26.9421   19.4965 C   0  0  0  0  0  0
  -24.8680  -27.6911   19.5050 C   0  0  0  0  0  0
  -23.6065  -29.8228   20.1649 C   0  0  0  0  0  0
  -25.4106  -36.3112   24.0331 C   0  0  1  0  0  0
  -20.5857  -28.3648   23.1331 C   0  0  2  0  0  0
  -20.6754  -26.9379   22.5443 C   0  0  0  0  0  0
  -19.5766  -26.6372   21.5215 C   0  0  0  0  0  0
  -18.1925  -26.7932   22.1587 C   0  0  0  0  0  0
  -19.1517  -28.8832   23.2903 C   0  0  0  0  0  0
  -18.9451  -30.1441   23.8907 C   0  0  0  0  0  0
  -17.6455  -30.6573   24.0584 C   0  0  0  0  0  0
  -25.9026  -34.9479   23.5117 C   0  0  0  0  0  0
  -16.5346  -29.9087   23.6326 C   0  0  0  0  0  0
  -16.7259  -28.6514   23.0325 C   0  0  0  0  0  0
  -26.4462  -31.6611   25.0712 C   0  0  0  0  0  0
  -25.3736  -31.3759   26.1483 C   0  0  0  0  0  0
  -27.0264  -30.3046   24.6074 C   0  0  0  0  0  0
  -27.6044  -32.4336   25.7462 C   0  0  0  0  0  0
  -27.5594  -37.1800   24.8458 C   0  0  0  0  0  0
  -21.4134  -29.3012   22.3743 N   0  0  0  0  0  0
  -26.4301  -37.3790   23.9412 N   0  0  0  0  0  0
  -24.6643  -31.0795   22.0995 N   0  0  0  0  0  0
  -23.4188  -28.8186   23.3027 O   0  0  0  0  0  0
  -28.4214  -26.7437   20.0995 O   0  0  0  0  0  0
  -26.5591  -34.8932   22.4684 O   0  0  0  0  0  0
  -23.5327  -32.1412   23.7522 O   0  0  0  0  0  0
  -29.1416  -18.4925   21.2299 C   0  0  0  0  0  0
  -28.7248  -19.5193   20.3562 C   0  0  0  0  0  0
  -30.9922  -17.9755   19.7353 C   0  0  0  0  0  0
  -30.2757  -17.7112   20.9213 C   0  0  0  0  0  0
  -29.4299  -19.7698   19.1591 C   0  0  0  0  0  0
  -30.5739  -18.9956   18.8581 C   0  0  0  0  0  0
  -28.2903  -23.0784   19.0058 C   0  0  0  0  0  0
  -30.7214  -16.5899   21.8510 C   0  0  0  0  0  0
  -28.9145  -20.8096   18.1695 C   0  0  0  0  0  0
  -28.6688  -24.5677   18.9716 C   0  0  0  0  0  0
  -28.3413  -25.3231   20.2754 C   0  0  0  0  0  0
  -29.1870  -22.2037   18.5263 N   0  0  0  0  0  0
  -30.1771  -15.2856   21.4797 N   0  0  0  0  0  0
  -27.1768  -22.7304   19.4021 O   0  0  0  0  0  0
  -31.2708  -19.2159   17.7169 F   0  0  0  0  0  0
  -31.4638  -12.4008   19.0958 H   0  0  0  0  0  0
  -30.3265  -11.2777   19.7794 H   0  0  0  0  0  0
  -29.7215  -11.8038   17.4047 H   0  0  0  0  0  0
  -29.6559  -13.5090   17.7737 H   0  0  0  0  0  0
  -27.8201  -11.3164   18.7997 H   0  0  0  0  0  0
  -27.3569  -12.6576   17.7873 H   0  0  0  0  0  0
  -27.7205  -14.2549   19.5994 H   0  0  0  0  0  0
  -28.6739  -11.9104   21.3112 H   0  0  0  0  0  0
  -28.4556  -13.5279   21.8859 H   0  0  0  0  0  0
  -25.2757   -9.5696   22.4743 H   0  0  0  0  0  0
  -24.0005   -7.4639   22.7465 H   0  0  0  0  0  0
  -21.0830   -8.8764   19.8951 H   0  0  0  0  0  0
  -22.3674  -10.9671   19.6155 H   0  0  0  0  0  0
  -21.2002   -7.6149   23.9717 H   0  0  0  0  0  0
  -21.1476   -6.0519   25.9078 H   0  0  0  0  0  0
  -22.0600   -2.7608   23.2842 H   0  0  0  0  0  0
  -22.4113  -11.9893   22.4770 H   0  0  0  0  0  0
  -21.1120  -13.1265   22.2594 H   0  0  0  0  0  0
  -24.6804  -15.8509   20.5341 H   0  0  0  0  0  0
  -26.3038  -15.6235   20.1226 H   0  0  0  0  0  0
  -26.7102  -32.5543   23.1148 H   0  0  0  0  0  0
  -25.0087  -33.9786   25.0494 H   0  0  0  0  0  0
  -22.6873  -31.3062   21.4122 H   0  0  0  0  0  0
  -23.3755  -35.9642   23.3300 H   0  0  0  0  0  0
  -24.3579  -36.8922   22.2049 H   0  0  0  0  0  0
  -23.7223  -37.6508   23.6655 H   0  0  0  0  0  0
  -26.0344  -31.6073   20.5935 H   0  0  0  0  0  0
  -26.8157  -30.8916   21.9763 H   0  0  0  0  0  0
  -28.1005  -29.1289   21.1389 H   0  0  0  0  0  0
  -26.0562  -25.9736   19.0175 H   0  0  0  0  0  0
  -23.9788  -27.2873   19.0398 H   0  0  0  0  0  0
  -23.7119  -30.5981   19.4051 H   0  0  0  0  0  0
  -22.7318  -29.2398   19.8702 H   0  0  0  0  0  0
  -25.1284  -36.1970   25.0822 H   0  0  0  0  0  0
  -20.9938  -28.3209   24.1454 H   0  0  0  0  0  0
  -20.5609  -26.2263   23.3627 H   0  0  0  0  0  0
  -21.6637  -26.7393   22.1279 H   0  0  0  0  0  0
  -19.6935  -25.6284   21.1236 H   0  0  0  0  0  0
  -19.6748  -27.3189   20.6758 H   0  0  0  0  0  0
  -17.4221  -26.6717   21.3952 H   0  0  0  0  0  0
  -18.0281  -26.0045   22.8945 H   0  0  0  0  0  0
  -19.7935  -30.7258   24.2255 H   0  0  0  0  0  0
  -17.5019  -31.6246   24.5209 H   0  0  0  0  0  0
  -15.5353  -30.3008   23.7638 H   0  0  0  0  0  0
  -15.8658  -28.0861   22.7002 H   0  0  0  0  0  0
  -24.5988  -30.6964   25.7910 H   0  0  0  0  0  0
  -24.8830  -32.2921   26.4778 H   0  0  0  0  0  0
  -25.8119  -30.9123   27.0332 H   0  0  0  0  0  0
  -26.2781  -29.6830   24.1138 H   0  0  0  0  0  0
  -27.4048  -29.7251   25.4505 H   0  0  0  0  0  0
  -27.8618  -30.4357   23.9191 H   0  0  0  0  0  0
  -27.2667  -33.3651   26.2019 H   0  0  0  0  0  0
  -28.3857  -32.6864   25.0282 H   0  0  0  0  0  0
  -28.0709  -31.8476   26.5392 H   0  0  0  0  0  0
  -28.2613  -38.0095   24.7495 H   0  0  0  0  0  0
  -28.1079  -36.2623   24.6274 H   0  0  0  0  0  0
  -27.2332  -37.1444   25.8868 H   0  0  0  0  0  0
  -20.9287  -29.8757   21.6993 H   0  0  0  0  0  0
  -26.0191  -38.2868   24.1435 H   0  0  0  0  0  0
  -28.5817  -18.3012   22.1359 H   0  0  0  0  0  0
  -27.8440  -20.1005   20.5933 H   0  0  0  0  0  0
  -31.8637  -17.3862   19.4867 H   0  0  0  0  0  0
  -30.4028  -16.8168   22.8693 H   0  0  0  0  0  0
  -31.8118  -16.5541   21.8852 H   0  0  0  0  0  0
  -27.8442  -20.6484   18.0306 H   0  0  0  0  0  0
  -29.3552  -20.6272   17.1888 H   0  0  0  0  0  0
  -28.1202  -25.0146   18.1424 H   0  0  0  0  0  0
  -29.7272  -24.6868   18.7371 H   0  0  0  0  0  0
  -29.0779  -25.0500   21.0314 H   0  0  0  0  0  0
  -27.3799  -25.0177   20.6923 H   0  0  0  0  0  0
  -30.0824  -22.5699   18.2315 H   0  0  0  0  0  0
  -29.3004  -15.0178   21.8992 H   0  0  0  0  0  0
  1 25  1  0  0  0
  1 30  2  0  0  0
  1 83  1  0  0  0
  2  3  1  0  0  0
  2 25  1  0  0  0
  2 86  1  0  0  0
  2 87  1  0  0  0
  3  4  1  0  0  0
  3 88  1  0  0  0
  3 89  1  0  0  0
  4  5  1  0  0  0
  4 90  1  0  0  0
  4 91  1  0  0  0
  5  6  1  0  0  0
  5 26  1  0  0  0
  5 92  1  0  0  0
  6 25  1  0  0  0
  6 93  1  0  0  0
  6 94  1  0  0  0
  7  8  2  0  0  0
  7 26  1  0  0  0
  7 29  1  0  0  0
  8  9  1  0  0  0
  8 22  1  0  0  0
  9 10  1  0  0  0
  9 27  2  0  0  0
 10 11  2  0  0  0
 10 15  1  0  0  0
 11 12  1  0  0  0
 11 95  1  0  0  0
 12 13  2  0  0  0
 12 96  1  0  0  0
 13 14  1  0  0  0
 13 31  1  0  0  0
 14 15  2  0  0  0
 14 97  1  0  0  0
 15 98  1  0  0  0
 16 17  2  0  0  0
 16 21  1  0  0  0
 16 31  1  0  0  0
 17 18  1  0  0  0
 17 99  1  0  0  0
 18 19  2  0  0  0
 18100  1  0  0  0
 19 20  1  0  0  0
 19 24  1  0  0  0
 20 21  2  0  0  0
 20101  1  0  0  0
 21 23  1  0  0  0
 22 28  1  0  0  0
 22 32  2  0  0  0
 26 27  1  0  0  0
 28102  1  0  0  0
 28103  1  0  0  0
 29104  1  0  0  0
 29105  1  0  0  0
 33 34  1  0  0  0
 33 66  1  0  0  0
 33 70  2  0  0  0
 34 36  1  0  0  0
 34 59  1  0  0  0
 34106  1  0  0  0
 35 44  2  0  0  0
 35 45  1  0  0  0
 35 68  1  0  0  0
 36 56  1  0  0  0
 36107  1  0  0  0
 37 39  1  0  0  0
 37 47  1  0  0  0
 37 66  1  0  0  0
 37108  1  0  0  0
 38 43  2  0  0  0
 38 46  1  0  0  0
 38 47  1  0  0  0
 39 64  1  0  0  0
 39 67  2  0  0  0
 40 52  1  0  0  0
 40 53  2  0  0  0
 40 58  1  0  0  0
 41109  1  0  0  0
 41110  1  0  0  0
 41111  1  0  0  0
 41 48  1  0  0  0
 42 43  1  0  0  0
 42 66  1  0  0  0
 42112  1  0  0  0
 42113  1  0  0  0
 43 44  1  0  0  0
 44114  1  0  0  0
 45 46  2  0  0  0
 45115  1  0  0  0
 46116  1  0  0  0
 47117  1  0  0  0
 47118  1  0  0  0
 48 56  1  0  0  0
 48 65  1  0  0  0
 48119  1  0  0  0
 49 50  1  0  0  0
 49 53  1  0  0  0
 49 64  1  0  0  0
 49120  1  0  0  0
 50 51  1  0  0  0
 50121  1  0  0  0
 50122  1  0  0  0
 51 52  1  0  0  0
 51123  1  0  0  0
 51124  1  0  0  0
 52125  1  0  0  0
 52126  1  0  0  0
 53 54  1  0  0  0
 54 55  2  0  0  0
 54127  1  0  0  0
 55 57  1  0  0  0
 55128  1  0  0  0
 56 69  2  0  0  0
 57 58  2  0  0  0
 57129  1  0  0  0
 58130  1  0  0  0
 59 60  1  0  0  0
 59 61  1  0  0  0
 59 62  1  0  0  0
 60131  1  0  0  0
 60132  1  0  0  0
 60133  1  0  0  0
 61134  1  0  0  0
 61135  1  0  0  0
 61136  1  0  0  0
 62137  1  0  0  0
 62138  1  0  0  0
 62139  1  0  0  0
 63 65  1  0  0  0
 63140  1  0  0  0
 63141  1  0  0  0
 63142  1  0  0  0
 64143  1  0  0  0
 65144  1  0  0  0
 68 81  1  0  0  0
 71 72  2  0  0  0
 71 74  1  0  0  0
 71145  1  0  0  0
 72 75  1  0  0  0
 72146  1  0  0  0
 73 74  2  0  0  0
 73 76  1  0  0  0
 73147  1  0  0  0
 74 78  1  0  0  0
 75 76  2  0  0  0
 75 79  1  0  0  0
 76 85  1  0  0  0
 77 80  1  0  0  0
 77 82  1  0  0  0
 77 84  2  0  0  0
 78 83  1  0  0  0
 78148  1  0  0  0
 78149  1  0  0  0
 79 82  1  0  0  0
 79150  1  0  0  0
 79151  1  0  0  0
 80 81  1  0  0  0
 80152  1  0  0  0
 80153  1  0  0  0
 81154  1  0  0  0
 81155  1  0  0  0
 82156  1  0  0  0
 83157  1  0  0  0
M  ISO  4   1 100  68 101  81 101  83 100
M  END
> <chiral flag>
0

> <version>
0

> <s_m_source_file>
/data/baiqing/PycharmProjects/Reinvent-master-3.2/result/LINK_invent/BTK/process_docking_weight1_custom_product_contain_oxygen_bond_distance_aromatic_linkinvent_7_9_3/rearranged_h_0050.sdf

> <i_m_source_file_index>
6

> <r_mmod_Potential_Energy-OPLS-2005>
-216.235061645508

> <r_mmod_Stretch_Energy-OPLS-2005>
33.1461982727051

> <r_mmod_Bend_Energy-OPLS-2005>
88.6549835205078

> <r_mmod_Torsional_Energy-OPLS-2005>
202.759643554688

> <r_mmod_Improper_Torsional_Energy-OPLS-2005>
2.47719621658325

> <r_mmod_Van_der_Waal_Energy-OPLS-2005>
150.651977539062

> <r_mmod_Electrostatic_Energy-OPLS-2005>
-473.385345458984

> <r_mmod_Solvation_Energy-OPLS-2005>
-229.024490356445

> <b_mmod_Minimization_Converged-OPLS-2005>
0

> <r_mmod_RMS_Derivative-OPLS-2005>
1.21590387821198

$$$$
6
                    3D
 Structure written by MMmdl.
162171  0  0  1  0            999 V2000
  -30.6377  -14.5477   20.5251 C   0  0  0  0  0  0
  -30.4347  -12.3328   19.4445 C   0  0  0  0  0  0
  -29.5090  -12.4894   18.2187 C   0  0  0  0  0  0
  -28.0249  -12.3529   18.6182 C   0  0  0  0  0  0
  -27.6546  -13.2055   19.8618 C   0  0  2  0  0  0
  -28.6928  -13.0117   20.9908 C   0  0  0  0  0  0
  -25.2524  -13.8131   20.5577 C   0  0  0  0  0  0
  -24.1792  -13.0434   20.9176 C   0  0  0  0  0  0
  -24.6343  -11.6900   20.8723 C   0  0  0  0  0  0
  -23.9013  -10.4288   21.0394 C   0  0  0  0  0  0
  -24.3569   -9.4217   21.9170 C   0  0  0  0  0  0
  -23.6253   -8.2251   22.0763 C   0  0  0  0  0  0
  -22.4236   -8.0273   21.3561 C   0  0  0  0  0  0
  -21.9864   -9.0241   20.4674 C   0  0  0  0  0  0
  -22.7181  -10.2122   20.3059 C   0  0  0  0  0  0
  -21.6855   -6.0705   22.5265 C   0  0  0  0  0  0
  -21.4019   -6.5613   23.8197 C   0  0  0  0  0  0
  -21.3663   -5.6779   24.9168 C   0  0  0  0  0  0
  -21.6046   -4.3041   24.7232 C   0  0  0  0  0  0
  -21.8817   -3.8129   23.4351 C   0  0  0  0  0  0
  -21.9200   -4.6935   22.3397 C   0  0  0  0  0  0
  -22.7817  -13.5256   21.1825 C   0  0  0  0  0  0
  -22.1665   -4.2119   21.0978 F   0  0  0  0  0  0
  -21.5627   -3.4533   25.7748 F   0  0  0  0  0  0
  -30.0203  -13.3347   20.4416 N   0  0  0  0  0  0
  -26.2959  -12.9303   20.3246 N   0  0  0  0  0  0
  -25.9267  -11.6476   20.5719 N   0  0  0  0  0  0
  -22.0447  -12.8295   22.0403 N   0  0  0  0  0  0
  -25.4184  -15.1825   20.3754 N   0  0  0  0  0  0
  -31.7925  -14.7226   20.1189 O   0  0  0  0  0  0
  -21.6642   -6.8839   21.4228 O   0  0  0  0  0  0
  -22.3531  -14.5559   20.6640 O   0  0  0  0  0  0
  -24.6213  -31.8660   23.2074 C   0  0  0  0  0  0
  -25.9069  -32.4835   23.8396 C   0  0  1  0  0  0
  -27.2076  -27.3661   20.1254 C   0  0  0  0  0  0
  -25.5913  -33.8631   24.2322 N   0  0  0  0  0  0
  -23.4090  -30.4942   21.5481 C   0  0  2  0  0  0
  -24.8501  -28.9561   20.1165 C   0  0  0  0  0  0
  -22.7457  -29.4642   22.4942 C   0  0  0  0  0  0
  -18.0276  -28.1356   22.8485 C   0  0  0  0  0  0
  -24.1475  -36.7299   23.2603 C   0  0  0  0  0  0
  -25.9444  -30.8189   21.3640 C   0  0  0  0  0  0
  -26.0162  -29.4473   20.7143 C   0  0  0  0  0  0
  -27.1976  -28.6615   20.7101 C   0  0  0  0  0  0
  -26.0099  -26.9005   19.5334 C   0  0  0  0  0  0
  -24.8448  -27.6851   19.5245 C   0  0  0  0  0  0
  -23.6209  -29.8342   20.1609 C   0  0  0  0  0  0
  -25.4066  -36.3115   24.0347 C   0  0  1  0  0  0
  -20.5877  -28.3644   23.1293 C   0  0  2  0  0  0
  -20.6763  -26.9372   22.5397 C   0  0  0  0  0  0
  -19.5724  -26.6355   21.5205 C   0  0  0  0  0  0
  -18.1912  -26.7894   22.1638 C   0  0  0  0  0  0
  -19.1531  -28.8818   23.2883 C   0  0  0  0  0  0
  -18.9461  -30.1424   23.8897 C   0  0  0  0  0  0
  -17.6467  -30.6572   24.0540 C   0  0  0  0  0  0
  -25.9035  -34.9500   23.5126 C   0  0  0  0  0  0
  -16.5355  -29.9067   23.6319 C   0  0  0  0  0  0
  -16.7269  -28.6477   23.0349 C   0  0  0  0  0  0
  -26.4471  -31.6634   25.0739 C   0  0  0  0  0  0
  -25.3754  -31.3800   26.1525 C   0  0  0  0  0  0
  -27.0236  -30.3069   24.6088 C   0  0  0  0  0  0
  -27.6062  -32.4341   25.7491 C   0  0  0  0  0  0
  -27.5641  -37.1692   24.8366 C   0  0  0  0  0  0
  -21.4173  -29.3032   22.3721 N   0  0  0  0  0  0
  -26.4197  -37.3871   23.9563 N   0  0  0  0  0  0
  -24.6774  -31.0749   22.0984 N   0  0  0  0  0  0
  -23.4238  -28.8148   23.2949 O   0  0  0  0  0  0
  -28.3688  -26.6014   20.1673 O   0  0  0  0  0  0
  -26.5587  -34.8965   22.4687 O   0  0  0  0  0  0
  -23.5389  -32.1405   23.7448 O   0  0  0  0  0  0
  -28.9254  -22.3720   22.2365 C   0  0  0  0  0  0
  -31.3506  -19.0478   20.6774 C   0  0  0  0  0  0
  -28.9900  -19.1981   20.1756 C   0  0  0  0  0  0
  -31.2389  -17.6501   20.8712 C   0  0  0  0  0  0
  -28.8723  -17.7978   20.3978 C   0  0  0  0  0  0
  -30.2417  -19.8472   20.3048 C   0  0  0  0  0  0
  -29.9984  -16.9929   20.7173 C   0  0  0  0  0  0
  -28.7315  -22.8938   21.0417 C   0  0  0  0  0  0
  -29.1477  -21.8477   23.4212 C   0  0  0  0  0  0
  -27.8655  -24.1681   20.8162 C   0  0  0  0  0  0
  -29.7777  -24.8218   19.3254 C   0  0  0  0  0  0
  -29.7679  -23.3798   18.7771 C   0  0  0  0  0  0
  -28.3688  -25.2038   19.7575 C   0  0  2  0  0  0
  -30.5158  -21.3375   19.9560 C   0  0  0  0  0  0
  -29.8363  -15.5729   20.9169 N   0  0  0  0  0  0
  -29.3914  -22.3331   19.7831 N   0  3  1  0  0  0
  -31.4805  -12.4452   19.1491 H   0  0  0  0  0  0
  -30.3511  -11.3290   19.8625 H   0  0  0  0  0  0
  -29.7577  -11.7450   17.4628 H   0  0  0  0  0  0
  -29.6798  -13.4619   17.7531 H   0  0  0  0  0  0
  -27.8336  -11.2983   18.8243 H   0  0  0  0  0  0
  -27.3856  -12.6181   17.7748 H   0  0  0  0  0  0
  -27.6910  -14.2472   19.5434 H   0  0  0  0  0  0
  -28.6785  -11.9816   21.3475 H   0  0  0  0  0  0
  -28.4482  -13.6230   21.8608 H   0  0  0  0  0  0
  -25.2709   -9.5722   22.4745 H   0  0  0  0  0  0
  -23.9978   -7.4658   22.7490 H   0  0  0  0  0  0
  -21.0790   -8.8741   19.8992 H   0  0  0  0  0  0
  -22.3607  -10.9644   19.6174 H   0  0  0  0  0  0
  -21.2014   -7.6118   23.9682 H   0  0  0  0  0  0
  -21.1486   -6.0519   25.9064 H   0  0  0  0  0  0
  -22.0597   -2.7593   23.2864 H   0  0  0  0  0  0
  -22.4019  -11.9969   22.4853 H   0  0  0  0  0  0
  -21.1080  -13.1375   22.2588 H   0  0  0  0  0  0
  -24.6108  -15.7961   20.3748 H   0  0  0  0  0  0
  -26.1989  -15.5647   19.8569 H   0  0  0  0  0  0
  -26.7139  -32.5536   23.1152 H   0  0  0  0  0  0
  -25.0137  -33.9804   25.0524 H   0  0  0  0  0  0
  -22.6969  -31.3118   21.4114 H   0  0  0  0  0  0
  -23.3893  -35.9453   23.2915 H   0  0  0  0  0  0
  -24.3694  -36.9275   22.2104 H   0  0  0  0  0  0
  -23.6997  -37.6296   23.6830 H   0  0  0  0  0  0
  -26.0537  -31.5786   20.5900 H   0  0  0  0  0  0
  -26.8361  -30.8823   21.9759 H   0  0  0  0  0  0
  -28.0970  -29.0311   21.1826 H   0  0  0  0  0  0
  -25.9213  -25.9207   19.0923 H   0  0  0  0  0  0
  -23.9393  -27.2937   19.0807 H   0  0  0  0  0  0
  -23.7503  -30.6119   19.4076 H   0  0  0  0  0  0
  -22.7403  -29.2675   19.8517 H   0  0  0  0  0  0
  -25.1185  -36.1904   25.0818 H   0  0  0  0  0  0
  -20.9951  -28.3192   24.1420 H   0  0  0  0  0  0
  -20.5660  -26.2239   23.3581 H   0  0  0  0  0  0
  -21.6634  -26.7400   22.1192 H   0  0  0  0  0  0
  -19.6865  -25.6263   21.1236 H   0  0  0  0  0  0
  -19.6643  -27.3160   20.6725 H   0  0  0  0  0  0
  -17.4164  -26.6615   21.4064 H   0  0  0  0  0  0
  -18.0323  -26.0054   22.9058 H   0  0  0  0  0  0
  -19.7944  -30.7216   24.2288 H   0  0  0  0  0  0
  -17.5030  -31.6267   24.5112 H   0  0  0  0  0  0
  -15.5355  -30.2959   23.7651 H   0  0  0  0  0  0
  -15.8668  -28.0789   22.7075 H   0  0  0  0  0  0
  -24.5781  -30.7305   25.7896 H   0  0  0  0  0  0
  -24.9117  -32.2995   26.5107 H   0  0  0  0  0  0
  -25.8113  -30.8857   27.0215 H   0  0  0  0  0  0
  -26.2729  -29.6903   24.1123 H   0  0  0  0  0  0
  -27.3986  -29.7254   25.4520 H   0  0  0  0  0  0
  -27.8590  -30.4396   23.9206 H   0  0  0  0  0  0
  -27.2722  -33.3703   26.1976 H   0  0  0  0  0  0
  -28.3909  -32.6809   25.0331 H   0  0  0  0  0  0
  -28.0637  -31.8496   26.5482 H   0  0  0  0  0  0
  -28.2249  -38.0369   24.8107 H   0  0  0  0  0  0
  -28.1537  -36.3034   24.5310 H   0  0  0  0  0  0
  -27.2510  -37.0231   25.8720 H   0  0  0  0  0  0
  -20.9312  -29.8825   21.7020 H   0  0  0  0  0  0
  -26.0050  -38.2832   24.1997 H   0  0  0  0  0  0
  -32.3244  -19.5040   20.7874 H   0  0  0  0  0  0
  -28.1091  -19.7527   19.8838 H   0  0  0  0  0  0
  -32.1278  -17.0916   21.1300 H   0  0  0  0  0  0
  -27.8973  -17.3428   20.2844 H   0  0  0  0  0  0
  -28.5230  -21.0631   23.8230 H   0  0  0  0  0  0
  -29.9652  -22.1796   24.0457 H   0  0  0  0  0  0
  -27.7465  -24.6725   21.7776 H   0  0  0  0  0  0
  -26.8609  -23.8399   20.5432 H   0  0  0  0  0  0
  -30.1059  -25.5060   18.5431 H   0  0  0  0  0  0
  -30.4847  -24.9268   20.1511 H   0  0  0  0  0  0
  -30.7390  -23.1923   18.3230 H   0  0  0  0  0  0
  -29.0559  -23.3163   17.9523 H   0  0  0  0  0  0
  -27.7762  -25.0898   18.8513 H   0  0  0  0  0  0
  -31.0434  -21.2432   19.0057 H   0  0  0  0  0  0
  -31.2511  -21.7518   20.6481 H   0  0  0  0  0  0
  -28.9092  -15.2785   21.1851 H   0  0  0  0  0  0
  -28.6922  -21.7968   19.2925 H   0  0  0  0  0  0
  1 25  1  0  0  0
  1 30  2  0  0  0
  1 85  1  0  0  0
  2  3  1  0  0  0
  2 25  1  0  0  0
  2 87  1  0  0  0
  2 88  1  0  0  0
  3  4  1  0  0  0
  3 89  1  0  0  0
  3 90  1  0  0  0
  4  5  1  0  0  0
  4 91  1  0  0  0
  4 92  1  0  0  0
  5  6  1  0  0  0
  5 26  1  0  0  0
  5 93  1  0  0  0
  6 25  1  0  0  0
  6 94  1  0  0  0
  6 95  1  0  0  0
  7  8  2  0  0  0
  7 26  1  0  0  0
  7 29  1  0  0  0
  8  9  1  0  0  0
  8 22  1  0  0  0
  9 10  1  0  0  0
  9 27  2  0  0  0
 10 11  2  0  0  0
 10 15  1  0  0  0
 11 12  1  0  0  0
 11 96  1  0  0  0
 12 13  2  0  0  0
 12 97  1  0  0  0
 13 14  1  0  0  0
 13 31  1  0  0  0
 14 15  2  0  0  0
 14 98  1  0  0  0
 15 99  1  0  0  0
 16 17  2  0  0  0
 16 21  1  0  0  0
 16 31  1  0  0  0
 17 18  1  0  0  0
 17100  1  0  0  0
 18 19  2  0  0  0
 18101  1  0  0  0
 19 20  1  0  0  0
 19 24  1  0  0  0
 20 21  2  0  0  0
 20102  1  0  0  0
 21 23  1  0  0  0
 22 28  1  0  0  0
 22 32  2  0  0  0
 26 27  1  0  0  0
 28103  1  0  0  0
 28104  1  0  0  0
 29105  1  0  0  0
 29106  1  0  0  0
 33 34  1  0  0  0
 33 66  1  0  0  0
 33 70  2  0  0  0
 34 36  1  0  0  0
 34 59  1  0  0  0
 34107  1  0  0  0
 35 44  2  0  0  0
 35 45  1  0  0  0
 35 68  1  0  0  0
 36 56  1  0  0  0
 36108  1  0  0  0
 37 39  1  0  0  0
 37 47  1  0  0  0
 37 66  1  0  0  0
 37109  1  0  0  0
 38 43  2  0  0  0
 38 46  1  0  0  0
 38 47  1  0  0  0
 39 64  1  0  0  0
 39 67  2  0  0  0
 40 52  1  0  0  0
 40 53  2  0  0  0
 40 58  1  0  0  0
 41110  1  0  0  0
 41111  1  0  0  0
 41112  1  0  0  0
 41 48  1  0  0  0
 42 43  1  0  0  0
 42 66  1  0  0  0
 42113  1  0  0  0
 42114  1  0  0  0
 43 44  1  0  0  0
 44115  1  0  0  0
 45 46  2  0  0  0
 45116  1  0  0  0
 46117  1  0  0  0
 47118  1  0  0  0
 47119  1  0  0  0
 48 56  1  0  0  0
 48 65  1  0  0  0
 48120  1  0  0  0
 49 50  1  0  0  0
 49 53  1  0  0  0
 49 64  1  0  0  0
 49121  1  0  0  0
 50 51  1  0  0  0
 50122  1  0  0  0
 50123  1  0  0  0
 51 52  1  0  0  0
 51124  1  0  0  0
 51125  1  0  0  0
 52126  1  0  0  0
 52127  1  0  0  0
 53 54  1  0  0  0
 54 55  2  0  0  0
 54128  1  0  0  0
 55 57  1  0  0  0
 55129  1  0  0  0
 56 69  2  0  0  0
 57 58  2  0  0  0
 57130  1  0  0  0
 58131  1  0  0  0
 59 60  1  0  0  0
 59 61  1  0  0  0
 59 62  1  0  0  0
 60132  1  0  0  0
 60133  1  0  0  0
 60134  1  0  0  0
 61135  1  0  0  0
 61136  1  0  0  0
 61137  1  0  0  0
 62138  1  0  0  0
 62139  1  0  0  0
 62140  1  0  0  0
 63 65  1  0  0  0
 63141  1  0  0  0
 63142  1  0  0  0
 63143  1  0  0  0
 64144  1  0  0  0
 65145  1  0  0  0
 68 83  1  0  0  0
 71 78  2  0  0  0
 71 79  2  0  0  0
 72 74  2  0  0  0
 72 76  1  0  0  0
 72146  1  0  0  0
 73 75  1  0  0  0
 73 76  2  0  0  0
 73147  1  0  0  0
 74 77  1  0  0  0
 74148  1  0  0  0
 75 77  2  0  0  0
 75149  1  0  0  0
 76 84  1  0  0  0
 77 85  1  0  0  0
 78 80  1  0  0  0
 78 86  1  0  0  0
 79150  1  0  0  0
 79151  1  0  0  0
 80 83  1  0  0  0
 80152  1  0  0  0
 80153  1  0  0  0
 81 82  1  0  0  0
 81 83  1  0  0  0
 81154  1  0  0  0
 81155  1  0  0  0
 82 86  1  0  0  0
 82156  1  0  0  0
 82157  1  0  0  0
 83158  1  0  0  0
 84159  1  0  0  0
 84160  1  0  0  0
 84 86  1  0  0  0
 85161  1  0  0  0
 86162  1  0  0  0
M  CHG  1  86   1
M  ISO  4   1 100  68 101  83 101  85 100
M  END
> <chiral flag>
0

> <version>
0

> <s_m_source_file>
/data/baiqing/PycharmProjects/Reinvent-master-3.2/result/LINK_invent/BTK/process_docking_weight1_custom_product_contain_oxygen_bond_distance_aromatic_linkinvent_7_9_3/rearranged_h_0050.sdf

> <i_m_source_file_index>
7

> <r_mmod_Potential_Energy-OPLS-2005>
-192.437759399414

> <r_mmod_Stretch_Energy-OPLS-2005>
57.2451705932617

> <r_mmod_Bend_Energy-OPLS-2005>
139.957046508789

> <r_mmod_Torsional_Energy-OPLS-2005>
163.485015869141

> <r_mmod_Improper_Torsional_Energy-OPLS-2005>
6.7922945022583

> <r_mmod_Van_der_Waal_Energy-OPLS-2005>
161.858612060547

> <r_mmod_Electrostatic_Energy-OPLS-2005>
-299.965209960938

> <r_mmod_Solvation_Energy-OPLS-2005>
-449.648803710938

> <b_mmod_Minimization_Converged-OPLS-2005>
0

> <r_mmod_RMS_Derivative-OPLS-2005>
3.45709776878357

$$$$
7
                    3D
 Structure written by MMmdl.
151159  0  0  1  0            999 V2000
  -30.5277  -14.8857   20.4502 C   0  0  0  0  0  0
  -30.4526  -12.5468   19.4874 C   0  0  0  0  0  0
  -29.5247  -12.5383   18.2482 C   0  0  0  0  0  0
  -28.0521  -12.3359   18.6582 C   0  0  0  0  0  0
  -27.6405  -13.2370   19.8514 C   0  0  2  0  0  0
  -28.6867  -13.1968   20.9878 C   0  0  0  0  0  0
  -25.2495  -13.8179   20.5688 C   0  0  0  0  0  0
  -24.1802  -13.0425   20.9231 C   0  0  0  0  0  0
  -24.6404  -11.6908   20.8763 C   0  0  0  0  0  0
  -23.9074  -10.4286   21.0416 C   0  0  0  0  0  0
  -24.3621   -9.4198   21.9192 C   0  0  0  0  0  0
  -23.6295   -8.2234   22.0757 C   0  0  0  0  0  0
  -22.4274   -8.0281   21.3547 C   0  0  0  0  0  0
  -21.9918   -9.0249   20.4644 C   0  0  0  0  0  0
  -22.7250  -10.2127   20.3058 C   0  0  0  0  0  0
  -21.6842   -6.0740   22.5280 C   0  0  0  0  0  0
  -21.4013   -6.5643   23.8218 C   0  0  0  0  0  0
  -21.3661   -5.6794   24.9179 C   0  0  0  0  0  0
  -21.6044   -4.3057   24.7228 C   0  0  0  0  0  0
  -21.8817   -3.8151   23.4348 C   0  0  0  0  0  0
  -21.9190   -4.6969   22.3404 C   0  0  0  0  0  0
  -22.7825  -13.5209   21.1878 C   0  0  0  0  0  0
  -22.1655   -4.2158   21.0979 F   0  0  0  0  0  0
  -21.5637   -3.4544   25.7743 F   0  0  0  0  0  0
  -29.9746  -13.6114   20.4083 N   0  0  0  0  0  0
  -26.2931  -12.9399   20.3277 N   0  0  0  0  0  0
  -25.9338  -11.6535   20.5751 N   0  0  0  0  0  0
  -22.0459  -12.8202   22.0430 N   0  0  0  0  0  0
  -25.4139  -15.1901   20.4026 N   0  0  0  0  0  0
  -31.7157  -15.0263   20.1370 O   0  0  0  0  0  0
  -21.6636   -6.8880   21.4239 O   0  0  0  0  0  0
  -22.3512  -14.5513   20.6723 O   0  0  0  0  0  0
  -24.6426  -31.8466   23.1918 C   0  0  0  0  0  0
  -25.9205  -32.4714   23.8300 C   0  0  1  0  0  0
  -27.2252  -27.1637   20.1507 C   0  0  0  0  0  0
  -25.5964  -33.8519   24.2225 N   0  0  0  0  0  0
  -23.4450  -30.4676   21.5370 C   0  0  2  0  0  0
  -24.8975  -28.9016   20.1122 C   0  0  0  0  0  0
  -22.7566  -29.4556   22.4873 C   0  0  0  0  0  0
  -18.0293  -28.1393   22.8478 C   0  0  0  0  0  0
  -24.1484  -36.7249   23.2644 C   0  0  0  0  0  0
  -26.0004  -30.7292   21.3882 C   0  0  0  0  0  0
  -26.0744  -29.3438   20.7297 C   0  0  0  0  0  0
  -27.2393  -28.4913   20.7332 C   0  0  0  0  0  0
  -26.0199  -26.8226   19.4915 C   0  0  0  0  0  0
  -24.8809  -27.6528   19.4777 C   0  0  0  0  0  0
  -23.6727  -29.8000   20.1556 C   0  0  0  0  0  0
  -25.4116  -36.3041   24.0325 C   0  0  1  0  0  0
  -20.5902  -28.3717   23.1234 C   0  0  2  0  0  0
  -20.6781  -26.9427   22.5398 C   0  0  0  0  0  0
  -19.5756  -26.6386   21.5206 C   0  0  0  0  0  0
  -18.1934  -26.7934   22.1615 C   0  0  0  0  0  0
  -19.1551  -28.8877   23.2842 C   0  0  0  0  0  0
  -18.9475  -30.1474   23.8871 C   0  0  0  0  0  0
  -17.6473  -30.6600   24.0553 C   0  0  0  0  0  0
  -25.9071  -34.9416   23.5077 C   0  0  0  0  0  0
  -16.5362  -29.9091   23.6338 C   0  0  0  0  0  0
  -16.7280  -28.6502   23.0369 C   0  0  0  0  0  0
  -26.4537  -31.6570   25.0727 C   0  0  0  0  0  0
  -25.3738  -31.3735   26.1438 C   0  0  0  0  0  0
  -27.0424  -30.2978   24.6293 C   0  0  0  0  0  0
  -27.6077  -32.4338   25.7512 C   0  0  0  0  0  0
  -27.5571  -37.1775   24.8466 C   0  0  0  0  0  0
  -21.4256  -29.3045   22.3616 N   0  0  0  0  0  0
  -26.4275  -37.3759   23.9422 N   0  0  0  0  0  0
  -24.7154  -31.0350   22.0943 N   0  0  0  0  0  0
  -23.4213  -28.8103   23.3018 O   0  0  0  0  0  0
  -28.2762  -26.1808   20.2309 O   0  0  0  0  0  0
  -26.5638  -34.8905   22.4646 O   0  0  0  0  0  0
  -23.5548  -32.1337   23.7140 O   0  0  0  0  0  0
  -28.0483  -19.4928   20.2387 C   0  0  0  0  0  0
  -28.3001  -18.0792   20.3261 C   0  0  0  0  0  0
  -30.5909  -18.5027   20.6618 C   0  0  0  0  0  0
  -29.0282  -20.5285   20.3575 C   0  0  0  0  0  0
  -30.3398  -19.9524   20.5937 C   0  0  0  0  0  0
  -29.5798  -17.4845   20.5295 C   0  0  0  0  0  0
  -28.4962  -22.0358   20.2168 C   0  0  0  0  0  0
  -28.8812  -23.3889   20.3447 C   0  0  0  0  0  0
  -27.9275  -24.6864   20.0492 C   0  0  0  0  0  0
  -31.5192  -20.9011   20.7881 C   0  0  0  0  0  0
  -29.6501  -15.9660   20.6755 N   0  0  0  0  0  0
  -32.6592  -20.2514   21.0305 F   0  0  0  0  0  0
  -31.6925  -21.6411   19.6935 F   0  0  0  0  0  0
  -31.2866  -21.7107   21.8211 F   0  0  0  0  0  0
  -31.4861  -12.7153   19.1794 H   0  0  0  0  0  0
  -30.4421  -11.5760   19.9850 H   0  0  0  0  0  0
  -29.8295  -11.7578   17.5497 H   0  0  0  0  0  0
  -29.6271  -13.4832   17.7124 H   0  0  0  0  0  0
  -27.9248  -11.2862   18.9268 H   0  0  0  0  0  0
  -27.3956  -12.5140   17.8059 H   0  0  0  0  0  0
  -27.6209  -14.2537   19.4609 H   0  0  0  0  0  0
  -28.7574  -12.1944   21.4150 H   0  0  0  0  0  0
  -28.3960  -13.8545   21.8087 H   0  0  0  0  0  0
  -25.2764   -9.5675   22.4774 H   0  0  0  0  0  0
  -23.9999   -7.4629   22.7476 H   0  0  0  0  0  0
  -21.0850   -8.8768   19.8943 H   0  0  0  0  0  0
  -22.3709  -10.9668   19.6174 H   0  0  0  0  0  0
  -21.1997   -7.6150   23.9726 H   0  0  0  0  0  0
  -21.1491   -6.0527   25.9084 H   0  0  0  0  0  0
  -22.0593   -2.7611   23.2855 H   0  0  0  0  0  0
  -22.4065  -11.9863   22.4827 H   0  0  0  0  0  0
  -21.1072  -13.1232   22.2617 H   0  0  0  0  0  0
  -24.6252  -15.8254   20.4710 H   0  0  0  0  0  0
  -26.2205  -15.6085   19.9602 H   0  0  0  0  0  0
  -26.7266  -32.5331   23.1033 H   0  0  0  0  0  0
  -25.0141  -33.9655   25.0391 H   0  0  0  0  0  0
  -22.7452  -31.2919   21.3841 H   0  0  0  0  0  0
  -23.3760  -35.9562   23.3294 H   0  0  0  0  0  0
  -24.3565  -36.8898   22.2058 H   0  0  0  0  0  0
  -23.7228  -37.6436   23.6691 H   0  0  0  0  0  0
  -26.1550  -31.4841   20.6158 H   0  0  0  0  0  0
  -26.8708  -30.7779   22.0306 H   0  0  0  0  0  0
  -28.1347  -28.8248   21.2379 H   0  0  0  0  0  0
  -25.9136  -25.8718   18.9930 H   0  0  0  0  0  0
  -23.9840  -27.3092   18.9797 H   0  0  0  0  0  0
  -23.8092  -30.5770   19.4026 H   0  0  0  0  0  0
  -22.7885  -29.2408   19.8430 H   0  0  0  0  0  0
  -25.1299  -36.1869   25.0815 H   0  0  0  0  0  0
  -20.9975  -28.3316   24.1358 H   0  0  0  0  0  0
  -20.5679  -26.2342   23.3617 H   0  0  0  0  0  0
  -21.6651  -26.7438   22.1200 H   0  0  0  0  0  0
  -19.6919  -25.6289   21.1261 H   0  0  0  0  0  0
  -19.6693  -27.3174   20.6718 H   0  0  0  0  0  0
  -17.4201  -26.6682   21.4017 H   0  0  0  0  0  0
  -18.0321  -26.0077   22.9012 H   0  0  0  0  0  0
  -19.7957  -30.7292   24.2240 H   0  0  0  0  0  0
  -17.5032  -31.6279   24.5158 H   0  0  0  0  0  0
  -15.5364  -30.2985   23.7690 H   0  0  0  0  0  0
  -15.8670  -28.0816   22.7109 H   0  0  0  0  0  0
  -24.5932  -30.7069   25.7767 H   0  0  0  0  0  0
  -24.8915  -32.2904   26.4830 H   0  0  0  0  0  0
  -25.8045  -30.8946   27.0245 H   0  0  0  0  0  0
  -26.3052  -29.6689   24.1298 H   0  0  0  0  0  0
  -27.4058  -29.7289   25.4863 H   0  0  0  0  0  0
  -27.8945  -30.4244   23.9613 H   0  0  0  0  0  0
  -27.2689  -33.3676   26.2019 H   0  0  0  0  0  0
  -28.3925  -32.6843   25.0359 H   0  0  0  0  0  0
  -28.0702  -31.8507   26.5490 H   0  0  0  0  0  0
  -28.2567  -38.0091   24.7538 H   0  0  0  0  0  0
  -28.1092  -36.2626   24.6262 H   0  0  0  0  0  0
  -27.2294  -37.1382   25.8868 H   0  0  0  0  0  0
  -20.9469  -29.8774   21.6802 H   0  0  0  0  0  0
  -26.0142  -38.2825   24.1447 H   0  0  0  0  0  0
  -27.0207  -19.7852   20.0781 H   0  0  0  0  0  0
  -27.4436  -17.4279   20.2327 H   0  0  0  0  0  0
  -31.5990  -18.1664   20.8536 H   0  0  0  0  0  0
  -27.4646  -22.0046   19.8938 H   0  0  0  0  0  0
  -29.8893  -23.6192   20.6571 H   0  0  0  0  0  0
  -27.0241  -24.5037   20.6337 H   0  0  0  0  0  0
  -27.6351  -24.5640   19.0064 H   0  0  0  0  0  0
  -28.7414  -15.5789   20.8813 H   0  0  0  0  0  0
  1 25  1  0  0  0
  1 30  2  0  0  0
  1 81  1  0  0  0
  2  3  1  0  0  0
  2 25  1  0  0  0
  2 85  1  0  0  0
  2 86  1  0  0  0
  3  4  1  0  0  0
  3 87  1  0  0  0
  3 88  1  0  0  0
  4  5  1  0  0  0
  4 89  1  0  0  0
  4 90  1  0  0  0
  5  6  1  0  0  0
  5 26  1  0  0  0
  5 91  1  0  0  0
  6 25  1  0  0  0
  6 92  1  0  0  0
  6 93  1  0  0  0
  7  8  2  0  0  0
  7 26  1  0  0  0
  7 29  1  0  0  0
  8  9  1  0  0  0
  8 22  1  0  0  0
  9 10  1  0  0  0
  9 27  2  0  0  0
 10 11  2  0  0  0
 10 15  1  0  0  0
 11 12  1  0  0  0
 11 94  1  0  0  0
 12 13  2  0  0  0
 12 95  1  0  0  0
 13 14  1  0  0  0
 13 31  1  0  0  0
 14 15  2  0  0  0
 14 96  1  0  0  0
 15 97  1  0  0  0
 16 17  2  0  0  0
 16 21  1  0  0  0
 16 31  1  0  0  0
 17 18  1  0  0  0
 17 98  1  0  0  0
 18 19  2  0  0  0
 18 99  1  0  0  0
 19 20  1  0  0  0
 19 24  1  0  0  0
 20 21  2  0  0  0
 20100  1  0  0  0
 21 23  1  0  0  0
 22 28  1  0  0  0
 22 32  2  0  0  0
 26 27  1  0  0  0
 28101  1  0  0  0
 28102  1  0  0  0
 29103  1  0  0  0
 29104  1  0  0  0
 33 34  1  0  0  0
 33 66  1  0  0  0
 33 70  2  0  0  0
 34 36  1  0  0  0
 34 59  1  0  0  0
 34105  1  0  0  0
 35 44  2  0  0  0
 35 45  1  0  0  0
 35 68  1  0  0  0
 36 56  1  0  0  0
 36106  1  0  0  0
 37 39  1  0  0  0
 37 47  1  0  0  0
 37 66  1  0  0  0
 37107  1  0  0  0
 38 43  2  0  0  0
 38 46  1  0  0  0
 38 47  1  0  0  0
 39 64  1  0  0  0
 39 67  2  0  0  0
 40 52  1  0  0  0
 40 53  2  0  0  0
 40 58  1  0  0  0
 41108  1  0  0  0
 41109  1  0  0  0
 41110  1  0  0  0
 41 48  1  0  0  0
 42 43  1  0  0  0
 42 66  1  0  0  0
 42111  1  0  0  0
 42112  1  0  0  0
 43 44  1  0  0  0
 44113  1  0  0  0
 45 46  2  0  0  0
 45114  1  0  0  0
 46115  1  0  0  0
 47116  1  0  0  0
 47117  1  0  0  0
 48 56  1  0  0  0
 48 65  1  0  0  0
 48118  1  0  0  0
 49 50  1  0  0  0
 49 53  1  0  0  0
 49 64  1  0  0  0
 49119  1  0  0  0
 50 51  1  0  0  0
 50120  1  0  0  0
 50121  1  0  0  0
 51 52  1  0  0  0
 51122  1  0  0  0
 51123  1  0  0  0
 52124  1  0  0  0
 52125  1  0  0  0
 53 54  1  0  0  0
 54 55  2  0  0  0
 54126  1  0  0  0
 55 57  1  0  0  0
 55127  1  0  0  0
 56 69  2  0  0  0
 57 58  2  0  0  0
 57128  1  0  0  0
 58129  1  0  0  0
 59 60  1  0  0  0
 59 61  1  0  0  0
 59 62  1  0  0  0
 60130  1  0  0  0
 60131  1  0  0  0
 60132  1  0  0  0
 61133  1  0  0  0
 61134  1  0  0  0
 61135  1  0  0  0
 62136  1  0  0  0
 62137  1  0  0  0
 62138  1  0  0  0
 63 65  1  0  0  0
 63139  1  0  0  0
 63140  1  0  0  0
 63141  1  0  0  0
 64142  1  0  0  0
 65143  1  0  0  0
 68 79  1  0  0  0
 71 72  2  0  0  0
 71 74  1  0  0  0
 71144  1  0  0  0
 72 76  1  0  0  0
 72145  1  0  0  0
 73 75  1  0  0  0
 73 76  2  0  0  0
 73146  1  0  0  0
 74 75  2  0  0  0
 74 77  1  0  0  0
 75 80  1  0  0  0
 76 81  1  0  0  0
 77 78  2  0  0  0
 77147  1  0  0  0
 78 79  1  0  0  0
 78148  1  0  0  0
 79149  1  0  0  0
 79150  1  0  0  0
 80 82  1  0  0  0
 80 83  1  0  0  0
 80 84  1  0  0  0
 81151  1  0  0  0
M  ISO  4   1 100  68 101  79 101  81 100
M  END
> <chiral flag>
0

> <version>
0

> <s_m_source_file>
/data/baiqing/PycharmProjects/Reinvent-master-3.2/result/LINK_invent/BTK/process_docking_weight1_custom_product_contain_oxygen_bond_distance_aromatic_linkinvent_7_9_3/rearranged_h_0050.sdf

> <i_m_source_file_index>
8

> <r_mmod_Potential_Energy-OPLS-2005>
464.584320068359

> <r_mmod_Stretch_Energy-OPLS-2005>
204.294448852539

> <r_mmod_Bend_Energy-OPLS-2005>
267.142883300781

> <r_mmod_Torsional_Energy-OPLS-2005>
222.435440063477

> <r_mmod_Improper_Torsional_Energy-OPLS-2005>
5.29381942749023

> <r_mmod_Van_der_Waal_Energy-OPLS-2005>
136.911682128906

> <r_mmod_Electrostatic_Energy-OPLS-2005>
-323.031341552734

> <r_mmod_Solvation_Energy-OPLS-2005>
-209.765716552734

> <b_mmod_Minimization_Converged-OPLS-2005>
0

> <r_mmod_RMS_Derivative-OPLS-2005>
1.65377032756805

$$$$
8
                    3D
 Structure written by MMmdl.
167176  0  0  1  0            999 V2000
  -30.6668  -14.4753   20.5821 C   0  0  0  0  0  0
  -30.4157  -12.3130   19.4397 C   0  0  0  0  0  0
  -29.5019  -12.5439   18.2183 C   0  0  0  0  0  0
  -28.0130  -12.4048   18.6016 C   0  0  0  0  0  0
  -27.6527  -13.2093   19.8816 C   0  0  2  0  0  0
  -28.6855  -12.9749   21.0079 C   0  0  0  0  0  0
  -25.2539  -13.8184   20.5644 C   0  0  0  0  0  0
  -24.1763  -13.0452   20.9054 C   0  0  0  0  0  0
  -24.6315  -11.6924   20.8606 C   0  0  0  0  0  0
  -23.9001  -10.4327   21.0272 C   0  0  0  0  0  0
  -24.3604   -9.4312   21.9083 C   0  0  0  0  0  0
  -23.6316   -8.2347   22.0723 C   0  0  0  0  0  0
  -22.4290   -8.0345   21.3540 C   0  0  0  0  0  0
  -21.9882   -9.0259   20.4600 C   0  0  0  0  0  0
  -22.7151  -10.2161   20.2944 C   0  0  0  0  0  0
  -21.6893   -6.0787   22.5268 C   0  0  0  0  0  0
  -21.4030   -6.5661   23.8205 C   0  0  0  0  0  0
  -21.3672   -5.6784   24.9156 C   0  0  0  0  0  0
  -21.6040   -4.3051   24.7211 C   0  0  0  0  0  0
  -21.8813   -3.8171   23.4315 C   0  0  0  0  0  0
  -21.9211   -4.7013   22.3386 C   0  0  0  0  0  0
  -22.7814  -13.5283   21.1793 C   0  0  0  0  0  0
  -22.1668   -4.2188   21.0971 F   0  0  0  0  0  0
  -21.5648   -3.4555   25.7738 F   0  0  0  0  0  0
  -30.0240  -13.2826   20.4714 N   0  0  0  0  0  0
  -26.2937  -12.9310   20.3314 N   0  0  0  0  0  0
  -25.9239  -11.6468   20.5616 N   0  0  0  0  0  0
  -22.0528  -12.8185   22.0356 N   0  0  0  0  0  0
  -25.4247  -15.1931   20.4231 N   0  0  0  0  0  0
  -31.7801  -14.6873   20.0885 O   0  0  0  0  0  0
  -21.6679   -6.8947   21.4239 O   0  0  0  0  0  0
  -22.3464  -14.5600   20.6698 O   0  0  0  0  0  0
  -24.6196  -31.8697   23.2112 C   0  0  0  0  0  0
  -25.9085  -32.4824   23.8375 C   0  0  1  0  0  0
  -27.2214  -27.3926   20.0964 C   0  0  0  0  0  0
  -25.5925  -33.8624   24.2282 N   0  0  0  0  0  0
  -23.4052  -30.5004   21.5578 C   0  0  2  0  0  0
  -24.8459  -28.9765   20.1171 C   0  0  0  0  0  0
  -22.7422  -29.4715   22.5036 C   0  0  0  0  0  0
  -18.0271  -28.1419   22.8521 C   0  0  0  0  0  0
  -24.1485  -36.7306   23.2637 C   0  0  0  0  0  0
  -25.9436  -30.8267   21.3727 C   0  0  0  0  0  0
  -26.0192  -29.4650   20.7059 C   0  0  0  0  0  0
  -27.2103  -28.6895   20.6805 C   0  0  0  0  0  0
  -26.0070  -26.9421   19.5091 C   0  0  0  0  0  0
  -24.8406  -27.7171   19.5121 C   0  0  0  0  0  0
  -23.6108  -29.8444   20.1707 C   0  0  0  0  0  0
  -25.4124  -36.3099   24.0314 C   0  0  1  0  0  0
  -20.5872  -28.3709   23.1343 C   0  0  2  0  0  0
  -20.6781  -26.9447   22.5452 C   0  0  0  0  0  0
  -19.5747  -26.6413   21.5260 C   0  0  0  0  0  0
  -18.1919  -26.7966   22.1647 C   0  0  0  0  0  0
  -19.1526  -28.8881   23.2924 C   0  0  0  0  0  0
  -18.9453  -30.1498   23.8919 C   0  0  0  0  0  0
  -17.6450  -30.6621   24.0599 C   0  0  0  0  0  0
  -25.9060  -34.9476   23.5094 C   0  0  0  0  0  0
  -16.5339  -29.9132   23.6357 C   0  0  0  0  0  0
  -16.7257  -28.6555   23.0367 C   0  0  0  0  0  0
  -26.4459  -31.6632   25.0745 C   0  0  0  0  0  0
  -25.3668  -31.3811   26.1461 C   0  0  0  0  0  0
  -27.0311  -30.3041   24.6235 C   0  0  0  0  0  0
  -27.5968  -32.4424   25.7517 C   0  0  0  0  0  0
  -27.5604  -37.1819   24.8465 C   0  0  0  0  0  0
  -21.4154  -29.3060   22.3735 N   0  0  0  0  0  0
  -26.4304  -37.3804   23.9413 N   0  0  0  0  0  0
  -24.6743  -31.0796   22.1026 N   0  0  0  0  0  0
  -23.4170  -28.8269   23.3105 O   0  0  0  0  0  0
  -28.3626  -26.5834   20.1286 O   0  0  0  0  0  0
  -26.5646  -34.8929   22.4675 O   0  0  0  0  0  0
  -23.5391  -32.1456   23.7515 O   0  0  0  0  0  0
  -29.8465  -17.9546   21.1844 C   0  0  0  0  0  0
  -29.1508  -16.7113   19.2220 C   0  0  0  0  0  0
  -29.5116  -19.1898   20.5572 C   0  0  0  0  0  0
  -28.7580  -17.9019   18.5875 C   0  0  0  0  0  0
  -28.9736  -19.1542   19.2298 C   0  0  0  0  0  0
  -29.6939  -16.7156   20.5185 C   0  0  0  0  0  0
  -29.0100  -22.8315   20.8892 C   0  0  0  0  0  0
  -31.4863  -23.2271   19.3826 C   0  0  0  0  0  0
  -30.6733  -24.4550   19.8357 C   0  0  0  0  0  0
  -31.2755  -21.9932   20.2922 C   0  0  0  0  0  0
  -29.2030  -24.0401   19.9268 C   0  0  2  0  0  0
  -28.6236  -20.4358   18.4868 C   0  0  0  0  0  0
  -29.6686  -20.4722   21.4278 C   0  0  0  0  0  0
  -28.1055  -25.1641   19.9177 C   0  0  0  0  0  0
  -28.0822  -17.7693   17.2209 C   0  0  0  0  0  0
  -29.9049  -21.8028   20.8041 N   0  0  0  0  0  0
  -29.9597  -15.4664   21.1573 N   0  0  0  0  0  0
  -28.0137  -22.7776   21.6183 O   0  0  0  0  0  0
  -27.4682  -16.5912   17.0954 F   0  0  0  0  0  0
  -28.9849  -17.8888   16.2496 F   0  0  0  0  0  0
  -31.4625  -12.4170   19.1514 H   0  0  0  0  0  0
  -30.3134  -11.2985   19.8240 H   0  0  0  0  0  0
  -29.7598  -11.8482   17.4203 H   0  0  0  0  0  0
  -29.6845  -13.5427   17.8155 H   0  0  0  0  0  0
  -27.7987  -11.3456   18.7492 H   0  0  0  0  0  0
  -27.3828  -12.7281   17.7714 H   0  0  0  0  0  0
  -27.6833  -14.2642   19.6170 H   0  0  0  0  0  0
  -28.6540  -11.9325   21.3345 H   0  0  0  0  0  0
  -28.4340  -13.5620   21.8933 H   0  0  0  0  0  0
  -25.2789   -9.5882   22.4586 H   0  0  0  0  0  0
  -24.0096   -7.4767   22.7426 H   0  0  0  0  0  0
  -21.0821   -8.8672   19.8914 H   0  0  0  0  0  0
  -22.3544  -10.9640   19.6025 H   0  0  0  0  0  0
  -21.1991   -7.6146   23.9731 H   0  0  0  0  0  0
  -21.1483   -6.0501   25.9048 H   0  0  0  0  0  0
  -22.0574   -2.7641   23.2785 H   0  0  0  0  0  0
  -22.4268  -11.9874   22.4650 H   0  0  0  0  0  0
  -21.1136  -13.1081   22.2651 H   0  0  0  0  0  0
  -24.6561  -15.8439   20.5450 H   0  0  0  0  0  0
  -26.2908  -15.6512   20.1688 H   0  0  0  0  0  0
  -26.7168  -32.5513   23.1147 H   0  0  0  0  0  0
  -24.9992  -33.9758   25.0370 H   0  0  0  0  0  0
  -22.6958  -31.3208   21.4290 H   0  0  0  0  0  0
  -23.3756  -35.9628   23.3264 H   0  0  0  0  0  0
  -24.3557  -36.8973   22.2055 H   0  0  0  0  0  0
  -23.7209  -37.6485   23.6689 H   0  0  0  0  0  0
  -26.0847  -31.6070   20.6226 H   0  0  0  0  0  0
  -26.8154  -30.8538   22.0138 H   0  0  0  0  0  0
  -28.1135  -29.0763   21.1346 H   0  0  0  0  0  0
  -25.8928  -25.9758   19.0486 H   0  0  0  0  0  0
  -23.9343  -27.3351   19.0596 H   0  0  0  0  0  0
  -23.7184  -30.6229   19.4151 H   0  0  0  0  0  0
  -22.7296  -29.2741   19.8720 H   0  0  0  0  0  0
  -25.1321  -36.1933   25.0812 H   0  0  0  0  0  0
  -20.9951  -28.3281   24.1470 H   0  0  0  0  0  0
  -20.5770  -26.2302   23.3641 H   0  0  0  0  0  0
  -21.6650  -26.7564   22.1209 H   0  0  0  0  0  0
  -19.6910  -25.6325   21.1301 H   0  0  0  0  0  0
  -19.6682  -27.3221   20.6786 H   0  0  0  0  0  0
  -17.4216  -26.6774   21.4015 H   0  0  0  0  0  0
  -18.0265  -26.0097   22.9020 H   0  0  0  0  0  0
  -19.7915  -30.7359   24.2258 H   0  0  0  0  0  0
  -17.4985  -31.6287   24.5223 H   0  0  0  0  0  0
  -15.5343  -30.3041   23.7669 H   0  0  0  0  0  0
  -15.8655  -28.0887   22.7060 H   0  0  0  0  0  0
  -24.5784  -30.7246   25.7770 H   0  0  0  0  0  0
  -24.8945  -32.3019   26.4896 H   0  0  0  0  0  0
  -25.7947  -30.8947   27.0227 H   0  0  0  0  0  0
  -26.2916  -29.6806   24.1203 H   0  0  0  0  0  0
  -27.3896  -29.7315   25.4795 H   0  0  0  0  0  0
  -27.8815  -30.4299   23.9528 H   0  0  0  0  0  0
  -27.2482  -33.3694   26.2092 H   0  0  0  0  0  0
  -28.3741  -32.7081   25.0340 H   0  0  0  0  0  0
  -28.0656  -31.8586   26.5447 H   0  0  0  0  0  0
  -28.2622  -38.0124   24.7579 H   0  0  0  0  0  0
  -28.1116  -36.2680   24.6224 H   0  0  0  0  0  0
  -27.2347  -37.1390   25.8872 H   0  0  0  0  0  0
  -20.9324  -29.8690   21.6880 H   0  0  0  0  0  0
  -26.0178  -38.2875   24.1435 H   0  0  0  0  0  0
  -30.2265  -17.9578   22.1973 H   0  0  0  0  0  0
  -29.0149  -15.7752   18.7023 H   0  0  0  0  0  0
  -32.5499  -23.4627   19.3305 H   0  0  0  0  0  0
  -31.1946  -22.9699   18.3635 H   0  0  0  0  0  0
  -30.7972  -25.2675   19.1177 H   0  0  0  0  0  0
  -31.0286  -24.8207   20.7996 H   0  0  0  0  0  0
  -31.9470  -22.0627   21.1496 H   0  0  0  0  0  0
  -31.5740  -21.0955   19.7480 H   0  0  0  0  0  0
  -29.0102  -23.5438   18.9753 H   0  0  0  0  0  0
  -27.8112  -20.9605   18.9891 H   0  0  0  0  0  0
  -28.3378  -20.2914   17.4495 H   0  0  0  0  0  0
  -29.4992  -21.0755   18.4305 H   0  0  0  0  0  0
  -30.4949  -20.3098   22.1217 H   0  0  0  0  0  0
  -28.7875  -20.5038   22.0694 H   0  0  0  0  0  0
  -27.2999  -24.8876   20.5992 H   0  0  0  0  0  0
  -27.7082  -25.0876   18.9056 H   0  0  0  0  0  0
  -27.2978  -18.5078   17.0524 H   0  0  0  0  0  0
  -29.2009  -15.1203   21.7289 H   0  0  0  0  0  0
  1 25  1  0  0  0
  1 30  2  0  0  0
  1 87  1  0  0  0
  2  3  1  0  0  0
  2 25  1  0  0  0
  2 91  1  0  0  0
  2 92  1  0  0  0
  3  4  1  0  0  0
  3 93  1  0  0  0
  3 94  1  0  0  0
  4  5  1  0  0  0
  4 95  1  0  0  0
  4 96  1  0  0  0
  5  6  1  0  0  0
  5 26  1  0  0  0
  5 97  1  0  0  0
  6 25  1  0  0  0
  6 98  1  0  0  0
  6 99  1  0  0  0
  7  8  2  0  0  0
  7 26  1  0  0  0
  7 29  1  0  0  0
  8  9  1  0  0  0
  8 22  1  0  0  0
  9 10  1  0  0  0
  9 27  2  0  0  0
 10 11  2  0  0  0
 10 15  1  0  0  0
 11 12  1  0  0  0
 11100  1  0  0  0
 12 13  2  0  0  0
 12101  1  0  0  0
 13 14  1  0  0  0
 13 31  1  0  0  0
 14 15  2  0  0  0
 14102  1  0  0  0
 15103  1  0  0  0
 16 17  2  0  0  0
 16 21  1  0  0  0
 16 31  1  0  0  0
 17 18  1  0  0  0
 17104  1  0  0  0
 18 19  2  0  0  0
 18105  1  0  0  0
 19 20  1  0  0  0
 19 24  1  0  0  0
 20 21  2  0  0  0
 20106  1  0  0  0
 21 23  1  0  0  0
 22 28  1  0  0  0
 22 32  2  0  0  0
 26 27  1  0  0  0
 28107  1  0  0  0
 28108  1  0  0  0
 29109  1  0  0  0
 29110  1  0  0  0
 33 34  1  0  0  0
 33 66  1  0  0  0
 33 70  2  0  0  0
 34 36  1  0  0  0
 34 59  1  0  0  0
 34111  1  0  0  0
 35 44  2  0  0  0
 35 45  1  0  0  0
 35 68  1  0  0  0
 36 56  1  0  0  0
 36112  1  0  0  0
 37 39  1  0  0  0
 37 47  1  0  0  0
 37 66  1  0  0  0
 37113  1  0  0  0
 38 43  2  0  0  0
 38 46  1  0  0  0
 38 47  1  0  0  0
 39 64  1  0  0  0
 39 67  2  0  0  0
 40 52  1  0  0  0
 40 53  2  0  0  0
 40 58  1  0  0  0
 41114  1  0  0  0
 41115  1  0  0  0
 41116  1  0  0  0
 41 48  1  0  0  0
 42 43  1  0  0  0
 42 66  1  0  0  0
 42117  1  0  0  0
 42118  1  0  0  0
 43 44  1  0  0  0
 44119  1  0  0  0
 45 46  2  0  0  0
 45120  1  0  0  0
 46121  1  0  0  0
 47122  1  0  0  0
 47123  1  0  0  0
 48 56  1  0  0  0
 48 65  1  0  0  0
 48124  1  0  0  0
 49 50  1  0  0  0
 49 53  1  0  0  0
 49 64  1  0  0  0
 49125  1  0  0  0
 50 51  1  0  0  0
 50126  1  0  0  0
 50127  1  0  0  0
 51 52  1  0  0  0
 51128  1  0  0  0
 51129  1  0  0  0
 52130  1  0  0  0
 52131  1  0  0  0
 53 54  1  0  0  0
 54 55  2  0  0  0
 54132  1  0  0  0
 55 57  1  0  0  0
 55133  1  0  0  0
 56 69  2  0  0  0
 57 58  2  0  0  0
 57134  1  0  0  0
 58135  1  0  0  0
 59 60  1  0  0  0
 59 61  1  0  0  0
 59 62  1  0  0  0
 60136  1  0  0  0
 60137  1  0  0  0
 60138  1  0  0  0
 61139  1  0  0  0
 61140  1  0  0  0
 61141  1  0  0  0
 62142  1  0  0  0
 62143  1  0  0  0
 62144  1  0  0  0
 63 65  1  0  0  0
 63145  1  0  0  0
 63146  1  0  0  0
 63147  1  0  0  0
 64148  1  0  0  0
 65149  1  0  0  0
 68 84  1  0  0  0
 71 73  2  0  0  0
 71 76  1  0  0  0
 71150  1  0  0  0
 72 74  1  0  0  0
 72 76  2  0  0  0
 72151  1  0  0  0
 73 75  1  0  0  0
 73 83  1  0  0  0
 74 75  2  0  0  0
 74 85  1  0  0  0
 75 82  1  0  0  0
 76 87  1  0  0  0
 77 81  1  0  0  0
 77 86  1  0  0  0
 77 88  2  0  0  0
 78 79  1  0  0  0
 78 80  1  0  0  0
 78152  1  0  0  0
 78153  1  0  0  0
 79 81  1  0  0  0
 79154  1  0  0  0
 79155  1  0  0  0
 80 86  1  0  0  0
 80156  1  0  0  0
 80157  1  0  0  0
 81 84  1  0  0  0
 81158  1  0  0  0
 82159  1  0  0  0
 82160  1  0  0  0
 82161  1  0  0  0
 83 86  1  0  0  0
 83162  1  0  0  0
 83163  1  0  0  0
 84164  1  0  0  0
 84165  1  0  0  0
 85 89  1  0  0  0
 85 90  1  0  0  0
 85166  1  0  0  0
 87167  1  0  0  0
M  ISO  4   1 100  68 101  84 101  87 100
M  END
> <chiral flag>
0

> <version>
0

> <s_m_source_file>
/data/baiqing/PycharmProjects/Reinvent-master-3.2/result/LINK_invent/BTK/process_docking_weight1_custom_product_contain_oxygen_bond_distance_aromatic_linkinvent_7_9_3/rearranged_h_0050.sdf

> <i_m_source_file_index>
9

> <r_mmod_Potential_Energy-OPLS-2005>
99.7602615356445

> <r_mmod_Stretch_Energy-OPLS-2005>
55.1919860839844

> <r_mmod_Bend_Energy-OPLS-2005>
148.200561523438

> <r_mmod_Torsional_Energy-OPLS-2005>
279.617797851562

> <r_mmod_Improper_Torsional_Energy-OPLS-2005>
7.65191507339478

> <r_mmod_Van_der_Waal_Energy-OPLS-2005>
184.75422668457

> <r_mmod_Electrostatic_Energy-OPLS-2005>
-365.462738037109

> <r_mmod_Solvation_Energy-OPLS-2005>
-228.803298950195

> <b_mmod_Minimization_Converged-OPLS-2005>
0

> <r_mmod_RMS_Derivative-OPLS-2005>
4.92560243606567

$$$$
9
                    3D
 Structure written by MMmdl.
158166  0  0  1  0            999 V2000
  -30.7022  -14.4512   20.6294 C   0  0  0  0  0  0
  -30.4378  -12.3169   19.4012 C   0  0  0  0  0  0
  -29.4965  -12.5164   18.1973 C   0  0  0  0  0  0
  -28.0183  -12.3659   18.6127 C   0  0  0  0  0  0
  -27.6692  -13.1964   19.8759 C   0  0  2  0  0  0
  -28.7102  -12.9444   20.9871 C   0  0  0  0  0  0
  -25.2679  -13.8158   20.5718 C   0  0  0  0  0  0
  -24.1883  -13.0465   20.9184 C   0  0  0  0  0  0
  -24.6385  -11.6922   20.8730 C   0  0  0  0  0  0
  -23.9042  -10.4313   21.0400 C   0  0  0  0  0  0
  -24.3591   -9.4226   21.9178 C   0  0  0  0  0  0
  -23.6287   -8.2248   22.0749 C   0  0  0  0  0  0
  -22.4265   -8.0281   21.3554 C   0  0  0  0  0  0
  -21.9903   -9.0236   20.4633 C   0  0  0  0  0  0
  -22.7210  -10.2131   20.3046 C   0  0  0  0  0  0
  -21.6860   -6.0749   22.5283 C   0  0  0  0  0  0
  -21.4014   -6.5630   23.8215 C   0  0  0  0  0  0
  -21.3676   -5.6766   24.9176 C   0  0  0  0  0  0
  -21.6060   -4.3036   24.7207 C   0  0  0  0  0  0
  -21.8823   -3.8147   23.4310 C   0  0  0  0  0  0
  -21.9194   -4.6980   22.3393 C   0  0  0  0  0  0
  -22.7906  -13.5293   21.1825 C   0  0  0  0  0  0
  -22.1655   -4.2194   21.0956 F   0  0  0  0  0  0
  -21.5656   -3.4493   25.7697 F   0  0  0  0  0  0
  -30.0438  -13.2730   20.4454 N   0  0  0  0  0  0
  -26.3074  -12.9287   20.3375 N   0  0  0  0  0  0
  -25.9314  -11.6467   20.5767 N   0  0  0  0  0  0
  -22.0473  -12.8316   22.0347 N   0  0  0  0  0  0
  -25.4551  -15.1869   20.4209 N   0  0  0  0  0  0
  -31.7950  -14.7036   20.1090 O   0  0  0  0  0  0
  -21.6640   -6.8874   21.4236 O   0  0  0  0  0  0
  -22.3631  -14.5608   20.6662 O   0  0  0  0  0  0
  -24.6202  -31.8685   23.2107 C   0  0  0  0  0  0
  -25.9084  -32.4819   23.8416 C   0  0  1  0  0  0
  -27.2312  -27.4263   20.0822 C   0  0  0  0  0  0
  -25.5922  -33.8620   24.2334 N   0  0  0  0  0  0
  -23.4066  -30.4945   21.5548 C   0  0  2  0  0  0
  -24.8468  -28.9637   20.1170 C   0  0  0  0  0  0
  -22.7457  -29.4649   22.5005 C   0  0  0  0  0  0
  -18.0277  -28.1385   22.8497 C   0  0  0  0  0  0
  -24.1479  -36.7326   23.2638 C   0  0  0  0  0  0
  -25.9377  -30.8343   21.3600 C   0  0  0  0  0  0
  -26.0122  -29.4695   20.7040 C   0  0  0  0  0  0
  -27.2082  -28.7114   20.6764 C   0  0  0  0  0  0
  -26.0337  -26.9379   19.4993 C   0  0  0  0  0  0
  -24.8518  -27.6961   19.5148 C   0  0  0  0  0  0
  -23.6137  -29.8351   20.1670 C   0  0  0  0  0  0
  -25.4098  -36.3114   24.0336 C   0  0  1  0  0  0
  -20.5877  -28.3674   23.1309 C   0  0  2  0  0  0
  -20.6756  -26.9408   22.5416 C   0  0  0  0  0  0
  -19.5722  -26.6384   21.5222 C   0  0  0  0  0  0
  -18.1903  -26.7928   22.1637 C   0  0  0  0  0  0
  -19.1533  -28.8850   23.2893 C   0  0  0  0  0  0
  -18.9455  -30.1454   23.8905 C   0  0  0  0  0  0
  -17.6454  -30.6584   24.0569 C   0  0  0  0  0  0
  -25.9038  -34.9479   23.5128 C   0  0  0  0  0  0
  -16.5346  -29.9093   23.6316 C   0  0  0  0  0  0
  -16.7265  -28.6509   23.0344 C   0  0  0  0  0  0
  -26.4490  -31.6602   25.0754 C   0  0  0  0  0  0
  -25.3739  -31.3722   26.1495 C   0  0  0  0  0  0
  -27.0306  -30.3043   24.6110 C   0  0  0  0  0  0
  -27.6070  -32.4322   25.7513 C   0  0  0  0  0  0
  -27.5573  -37.1817   24.8465 C   0  0  0  0  0  0
  -21.4183  -29.3042   22.3738 N   0  0  0  0  0  0
  -26.4287  -37.3798   23.9414 N   0  0  0  0  0  0
  -24.6741  -31.0799   22.1000 N   0  0  0  0  0  0
  -23.4218  -28.8184   23.3048 O   0  0  0  0  0  0
  -28.4060  -26.6890   20.0931 O   0  0  0  0  0  0
  -26.5606  -34.8927   22.4691 O   0  0  0  0  0  0
  -23.5387  -32.1440   23.7488 O   0  0  0  0  0  0
  -30.8882  -16.8012   23.0996 C   0  0  0  0  0  0
  -31.1202  -18.0851   23.6211 C   0  0  0  0  0  0
  -30.1721  -17.7975   20.9890 C   0  0  0  0  0  0
  -30.3859  -19.1018   21.5159 C   0  0  0  0  0  0
  -30.4154  -16.6467   21.7821 C   0  0  0  0  0  0
  -30.8631  -19.2313   22.8455 C   0  0  0  0  0  0
  -29.7760  -23.2613   20.1502 C   0  0  0  0  0  0
  -29.6448  -24.5678   19.8116 C   0  0  0  0  0  0
  -31.1016  -22.6339   20.1923 C   0  0  0  0  0  0
  -32.4839  -20.6277   20.2060 C   0  0  0  0  0  0
  -30.0477  -20.3507   20.6774 C   0  0  0  0  0  0
  -28.3242  -25.3129   19.6883 C   0  0  0  0  0  0
  -30.0198  -15.3521   21.3566 N   0  0  0  0  0  0
  -31.1689  -21.2763   20.3634 N   0  0  0  0  0  0
  -32.1343  -23.2971   20.0326 O   0  0  0  0  0  0
  -31.1066  -20.7822   23.5665 Cl  0  0  0  0  0  0
  -31.4756  -12.4461   19.0885 H   0  0  0  0  0  0
  -30.3677  -11.2966   19.7794 H   0  0  0  0  0  0
  -29.7392  -11.7988   17.4124 H   0  0  0  0  0  0
  -29.6528  -13.5088   17.7728 H   0  0  0  0  0  0
  -27.8324  -11.3101   18.8080 H   0  0  0  0  0  0
  -27.3626  -12.6402   17.7860 H   0  0  0  0  0  0
  -27.7255  -14.2468   19.5941 H   0  0  0  0  0  0
  -28.6915  -11.8957   21.2874 H   0  0  0  0  0  0
  -28.4554  -13.4991   21.8908 H   0  0  0  0  0  0
  -25.2714   -9.5747   22.4773 H   0  0  0  0  0  0
  -24.0026   -7.4651   22.7455 H   0  0  0  0  0  0
  -21.0863   -8.8721   19.8925 H   0  0  0  0  0  0
  -22.3635  -10.9670   19.6173 H   0  0  0  0  0  0
  -21.1973   -7.6128   23.9750 H   0  0  0  0  0  0
  -21.1534   -6.0477   25.9098 H   0  0  0  0  0  0
  -22.0607   -2.7619   23.2774 H   0  0  0  0  0  0
  -22.3969  -11.9896   22.4691 H   0  0  0  0  0  0
  -21.1138  -13.1471   22.2549 H   0  0  0  0  0  0
  -24.7159  -15.8696   20.5474 H   0  0  0  0  0  0
  -26.3328  -15.6051   20.1359 H   0  0  0  0  0  0
  -26.7168  -32.5512   23.1193 H   0  0  0  0  0  0
  -25.0066  -33.9775   25.0474 H   0  0  0  0  0  0
  -22.6942  -31.3112   21.4196 H   0  0  0  0  0  0
  -23.3723  -35.9680   23.3311 H   0  0  0  0  0  0
  -24.3571  -36.8931   22.2052 H   0  0  0  0  0  0
  -23.7247  -37.6541   23.6646 H   0  0  0  0  0  0
  -26.0481  -31.6004   20.5908 H   0  0  0  0  0  0
  -26.8282  -30.8870   21.9749 H   0  0  0  0  0  0
  -28.1139  -29.1091   21.1123 H   0  0  0  0  0  0
  -25.9759  -25.9691   19.0247 H   0  0  0  0  0  0
  -23.9536  -27.2956   19.0634 H   0  0  0  0  0  0
  -23.7348  -30.6153   19.4150 H   0  0  0  0  0  0
  -22.7329  -29.2681   19.8604 H   0  0  0  0  0  0
  -25.1263  -36.1982   25.0829 H   0  0  0  0  0  0
  -20.9953  -28.3233   24.1440 H   0  0  0  0  0  0
  -20.5653  -26.2299   23.3620 H   0  0  0  0  0  0
  -21.6623  -26.7437   22.1206 H   0  0  0  0  0  0
  -19.6875  -25.6298   21.1243 H   0  0  0  0  0  0
  -19.6646  -27.3203   20.6758 H   0  0  0  0  0  0
  -17.4181  -26.6698   21.4032 H   0  0  0  0  0  0
  -18.0286  -26.0072   22.9030 H   0  0  0  0  0  0
  -19.7932  -30.7264   24.2282 H   0  0  0  0  0  0
  -17.5007  -31.6256   24.5190 H   0  0  0  0  0  0
  -15.5343  -30.2995   23.7624 H   0  0  0  0  0  0
  -15.8665  -28.0819   22.7054 H   0  0  0  0  0  0
  -24.5897  -30.7082   25.7833 H   0  0  0  0  0  0
  -24.8949  -32.2888   26.4957 H   0  0  0  0  0  0
  -25.8079  -30.8881   27.0253 H   0  0  0  0  0  0
  -26.2840  -29.6820   24.1154 H   0  0  0  0  0  0
  -27.4075  -29.7259   25.4557 H   0  0  0  0  0  0
  -27.8685  -30.4368   23.9255 H   0  0  0  0  0  0
  -27.2689  -33.3612   26.2121 H   0  0  0  0  0  0
  -28.3867  -32.6899   25.0329 H   0  0  0  0  0  0
  -28.0758  -31.8431   26.5406 H   0  0  0  0  0  0
  -28.2600  -38.0103   24.7490 H   0  0  0  0  0  0
  -28.1054  -36.2632   24.6304 H   0  0  0  0  0  0
  -27.2297  -37.1485   25.8872 H   0  0  0  0  0  0
  -20.9372  -29.8824   21.6990 H   0  0  0  0  0  0
  -26.0168  -38.2882   24.1401 H   0  0  0  0  0  0
  -31.0453  -15.9401   23.7330 H   0  0  0  0  0  0
  -31.4628  -18.1926   24.6395 H   0  0  0  0  0  0
  -29.7805  -17.6801   19.9883 H   0  0  0  0  0  0
  -28.8763  -22.7095   20.3714 H   0  0  0  0  0  0
  -30.5177  -25.1597   19.5720 H   0  0  0  0  0  0
  -33.1028  -20.8177   21.0841 H   0  0  0  0  0  0
  -33.0088  -21.0073   19.3283 H   0  0  0  0  0  0
  -32.4292  -19.5491   20.0633 H   0  0  0  0  0  0
  -29.2692  -20.8584   21.2484 H   0  0  0  0  0  0
  -29.5846  -20.0485   19.7373 H   0  0  0  0  0  0
  -27.5631  -24.7887   20.2702 H   0  0  0  0  0  0
  -28.0376  -25.2679   18.6372 H   0  0  0  0  0  0
  -29.1609  -15.0024   21.7531 H   0  0  0  0  0  0
  1 25  1  0  0  0
  1 30  2  0  0  0
  1 83  1  0  0  0
  2  3  1  0  0  0
  2 25  1  0  0  0
  2 87  1  0  0  0
  2 88  1  0  0  0
  3  4  1  0  0  0
  3 89  1  0  0  0
  3 90  1  0  0  0
  4  5  1  0  0  0
  4 91  1  0  0  0
  4 92  1  0  0  0
  5  6  1  0  0  0
  5 26  1  0  0  0
  5 93  1  0  0  0
  6 25  1  0  0  0
  6 94  1  0  0  0
  6 95  1  0  0  0
  7  8  2  0  0  0
  7 26  1  0  0  0
  7 29  1  0  0  0
  8  9  1  0  0  0
  8 22  1  0  0  0
  9 10  1  0  0  0
  9 27  2  0  0  0
 10 11  2  0  0  0
 10 15  1  0  0  0
 11 12  1  0  0  0
 11 96  1  0  0  0
 12 13  2  0  0  0
 12 97  1  0  0  0
 13 14  1  0  0  0
 13 31  1  0  0  0
 14 15  2  0  0  0
 14 98  1  0  0  0
 15 99  1  0  0  0
 16 17  2  0  0  0
 16 21  1  0  0  0
 16 31  1  0  0  0
 17 18  1  0  0  0
 17100  1  0  0  0
 18 19  2  0  0  0
 18101  1  0  0  0
 19 20  1  0  0  0
 19 24  1  0  0  0
 20 21  2  0  0  0
 20102  1  0  0  0
 21 23  1  0  0  0
 22 28  1  0  0  0
 22 32  2  0  0  0
 26 27  1  0  0  0
 28103  1  0  0  0
 28104  1  0  0  0
 29105  1  0  0  0
 29106  1  0  0  0
 33 34  1  0  0  0
 33 66  1  0  0  0
 33 70  2  0  0  0
 34 36  1  0  0  0
 34 59  1  0  0  0
 34107  1  0  0  0
 35 44  2  0  0  0
 35 45  1  0  0  0
 35 68  1  0  0  0
 36 56  1  0  0  0
 36108  1  0  0  0
 37 39  1  0  0  0
 37 47  1  0  0  0
 37 66  1  0  0  0
 37109  1  0  0  0
 38 43  2  0  0  0
 38 46  1  0  0  0
 38 47  1  0  0  0
 39 64  1  0  0  0
 39 67  2  0  0  0
 40 52  1  0  0  0
 40 53  2  0  0  0
 40 58  1  0  0  0
 41110  1  0  0  0
 41111  1  0  0  0
 41112  1  0  0  0
 41 48  1  0  0  0
 42 43  1  0  0  0
 42 66  1  0  0  0
 42113  1  0  0  0
 42114  1  0  0  0
 43 44  1  0  0  0
 44115  1  0  0  0
 45 46  2  0  0  0
 45116  1  0  0  0
 46117  1  0  0  0
 47118  1  0  0  0
 47119  1  0  0  0
 48 56  1  0  0  0
 48 65  1  0  0  0
 48120  1  0  0  0
 49 50  1  0  0  0
 49 53  1  0  0  0
 49 64  1  0  0  0
 49121  1  0  0  0
 50 51  1  0  0  0
 50122  1  0  0  0
 50123  1  0  0  0
 51 52  1  0  0  0
 51124  1  0  0  0
 51125  1  0  0  0
 52126  1  0  0  0
 52127  1  0  0  0
 53 54  1  0  0  0
 54 55  2  0  0  0
 54128  1  0  0  0
 55 57  1  0  0  0
 55129  1  0  0  0
 56 69  2  0  0  0
 57 58  2  0  0  0
 57130  1  0  0  0
 58131  1  0  0  0
 59 60  1  0  0  0
 59 61  1  0  0  0
 59 62  1  0  0  0
 60132  1  0  0  0
 60133  1  0  0  0
 60134  1  0  0  0
 61135  1  0  0  0
 61136  1  0  0  0
 61137  1  0  0  0
 62138  1  0  0  0
 62139  1  0  0  0
 62140  1  0  0  0
 63 65  1  0  0  0
 63141  1  0  0  0
 63142  1  0  0  0
 63143  1  0  0  0
 64144  1  0  0  0
 65145  1  0  0  0
 68 82  1  0  0  0
 71 72  2  0  0  0
 71 75  1  0  0  0
 71146  1  0  0  0
 72 76  1  0  0  0
 72147  1  0  0  0
 73 74  1  0  0  0
 73 75  2  0  0  0
 73148  1  0  0  0
 74 76  2  0  0  0
 74 81  1  0  0  0
 75 83  1  0  0  0
 76 86  1  0  0  0
 77 78  2  0  0  0
 77 79  1  0  0  0
 77149  1  0  0  0
 78 82  1  0  0  0
 78150  1  0  0  0
 79 84  1  0  0  0
 79 85  2  0  0  0
 80 84  1  0  0  0
 80151  1  0  0  0
 80152  1  0  0  0
 80153  1  0  0  0
 81 84  1  0  0  0
 81154  1  0  0  0
 81155  1  0  0  0
 82156  1  0  0  0
 82157  1  0  0  0
 83158  1  0  0  0
M  ISO  4   1 100  68 101  82 101  83 100
M  END
> <chiral flag>
0

> <version>
0

> <s_m_source_file>
/data/baiqing/PycharmProjects/Reinvent-master-3.2/result/LINK_invent/BTK/process_docking_weight1_custom_product_contain_oxygen_bond_distance_aromatic_linkinvent_7_9_3/rearranged_h_0050.sdf

> <i_m_source_file_index>
10

> <r_mmod_Potential_Energy-OPLS-2005>
-59.1489677429199

> <r_mmod_Stretch_Energy-OPLS-2005>
43.9974174499512

> <r_mmod_Bend_Energy-OPLS-2005>
105.949951171875

> <r_mmod_Torsional_Energy-OPLS-2005>
240.986907958984

> <r_mmod_Improper_Torsional_Energy-OPLS-2005>
3.62608432769775

> <r_mmod_Van_der_Waal_Energy-OPLS-2005>
172.357925415039

> <r_mmod_Electrostatic_Energy-OPLS-2005>
-401.017669677734

> <r_mmod_Solvation_Energy-OPLS-2005>
-236.975799560547

> <b_mmod_Minimization_Converged-OPLS-2005>
0

> <r_mmod_RMS_Derivative-OPLS-2005>
3.26458644866943

$$$$
10
                    3D
 Structure written by MMmdl.
157165  0  0  1  0            999 V2000
  -30.6072  -14.6420   20.4918 C   0  0  0  0  0  0
  -30.4438  -12.3940   19.4450 C   0  0  0  0  0  0
  -29.5077  -12.5066   18.2201 C   0  0  0  0  0  0
  -28.0309  -12.3422   18.6344 C   0  0  0  0  0  0
  -27.6534  -13.2114   19.8627 C   0  0  2  0  0  0
  -28.7001  -13.0607   20.9902 C   0  0  0  0  0  0
  -25.2567  -13.8154   20.5680 C   0  0  0  0  0  0
  -24.1825  -13.0437   20.9185 C   0  0  0  0  0  0
  -24.6386  -11.6902   20.8742 C   0  0  0  0  0  0
  -23.9054  -10.4291   21.0415 C   0  0  0  0  0  0
  -24.3607   -9.4203   21.9187 C   0  0  0  0  0  0
  -23.6277   -8.2241   22.0757 C   0  0  0  0  0  0
  -22.4259   -8.0291   21.3549 C   0  0  0  0  0  0
  -21.9895   -9.0263   20.4656 C   0  0  0  0  0  0
  -22.7229  -10.2137   20.3066 C   0  0  0  0  0  0
  -21.6855   -6.0737   22.5277 C   0  0  0  0  0  0
  -21.4018   -6.5641   23.8210 C   0  0  0  0  0  0
  -21.3656   -5.6789   24.9171 C   0  0  0  0  0  0
  -21.6046   -4.3055   24.7223 C   0  0  0  0  0  0
  -21.8818   -3.8145   23.4345 C   0  0  0  0  0  0
  -21.9190   -4.6965   22.3396 C   0  0  0  0  0  0
  -22.7851  -13.5252   21.1838 C   0  0  0  0  0  0
  -22.1659   -4.2149   21.0973 F   0  0  0  0  0  0
  -21.5617   -3.4535   25.7738 F   0  0  0  0  0  0
  -30.0141  -13.4089   20.4250 N   0  0  0  0  0  0
  -26.2990  -12.9324   20.3313 N   0  0  0  0  0  0
  -25.9313  -11.6483   20.5751 N   0  0  0  0  0  0
  -22.0469  -12.8273   22.0402 N   0  0  0  0  0  0
  -25.4267  -15.1881   20.4094 N   0  0  0  0  0  0
  -31.7769  -14.8195   20.1363 O   0  0  0  0  0  0
  -21.6631   -6.8884   21.4242 O   0  0  0  0  0  0
  -22.3548  -14.5553   20.6673 O   0  0  0  0  0  0
  -24.6255  -31.8600   23.2032 C   0  0  0  0  0  0
  -25.9102  -32.4781   23.8362 C   0  0  1  0  0  0
  -27.2278  -27.3254   20.1207 C   0  0  0  0  0  0
  -25.5918  -33.8580   24.2288 N   0  0  0  0  0  0
  -23.4198  -30.4819   21.5453 C   0  0  2  0  0  0
  -24.8686  -28.9366   20.1138 C   0  0  0  0  0  0
  -22.7476  -29.4611   22.4945 C   0  0  0  0  0  0
  -18.0285  -28.1382   22.8485 C   0  0  0  0  0  0
  -24.1486  -36.7296   23.2634 C   0  0  0  0  0  0
  -25.9603  -30.7926   21.3742 C   0  0  0  0  0  0
  -26.0365  -29.4192   20.7193 C   0  0  0  0  0  0
  -27.2212  -28.6245   20.7137 C   0  0  0  0  0  0
  -26.0428  -26.8993   19.4816 C   0  0  0  0  0  0
  -24.8729  -27.6815   19.4862 C   0  0  0  0  0  0
  -23.6358  -29.8151   20.1613 C   0  0  0  0  0  0
  -25.4107  -36.3082   24.0330 C   0  0  1  0  0  0
  -20.5883  -28.3679   23.1289 C   0  0  2  0  0  0
  -20.6771  -26.9402   22.5413 C   0  0  0  0  0  0
  -19.5748  -26.6379   21.5211 C   0  0  0  0  0  0
  -18.1928  -26.7927   22.1621 C   0  0  0  0  0  0
  -19.1535  -28.8850   23.2882 C   0  0  0  0  0  0
  -18.9461  -30.1453   23.8898 C   0  0  0  0  0  0
  -17.6457  -30.6584   24.0561 C   0  0  0  0  0  0
  -25.9046  -34.9453   23.5109 C   0  0  0  0  0  0
  -16.5350  -29.9082   23.6324 C   0  0  0  0  0  0
  -16.7272  -28.6499   23.0350 C   0  0  0  0  0  0
  -26.4490  -31.6592   25.0731 C   0  0  0  0  0  0
  -25.3730  -31.3735   26.1466 C   0  0  0  0  0  0
  -27.0323  -30.3015   24.6175 C   0  0  0  0  0  0
  -27.6058  -32.4324   25.7494 C   0  0  0  0  0  0
  -27.5579  -37.1794   24.8455 C   0  0  0  0  0  0
  -21.4189  -29.3036   22.3692 N   0  0  0  0  0  0
  -26.4283  -37.3778   23.9413 N   0  0  0  0  0  0
  -24.6872  -31.0612   22.0981 N   0  0  0  0  0  0
  -23.4200  -28.8148   23.3016 O   0  0  0  0  0  0
  -28.3408  -26.4748   20.1402 O   0  0  0  0  0  0
  -26.5612  -34.8916   22.4677 O   0  0  0  0  0  0
  -23.5419  -32.1395   23.7358 O   0  0  0  0  0  0
  -28.9406  -19.1762   19.5068 C   0  0  0  0  0  0
  -28.9524  -17.7619   19.6785 C   0  0  0  0  0  0
  -30.7146  -17.9682   21.2986 C   0  0  0  0  0  0
  -29.8109  -20.0361   20.2270 C   0  0  0  0  0  0
  -30.6924  -19.3966   21.1592 C   0  0  0  0  0  0
  -29.8589  -17.1155   20.5574 C   0  0  0  0  0  0
  -29.1064  -23.9790   20.0677 C   0  0  0  0  0  0
  -27.9385  -22.2130   21.3588 C   0  0  0  0  0  0
  -29.8942  -21.5746   19.8634 C   0  0  0  0  0  0
  -28.1108  -25.0841   20.6093 C   0  0  0  0  0  0
  -31.6503  -20.2230   22.0155 C   0  0  0  0  0  0
  -29.7604  -15.6770   20.7863 N   0  0  0  0  0  0
  -28.9837  -22.6439   20.4264 N   0  0  0  0  0  0
  -30.0006  -24.3445   19.2972 O   0  0  0  0  0  0
  -32.1439  -19.5140   23.0314 F   0  0  0  0  0  0
  -32.6722  -20.6439   21.2712 F   0  0  0  0  0  0
  -31.0275  -21.2819   22.5347 F   0  0  0  0  0  0
  -31.4825  -12.5321   19.1397 H   0  0  0  0  0  0
  -30.3886  -11.3968   19.8835 H   0  0  0  0  0  0
  -29.7712  -11.7564   17.4732 H   0  0  0  0  0  0
  -29.6479  -13.4759   17.7388 H   0  0  0  0  0  0
  -27.8704  -11.2888   18.8653 H   0  0  0  0  0  0
  -27.3758  -12.5745   17.7938 H   0  0  0  0  0  0
  -27.6714  -14.2457   19.5205 H   0  0  0  0  0  0
  -28.7127  -12.0364   21.3667 H   0  0  0  0  0  0
  -28.4470  -13.6877   21.8471 H   0  0  0  0  0  0
  -25.2749   -9.5673   22.4761 H   0  0  0  0  0  0
  -23.9984   -7.4636   22.7480 H   0  0  0  0  0  0
  -21.0818   -8.8793   19.8970 H   0  0  0  0  0  0
  -22.3691  -10.9678   19.6182 H   0  0  0  0  0  0
  -21.2020   -7.6151   23.9717 H   0  0  0  0  0  0
  -21.1473   -6.0517   25.9072 H   0  0  0  0  0  0
  -22.0597   -2.7609   23.2845 H   0  0  0  0  0  0
  -22.4059  -11.9948   22.4829 H   0  0  0  0  0  0
  -21.1097  -13.1336   22.2589 H   0  0  0  0  0  0
  -24.6554  -15.8378   20.5175 H   0  0  0  0  0  0
  -26.2684  -15.6310   20.0645 H   0  0  0  0  0  0
  -26.7170  -32.5455   23.1114 H   0  0  0  0  0  0
  -25.0070  -33.9729   25.0435 H   0  0  0  0  0  0
  -22.7129  -31.3017   21.4009 H   0  0  0  0  0  0
  -23.3749  -35.9625   23.3286 H   0  0  0  0  0  0
  -24.3587  -36.8930   22.2052 H   0  0  0  0  0  0
  -23.7235  -37.6493   23.6667 H   0  0  0  0  0  0
  -26.0894  -31.5547   20.6042 H   0  0  0  0  0  0
  -26.8413  -30.8440   22.0025 H   0  0  0  0  0  0
  -28.1181  -28.9890   21.1944 H   0  0  0  0  0  0
  -26.0099  -25.9473   18.9714 H   0  0  0  0  0  0
  -23.9800  -27.3107   19.0011 H   0  0  0  0  0  0
  -23.7550  -30.5903   19.4035 H   0  0  0  0  0  0
  -22.7574  -29.2421   19.8583 H   0  0  0  0  0  0
  -25.1282  -36.1932   25.0819 H   0  0  0  0  0  0
  -20.9969  -28.3251   24.1411 H   0  0  0  0  0  0
  -20.5665  -26.2287   23.3610 H   0  0  0  0  0  0
  -21.6646  -26.7429   22.1214 H   0  0  0  0  0  0
  -19.6909  -25.6287   21.1247 H   0  0  0  0  0  0
  -19.6690  -27.3187   20.6738 H   0  0  0  0  0  0
  -17.4197  -26.6674   21.4024 H   0  0  0  0  0  0
  -18.0327  -26.0069   22.9015 H   0  0  0  0  0  0
  -19.7936  -30.7273   24.2270 H   0  0  0  0  0  0
  -17.5011  -31.6265   24.5160 H   0  0  0  0  0  0
  -15.5351  -30.2983   23.7647 H   0  0  0  0  0  0
  -15.8672  -28.0813   22.7070 H   0  0  0  0  0  0
  -24.5901  -30.7082   25.7808 H   0  0  0  0  0  0
  -24.8926  -32.2903   26.4893 H   0  0  0  0  0  0
  -25.8063  -30.8920   27.0241 H   0  0  0  0  0  0
  -26.2890  -29.6781   24.1192 H   0  0  0  0  0  0
  -27.4014  -29.7257   25.4671 H   0  0  0  0  0  0
  -27.8765  -30.4302   23.9398 H   0  0  0  0  0  0
  -27.2672  -33.3620   26.2081 H   0  0  0  0  0  0
  -28.3860  -32.6890   25.0315 H   0  0  0  0  0  0
  -28.0736  -31.8446   26.5403 H   0  0  0  0  0  0
  -28.2579  -38.0108   24.7531 H   0  0  0  0  0  0
  -28.1097  -36.2649   24.6238 H   0  0  0  0  0  0
  -27.2314  -37.1390   25.8859 H   0  0  0  0  0  0
  -20.9369  -29.8773   21.6917 H   0  0  0  0  0  0
  -26.0167  -38.2847   24.1439 H   0  0  0  0  0  0
  -28.2597  -19.6018   18.7826 H   0  0  0  0  0  0
  -28.2554  -17.1682   19.1036 H   0  0  0  0  0  0
  -31.3931  -17.5203   22.0092 H   0  0  0  0  0  0
  -26.9538  -22.3182   20.9020 H   0  0  0  0  0  0
  -27.9579  -22.8116   22.2700 H   0  0  0  0  0  0
  -28.0407  -21.1760   21.6729 H   0  0  0  0  0  0
  -29.7789  -21.6240   18.7794 H   0  0  0  0  0  0
  -30.9199  -21.9052   20.0274 H   0  0  0  0  0  0
  -28.1905  -25.1022   21.6962 H   0  0  0  0  0  0
  -27.1036  -24.7333   20.3925 H   0  0  0  0  0  0
  -28.8259  -15.3493   20.9768 H   0  0  0  0  0  0
  1 25  1  0  0  0
  1 30  2  0  0  0
  1 82  1  0  0  0
  2  3  1  0  0  0
  2 25  1  0  0  0
  2 88  1  0  0  0
  2 89  1  0  0  0
  3  4  1  0  0  0
  3 90  1  0  0  0
  3 91  1  0  0  0
  4  5  1  0  0  0
  4 92  1  0  0  0
  4 93  1  0  0  0
  5  6  1  0  0  0
  5 26  1  0  0  0
  5 94  1  0  0  0
  6 25  1  0  0  0
  6 95  1  0  0  0
  6 96  1  0  0  0
  7  8  2  0  0  0
  7 26  1  0  0  0
  7 29  1  0  0  0
  8  9  1  0  0  0
  8 22  1  0  0  0
  9 10  1  0  0  0
  9 27  2  0  0  0
 10 11  2  0  0  0
 10 15  1  0  0  0
 11 12  1  0  0  0
 11 97  1  0  0  0
 12 13  2  0  0  0
 12 98  1  0  0  0
 13 14  1  0  0  0
 13 31  1  0  0  0
 14 15  2  0  0  0
 14 99  1  0  0  0
 15100  1  0  0  0
 16 17  2  0  0  0
 16 21  1  0  0  0
 16 31  1  0  0  0
 17 18  1  0  0  0
 17101  1  0  0  0
 18 19  2  0  0  0
 18102  1  0  0  0
 19 20  1  0  0  0
 19 24  1  0  0  0
 20 21  2  0  0  0
 20103  1  0  0  0
 21 23  1  0  0  0
 22 28  1  0  0  0
 22 32  2  0  0  0
 26 27  1  0  0  0
 28104  1  0  0  0
 28105  1  0  0  0
 29106  1  0  0  0
 29107  1  0  0  0
 33 34  1  0  0  0
 33 66  1  0  0  0
 33 70  2  0  0  0
 34 36  1  0  0  0
 34 59  1  0  0  0
 34108  1  0  0  0
 35 44  2  0  0  0
 35 45  1  0  0  0
 35 68  1  0  0  0
 36 56  1  0  0  0
 36109  1  0  0  0
 37 39  1  0  0  0
 37 47  1  0  0  0
 37 66  1  0  0  0
 37110  1  0  0  0
 38 43  2  0  0  0
 38 46  1  0  0  0
 38 47  1  0  0  0
 39 64  1  0  0  0
 39 67  2  0  0  0
 40 52  1  0  0  0
 40 53  2  0  0  0
 40 58  1  0  0  0
 41111  1  0  0  0
 41112  1  0  0  0
 41113  1  0  0  0
 41 48  1  0  0  0
 42 43  1  0  0  0
 42 66  1  0  0  0
 42114  1  0  0  0
 42115  1  0  0  0
 43 44  1  0  0  0
 44116  1  0  0  0
 45 46  2  0  0  0
 45117  1  0  0  0
 46118  1  0  0  0
 47119  1  0  0  0
 47120  1  0  0  0
 48 56  1  0  0  0
 48 65  1  0  0  0
 48121  1  0  0  0
 49 50  1  0  0  0
 49 53  1  0  0  0
 49 64  1  0  0  0
 49122  1  0  0  0
 50 51  1  0  0  0
 50123  1  0  0  0
 50124  1  0  0  0
 51 52  1  0  0  0
 51125  1  0  0  0
 51126  1  0  0  0
 52127  1  0  0  0
 52128  1  0  0  0
 53 54  1  0  0  0
 54 55  2  0  0  0
 54129  1  0  0  0
 55 57  1  0  0  0
 55130  1  0  0  0
 56 69  2  0  0  0
 57 58  2  0  0  0
 57131  1  0  0  0
 58132  1  0  0  0
 59 60  1  0  0  0
 59 61  1  0  0  0
 59 62  1  0  0  0
 60133  1  0  0  0
 60134  1  0  0  0
 60135  1  0  0  0
 61136  1  0  0  0
 61137  1  0  0  0
 61138  1  0  0  0
 62139  1  0  0  0
 62140  1  0  0  0
 62141  1  0  0  0
 63 65  1  0  0  0
 63142  1  0  0  0
 63143  1  0  0  0
 63144  1  0  0  0
 64145  1  0  0  0
 65146  1  0  0  0
 68 80  1  0  0  0
 71 72  2  0  0  0
 71 74  1  0  0  0
 71147  1  0  0  0
 72 76  1  0  0  0
 72148  1  0  0  0
 73 75  1  0  0  0
 73 76  2  0  0  0
 73149  1  0  0  0
 74 75  2  0  0  0
 74 79  1  0  0  0
 75 81  1  0  0  0
 76 82  1  0  0  0
 77 80  1  0  0  0
 77 83  1  0  0  0
 77 84  2  0  0  0
 78 83  1  0  0  0
 78150  1  0  0  0
 78151  1  0  0  0
 78152  1  0  0  0
 79 83  1  0  0  0
 79153  1  0  0  0
 79154  1  0  0  0
 80155  1  0  0  0
 80156  1  0  0  0
 81 85  1  0  0  0
 81 86  1  0  0  0
 81 87  1  0  0  0
 82157  1  0  0  0
M  ISO  4   1 100  68 101  80 101  82 100
M  END
> <chiral flag>
0

> <version>
0

> <s_m_source_file>
/data/baiqing/PycharmProjects/Reinvent-master-3.2/result/LINK_invent/BTK/process_docking_weight1_custom_product_contain_oxygen_bond_distance_aromatic_linkinvent_7_9_3/rearranged_h_0050.sdf

> <i_m_source_file_index>
11

> <r_mmod_Potential_Energy-OPLS-2005>
133.811416625977

> <r_mmod_Stretch_Energy-OPLS-2005>
83.6171798706055

> <r_mmod_Bend_Energy-OPLS-2005>
133.660369873047

> <r_mmod_Torsional_Energy-OPLS-2005>
267.274322509766

> <r_mmod_Improper_Torsional_Energy-OPLS-2005>
6.51393365859985

> <r_mmod_Van_der_Waal_Energy-OPLS-2005>
148.013519287109

> <r_mmod_Electrostatic_Energy-OPLS-2005>
-318.032684326172

> <r_mmod_Solvation_Energy-OPLS-2005>
-235.478302001953

> <b_mmod_Minimization_Converged-OPLS-2005>
0

> <r_mmod_RMS_Derivative-OPLS-2005>
1.34651350975037

$$$$
11
                    3D
 Structure written by MMmdl.
157165  0  0  1  0            999 V2000
  -30.6780  -14.5237   20.6161 C   0  0  0  0  0  0
  -30.4336  -12.3498   19.4366 C   0  0  0  0  0  0
  -29.5034  -12.5359   18.2186 C   0  0  0  0  0  0
  -28.0258  -12.3746   18.6222 C   0  0  0  0  0  0
  -27.6607  -13.2010   19.8831 C   0  0  2  0  0  0
  -28.7041  -12.9933   21.0062 C   0  0  0  0  0  0
  -25.2521  -13.8035   20.5554 C   0  0  0  0  0  0
  -24.1830  -13.0341   20.9199 C   0  0  0  0  0  0
  -24.6416  -11.6832   20.8790 C   0  0  0  0  0  0
  -23.9072  -10.4235   21.0444 C   0  0  0  0  0  0
  -24.3627   -9.4155   21.9207 C   0  0  0  0  0  0
  -23.6283   -8.2209   22.0785 C   0  0  0  0  0  0
  -22.4277   -8.0259   21.3556 C   0  0  0  0  0  0
  -21.9922   -9.0233   20.4667 C   0  0  0  0  0  0
  -22.7262  -10.2102   20.3076 C   0  0  0  0  0  0
  -21.6845   -6.0725   22.5269 C   0  0  0  0  0  0
  -21.4011   -6.5621   23.8205 C   0  0  0  0  0  0
  -21.3680   -5.6783   24.9168 C   0  0  0  0  0  0
  -21.6064   -4.3050   24.7214 C   0  0  0  0  0  0
  -21.8828   -3.8140   23.4333 C   0  0  0  0  0  0
  -21.9192   -4.6955   22.3387 C   0  0  0  0  0  0
  -22.7863  -13.5175   21.1823 C   0  0  0  0  0  0
  -22.1661   -4.2132   21.0964 F   0  0  0  0  0  0
  -21.5633   -3.4543   25.7727 F   0  0  0  0  0  0
  -30.0315  -13.3292   20.4624 N   0  0  0  0  0  0
  -26.3023  -12.9244   20.3396 N   0  0  0  0  0  0
  -25.9357  -11.6416   20.5843 N   0  0  0  0  0  0
  -22.0486  -12.8205   22.0394 N   0  0  0  0  0  0
  -25.4021  -15.1667   20.3566 N   0  0  0  0  0  0
  -31.8023  -14.7309   20.1472 O   0  0  0  0  0  0
  -21.6636   -6.8869   21.4233 O   0  0  0  0  0  0
  -22.3577  -14.5480   20.6666 O   0  0  0  0  0  0
  -24.6207  -31.8613   23.2055 C   0  0  0  0  0  0
  -25.9084  -32.4790   23.8381 C   0  0  1  0  0  0
  -27.2645  -27.4225   20.1076 C   0  0  0  0  0  0
  -25.5901  -33.8577   24.2316 N   0  0  0  0  0  0
  -23.4110  -30.4838   21.5413 C   0  0  2  0  0  0
  -24.8630  -28.9410   20.1212 C   0  0  0  0  0  0
  -22.7432  -29.4629   22.4922 C   0  0  0  0  0  0
  -18.0278  -28.1358   22.8495 C   0  0  0  0  0  0
  -24.1477  -36.7351   23.2636 C   0  0  0  0  0  0
  -25.9378  -30.8311   21.3532 C   0  0  0  0  0  0
  -26.0197  -29.4595   20.7116 C   0  0  0  0  0  0
  -27.2192  -28.7097   20.6985 C   0  0  0  0  0  0
  -26.0772  -26.9092   19.5350 C   0  0  0  0  0  0
  -24.8862  -27.6625   19.5339 C   0  0  0  0  0  0
  -23.6262  -29.8096   20.1589 C   0  0  0  0  0  0
  -25.4084  -36.3100   24.0351 C   0  0  1  0  0  0
  -20.5866  -28.3672   23.1283 C   0  0  2  0  0  0
  -20.6758  -26.9389   22.5423 C   0  0  0  0  0  0
  -19.5741  -26.6371   21.5210 C   0  0  0  0  0  0
  -18.1915  -26.7914   22.1603 C   0  0  0  0  0  0
  -19.1530  -28.8828   23.2896 C   0  0  0  0  0  0
  -18.9464  -30.1424   23.8921 C   0  0  0  0  0  0
  -17.6472  -30.6567   24.0570 C   0  0  0  0  0  0
  -25.9020  -34.9456   23.5141 C   0  0  0  0  0  0
  -16.5356  -29.9087   23.6314 C   0  0  0  0  0  0
  -16.7273  -28.6493   23.0354 C   0  0  0  0  0  0
  -26.4515  -31.6553   25.0708 C   0  0  0  0  0  0
  -25.3811  -31.3681   26.1488 C   0  0  0  0  0  0
  -27.0380  -30.3001   24.6089 C   0  0  0  0  0  0
  -27.6075  -32.4259   25.7501 C   0  0  0  0  0  0
  -27.5583  -37.1812   24.8446 C   0  0  0  0  0  0
  -21.4149  -29.3041   22.3686 N   0  0  0  0  0  0
  -26.4268  -37.3798   23.9419 N   0  0  0  0  0  0
  -24.6751  -31.0734   22.0934 N   0  0  0  0  0  0
  -23.4180  -28.8168   23.2993 O   0  0  0  0  0  0
  -28.4690  -26.7351   20.1287 O   0  0  0  0  0  0
  -26.5588  -34.8921   22.4703 O   0  0  0  0  0  0
  -23.5394  -32.1333   23.7441 O   0  0  0  0  0  0
  -31.4852  -18.9087   21.8274 C   0  0  0  0  0  0
  -31.3389  -17.4996   21.7510 C   0  0  0  0  0  0
  -29.2808  -19.2044   20.8775 C   0  0  0  0  0  0
  -30.4634  -19.7821   21.3797 C   0  0  0  0  0  0
  -29.1185  -17.8022   20.8182 C   0  0  0  0  0  0
  -30.1567  -16.9214   21.2290 C   0  0  0  0  0  0
  -29.4479  -23.4881   21.1112 C   0  0  0  0  0  0
  -27.7931  -17.2800   20.3110 C   0  0  0  0  0  0
  -30.6571  -21.3124   21.4524 C   0  0  0  0  0  0
  -28.2405  -24.2315   20.4878 C   0  0  0  0  0  0
  -28.6027  -25.4217   19.5479 C   0  0  0  0  0  0
  -29.9424  -15.4965   21.2090 N   0  0  0  0  0  0
  -29.5532  -22.1516   20.9449 N   0  0  0  0  0  0
  -30.2827  -24.1248   21.7560 O   0  0  0  0  0  0
  -31.4767  -12.4693   19.1359 H   0  0  0  0  0  0
  -30.3538  -11.3364   19.8333 H   0  0  0  0  0  0
  -29.7560  -11.8270   17.4294 H   0  0  0  0  0  0
  -29.6589  -13.5318   17.7990 H   0  0  0  0  0  0
  -27.8399  -11.3139   18.7978 H   0  0  0  0  0  0
  -27.3835  -12.6599   17.7869 H   0  0  0  0  0  0
  -27.6948  -14.2460   19.5833 H   0  0  0  0  0  0
  -28.7006  -11.9565   21.3413 H   0  0  0  0  0  0
  -28.4481  -13.5795   21.8913 H   0  0  0  0  0  0
  -25.2765   -9.5626   22.4780 H   0  0  0  0  0  0
  -23.9972   -7.4616   22.7536 H   0  0  0  0  0  0
  -21.0843   -8.8772   19.8957 H   0  0  0  0  0  0
  -22.3738  -10.9660   19.6184 H   0  0  0  0  0  0
  -21.1989   -7.6127   23.9685 H   0  0  0  0  0  0
  -21.1510   -6.0522   25.9066 H   0  0  0  0  0  0
  -22.0590   -2.7601   23.2833 H   0  0  0  0  0  0
  -22.4063  -11.9829   22.4762 H   0  0  0  0  0  0
  -21.1131  -13.1304   22.2609 H   0  0  0  0  0  0
  -24.5815  -15.7622   20.3218 H   0  0  0  0  0  0
  -26.1636  -15.5195   19.7949 H   0  0  0  0  0  0
  -26.7178  -32.5521   23.1167 H   0  0  0  0  0  0
  -25.0075  -33.9710   25.0479 H   0  0  0  0  0  0
  -22.7044  -31.3028   21.3924 H   0  0  0  0  0  0
  -23.3718  -35.9707   23.3261 H   0  0  0  0  0  0
  -24.3600  -36.9004   22.2065 H   0  0  0  0  0  0
  -23.7247  -37.6555   23.6678 H   0  0  0  0  0  0
  -26.0342  -31.5864   20.5706 H   0  0  0  0  0  0
  -26.8301  -30.9024   21.9622 H   0  0  0  0  0  0
  -28.1166  -29.1123   21.1484 H   0  0  0  0  0  0
  -26.0447  -25.9208   19.1015 H   0  0  0  0  0  0
  -23.9937  -27.2453   19.0873 H   0  0  0  0  0  0
  -23.7479  -30.5794   19.3956 H   0  0  0  0  0  0
  -22.7517  -29.2327   19.8531 H   0  0  0  0  0  0
  -25.1246  -36.1987   25.0851 H   0  0  0  0  0  0
  -20.9989  -28.3279   24.1385 H   0  0  0  0  0  0
  -20.5641  -26.2294   23.3640 H   0  0  0  0  0  0
  -21.6640  -26.7401   22.1238 H   0  0  0  0  0  0
  -19.6916  -25.6296   21.1226 H   0  0  0  0  0  0
  -19.6688  -27.3193   20.6750 H   0  0  0  0  0  0
  -17.4208  -26.6704   21.3977 H   0  0  0  0  0  0
  -18.0273  -26.0010   22.8942 H   0  0  0  0  0  0
  -19.7944  -30.7216   24.2310 H   0  0  0  0  0  0
  -17.5033  -31.6247   24.5169 H   0  0  0  0  0  0
  -15.5361  -30.3013   23.7599 H   0  0  0  0  0  0
  -15.8661  -28.0820   22.7056 H   0  0  0  0  0  0
  -24.5895  -30.7127   25.7864 H   0  0  0  0  0  0
  -24.9129  -32.2863   26.5048 H   0  0  0  0  0  0
  -25.8198  -30.8771   27.0187 H   0  0  0  0  0  0
  -26.2946  -29.6690   24.1217 H   0  0  0  0  0  0
  -27.4241  -29.7312   25.4557 H   0  0  0  0  0  0
  -27.8719  -30.4318   23.9184 H   0  0  0  0  0  0
  -27.2665  -33.3497   26.2189 H   0  0  0  0  0  0
  -28.3874  -32.6911   25.0351 H   0  0  0  0  0  0
  -28.0767  -31.8313   26.5345 H   0  0  0  0  0  0
  -28.2560  -38.0149   24.7540 H   0  0  0  0  0  0
  -28.1117  -36.2686   24.6187 H   0  0  0  0  0  0
  -27.2329  -37.1371   25.8853 H   0  0  0  0  0  0
  -20.9313  -29.8826   21.6951 H   0  0  0  0  0  0
  -26.0163  -38.2883   24.1438 H   0  0  0  0  0  0
  -32.3975  -19.3232   22.2363 H   0  0  0  0  0  0
  -32.1353  -16.8683   22.1243 H   0  0  0  0  0  0
  -28.4699  -19.8361   20.5475 H   0  0  0  0  0  0
  -27.2179  -18.0657   19.8162 H   0  0  0  0  0  0
  -27.2043  -16.9194   21.1531 H   0  0  0  0  0  0
  -27.9423  -16.4831   19.5860 H   0  0  0  0  0  0
  -31.5531  -21.5647   20.8833 H   0  0  0  0  0  0
  -30.8677  -21.5847   22.4881 H   0  0  0  0  0  0
  -27.5976  -24.5890   21.2928 H   0  0  0  0  0  0
  -27.6370  -23.5191   19.9269 H   0  0  0  0  0  0
  -28.0607  -25.3501   18.6050 H   0  0  0  0  0  0
  -29.6487  -25.3278   19.2485 H   0  0  0  0  0  0
  -29.0144  -15.1943   21.4607 H   0  0  0  0  0  0
  -28.8448  -21.6845   20.3969 H   0  0  0  0  0  0
  1 25  1  0  0  0
  1 30  2  0  0  0
  1 82  1  0  0  0
  2  3  1  0  0  0
  2 25  1  0  0  0
  2 85  1  0  0  0
  2 86  1  0  0  0
  3  4  1  0  0  0
  3 87  1  0  0  0
  3 88  1  0  0  0
  4  5  1  0  0  0
  4 89  1  0  0  0
  4 90  1  0  0  0
  5  6  1  0  0  0
  5 26  1  0  0  0
  5 91  1  0  0  0
  6 25  1  0  0  0
  6 92  1  0  0  0
  6 93  1  0  0  0
  7  8  2  0  0  0
  7 26  1  0  0  0
  7 29  1  0  0  0
  8  9  1  0  0  0
  8 22  1  0  0  0
  9 10  1  0  0  0
  9 27  2  0  0  0
 10 11  2  0  0  0
 10 15  1  0  0  0
 11 12  1  0  0  0
 11 94  1  0  0  0
 12 13  2  0  0  0
 12 95  1  0  0  0
 13 14  1  0  0  0
 13 31  1  0  0  0
 14 15  2  0  0  0
 14 96  1  0  0  0
 15 97  1  0  0  0
 16 17  2  0  0  0
 16 21  1  0  0  0
 16 31  1  0  0  0
 17 18  1  0  0  0
 17 98  1  0  0  0
 18 19  2  0  0  0
 18 99  1  0  0  0
 19 20  1  0  0  0
 19 24  1  0  0  0
 20 21  2  0  0  0
 20100  1  0  0  0
 21 23  1  0  0  0
 22 28  1  0  0  0
 22 32  2  0  0  0
 26 27  1  0  0  0
 28101  1  0  0  0
 28102  1  0  0  0
 29103  1  0  0  0
 29104  1  0  0  0
 33 34  1  0  0  0
 33 66  1  0  0  0
 33 70  2  0  0  0
 34 36  1  0  0  0
 34 59  1  0  0  0
 34105  1  0  0  0
 35 44  2  0  0  0
 35 45  1  0  0  0
 35 68  1  0  0  0
 36 56  1  0  0  0
 36106  1  0  0  0
 37 39  1  0  0  0
 37 47  1  0  0  0
 37 66  1  0  0  0
 37107  1  0  0  0
 38 43  2  0  0  0
 38 46  1  0  0  0
 38 47  1  0  0  0
 39 64  1  0  0  0
 39 67  2  0  0  0
 40 52  1  0  0  0
 40 53  2  0  0  0
 40 58  1  0  0  0
 41108  1  0  0  0
 41109  1  0  0  0
 41110  1  0  0  0
 41 48  1  0  0  0
 42 43  1  0  0  0
 42 66  1  0  0  0
 42111  1  0  0  0
 42112  1  0  0  0
 43 44  1  0  0  0
 44113  1  0  0  0
 45 46  2  0  0  0
 45114  1  0  0  0
 46115  1  0  0  0
 47116  1  0  0  0
 47117  1  0  0  0
 48 56  1  0  0  0
 48 65  1  0  0  0
 48118  1  0  0  0
 49 50  1  0  0  0
 49 53  1  0  0  0
 49 64  1  0  0  0
 49119  1  0  0  0
 50 51  1  0  0  0
 50120  1  0  0  0
 50121  1  0  0  0
 51 52  1  0  0  0
 51122  1  0  0  0
 51123  1  0  0  0
 52124  1  0  0  0
 52125  1  0  0  0
 53 54  1  0  0  0
 54 55  2  0  0  0
 54126  1  0  0  0
 55 57  1  0  0  0
 55127  1  0  0  0
 56 69  2  0  0  0
 57 58  2  0  0  0
 57128  1  0  0  0
 58129  1  0  0  0
 59 60  1  0  0  0
 59 61  1  0  0  0
 59 62  1  0  0  0
 60130  1  0  0  0
 60131  1  0  0  0
 60132  1  0  0  0
 61133  1  0  0  0
 61134  1  0  0  0
 61135  1  0  0  0
 62136  1  0  0  0
 62137  1  0  0  0
 62138  1  0  0  0
 63 65  1  0  0  0
 63139  1  0  0  0
 63140  1  0  0  0
 63141  1  0  0  0
 64142  1  0  0  0
 65143  1  0  0  0
 68 81  1  0  0  0
 71 72  2  0  0  0
 71 74  1  0  0  0
 71144  1  0  0  0
 72 76  1  0  0  0
 72145  1  0  0  0
 73 74  2  0  0  0
 73 75  1  0  0  0
 73146  1  0  0  0
 74 79  1  0  0  0
 75 76  2  0  0  0
 75 78  1  0  0  0
 76 82  1  0  0  0
 77 80  1  0  0  0
 77 83  1  0  0  0
 77 84  2  0  0  0
 78147  1  0  0  0
 78148  1  0  0  0
 78149  1  0  0  0
 79 83  1  0  0  0
 79150  1  0  0  0
 79151  1  0  0  0
 80 81  1  0  0  0
 80152  1  0  0  0
 80153  1  0  0  0
 81154  1  0  0  0
 81155  1  0  0  0
 82156  1  0  0  0
 83157  1  0  0  0
M  ISO  4   1 100  68 101  81 101  82 100
M  END
> <chiral flag>
0

> <version>
0

> <s_m_source_file>
/data/baiqing/PycharmProjects/Reinvent-master-3.2/result/LINK_invent/BTK/process_docking_weight1_custom_product_contain_oxygen_bond_distance_aromatic_linkinvent_7_9_3/rearranged_h_0050.sdf

> <i_m_source_file_index>
12

> <r_mmod_Potential_Energy-OPLS-2005>
-148.916381835938

> <r_mmod_Stretch_Energy-OPLS-2005>
44.6869049072266

> <r_mmod_Bend_Energy-OPLS-2005>
108.322135925293

> <r_mmod_Torsional_Energy-OPLS-2005>
211.877944946289

> <r_mmod_Improper_Torsional_Energy-OPLS-2005>
6.24425840377808

> <r_mmod_Van_der_Waal_Energy-OPLS-2005>
150.233795166016

> <r_mmod_Electrostatic_Energy-OPLS-2005>
-447.275177001953

> <r_mmod_Solvation_Energy-OPLS-2005>
-241.001663208008

> <b_mmod_Minimization_Converged-OPLS-2005>
0

> <r_mmod_RMS_Derivative-OPLS-2005>
3.95160603523254

$$$$
12
                    3D
 Structure written by MMmdl.
158166  0  0  1  0            999 V2000
  -30.7073  -14.5013   20.4653 C   0  0  0  0  0  0
  -30.4201  -12.2946   19.4475 C   0  0  0  0  0  0
  -29.5020  -12.4519   18.2172 C   0  0  0  0  0  0
  -28.0207  -12.3364   18.6266 C   0  0  0  0  0  0
  -27.6575  -13.2131   19.8557 C   0  0  2  0  0  0
  -28.6992  -13.0571   20.9880 C   0  0  0  0  0  0
  -25.2567  -13.8181   20.5689 C   0  0  0  0  0  0
  -24.1816  -13.0461   20.9187 C   0  0  0  0  0  0
  -24.6369  -11.6928   20.8732 C   0  0  0  0  0  0
  -23.9034  -10.4306   21.0387 C   0  0  0  0  0  0
  -24.3595   -9.4212   21.9148 C   0  0  0  0  0  0
  -23.6275   -8.2237   22.0734 C   0  0  0  0  0  0
  -22.4244   -8.0259   21.3536 C   0  0  0  0  0  0
  -21.9869   -9.0239   20.4643 C   0  0  0  0  0  0
  -22.7205  -10.2122   20.3043 C   0  0  0  0  0  0
  -21.6831   -6.0714   22.5259 C   0  0  0  0  0  0
  -21.4021   -6.5618   23.8197 C   0  0  0  0  0  0
  -21.3669   -5.6774   24.9165 C   0  0  0  0  0  0
  -21.6032   -4.3042   24.7204 C   0  0  0  0  0  0
  -21.8823   -3.8134   23.4330 C   0  0  0  0  0  0
  -21.9202   -4.6956   22.3391 C   0  0  0  0  0  0
  -22.7835  -13.5258   21.1844 C   0  0  0  0  0  0
  -22.1663   -4.2162   21.0953 F   0  0  0  0  0  0
  -21.5634   -3.4521   25.7729 F   0  0  0  0  0  0
  -30.0313  -13.3239   20.4218 N   0  0  0  0  0  0
  -26.2994  -12.9379   20.3274 N   0  0  0  0  0  0
  -25.9303  -11.6538   20.5765 N   0  0  0  0  0  0
  -22.0462  -12.8268   22.0391 N   0  0  0  0  0  0
  -25.4272  -15.1880   20.4104 N   0  0  0  0  0  0
  -31.9012  -14.5784   20.1664 O   0  0  0  0  0  0
  -21.6632   -6.8843   21.4207 O   0  0  0  0  0  0
  -22.3534  -14.5563   20.6691 O   0  0  0  0  0  0
  -24.6144  -31.8684   23.2085 C   0  0  0  0  0  0
  -25.9046  -32.4826   23.8362 C   0  0  1  0  0  0
  -27.2283  -27.4367   20.0930 C   0  0  0  0  0  0
  -25.5913  -33.8617   24.2324 N   0  0  0  0  0  0
  -23.4006  -30.4915   21.5492 C   0  0  2  0  0  0
  -24.8440  -28.9530   20.1183 C   0  0  0  0  0  0
  -22.7387  -29.4677   22.4996 C   0  0  0  0  0  0
  -18.0265  -28.1380   22.8479 C   0  0  0  0  0  0
  -24.1483  -36.7302   23.2632 C   0  0  0  0  0  0
  -25.9288  -30.8328   21.3601 C   0  0  0  0  0  0
  -26.0050  -29.4659   20.7101 C   0  0  0  0  0  0
  -27.2021  -28.7162   20.6904 C   0  0  0  0  0  0
  -26.0524  -26.9316   19.4990 C   0  0  0  0  0  0
  -24.8631  -27.6849   19.5078 C   0  0  0  0  0  0
  -23.6083  -29.8220   20.1644 C   0  0  0  0  0  0
  -25.4108  -36.3101   24.0334 C   0  0  1  0  0  0
  -20.5850  -28.3676   23.1321 C   0  0  2  0  0  0
  -20.6783  -26.9421   22.5427 C   0  0  0  0  0  0
  -19.5766  -26.6401   21.5212 C   0  0  0  0  0  0
  -18.1928  -26.7935   22.1597 C   0  0  0  0  0  0
  -19.1519  -28.8837   23.2899 C   0  0  0  0  0  0
  -18.9450  -30.1432   23.8939 C   0  0  0  0  0  0
  -17.6461  -30.6584   24.0573 C   0  0  0  0  0  0
  -25.9039  -34.9479   23.5124 C   0  0  0  0  0  0
  -16.5352  -29.9109   23.6325 C   0  0  0  0  0  0
  -16.7250  -28.6520   23.0350 C   0  0  0  0  0  0
  -26.4489  -31.6583   25.0672 C   0  0  0  0  0  0
  -25.3777  -31.3701   26.1440 C   0  0  0  0  0  0
  -27.0303  -30.3018   24.6024 C   0  0  0  0  0  0
  -27.6063  -32.4301   25.7435 C   0  0  0  0  0  0
  -27.5590  -37.1794   24.8466 C   0  0  0  0  0  0
  -21.4121  -29.3031   22.3717 N   0  0  0  0  0  0
  -26.4289  -37.3797   23.9409 N   0  0  0  0  0  0
  -24.6661  -31.0777   22.0988 N   0  0  0  0  0  0
  -23.4158  -28.8223   23.3048 O   0  0  0  0  0  0
  -28.4037  -26.7221   20.0583 O   0  0  0  0  0  0
  -26.5591  -34.8941   22.4679 O   0  0  0  0  0  0
  -23.5338  -32.1441   23.7490 O   0  0  0  0  0  0
  -31.3410  -18.5831   18.7225 C   0  0  0  0  0  0
  -30.3786  -19.5603   19.0320 C   0  0  0  0  0  0
  -31.2237  -17.2817   19.2453 C   0  0  0  0  0  0
  -29.1803  -17.9270   20.3972 C   0  0  0  0  0  0
  -29.2761  -19.2328   19.8467 C   0  0  0  0  0  0
  -30.1492  -16.9303   20.1094 C   0  0  0  0  0  0
  -27.6252  -23.1149   19.6374 C   0  0  0  0  0  0
  -28.2057  -24.3227   19.4665 C   0  0  0  0  0  0
  -27.5274  -22.1745   18.5254 C   0  0  0  0  0  0
  -27.2859  -19.8439   17.8292 C   0  0  0  0  0  0
  -28.1863  -20.2856   20.0903 C   0  0  0  0  0  0
  -28.3609  -25.3778   20.5520 C   0  0  0  0  0  0
  -29.9498  -15.6047   20.6461 N   0  0  0  0  0  0
  -27.6200  -20.8539   18.8436 N   0  0  0  0  0  0
  -27.3098  -22.5449   17.3658 O   0  0  0  0  0  0
  -31.4706  -12.3667   19.1551 H   0  0  0  0  0  0
  -30.3014  -11.3063   19.8896 H   0  0  0  0  0  0
  -29.7384  -11.6805   17.4807 H   0  0  0  0  0  0
  -29.6836  -13.4078   17.7242 H   0  0  0  0  0  0
  -27.8304  -11.2891   18.8564 H   0  0  0  0  0  0
  -27.3783  -12.5838   17.7819 H   0  0  0  0  0  0
  -27.6910  -14.2481   19.5129 H   0  0  0  0  0  0
  -28.6696  -12.0468   21.4006 H   0  0  0  0  0  0
  -28.4803  -13.7335   21.8174 H   0  0  0  0  0  0
  -25.2746   -9.5715   22.4714 H   0  0  0  0  0  0
  -24.0017   -7.4624   22.7445 H   0  0  0  0  0  0
  -21.0808   -8.8758   19.8945 H   0  0  0  0  0  0
  -22.3657  -10.9643   19.6178 H   0  0  0  0  0  0
  -21.2015   -7.6141   23.9696 H   0  0  0  0  0  0
  -21.1486   -6.0504   25.9051 H   0  0  0  0  0  0
  -22.0605   -2.7586   23.2815 H   0  0  0  0  0  0
  -22.4120  -12.0025   22.4915 H   0  0  0  0  0  0
  -21.1059  -13.1254   22.2533 H   0  0  0  0  0  0
  -24.6626  -15.8443   20.5331 H   0  0  0  0  0  0
  -26.2649  -15.6137   20.0380 H   0  0  0  0  0  0
  -26.7113  -32.5554   23.1120 H   0  0  0  0  0  0
  -25.0118  -33.9765   25.0497 H   0  0  0  0  0  0
  -22.6899  -31.3089   21.4103 H   0  0  0  0  0  0
  -23.3769  -35.9618   23.3297 H   0  0  0  0  0  0
  -24.3584  -36.8912   22.2053 H   0  0  0  0  0  0
  -23.7230  -37.6492   23.6654 H   0  0  0  0  0  0
  -26.0402  -31.5970   20.5894 H   0  0  0  0  0  0
  -26.8194  -30.8909   21.9745 H   0  0  0  0  0  0
  -28.1027  -29.1090   21.1398 H   0  0  0  0  0  0
  -26.0588  -25.9658   19.0136 H   0  0  0  0  0  0
  -23.9713  -27.2870   19.0419 H   0  0  0  0  0  0
  -23.7238  -30.5983   19.4076 H   0  0  0  0  0  0
  -22.7305  -29.2456   19.8635 H   0  0  0  0  0  0
  -25.1288  -36.1967   25.0831 H   0  0  0  0  0  0
  -20.9933  -28.3282   24.1436 H   0  0  0  0  0  0
  -20.5698  -26.2289   23.3617 H   0  0  0  0  0  0
  -21.6661  -26.7490   22.1224 H   0  0  0  0  0  0
  -19.6958  -25.6319   21.1227 H   0  0  0  0  0  0
  -19.6716  -27.3227   20.6756 H   0  0  0  0  0  0
  -17.4209  -26.6669   21.3985 H   0  0  0  0  0  0
  -18.0319  -26.0063   22.8977 H   0  0  0  0  0  0
  -19.7941  -30.7216   24.2347 H   0  0  0  0  0  0
  -17.5033  -31.6266   24.5184 H   0  0  0  0  0  0
  -15.5358  -30.3033   23.7623 H   0  0  0  0  0  0
  -15.8639  -28.0842   22.7074 H   0  0  0  0  0  0
  -24.5949  -30.7034   25.7805 H   0  0  0  0  0  0
  -24.8980  -32.2872   26.4866 H   0  0  0  0  0  0
  -25.8158  -30.8898   27.0196 H   0  0  0  0  0  0
  -26.2806  -29.6760   24.1176 H   0  0  0  0  0  0
  -27.4186  -29.7262   25.4432 H   0  0  0  0  0  0
  -27.8596  -30.4314   23.9072 H   0  0  0  0  0  0
  -27.2667  -33.3584   26.2039 H   0  0  0  0  0  0
  -28.3857  -32.6892   25.0257 H   0  0  0  0  0  0
  -28.0757  -31.8423   26.5327 H   0  0  0  0  0  0
  -28.2609  -38.0083   24.7523 H   0  0  0  0  0  0
  -28.1070  -36.2628   24.6269 H   0  0  0  0  0  0
  -27.2311  -37.1435   25.8861 H   0  0  0  0  0  0
  -20.9292  -29.8702   21.6893 H   0  0  0  0  0  0
  -26.0189  -38.2863   24.1435 H   0  0  0  0  0  0
  -32.1612  -18.8283   18.0623 H   0  0  0  0  0  0
  -30.4735  -20.5492   18.6076 H   0  0  0  0  0  0
  -31.9726  -16.5707   18.9349 H   0  0  0  0  0  0
  -28.3337  -17.6864   21.0217 H   0  0  0  0  0  0
  -27.2139  -22.8506   20.6026 H   0  0  0  0  0  0
  -28.6228  -24.5819   18.5040 H   0  0  0  0  0  0
  -28.1553  -19.6403   17.2017 H   0  0  0  0  0  0
  -26.4635  -20.1488   17.1783 H   0  0  0  0  0  0
  -26.9820  -18.9047   18.2909 H   0  0  0  0  0  0
  -28.6323  -21.0516   20.7240 H   0  0  0  0  0  0
  -27.3721  -19.8556   20.6724 H   0  0  0  0  0  0
  -29.3202  -25.1941   21.0362 H   0  0  0  0  0  0
  -27.5972  -25.2542   21.3197 H   0  0  0  0  0  0
  -29.0303  -15.4202   21.0201 H   0  0  0  0  0  0
  1 25  1  0  0  0
  1 30  2  0  0  0
  1 83  1  0  0  0
  2  3  1  0  0  0
  2 25  1  0  0  0
  2 86  1  0  0  0
  2 87  1  0  0  0
  3  4  1  0  0  0
  3 88  1  0  0  0
  3 89  1  0  0  0
  4  5  1  0  0  0
  4 90  1  0  0  0
  4 91  1  0  0  0
  5  6  1  0  0  0
  5 26  1  0  0  0
  5 92  1  0  0  0
  6 25  1  0  0  0
  6 93  1  0  0  0
  6 94  1  0  0  0
  7  8  2  0  0  0
  7 26  1  0  0  0
  7 29  1  0  0  0
  8  9  1  0  0  0
  8 22  1  0  0  0
  9 10  1  0  0  0
  9 27  2  0  0  0
 10 11  2  0  0  0
 10 15  1  0  0  0
 11 12  1  0  0  0
 11 95  1  0  0  0
 12 13  2  0  0  0
 12 96  1  0  0  0
 13 14  1  0  0  0
 13 31  1  0  0  0
 14 15  2  0  0  0
 14 97  1  0  0  0
 15 98  1  0  0  0
 16 17  2  0  0  0
 16 21  1  0  0  0
 16 31  1  0  0  0
 17 18  1  0  0  0
 17 99  1  0  0  0
 18 19  2  0  0  0
 18100  1  0  0  0
 19 20  1  0  0  0
 19 24  1  0  0  0
 20 21  2  0  0  0
 20101  1  0  0  0
 21 23  1  0  0  0
 22 28  1  0  0  0
 22 32  2  0  0  0
 26 27  1  0  0  0
 28102  1  0  0  0
 28103  1  0  0  0
 29104  1  0  0  0
 29105  1  0  0  0
 33 34  1  0  0  0
 33 66  1  0  0  0
 33 70  2  0  0  0
 34 36  1  0  0  0
 34 59  1  0  0  0
 34106  1  0  0  0
 35 44  2  0  0  0
 35 45  1  0  0  0
 35 68  1  0  0  0
 36 56  1  0  0  0
 36107  1  0  0  0
 37 39  1  0  0  0
 37 47  1  0  0  0
 37 66  1  0  0  0
 37108  1  0  0  0
 38 43  2  0  0  0
 38 46  1  0  0  0
 38 47  1  0  0  0
 39 64  1  0  0  0
 39 67  2  0  0  0
 40 52  1  0  0  0
 40 53  2  0  0  0
 40 58  1  0  0  0
 41109  1  0  0  0
 41110  1  0  0  0
 41111  1  0  0  0
 41 48  1  0  0  0
 42 43  1  0  0  0
 42 66  1  0  0  0
 42112  1  0  0  0
 42113  1  0  0  0
 43 44  1  0  0  0
 44114  1  0  0  0
 45 46  2  0  0  0
 45115  1  0  0  0
 46116  1  0  0  0
 47117  1  0  0  0
 47118  1  0  0  0
 48 56  1  0  0  0
 48 65  1  0  0  0
 48119  1  0  0  0
 49 50  1  0  0  0
 49 53  1  0  0  0
 49 64  1  0  0  0
 49120  1  0  0  0
 50 51  1  0  0  0
 50121  1  0  0  0
 50122  1  0  0  0
 51 52  1  0  0  0
 51123  1  0  0  0
 51124  1  0  0  0
 52125  1  0  0  0
 52126  1  0  0  0
 53 54  1  0  0  0
 54 55  2  0  0  0
 54127  1  0  0  0
 55 57  1  0  0  0
 55128  1  0  0  0
 56 69  2  0  0  0
 57 58  2  0  0  0
 57129  1  0  0  0
 58130  1  0  0  0
 59 60  1  0  0  0
 59 61  1  0  0  0
 59 62  1  0  0  0
 60131  1  0  0  0
 60132  1  0  0  0
 60133  1  0  0  0
 61134  1  0  0  0
 61135  1  0  0  0
 61136  1  0  0  0
 62137  1  0  0  0
 62138  1  0  0  0
 62139  1  0  0  0
 63 65  1  0  0  0
 63140  1  0  0  0
 63141  1  0  0  0
 63142  1  0  0  0
 64143  1  0  0  0
 65144  1  0  0  0
 68 82  1  0  0  0
 71 72  2  0  0  0
 71 73  1  0  0  0
 71145  1  0  0  0
 72 75  1  0  0  0
 72146  1  0  0  0
 73 76  2  0  0  0
 73147  1  0  0  0
 74 75  2  0  0  0
 74 76  1  0  0  0
 74148  1  0  0  0
 75 81  1  0  0  0
 76 83  1  0  0  0
 77 78  2  0  0  0
 77 79  1  0  0  0
 77149  1  0  0  0
 78 82  1  0  0  0
 78150  1  0  0  0
 79 84  1  0  0  0
 79 85  2  0  0  0
 80 84  1  0  0  0
 80151  1  0  0  0
 80152  1  0  0  0
 80153  1  0  0  0
 81 84  1  0  0  0
 81154  1  0  0  0
 81155  1  0  0  0
 82156  1  0  0  0
 82157  1  0  0  0
 83158  1  0  0  0
M  ISO  4   1 100  68 101  82 101  83 100
M  END
> <chiral flag>
0

> <version>
0

> <s_m_source_file>
/data/baiqing/PycharmProjects/Reinvent-master-3.2/result/LINK_invent/BTK/process_docking_weight1_custom_product_contain_oxygen_bond_distance_aromatic_linkinvent_7_9_3/rearranged_h_0050.sdf

> <i_m_source_file_index>
13

> <r_mmod_Potential_Energy-OPLS-2005>
-32.5008964538574

> <r_mmod_Stretch_Energy-OPLS-2005>
41.2803497314453

> <r_mmod_Bend_Energy-OPLS-2005>
99.5968780517578

> <r_mmod_Torsional_Energy-OPLS-2005>
258.398803710938

> <r_mmod_Improper_Torsional_Energy-OPLS-2005>
6.22735357284546

> <r_mmod_Van_der_Waal_Energy-OPLS-2005>
165.445709228516

> <r_mmod_Electrostatic_Energy-OPLS-2005>
-394.689819335938

> <r_mmod_Solvation_Energy-OPLS-2005>
-230.393692016602

> <b_mmod_Minimization_Converged-OPLS-2005>
0

> <r_mmod_RMS_Derivative-OPLS-2005>
4.85028028488159

$$$$
13
                    3D
 Structure written by MMmdl.
174183  0  0  1  0            999 V2000
  -30.6891  -14.5722   20.5835 C   0  0  0  0  0  0
  -30.4238  -12.3713   19.4588 C   0  0  0  0  0  0
  -29.5058  -12.5170   18.2250 C   0  0  0  0  0  0
  -28.0259  -12.3577   18.6226 C   0  0  0  0  0  0
  -27.6527  -13.2160   19.8581 C   0  0  2  0  0  0
  -28.6841  -13.0419   20.9887 C   0  0  0  0  0  0
  -25.2556  -13.8176   20.5654 C   0  0  0  0  0  0
  -24.1823  -13.0438   20.9163 C   0  0  0  0  0  0
  -24.6389  -11.6910   20.8711 C   0  0  0  0  0  0
  -23.9060  -10.4294   21.0394 C   0  0  0  0  0  0
  -24.3613   -9.4216   21.9176 C   0  0  0  0  0  0
  -23.6289   -8.2250   22.0752 C   0  0  0  0  0  0
  -22.4273   -8.0284   21.3544 C   0  0  0  0  0  0
  -21.9904   -9.0254   20.4647 C   0  0  0  0  0  0
  -22.7230  -10.2135   20.3049 C   0  0  0  0  0  0
  -21.6855   -6.0733   22.5278 C   0  0  0  0  0  0
  -21.4018   -6.5639   23.8212 C   0  0  0  0  0  0
  -21.3663   -5.6792   24.9174 C   0  0  0  0  0  0
  -21.6044   -4.3053   24.7226 C   0  0  0  0  0  0
  -21.8818   -3.8145   23.4346 C   0  0  0  0  0  0
  -21.9195   -4.6961   22.3402 C   0  0  0  0  0  0
  -22.7853  -13.5237   21.1850 C   0  0  0  0  0  0
  -22.1662   -4.2146   21.0978 F   0  0  0  0  0  0
  -21.5632   -3.4537   25.7740 F   0  0  0  0  0  0
  -30.0152  -13.3812   20.4600 N   0  0  0  0  0  0
  -26.2967  -12.9353   20.3247 N   0  0  0  0  0  0
  -25.9309  -11.6506   20.5695 N   0  0  0  0  0  0
  -22.0502  -12.8223   22.0411 N   0  0  0  0  0  0
  -25.4287  -15.1894   20.4111 N   0  0  0  0  0  0
  -31.7886  -14.7309   20.0454 O   0  0  0  0  0  0
  -21.6643   -6.8876   21.4239 O   0  0  0  0  0  0
  -22.3533  -14.5542   20.6709 O   0  0  0  0  0  0
  -24.6221  -31.8624   23.2035 C   0  0  0  0  0  0
  -25.9077  -32.4793   23.8364 C   0  0  1  0  0  0
  -27.2295  -27.3614   20.1194 C   0  0  0  0  0  0
  -25.5898  -33.8592   24.2288 N   0  0  0  0  0  0
  -23.4145  -30.4827   21.5464 C   0  0  2  0  0  0
  -24.8619  -28.9354   20.1180 C   0  0  0  0  0  0
  -22.7455  -29.4630   22.4973 C   0  0  0  0  0  0
  -18.0277  -28.1375   22.8491 C   0  0  0  0  0  0
  -24.1488  -36.7306   23.2638 C   0  0  0  0  0  0
  -25.9491  -30.8063   21.3663 C   0  0  0  0  0  0
  -26.0273  -29.4340   20.7153 C   0  0  0  0  0  0
  -27.2186  -28.6578   20.7047 C   0  0  0  0  0  0
  -26.0474  -26.8926   19.5138 C   0  0  0  0  0  0
  -24.8706  -27.6680   19.5100 C   0  0  0  0  0  0
  -23.6268  -29.8106   20.1642 C   0  0  0  0  0  0
  -25.4112  -36.3094   24.0328 C   0  0  1  0  0  0
  -20.5871  -28.3677   23.1299 C   0  0  2  0  0  0
  -20.6769  -26.9410   22.5413 C   0  0  0  0  0  0
  -19.5746  -26.6381   21.5209 C   0  0  0  0  0  0
  -18.1923  -26.7921   22.1622 C   0  0  0  0  0  0
  -19.1527  -28.8841   23.2891 C   0  0  0  0  0  0
  -18.9455  -30.1441   23.8910 C   0  0  0  0  0  0
  -17.6457  -30.6584   24.0558 C   0  0  0  0  0  0
  -25.9047  -34.9461   23.5114 C   0  0  0  0  0  0
  -16.5348  -29.9083   23.6325 C   0  0  0  0  0  0
  -16.7265  -28.6492   23.0357 C   0  0  0  0  0  0
  -26.4483  -31.6597   25.0718 C   0  0  0  0  0  0
  -25.3724  -31.3709   26.1449 C   0  0  0  0  0  0
  -27.0329  -30.3032   24.6130 C   0  0  0  0  0  0
  -27.6050  -32.4331   25.7480 C   0  0  0  0  0  0
  -27.5590  -37.1798   24.8459 C   0  0  0  0  0  0
  -21.4172  -29.3040   22.3708 N   0  0  0  0  0  0
  -26.4301  -37.3783   23.9407 N   0  0  0  0  0  0
  -24.6807  -31.0662   22.0968 N   0  0  0  0  0  0
  -23.4192  -28.8182   23.3051 O   0  0  0  0  0  0
  -28.3576  -26.5504   20.0992 O   0  0  0  0  0  0
  -26.5632  -34.8927   22.4691 O   0  0  0  0  0  0
  -23.5390  -32.1409   23.7376 O   0  0  0  0  0  0
  -30.1630  -17.1208   20.7380 C   0  0  0  0  0  0
  -29.6288  -15.6862   22.6222 C   0  0  0  0  0  0
  -30.0961  -15.7963   21.2976 C   0  0  0  0  0  0
  -29.7661  -18.2991   21.4630 C   0  0  0  0  0  0
  -29.2679  -18.1110   22.7834 C   0  0  0  0  0  0
  -29.1977  -16.8132   23.3403 C   0  0  0  0  0  0
  -28.0155  -21.3495   20.8730 C   0  0  0  0  0  0
  -26.7811  -20.8642   21.0910 C   0  0  0  0  0  0
  -28.4970  -22.7523   21.3269 C   0  0  0  0  0  0
  -29.6690  -23.8045   19.2986 C   0  0  0  0  0  0
  -30.3999  -22.4323   19.1912 C   0  0  0  0  0  0
  -28.4526  -23.9045   20.2568 C   0  0  2  0  0  0
  -29.5160  -21.1830   18.8924 C   0  0  1  0  0  0
  -28.8985  -19.2874   23.6776 C   0  0  0  0  0  0
  -30.1849  -20.7031   16.4412 C   0  0  0  0  0  0
  -30.0713  -19.7457   20.9326 C   0  0  0  0  0  0
  -28.3163  -25.3416   20.9217 C   0  0  0  0  0  0
  -30.1809  -20.1981   17.8934 C   0  0  0  0  0  0
  -29.0250  -20.4933   20.1316 N   0  3  1  0  0  0
  -28.7647  -16.6413   24.6127 F   0  0  0  0  0  0
  -31.4693  -12.4700   19.1621 H   0  0  0  0  0  0
  -30.3365  -11.3691   19.8813 H   0  0  0  0  0  0
  -29.7704  -11.7766   17.4690 H   0  0  0  0  0  0
  -29.6610  -13.4945   17.7649 H   0  0  0  0  0  0
  -27.8524  -11.3029   18.8383 H   0  0  0  0  0  0
  -27.3785  -12.6056   17.7808 H   0  0  0  0  0  0
  -27.6844  -14.2589   19.5404 H   0  0  0  0  0  0
  -28.6829  -12.0125   21.3500 H   0  0  0  0  0  0
  -28.3759  -13.6406   21.8379 H   0  0  0  0  0  0
  -25.2760   -9.5700   22.4745 H   0  0  0  0  0  0
  -24.0004   -7.4647   22.7474 H   0  0  0  0  0  0
  -21.0834   -8.8769   19.8954 H   0  0  0  0  0  0
  -22.3683  -10.9669   19.6157 H   0  0  0  0  0  0
  -21.2009   -7.6148   23.9714 H   0  0  0  0  0  0
  -21.1486   -6.0522   25.9078 H   0  0  0  0  0  0
  -22.0594   -2.7606   23.2847 H   0  0  0  0  0  0
  -22.4117  -11.9878   22.4787 H   0  0  0  0  0  0
  -21.1123  -13.1252   22.2627 H   0  0  0  0  0  0
  -24.6681  -15.8482   20.5357 H   0  0  0  0  0  0
  -26.2931  -15.6304   20.1233 H   0  0  0  0  0  0
  -26.7148  -32.5484   23.1121 H   0  0  0  0  0  0
  -25.0023  -33.9737   25.0419 H   0  0  0  0  0  0
  -22.7064  -31.3009   21.4024 H   0  0  0  0  0  0
  -23.3752  -35.9637   23.3290 H   0  0  0  0  0  0
  -24.3582  -36.8941   22.2055 H   0  0  0  0  0  0
  -23.7243  -37.6502   23.6676 H   0  0  0  0  0  0
  -26.0711  -31.5684   20.5954 H   0  0  0  0  0  0
  -26.8329  -30.8603   21.9909 H   0  0  0  0  0  0
  -28.1203  -29.0392   21.1630 H   0  0  0  0  0  0
  -26.0360  -25.9182   19.0462 H   0  0  0  0  0  0
  -23.9751  -27.2784   19.0455 H   0  0  0  0  0  0
  -23.7410  -30.5830   19.4030 H   0  0  0  0  0  0
  -22.7490  -29.2336   19.8685 H   0  0  0  0  0  0
  -25.1291  -36.1956   25.0821 H   0  0  0  0  0  0
  -20.9958  -28.3250   24.1419 H   0  0  0  0  0  0
  -20.5661  -26.2290   23.3604 H   0  0  0  0  0  0
  -21.6642  -26.7446   22.1213 H   0  0  0  0  0  0
  -19.6910  -25.6290   21.1238 H   0  0  0  0  0  0
  -19.6674  -27.3188   20.6733 H   0  0  0  0  0  0
  -17.4194  -26.6663   21.4022 H   0  0  0  0  0  0
  -18.0330  -26.0053   22.9007 H   0  0  0  0  0  0
  -19.7935  -30.7245   24.2292 H   0  0  0  0  0  0
  -17.5019  -31.6269   24.5157 H   0  0  0  0  0  0
  -15.5353  -30.2991   23.7640 H   0  0  0  0  0  0
  -15.8662  -28.0810   22.7081 H   0  0  0  0  0  0
  -24.5903  -30.7059   25.7766 H   0  0  0  0  0  0
  -24.8910  -32.2863   26.4898 H   0  0  0  0  0  0
  -25.8059  -30.8870   27.0209 H   0  0  0  0  0  0
  -26.2890  -29.6767   24.1189 H   0  0  0  0  0  0
  -27.4094  -29.7292   25.4610 H   0  0  0  0  0  0
  -27.8728  -30.4339   23.9298 H   0  0  0  0  0  0
  -27.2672  -33.3635   26.2059 H   0  0  0  0  0  0
  -28.3853  -32.6884   25.0295 H   0  0  0  0  0  0
  -28.0728  -31.8455   26.5390 H   0  0  0  0  0  0
  -28.2585  -38.0116   24.7545 H   0  0  0  0  0  0
  -28.1109  -36.2652   24.6245 H   0  0  0  0  0  0
  -27.2308  -37.1392   25.8858 H   0  0  0  0  0  0
  -20.9351  -29.8764   21.6919 H   0  0  0  0  0  0
  -26.0185  -38.2854   24.1420 H   0  0  0  0  0  0
  -30.5982  -17.2351   19.7535 H   0  0  0  0  0  0
  -29.6400  -14.7343   23.1317 H   0  0  0  0  0  0
  -26.0382  -21.4498   21.6135 H   0  0  0  0  0  0
  -26.4834  -19.8785   20.7625 H   0  0  0  0  0  0
  -29.4824  -22.6861   21.7876 H   0  0  0  0  0  0
  -27.8393  -23.0382   22.1490 H   0  0  0  0  0  0
  -29.3504  -24.1224   18.3046 H   0  0  0  0  0  0
  -30.4137  -24.5421   19.6016 H   0  0  0  0  0  0
  -31.0075  -22.2630   20.0802 H   0  0  0  0  0  0
  -31.1376  -22.5433   18.3973 H   0  0  0  0  0  0
  -27.5495  -23.7500   19.6637 H   0  0  0  0  0  0
  -28.6161  -21.5395   18.3865 H   0  0  0  0  0  0
  -28.2563  -19.9992   23.1703 H   0  0  0  0  0  0
  -29.7970  -19.8057   24.0136 H   0  0  0  0  0  0
  -28.3566  -18.9685   24.5677 H   0  0  0  0  0  0
  -30.6399  -19.9670   15.7778 H   0  0  0  0  0  0
  -30.7467  -21.6303   16.3295 H   0  0  0  0  0  0
  -29.1714  -20.8829   16.0805 H   0  0  0  0  0  0
  -30.9836  -19.6508   20.3473 H   0  0  0  0  0  0
  -30.3821  -20.3825   21.7601 H   0  0  0  0  0  0
  -29.1313  -25.4524   21.6385 H   0  0  0  0  0  0
  -27.4117  -25.3498   21.5334 H   0  0  0  0  0  0
  -29.6550  -19.2418   17.9087 H   0  0  0  0  0  0
  -31.2096  -19.9837   18.1855 H   0  0  0  0  0  0
  -28.4927  -19.7297   19.7436 H   0  0  0  0  0  0
  1 25  1  0  0  0
  1 30  2  0  0  0
  1 73  1  0  0  0
  2  3  1  0  0  0
  2 25  1  0  0  0
  2 91  1  0  0  0
  2 92  1  0  0  0
  3  4  1  0  0  0
  3 93  1  0  0  0
  3 94  1  0  0  0
  4  5  1  0  0  0
  4 95  1  0  0  0
  4 96  1  0  0  0
  5  6  1  0  0  0
  5 26  1  0  0  0
  5 97  1  0  0  0
  6 25  1  0  0  0
  6 98  1  0  0  0
  6 99  1  0  0  0
  7  8  2  0  0  0
  7 26  1  0  0  0
  7 29  1  0  0  0
  8  9  1  0  0  0
  8 22  1  0  0  0
  9 10  1  0  0  0
  9 27  2  0  0  0
 10 11  2  0  0  0
 10 15  1  0  0  0
 11 12  1  0  0  0
 11100  1  0  0  0
 12 13  2  0  0  0
 12101  1  0  0  0
 13 14  1  0  0  0
 13 31  1  0  0  0
 14 15  2  0  0  0
 14102  1  0  0  0
 15103  1  0  0  0
 16 17  2  0  0  0
 16 21  1  0  0  0
 16 31  1  0  0  0
 17 18  1  0  0  0
 17104  1  0  0  0
 18 19  2  0  0  0
 18105  1  0  0  0
 19 20  1  0  0  0
 19 24  1  0  0  0
 20 21  2  0  0  0
 20106  1  0  0  0
 21 23  1  0  0  0
 22 28  1  0  0  0
 22 32  2  0  0  0
 26 27  1  0  0  0
 28107  1  0  0  0
 28108  1  0  0  0
 29109  1  0  0  0
 29110  1  0  0  0
 33 34  1  0  0  0
 33 66  1  0  0  0
 33 70  2  0  0  0
 34 36  1  0  0  0
 34 59  1  0  0  0
 34111  1  0  0  0
 35 44  2  0  0  0
 35 45  1  0  0  0
 35 68  1  0  0  0
 36 56  1  0  0  0
 36112  1  0  0  0
 37 39  1  0  0  0
 37 47  1  0  0  0
 37 66  1  0  0  0
 37113  1  0  0  0
 38 43  2  0  0  0
 38 46  1  0  0  0
 38 47  1  0  0  0
 39 64  1  0  0  0
 39 67  2  0  0  0
 40 52  1  0  0  0
 40 53  2  0  0  0
 40 58  1  0  0  0
 41114  1  0  0  0
 41115  1  0  0  0
 41116  1  0  0  0
 41 48  1  0  0  0
 42 43  1  0  0  0
 42 66  1  0  0  0
 42117  1  0  0  0
 42118  1  0  0  0
 43 44  1  0  0  0
 44119  1  0  0  0
 45 46  2  0  0  0
 45120  1  0  0  0
 46121  1  0  0  0
 47122  1  0  0  0
 47123  1  0  0  0
 48 56  1  0  0  0
 48 65  1  0  0  0
 48124  1  0  0  0
 49 50  1  0  0  0
 49 53  1  0  0  0
 49 64  1  0  0  0
 49125  1  0  0  0
 50 51  1  0  0  0
 50126  1  0  0  0
 50127  1  0  0  0
 51 52  1  0  0  0
 51128  1  0  0  0
 51129  1  0  0  0
 52130  1  0  0  0
 52131  1  0  0  0
 53 54  1  0  0  0
 54 55  2  0  0  0
 54132  1  0  0  0
 55 57  1  0  0  0
 55133  1  0  0  0
 56 69  2  0  0  0
 57 58  2  0  0  0
 57134  1  0  0  0
 58135  1  0  0  0
 59 60  1  0  0  0
 59 61  1  0  0  0
 59 62  1  0  0  0
 60136  1  0  0  0
 60137  1  0  0  0
 60138  1  0  0  0
 61139  1  0  0  0
 61140  1  0  0  0
 61141  1  0  0  0
 62142  1  0  0  0
 62143  1  0  0  0
 62144  1  0  0  0
 63 65  1  0  0  0
 63145  1  0  0  0
 63146  1  0  0  0
 63147  1  0  0  0
 64148  1  0  0  0
 65149  1  0  0  0
 68 87  1  0  0  0
 71 73  2  0  0  0
 71 74  1  0  0  0
 71150  1  0  0  0
 72 73  1  0  0  0
 72 76  2  0  0  0
 72151  1  0  0  0
 74 75  2  0  0  0
 74 86  1  0  0  0
 75 76  1  0  0  0
 75 84  1  0  0  0
 76 90  1  0  0  0
 77 78  2  0  0  0
 77 79  1  0  0  0
 77 89  1  0  0  0
 78152  1  0  0  0
 78153  1  0  0  0
 79 82  1  0  0  0
 79154  1  0  0  0
 79155  1  0  0  0
 80 81  1  0  0  0
 80 82  1  0  0  0
 80156  1  0  0  0
 80157  1  0  0  0
 81 83  1  0  0  0
 81158  1  0  0  0
 81159  1  0  0  0
 82 87  1  0  0  0
 82160  1  0  0  0
 83 88  1  0  0  0
 83 89  1  0  0  0
 83161  1  0  0  0
 84162  1  0  0  0
 84163  1  0  0  0
 84164  1  0  0  0
 85 88  1  0  0  0
 85165  1  0  0  0
 85166  1  0  0  0
 85167  1  0  0  0
 86168  1  0  0  0
 86169  1  0  0  0
 86 89  1  0  0  0
 87170  1  0  0  0
 87171  1  0  0  0
 88172  1  0  0  0
 88173  1  0  0  0
 89174  1  0  0  0
M  CHG  1  89   1
M  ISO  4   1 100  68 101  73 100  87 101
M  END
> <chiral flag>
0

> <version>
0

> <s_m_source_file>
/data/baiqing/PycharmProjects/Reinvent-master-3.2/result/LINK_invent/BTK/process_docking_weight1_custom_product_contain_oxygen_bond_distance_aromatic_linkinvent_7_9_3/rearranged_h_0050.sdf

> <i_m_source_file_index>
14

> <r_mmod_Potential_Energy-OPLS-2005>
75.4149169921875

> <r_mmod_Stretch_Energy-OPLS-2005>
72.9576721191406

> <r_mmod_Bend_Energy-OPLS-2005>
153.458786010742

> <r_mmod_Torsional_Energy-OPLS-2005>
259.907501220703

> <r_mmod_Improper_Torsional_Energy-OPLS-2005>
4.2886381149292

> <r_mmod_Van_der_Waal_Energy-OPLS-2005>
143.498947143555

> <r_mmod_Electrostatic_Energy-OPLS-2005>
-180.618911743164

> <r_mmod_Solvation_Energy-OPLS-2005>
-406.406829833984

> <b_mmod_Minimization_Converged-OPLS-2005>
0

> <r_mmod_RMS_Derivative-OPLS-2005>
1.00430023670197

$$$$
14
                    3D
 Structure written by MMmdl.
176185  0  0  1  0            999 V2000
  -30.7513  -14.3763   20.6856 C   0  0  0  0  0  0
  -30.4224  -12.2933   19.3970 C   0  0  0  0  0  0
  -29.4886  -12.5342   18.1954 C   0  0  0  0  0  0
  -28.0110  -12.3872   18.6078 C   0  0  0  0  0  0
  -27.6664  -13.2018   19.8821 C   0  0  2  0  0  0
  -28.7035  -12.9324   20.9950 C   0  0  0  0  0  0
  -25.2576  -13.8129   20.5639 C   0  0  0  0  0  0
  -24.1839  -13.0418   20.9179 C   0  0  0  0  0  0
  -24.6394  -11.6890   20.8741 C   0  0  0  0  0  0
  -23.9060  -10.4285   21.0408 C   0  0  0  0  0  0
  -24.3613   -9.4203   21.9189 C   0  0  0  0  0  0
  -23.6288   -8.2241   22.0756 C   0  0  0  0  0  0
  -22.4273   -8.0280   21.3545 C   0  0  0  0  0  0
  -21.9906   -9.0252   20.4647 C   0  0  0  0  0  0
  -22.7232  -10.2131   20.3055 C   0  0  0  0  0  0
  -21.6850   -6.0736   22.5279 C   0  0  0  0  0  0
  -21.4010   -6.5637   23.8213 C   0  0  0  0  0  0
  -21.3660   -5.6791   24.9175 C   0  0  0  0  0  0
  -21.6044   -4.3054   24.7226 C   0  0  0  0  0  0
  -21.8816   -3.8148   23.4346 C   0  0  0  0  0  0
  -21.9193   -4.6965   22.3402 C   0  0  0  0  0  0
  -22.7865  -13.5228   21.1851 C   0  0  0  0  0  0
  -22.1661   -4.2150   21.0979 F   0  0  0  0  0  0
  -21.5635   -3.4537   25.7738 F   0  0  0  0  0  0
  -30.0495  -13.2330   20.4644 N   0  0  0  0  0  0
  -26.3034  -12.9308   20.3377 N   0  0  0  0  0  0
  -25.9321  -11.6469   20.5764 N   0  0  0  0  0  0
  -22.0500  -12.8225   22.0402 N   0  0  0  0  0  0
  -25.4224  -15.1832   20.3949 N   0  0  0  0  0  0
  -31.7928  -14.6575   20.0820 O   0  0  0  0  0  0
  -21.6635   -6.8880   21.4242 O   0  0  0  0  0  0
  -22.3554  -14.5541   20.6706 O   0  0  0  0  0  0
  -24.6080  -31.8710   23.2118 C   0  0  0  0  0  0
  -25.8992  -32.4844   23.8405 C   0  0  1  0  0  0
  -27.2528  -27.4747   20.1130 C   0  0  0  0  0  0
  -25.5874  -33.8636   24.2343 N   0  0  0  0  0  0
  -23.3955  -30.4913   21.5504 C   0  0  2  0  0  0
  -24.8459  -28.9579   20.1198 C   0  0  0  0  0  0
  -22.7386  -29.4650   22.5007 C   0  0  0  0  0  0
  -18.0270  -28.1371   22.8478 C   0  0  0  0  0  0
  -24.1490  -36.7316   23.2644 C   0  0  0  0  0  0
  -25.9138  -30.8549   21.3536 C   0  0  0  0  0  0
  -25.9962  -29.4855   20.7169 C   0  0  0  0  0  0
  -27.1991  -28.7533   20.7159 C   0  0  0  0  0  0
  -26.0890  -26.9607   19.5041 C   0  0  0  0  0  0
  -24.8841  -27.6912   19.5123 C   0  0  0  0  0  0
  -23.6040  -29.8170   20.1662 C   0  0  0  0  0  0
  -25.4106  -36.3126   24.0358 C   0  0  1  0  0  0
  -20.5854  -28.3630   23.1345 C   0  0  2  0  0  0
  -20.6757  -26.9377   22.5428 C   0  0  0  0  0  0
  -19.5751  -26.6376   21.5210 C   0  0  0  0  0  0
  -18.1922  -26.7919   22.1610 C   0  0  0  0  0  0
  -19.1520  -28.8819   23.2907 C   0  0  0  0  0  0
  -18.9455  -30.1421   23.8919 C   0  0  0  0  0  0
  -17.6463  -30.6571   24.0556 C   0  0  0  0  0  0
  -25.9032  -34.9490   23.5150 C   0  0  0  0  0  0
  -16.5347  -29.9079   23.6328 C   0  0  0  0  0  0
  -16.7263  -28.6504   23.0331 C   0  0  0  0  0  0
  -26.4444  -31.6598   25.0695 C   0  0  0  0  0  0
  -25.3735  -31.3693   26.1458 C   0  0  0  0  0  0
  -27.0263  -30.3065   24.5980 C   0  0  0  0  0  0
  -27.6032  -32.4289   25.7462 C   0  0  0  0  0  0
  -27.5583  -37.1807   24.8473 C   0  0  0  0  0  0
  -21.4121  -29.3012   22.3763 N   0  0  0  0  0  0
  -26.4295  -37.3797   23.9419 N   0  0  0  0  0  0
  -24.6566  -31.0857   22.0991 N   0  0  0  0  0  0
  -23.4177  -28.8191   23.3025 O   0  0  0  0  0  0
  -28.3943  -26.7059   20.0434 O   0  0  0  0  0  0
  -26.5573  -34.8935   22.4697 O   0  0  0  0  0  0
  -23.5280  -32.1426   23.7544 O   0  0  0  0  0  0
  -27.5519  -24.5717   23.7460 C   0  0  0  0  0  0
  -28.5582  -23.6747   24.1372 C   0  0  0  0  0  0
  -27.8216  -25.5425   22.7681 C   0  0  0  0  0  0
  -32.0693  -18.3649   22.3292 C   0  0  0  0  0  0
  -31.8220  -17.0000   22.0829 C   0  0  0  0  0  0
  -29.6947  -18.8423   22.0717 C   0  0  0  0  0  0
  -29.8420  -23.7324   23.5552 C   0  0  0  0  0  0
  -31.0076  -19.2959   22.3203 C   0  0  0  0  0  0
  -29.0912  -25.6186   22.1557 C   0  0  0  0  0  0
  -29.4360  -17.4720   21.8617 C   0  0  0  0  0  0
  -30.1118  -24.7014   22.5440 C   0  0  0  0  0  0
  -30.5065  -16.5468   21.8384 C   0  0  0  0  0  0
  -31.9694  -23.2069   24.6648 C   0  0  0  0  0  0
  -30.8523  -22.7696   24.0393 C   0  0  0  0  0  0
  -28.0060  -17.0115   21.6416 C   0  0  0  0  0  0
  -31.4849  -24.7671   21.8746 C   0  0  0  0  0  0
  -33.1412  -22.4030   25.2009 C   0  0  0  0  0  0
  -30.6305  -20.4412   24.9798 C   0  0  0  0  0  0
  -31.2783  -20.7776   22.5800 C   0  0  0  0  0  0
  -29.3284  -26.7324   21.1291 C   0  0  0  0  0  0
  -30.2226  -15.1746   21.6250 N   0  0  0  0  0  0
  -30.5915  -21.3188   23.7831 N   0  3  2  0  0  0
  -31.4650  -12.3994   19.0924 H   0  0  0  0  0  0
  -30.3249  -11.2676   19.7561 H   0  0  0  0  0  0
  -29.7224  -11.8370   17.3899 H   0  0  0  0  0  0
  -29.6581  -13.5349   17.7942 H   0  0  0  0  0  0
  -27.8166  -11.3279   18.7807 H   0  0  0  0  0  0
  -27.3592  -12.6848   17.7850 H   0  0  0  0  0  0
  -27.7268  -14.2577   19.6182 H   0  0  0  0  0  0
  -28.6656  -11.8843   21.2955 H   0  0  0  0  0  0
  -28.4449  -13.4896   21.8957 H   0  0  0  0  0  0
  -25.2758   -9.5679   22.4764 H   0  0  0  0  0  0
  -24.0002   -7.4626   22.7465 H   0  0  0  0  0  0
  -21.0845   -8.8766   19.8946 H   0  0  0  0  0  0
  -22.3694  -10.9672   19.6166 H   0  0  0  0  0  0
  -21.1993   -7.6142   23.9716 H   0  0  0  0  0  0
  -21.1487   -6.0521   25.9078 H   0  0  0  0  0  0
  -22.0596   -2.7610   23.2842 H   0  0  0  0  0  0
  -22.4101  -11.9877   22.4787 H   0  0  0  0  0  0
  -21.1112  -13.1254   22.2597 H   0  0  0  0  0  0
  -24.6479  -15.8313   20.4842 H   0  0  0  0  0  0
  -26.2577  -15.6134   20.0217 H   0  0  0  0  0  0
  -26.7067  -32.5599   23.1188 H   0  0  0  0  0  0
  -25.0066  -33.9810   25.0515 H   0  0  0  0  0  0
  -22.6816  -31.3047   21.4084 H   0  0  0  0  0  0
  -23.3755  -35.9645   23.3324 H   0  0  0  0  0  0
  -24.3594  -36.8898   22.2055 H   0  0  0  0  0  0
  -23.7236  -37.6532   23.6625 H   0  0  0  0  0  0
  -26.0059  -31.6151   20.5767 H   0  0  0  0  0  0
  -26.8089  -30.9244   21.9586 H   0  0  0  0  0  0
  -28.0732  -29.2041   21.1595 H   0  0  0  0  0  0
  -26.1171  -25.9892   19.0294 H   0  0  0  0  0  0
  -24.0003  -27.2787   19.0464 H   0  0  0  0  0  0
  -23.7062  -30.5858   19.4004 H   0  0  0  0  0  0
  -22.7321  -29.2297   19.8740 H   0  0  0  0  0  0
  -25.1280  -36.2000   25.0851 H   0  0  0  0  0  0
  -20.9931  -28.3168   24.1472 H   0  0  0  0  0  0
  -20.5660  -26.2228   23.3595 H   0  0  0  0  0  0
  -21.6625  -26.7425   22.1224 H   0  0  0  0  0  0
  -19.6932  -25.6303   21.1217 H   0  0  0  0  0  0
  -19.6709  -27.3196   20.6751 H   0  0  0  0  0  0
  -17.4198  -26.6661   21.4008 H   0  0  0  0  0  0
  -18.0315  -26.0058   22.9007 H   0  0  0  0  0  0
  -19.7938  -30.7212   24.2298 H   0  0  0  0  0  0
  -17.5031  -31.6259   24.5131 H   0  0  0  0  0  0
  -15.5354  -30.2984   23.7647 H   0  0  0  0  0  0
  -15.8660  -28.0830   22.7028 H   0  0  0  0  0  0
  -24.5914  -30.7027   25.7811 H   0  0  0  0  0  0
  -24.8913  -32.2845   26.4896 H   0  0  0  0  0  0
  -25.8104  -30.8883   27.0218 H   0  0  0  0  0  0
  -26.2777  -29.6850   24.1048 H   0  0  0  0  0  0
  -27.4126  -29.7253   25.4365 H   0  0  0  0  0  0
  -27.8567  -30.4453   23.9049 H   0  0  0  0  0  0
  -27.2662  -33.3578   26.2077 H   0  0  0  0  0  0
  -28.3828  -32.6857   25.0278 H   0  0  0  0  0  0
  -28.0710  -31.8382   26.5352 H   0  0  0  0  0  0
  -28.2602  -38.0099   24.7497 H   0  0  0  0  0  0
  -28.1071  -36.2624   24.6313 H   0  0  0  0  0  0
  -27.2301  -37.1473   25.8877 H   0  0  0  0  0  0
  -20.9269  -29.8736   21.7002 H   0  0  0  0  0  0
  -26.0206  -38.2888   24.1403 H   0  0  0  0  0  0
  -26.5740  -24.5248   24.2066 H   0  0  0  0  0  0
  -28.3373  -22.9515   24.9099 H   0  0  0  0  0  0
  -27.0403  -26.2372   22.4942 H   0  0  0  0  0  0
  -33.0838  -18.6898   22.5183 H   0  0  0  0  0  0
  -32.6504  -16.3045   22.0932 H   0  0  0  0  0  0
  -28.8741  -19.5463   22.0537 H   0  0  0  0  0  0
  -32.0582  -24.2721   24.8319 H   0  0  0  0  0  0
  -27.2998  -17.8390   21.7134 H   0  0  0  0  0  0
  -27.7214  -16.2679   22.3870 H   0  0  0  0  0  0
  -27.9052  -16.5685   20.6514 H   0  0  0  0  0  0
  -32.1318  -23.9248   22.1060 H   0  0  0  0  0  0
  -32.0049  -25.6779   22.1752 H   0  0  0  0  0  0
  -31.3880  -24.7659   20.7894 H   0  0  0  0  0  0
  -33.2720  -21.4483   24.6989 H   0  0  0  0  0  0
  -33.0215  -22.2251   26.2708 H   0  0  0  0  0  0
  -34.0654  -22.9649   25.0590 H   0  0  0  0  0  0
  -31.6308  -20.0672   25.1909 H   0  0  0  0  0  0
  -29.9846  -19.5742   24.8477 H   0  0  0  0  0  0
  -30.2727  -20.9699   25.8635 H   0  0  0  0  0  0
  -30.9630  -21.3469   21.7048 H   0  0  0  0  0  0
  -32.3516  -20.9391   22.6687 H   0  0  0  0  0  0
  -30.3124  -26.6653   20.6751 H   0  0  0  0  0  0
  -29.3578  -27.6721   21.6735 H   0  0  0  0  0  0
  -29.3542  -14.8352   22.0084 H   0  0  0  0  0  0
  -29.6205  -21.2764   23.5144 H   0  0  0  0  0  0
  1 25  1  0  0  0
  1 30  2  0  0  0
  1 91  1  0  0  0
  2  3  1  0  0  0
  2 25  1  0  0  0
  2 93  1  0  0  0
  2 94  1  0  0  0
  3  4  1  0  0  0
  3 95  1  0  0  0
  3 96  1  0  0  0
  4  5  1  0  0  0
  4 97  1  0  0  0
  4 98  1  0  0  0
  5  6  1  0  0  0
  5 26  1  0  0  0
  5 99  1  0  0  0
  6 25  1  0  0  0
  6100  1  0  0  0
  6101  1  0  0  0
  7  8  2  0  0  0
  7 26  1  0  0  0
  7 29  1  0  0  0
  8  9  1  0  0  0
  8 22  1  0  0  0
  9 10  1  0  0  0
  9 27  2  0  0  0
 10 11  2  0  0  0
 10 15  1  0  0  0
 11 12  1  0  0  0
 11102  1  0  0  0
 12 13  2  0  0  0
 12103  1  0  0  0
 13 14  1  0  0  0
 13 31  1  0  0  0
 14 15  2  0  0  0
 14104  1  0  0  0
 15105  1  0  0  0
 16 17  2  0  0  0
 16 21  1  0  0  0
 16 31  1  0  0  0
 17 18  1  0  0  0
 17106  1  0  0  0
 18 19  2  0  0  0
 18107  1  0  0  0
 19 20  1  0  0  0
 19 24  1  0  0  0
 20 21  2  0  0  0
 20108  1  0  0  0
 21 23  1  0  0  0
 22 28  1  0  0  0
 22 32  2  0  0  0
 26 27  1  0  0  0
 28109  1  0  0  0
 28110  1  0  0  0
 29111  1  0  0  0
 29112  1  0  0  0
 33 34  1  0  0  0
 33 66  1  0  0  0
 33 70  2  0  0  0
 34 36  1  0  0  0
 34 59  1  0  0  0
 34113  1  0  0  0
 35 44  2  0  0  0
 35 45  1  0  0  0
 35 68  1  0  0  0
 36 56  1  0  0  0
 36114  1  0  0  0
 37 39  1  0  0  0
 37 47  1  0  0  0
 37 66  1  0  0  0
 37115  1  0  0  0
 38 43  2  0  0  0
 38 46  1  0  0  0
 38 47  1  0  0  0
 39 64  1  0  0  0
 39 67  2  0  0  0
 40 52  1  0  0  0
 40 53  2  0  0  0
 40 58  1  0  0  0
 41116  1  0  0  0
 41117  1  0  0  0
 41118  1  0  0  0
 41 48  1  0  0  0
 42 43  1  0  0  0
 42 66  1  0  0  0
 42119  1  0  0  0
 42120  1  0  0  0
 43 44  1  0  0  0
 44121  1  0  0  0
 45 46  2  0  0  0
 45122  1  0  0  0
 46123  1  0  0  0
 47124  1  0  0  0
 47125  1  0  0  0
 48 56  1  0  0  0
 48 65  1  0  0  0
 48126  1  0  0  0
 49 50  1  0  0  0
 49 53  1  0  0  0
 49 64  1  0  0  0
 49127  1  0  0  0
 50 51  1  0  0  0
 50128  1  0  0  0
 50129  1  0  0  0
 51 52  1  0  0  0
 51130  1  0  0  0
 51131  1  0  0  0
 52132  1  0  0  0
 52133  1  0  0  0
 53 54  1  0  0  0
 54 55  2  0  0  0
 54134  1  0  0  0
 55 57  1  0  0  0
 55135  1  0  0  0
 56 69  2  0  0  0
 57 58  2  0  0  0
 57136  1  0  0  0
 58137  1  0  0  0
 59 60  1  0  0  0
 59 61  1  0  0  0
 59 62  1  0  0  0
 60138  1  0  0  0
 60139  1  0  0  0
 60140  1  0  0  0
 61141  1  0  0  0
 61142  1  0  0  0
 61143  1  0  0  0
 62144  1  0  0  0
 62145  1  0  0  0
 62146  1  0  0  0
 63 65  1  0  0  0
 63147  1  0  0  0
 63148  1  0  0  0
 63149  1  0  0  0
 64150  1  0  0  0
 65151  1  0  0  0
 68 90  1  0  0  0
 71 72  2  0  0  0
 71 73  1  0  0  0
 71152  1  0  0  0
 72 77  1  0  0  0
 72153  1  0  0  0
 73 79  2  0  0  0
 73154  1  0  0  0
 74 75  2  0  0  0
 74 78  1  0  0  0
 74155  1  0  0  0
 75 82  1  0  0  0
 75156  1  0  0  0
 76 78  2  0  0  0
 76 80  1  0  0  0
 76157  1  0  0  0
 77 81  2  0  0  0
 77 84  1  0  0  0
 78 89  1  0  0  0
 79 81  1  0  0  0
 79 90  1  0  0  0
 80 82  2  0  0  0
 80 85  1  0  0  0
 81 86  1  0  0  0
 82 91  1  0  0  0
 83 84  2  0  0  0
 83 87  1  0  0  0
 83158  1  0  0  0
 84 92  1  0  0  0
 85159  1  0  0  0
 85160  1  0  0  0
 85161  1  0  0  0
 86162  1  0  0  0
 86163  1  0  0  0
 86164  1  0  0  0
 87165  1  0  0  0
 87166  1  0  0  0
 87167  1  0  0  0
 88168  1  0  0  0
 88169  1  0  0  0
 88170  1  0  0  0
 88 92  1  0  0  0
 89 92  1  0  0  0
 89171  1  0  0  0
 89172  1  0  0  0
 90173  1  0  0  0
 90174  1  0  0  0
 91175  1  0  0  0
 92176  1  0  0  0
M  CHG  1  92   1
M  ISO  4   1 100  68 101  90 101  91 100
M  END
> <chiral flag>
0

> <version>
0

> <s_m_source_file>
/data/baiqing/PycharmProjects/Reinvent-master-3.2/result/LINK_invent/BTK/process_docking_weight1_custom_product_contain_oxygen_bond_distance_aromatic_linkinvent_7_9_3/rearranged_h_0050.sdf

> <i_m_source_file_index>
15

> <r_mmod_Potential_Energy-OPLS-2005>
-156.29052734375

> <r_mmod_Stretch_Energy-OPLS-2005>
38.6315078735352

> <r_mmod_Bend_Energy-OPLS-2005>
111.441619873047

> <r_mmod_Torsional_Energy-OPLS-2005>
245.548294067383

> <r_mmod_Improper_Torsional_Energy-OPLS-2005>
3.24661707878113

> <r_mmod_Van_der_Waal_Energy-OPLS-2005>
176.028045654297

> <r_mmod_Electrostatic_Energy-OPLS-2005>
-316.517272949219

> <r_mmod_Solvation_Energy-OPLS-2005>
-420.432067871094

> <b_mmod_Minimization_Converged-OPLS-2005>
0

> <r_mmod_RMS_Derivative-OPLS-2005>
1.86601281166077

$$$$
15
                    3D
 Structure written by MMmdl.
157165  0  0  1  0            999 V2000
  -30.6789  -14.5059   20.5938 C   0  0  0  0  0  0
  -30.4411  -12.3328   19.4320 C   0  0  0  0  0  0
  -29.5064  -12.5011   18.2155 C   0  0  0  0  0  0
  -28.0310  -12.3360   18.6290 C   0  0  0  0  0  0
  -27.6632  -13.1950   19.8668 C   0  0  2  0  0  0
  -28.7012  -12.9922   20.9938 C   0  0  0  0  0  0
  -25.2658  -13.8113   20.5769 C   0  0  0  0  0  0
  -24.1859  -13.0413   20.9148 C   0  0  0  0  0  0
  -24.6385  -11.6873   20.8704 C   0  0  0  0  0  0
  -23.9034  -10.4285   21.0395 C   0  0  0  0  0  0
  -24.3578   -9.4201   21.9177 C   0  0  0  0  0  0
  -23.6267   -8.2240   22.0744 C   0  0  0  0  0  0
  -22.4252   -8.0283   21.3533 C   0  0  0  0  0  0
  -21.9882   -9.0263   20.4636 C   0  0  0  0  0  0
  -22.7198  -10.2143   20.3055 C   0  0  0  0  0  0
  -21.6856   -6.0722   22.5284 C   0  0  0  0  0  0
  -21.3998   -6.5626   23.8214 C   0  0  0  0  0  0
  -21.3661   -5.6775   24.9179 C   0  0  0  0  0  0
  -21.6047   -4.3042   24.7226 C   0  0  0  0  0  0
  -21.8821   -3.8125   23.4359 C   0  0  0  0  0  0
  -21.9185   -4.6946   22.3404 C   0  0  0  0  0  0
  -22.7899  -13.5270   21.1822 C   0  0  0  0  0  0
  -22.1666   -4.2133   21.0993 F   0  0  0  0  0  0
  -21.5625   -3.4528   25.7741 F   0  0  0  0  0  0
  -30.0326  -13.3140   20.4499 N   0  0  0  0  0  0
  -26.3044  -12.9256   20.3321 N   0  0  0  0  0  0
  -25.9308  -11.6430   20.5713 N   0  0  0  0  0  0
  -22.0509  -12.8297   22.0383 N   0  0  0  0  0  0
  -25.4508  -15.1841   20.4468 N   0  0  0  0  0  0
  -31.8030  -14.7178   20.1331 O   0  0  0  0  0  0
  -21.6635   -6.8874   21.4251 O   0  0  0  0  0  0
  -22.3651  -14.5607   20.6685 O   0  0  0  0  0  0
  -24.6191  -31.8650   23.2068 C   0  0  0  0  0  0
  -25.9066  -32.4803   23.8369 C   0  0  1  0  0  0
  -27.2395  -27.4004   20.1049 C   0  0  0  0  0  0
  -25.5926  -33.8599   24.2333 N   0  0  0  0  0  0
  -23.4080  -30.4870   21.5491 C   0  0  2  0  0  0
  -24.8526  -28.9441   20.1191 C   0  0  0  0  0  0
  -22.7445  -29.4628   22.5003 C   0  0  0  0  0  0
  -18.0277  -28.1393   22.8484 C   0  0  0  0  0  0
  -24.1479  -36.7312   23.2631 C   0  0  0  0  0  0
  -25.9360  -30.8251   21.3573 C   0  0  0  0  0  0
  -26.0137  -29.4519   20.7139 C   0  0  0  0  0  0
  -27.2034  -28.6845   20.7046 C   0  0  0  0  0  0
  -26.0505  -26.9083   19.5154 C   0  0  0  0  0  0
  -24.8676  -27.6730   19.5210 C   0  0  0  0  0  0
  -23.6188  -29.8190   20.1637 C   0  0  0  0  0  0
  -25.4090  -36.3114   24.0360 C   0  0  1  0  0  0
  -20.5866  -28.3678   23.1334 C   0  0  2  0  0  0
  -20.6772  -26.9414   22.5430 C   0  0  0  0  0  0
  -19.5739  -26.6403   21.5232 C   0  0  0  0  0  0
  -18.1915  -26.7940   22.1631 C   0  0  0  0  0  0
  -19.1525  -28.8849   23.2899 C   0  0  0  0  0  0
  -18.9459  -30.1452   23.8912 C   0  0  0  0  0  0
  -17.6458  -30.6583   24.0570 C   0  0  0  0  0  0
  -25.9034  -34.9475   23.5145 C   0  0  0  0  0  0
  -16.5347  -29.9094   23.6313 C   0  0  0  0  0  0
  -16.7268  -28.6517   23.0327 C   0  0  0  0  0  0
  -26.4495  -31.6579   25.0686 C   0  0  0  0  0  0
  -25.3777  -31.3707   26.1463 C   0  0  0  0  0  0
  -27.0299  -30.3011   24.6028 C   0  0  0  0  0  0
  -27.6086  -32.4274   25.7448 C   0  0  0  0  0  0
  -27.5592  -37.1804   24.8464 C   0  0  0  0  0  0
  -21.4165  -29.3039   22.3746 N   0  0  0  0  0  0
  -26.4285  -37.3795   23.9446 N   0  0  0  0  0  0
  -24.6730  -31.0738   22.0982 N   0  0  0  0  0  0
  -23.4194  -28.8182   23.3066 O   0  0  0  0  0  0
  -28.4308  -26.6889   20.1362 O   0  0  0  0  0  0
  -26.5580  -34.8929   22.4691 O   0  0  0  0  0  0
  -23.5367  -32.1426   23.7446 O   0  0  0  0  0  0
  -30.9397  -18.6121   22.9001 C   0  0  0  0  0  0
  -30.4817  -19.6084   22.0156 C   0  0  0  0  0  0
  -30.8049  -17.2502   22.5743 C   0  0  0  0  0  0
  -29.8768  -19.2625   20.7866 C   0  0  0  0  0  0
  -29.7701  -17.8752   20.4433 C   0  0  0  0  0  0
  -30.2235  -16.8659   21.3484 C   0  0  0  0  0  0
  -28.8862  -22.8226   19.6568 C   0  0  0  0  0  0
  -29.1469  -17.4668   19.1105 C   0  0  0  0  0  0
  -29.3637  -20.3714   19.8359 C   0  0  0  0  0  0
  -28.5043  -24.1524   20.3607 C   0  0  0  0  0  0
  -28.5979  -25.4237   19.4559 C   0  0  0  0  0  0
  -29.9298  -15.4782   21.1567 N   0  0  0  0  0  0
  -29.0919  -21.7131   20.4034 N   0  0  0  0  0  0
  -28.9837  -22.7912   18.4269 O   0  0  0  0  0  0
  -31.4843  -12.4583   19.1377 H   0  0  0  0  0  0
  -30.3642  -11.3233   19.8383 H   0  0  0  0  0  0
  -29.7587  -11.7767   17.4402 H   0  0  0  0  0  0
  -29.6509  -13.4864   17.7722 H   0  0  0  0  0  0
  -27.8627  -11.2811   18.8507 H   0  0  0  0  0  0
  -27.3809  -12.5750   17.7855 H   0  0  0  0  0  0
  -27.7028  -14.2367   19.5494 H   0  0  0  0  0  0
  -28.6862  -11.9577   21.3370 H   0  0  0  0  0  0
  -28.4437  -13.5868   21.8694 H   0  0  0  0  0  0
  -25.2730   -9.5689   22.4732 H   0  0  0  0  0  0
  -23.9948   -7.4638   22.7474 H   0  0  0  0  0  0
  -21.0791   -8.8811   19.8972 H   0  0  0  0  0  0
  -22.3656  -10.9690   19.6168 H   0  0  0  0  0  0
  -21.2000   -7.6136   23.9722 H   0  0  0  0  0  0
  -21.1482   -6.0507   25.9078 H   0  0  0  0  0  0
  -22.0599   -2.7592   23.2876 H   0  0  0  0  0  0
  -22.4064  -11.9919   22.4733 H   0  0  0  0  0  0
  -21.1166  -13.1428   22.2646 H   0  0  0  0  0  0
  -24.7154  -15.8541   20.6420 H   0  0  0  0  0  0
  -26.3367  -15.6217   20.2298 H   0  0  0  0  0  0
  -26.7135  -32.5523   23.1133 H   0  0  0  0  0  0
  -25.0112  -33.9749   25.0506 H   0  0  0  0  0  0
  -22.6977  -31.3034   21.4095 H   0  0  0  0  0  0
  -23.3760  -35.9625   23.3252 H   0  0  0  0  0  0
  -24.3570  -36.8948   22.2051 H   0  0  0  0  0  0
  -23.7209  -37.6501   23.6641 H   0  0  0  0  0  0
  -26.0306  -31.5842   20.5782 H   0  0  0  0  0  0
  -26.8291  -30.8961   21.9654 H   0  0  0  0  0  0
  -28.1003  -29.0742   21.1654 H   0  0  0  0  0  0
  -26.0040  -25.9309   19.0616 H   0  0  0  0  0  0
  -23.9709  -27.2727   19.0673 H   0  0  0  0  0  0
  -23.7401  -30.5943   19.4071 H   0  0  0  0  0  0
  -22.7397  -29.2503   19.8567 H   0  0  0  0  0  0
  -25.1244  -36.1975   25.0855 H   0  0  0  0  0  0
  -20.9927  -28.3251   24.1469 H   0  0  0  0  0  0
  -20.5699  -26.2282   23.3615 H   0  0  0  0  0  0
  -21.6645  -26.7471   22.1209 H   0  0  0  0  0  0
  -19.6899  -25.6329   21.1220 H   0  0  0  0  0  0
  -19.6662  -27.3256   20.6794 H   0  0  0  0  0  0
  -17.4188  -26.6698   21.4025 H   0  0  0  0  0  0
  -18.0289  -26.0083   22.9017 H   0  0  0  0  0  0
  -19.7933  -30.7268   24.2291 H   0  0  0  0  0  0
  -17.5012  -31.6257   24.5194 H   0  0  0  0  0  0
  -15.5348  -30.3007   23.7634 H   0  0  0  0  0  0
  -15.8669  -28.0860   22.7015 H   0  0  0  0  0  0
  -24.5971  -30.6994   25.7863 H   0  0  0  0  0  0
  -24.8932  -32.2866   26.4856 H   0  0  0  0  0  0
  -25.8168  -30.8953   27.0242 H   0  0  0  0  0  0
  -26.2815  -29.6782   24.1105 H   0  0  0  0  0  0
  -27.4124  -29.7221   25.4450 H   0  0  0  0  0  0
  -27.8621  -30.4326   23.9104 H   0  0  0  0  0  0
  -27.2730  -33.3584   26.2023 H   0  0  0  0  0  0
  -28.3901  -32.6818   25.0278 H   0  0  0  0  0  0
  -28.0736  -31.8371   26.5356 H   0  0  0  0  0  0
  -28.2599  -38.0116   24.7556 H   0  0  0  0  0  0
  -28.1093  -36.2662   24.6205 H   0  0  0  0  0  0
  -27.2310  -37.1358   25.8860 H   0  0  0  0  0  0
  -20.9352  -29.8769   21.6957 H   0  0  0  0  0  0
  -26.0174  -38.2856   24.1490 H   0  0  0  0  0  0
  -31.3780  -18.8967   23.8483 H   0  0  0  0  0  0
  -30.6000  -20.6444   22.3024 H   0  0  0  0  0  0
  -31.1274  -16.5024   23.2867 H   0  0  0  0  0  0
  -29.4570  -18.1376   18.3071 H   0  0  0  0  0  0
  -28.0586  -17.4846   19.1736 H   0  0  0  0  0  0
  -29.4552  -16.4678   18.8020 H   0  0  0  0  0  0
  -28.4360  -20.0342   19.3766 H   0  0  0  0  0  0
  -30.0885  -20.4678   19.0247 H   0  0  0  0  0  0
  -29.1640  -24.2739   21.2186 H   0  0  0  0  0  0
  -27.4918  -24.0572   20.7529 H   0  0  0  0  0  0
  -27.9582  -25.3334   18.5791 H   0  0  0  0  0  0
  -29.6080  -25.4593   19.0465 H   0  0  0  0  0  0
  -29.0195  -15.1798   21.4677 H   0  0  0  0  0  0
  -28.9684  -21.7792   21.4040 H   0  0  0  0  0  0
  1 25  1  0  0  0
  1 30  2  0  0  0
  1 82  1  0  0  0
  2  3  1  0  0  0
  2 25  1  0  0  0
  2 85  1  0  0  0
  2 86  1  0  0  0
  3  4  1  0  0  0
  3 87  1  0  0  0
  3 88  1  0  0  0
  4  5  1  0  0  0
  4 89  1  0  0  0
  4 90  1  0  0  0
  5  6  1  0  0  0
  5 26  1  0  0  0
  5 91  1  0  0  0
  6 25  1  0  0  0
  6 92  1  0  0  0
  6 93  1  0  0  0
  7  8  2  0  0  0
  7 26  1  0  0  0
  7 29  1  0  0  0
  8  9  1  0  0  0
  8 22  1  0  0  0
  9 10  1  0  0  0
  9 27  2  0  0  0
 10 11  2  0  0  0
 10 15  1  0  0  0
 11 12  1  0  0  0
 11 94  1  0  0  0
 12 13  2  0  0  0
 12 95  1  0  0  0
 13 14  1  0  0  0
 13 31  1  0  0  0
 14 15  2  0  0  0
 14 96  1  0  0  0
 15 97  1  0  0  0
 16 17  2  0  0  0
 16 21  1  0  0  0
 16 31  1  0  0  0
 17 18  1  0  0  0
 17 98  1  0  0  0
 18 19  2  0  0  0
 18 99  1  0  0  0
 19 20  1  0  0  0
 19 24  1  0  0  0
 20 21  2  0  0  0
 20100  1  0  0  0
 21 23  1  0  0  0
 22 28  1  0  0  0
 22 32  2  0  0  0
 26 27  1  0  0  0
 28101  1  0  0  0
 28102  1  0  0  0
 29103  1  0  0  0
 29104  1  0  0  0
 33 34  1  0  0  0
 33 66  1  0  0  0
 33 70  2  0  0  0
 34 36  1  0  0  0
 34 59  1  0  0  0
 34105  1  0  0  0
 35 44  2  0  0  0
 35 45  1  0  0  0
 35 68  1  0  0  0
 36 56  1  0  0  0
 36106  1  0  0  0
 37 39  1  0  0  0
 37 47  1  0  0  0
 37 66  1  0  0  0
 37107  1  0  0  0
 38 43  2  0  0  0
 38 46  1  0  0  0
 38 47  1  0  0  0
 39 64  1  0  0  0
 39 67  2  0  0  0
 40 52  1  0  0  0
 40 53  2  0  0  0
 40 58  1  0  0  0
 41108  1  0  0  0
 41109  1  0  0  0
 41110  1  0  0  0
 41 48  1  0  0  0
 42 43  1  0  0  0
 42 66  1  0  0  0
 42111  1  0  0  0
 42112  1  0  0  0
 43 44  1  0  0  0
 44113  1  0  0  0
 45 46  2  0  0  0
 45114  1  0  0  0
 46115  1  0  0  0
 47116  1  0  0  0
 47117  1  0  0  0
 48 56  1  0  0  0
 48 65  1  0  0  0
 48118  1  0  0  0
 49 50  1  0  0  0
 49 53  1  0  0  0
 49 64  1  0  0  0
 49119  1  0  0  0
 50 51  1  0  0  0
 50120  1  0  0  0
 50121  1  0  0  0
 51 52  1  0  0  0
 51122  1  0  0  0
 51123  1  0  0  0
 52124  1  0  0  0
 52125  1  0  0  0
 53 54  1  0  0  0
 54 55  2  0  0  0
 54126  1  0  0  0
 55 57  1  0  0  0
 55127  1  0  0  0
 56 69  2  0  0  0
 57 58  2  0  0  0
 57128  1  0  0  0
 58129  1  0  0  0
 59 60  1  0  0  0
 59 61  1  0  0  0
 59 62  1  0  0  0
 60130  1  0  0  0
 60131  1  0  0  0
 60132  1  0  0  0
 61133  1  0  0  0
 61134  1  0  0  0
 61135  1  0  0  0
 62136  1  0  0  0
 62137  1  0  0  0
 62138  1  0  0  0
 63 65  1  0  0  0
 63139  1  0  0  0
 63140  1  0  0  0
 63141  1  0  0  0
 64142  1  0  0  0
 65143  1  0  0  0
 68 81  1  0  0  0
 71 72  2  0  0  0
 71 73  1  0  0  0
 71144  1  0  0  0
 72 74  1  0  0  0
 72145  1  0  0  0
 73 76  2  0  0  0
 73146  1  0  0  0
 74 75  2  0  0  0
 74 79  1  0  0  0
 75 76  1  0  0  0
 75 78  1  0  0  0
 76 82  1  0  0  0
 77 80  1  0  0  0
 77 83  1  0  0  0
 77 84  2  0  0  0
 78147  1  0  0  0
 78148  1  0  0  0
 78149  1  0  0  0
 79 83  1  0  0  0
 79150  1  0  0  0
 79151  1  0  0  0
 80 81  1  0  0  0
 80152  1  0  0  0
 80153  1  0  0  0
 81154  1  0  0  0
 81155  1  0  0  0
 82156  1  0  0  0
 83157  1  0  0  0
M  ISO  4   1 100  68 101  81 101  82 100
M  END
> <chiral flag>
0

> <version>
0

> <s_m_source_file>
/data/baiqing/PycharmProjects/Reinvent-master-3.2/result/LINK_invent/BTK/process_docking_weight1_custom_product_contain_oxygen_bond_distance_aromatic_linkinvent_7_9_3/rearranged_h_0050.sdf

> <i_m_source_file_index>
16

> <r_mmod_Potential_Energy-OPLS-2005>
-137.917358398438

> <r_mmod_Stretch_Energy-OPLS-2005>
46.4062652587891

> <r_mmod_Bend_Energy-OPLS-2005>
111.336715698242

> <r_mmod_Torsional_Energy-OPLS-2005>
225.202850341797

> <r_mmod_Improper_Torsional_Energy-OPLS-2005>
4.04504585266113

> <r_mmod_Van_der_Waal_Energy-OPLS-2005>
152.224868774414

> <r_mmod_Electrostatic_Energy-OPLS-2005>
-457.894134521484

> <r_mmod_Solvation_Energy-OPLS-2005>
-237.312469482422

> <b_mmod_Minimization_Converged-OPLS-2005>
0

> <r_mmod_RMS_Derivative-OPLS-2005>
3.94387888908386

$$$$
16
                    3D
 Structure written by MMmdl.
153161  0  0  1  0            999 V2000
  -30.6070  -14.6810   20.4837 C   0  0  0  0  0  0
  -30.4423  -12.4163   19.4561 C   0  0  0  0  0  0
  -29.5105  -12.5087   18.2267 C   0  0  0  0  0  0
  -28.0348  -12.3370   18.6402 C   0  0  0  0  0  0
  -27.6507  -13.2178   19.8588 C   0  0  2  0  0  0
  -28.6970  -13.0960   20.9897 C   0  0  0  0  0  0
  -25.2555  -13.8161   20.5684 C   0  0  0  0  0  0
  -24.1828  -13.0429   20.9201 C   0  0  0  0  0  0
  -24.6397  -11.6898   20.8743 C   0  0  0  0  0  0
  -23.9064  -10.4287   21.0405 C   0  0  0  0  0  0
  -24.3613   -9.4203   21.9182 C   0  0  0  0  0  0
  -23.6288   -8.2239   22.0752 C   0  0  0  0  0  0
  -22.4271   -8.0277   21.3544 C   0  0  0  0  0  0
  -21.9906   -9.0252   20.4647 C   0  0  0  0  0  0
  -22.7235  -10.2130   20.3055 C   0  0  0  0  0  0
  -21.6853   -6.0733   22.5278 C   0  0  0  0  0  0
  -21.4013   -6.5636   23.8212 C   0  0  0  0  0  0
  -21.3657   -5.6790   24.9172 C   0  0  0  0  0  0
  -21.6045   -4.3053   24.7223 C   0  0  0  0  0  0
  -21.8820   -3.8145   23.4345 C   0  0  0  0  0  0
  -21.9194   -4.6963   22.3401 C   0  0  0  0  0  0
  -22.7853  -13.5225   21.1855 C   0  0  0  0  0  0
  -22.1664   -4.2149   21.0980 F   0  0  0  0  0  0
  -21.5626   -3.4538   25.7735 F   0  0  0  0  0  0
  -30.0075  -13.4472   20.4210 N   0  0  0  0  0  0
  -26.2979  -12.9344   20.3302 N   0  0  0  0  0  0
  -25.9325  -11.6499   20.5749 N   0  0  0  0  0  0
  -22.0491  -12.8219   22.0413 N   0  0  0  0  0  0
  -25.4252  -15.1882   20.4073 N   0  0  0  0  0  0
  -31.7828  -14.8316   20.1377 O   0  0  0  0  0  0
  -21.6638   -6.8875   21.4240 O   0  0  0  0  0  0
  -22.3544  -14.5531   20.6702 O   0  0  0  0  0  0
  -24.6278  -31.8581   23.2013 C   0  0  0  0  0  0
  -25.9125  -32.4764   23.8343 C   0  0  1  0  0  0
  -27.2238  -27.2989   20.1244 C   0  0  0  0  0  0
  -25.5943  -33.8565   24.2275 N   0  0  0  0  0  0
  -23.4227  -30.4813   21.5442 C   0  0  2  0  0  0
  -24.8699  -28.9325   20.1138 C   0  0  0  0  0  0
  -22.7486  -29.4612   22.4930 C   0  0  0  0  0  0
  -18.0293  -28.1380   22.8479 C   0  0  0  0  0  0
  -24.1495  -36.7280   23.2637 C   0  0  0  0  0  0
  -25.9656  -30.7824   21.3766 C   0  0  0  0  0  0
  -26.0398  -29.4077   20.7199 C   0  0  0  0  0  0
  -27.2206  -28.6037   20.7133 C   0  0  0  0  0  0
  -26.0335  -26.8862   19.4846 C   0  0  0  0  0  0
  -24.8696  -27.6780   19.4865 C   0  0  0  0  0  0
  -23.6397  -29.8159   20.1600 C   0  0  0  0  0  0
  -25.4117  -36.3069   24.0328 C   0  0  1  0  0  0
  -20.5894  -28.3682   23.1278 C   0  0  2  0  0  0
  -20.6778  -26.9404   22.5409 C   0  0  0  0  0  0
  -19.5756  -26.6381   21.5207 C   0  0  0  0  0  0
  -18.1935  -26.7925   22.1617 C   0  0  0  0  0  0
  -19.1545  -28.8849   23.2875 C   0  0  0  0  0  0
  -18.9466  -30.1452   23.8889 C   0  0  0  0  0  0
  -17.6463  -30.6581   24.0558 C   0  0  0  0  0  0
  -25.9056  -34.9442   23.5100 C   0  0  0  0  0  0
  -16.5354  -29.9073   23.6330 C   0  0  0  0  0  0
  -16.7279  -28.6495   23.0342 C   0  0  0  0  0  0
  -26.4506  -31.6571   25.0716 C   0  0  0  0  0  0
  -25.3742  -31.3713   26.1445 C   0  0  0  0  0  0
  -27.0342  -30.2988   24.6180 C   0  0  0  0  0  0
  -27.6070  -32.4300   25.7488 C   0  0  0  0  0  0
  -27.5583  -37.1791   24.8463 C   0  0  0  0  0  0
  -21.4198  -29.3032   22.3669 N   0  0  0  0  0  0
  -26.4288  -37.3767   23.9416 N   0  0  0  0  0  0
  -24.6908  -31.0578   22.0972 N   0  0  0  0  0  0
  -23.4202  -28.8156   23.3020 O   0  0  0  0  0  0
  -28.3389  -26.4415   20.1449 O   0  0  0  0  0  0
  -26.5624  -34.8911   22.4665 O   0  0  0  0  0  0
  -23.5439  -32.1392   23.7330 O   0  0  0  0  0  0
  -28.7798  -19.4219   20.2245 C   0  0  0  0  0  0
  -28.7318  -18.0019   20.4060 C   0  0  0  0  0  0
  -31.1106  -17.9254   20.6525 C   0  0  0  0  0  0
  -29.9988  -20.1527   20.2441 C   0  0  0  0  0  0
  -31.1697  -19.3503   20.5015 C   0  0  0  0  0  0
  -29.8948  -17.2000   20.5903 C   0  0  0  0  0  0
  -30.0902  -21.6527   19.8170 C   0  0  0  0  0  0
  -29.2675  -24.0026   19.9758 C   0  0  0  0  0  0
  -32.5522  -19.9798   20.6219 C   0  0  0  0  0  0
  -28.1225  -24.9901   20.4479 C   0  0  0  0  0  0
  -29.7703  -15.7413   20.7521 N   0  0  0  0  0  0
  -29.2222  -22.6379   20.2482 N   0  0  0  0  0  0
  -31.0150  -21.9161   19.0402 O   0  0  0  0  0  0
  -30.1947  -24.5283   19.3472 O   0  0  0  0  0  0
  -31.4820  -12.5496   19.1517 H   0  0  0  0  0  0
  -30.3867  -11.4259   19.9102 H   0  0  0  0  0  0
  -29.7826  -11.7530   17.4886 H   0  0  0  0  0  0
  -29.6437  -13.4748   17.7369 H   0  0  0  0  0  0
  -27.8825  -11.2850   18.8841 H   0  0  0  0  0  0
  -27.3776  -12.5514   17.7965 H   0  0  0  0  0  0
  -27.6600  -14.2481   19.5032 H   0  0  0  0  0  0
  -28.7187  -12.0799   21.3867 H   0  0  0  0  0  0
  -28.4384  -13.7399   21.8319 H   0  0  0  0  0  0
  -25.2757   -9.5682   22.4754 H   0  0  0  0  0  0
  -24.0002   -7.4630   22.7467 H   0  0  0  0  0  0
  -21.0840   -8.8769   19.8952 H   0  0  0  0  0  0
  -22.3693  -10.9666   19.6165 H   0  0  0  0  0  0
  -21.2006   -7.6143   23.9712 H   0  0  0  0  0  0
  -21.1479   -6.0520   25.9074 H   0  0  0  0  0  0
  -22.0602   -2.7608   23.2845 H   0  0  0  0  0  0
  -22.4104  -11.9878   22.4798 H   0  0  0  0  0  0
  -21.1110  -13.1249   22.2609 H   0  0  0  0  0  0
  -24.6498  -15.8355   20.5002 H   0  0  0  0  0  0
  -26.2570  -15.6204   20.0280 H   0  0  0  0  0  0
  -26.7188  -32.5431   23.1084 H   0  0  0  0  0  0
  -25.0116  -33.9710   25.0438 H   0  0  0  0  0  0
  -22.7168  -31.3019   21.4004 H   0  0  0  0  0  0
  -23.3758  -35.9611   23.3290 H   0  0  0  0  0  0
  -24.3595  -36.8911   22.2055 H   0  0  0  0  0  0
  -23.7242  -37.6477   23.6664 H   0  0  0  0  0  0
  -26.1011  -31.5462   20.6095 H   0  0  0  0  0  0
  -26.8439  -30.8303   22.0083 H   0  0  0  0  0  0
  -28.1191  -28.9652   21.1934 H   0  0  0  0  0  0
  -25.9815  -25.9409   18.9660 H   0  0  0  0  0  0
  -23.9765  -27.3124   18.9983 H   0  0  0  0  0  0
  -23.7634  -30.5919   19.4036 H   0  0  0  0  0  0
  -22.7593  -29.2472   19.8558 H   0  0  0  0  0  0
  -25.1294  -36.1912   25.0818 H   0  0  0  0  0  0
  -20.9986  -28.3259   24.1398 H   0  0  0  0  0  0
  -20.5673  -26.2289   23.3607 H   0  0  0  0  0  0
  -21.6649  -26.7427   22.1210 H   0  0  0  0  0  0
  -19.6914  -25.6295   21.1230 H   0  0  0  0  0  0
  -19.6695  -27.3195   20.6739 H   0  0  0  0  0  0
  -17.4205  -26.6675   21.4016 H   0  0  0  0  0  0
  -18.0329  -26.0070   22.9016 H   0  0  0  0  0  0
  -19.7942  -30.7271   24.2252 H   0  0  0  0  0  0
  -17.5015  -31.6259   24.5162 H   0  0  0  0  0  0
  -15.5352  -30.2960   23.7666 H   0  0  0  0  0  0
  -15.8684  -28.0810   22.7048 H   0  0  0  0  0  0
  -24.5934  -30.7038   25.7782 H   0  0  0  0  0  0
  -24.8914  -32.2878   26.4845 H   0  0  0  0  0  0
  -25.8076  -30.8919   27.0231 H   0  0  0  0  0  0
  -26.2910  -29.6735   24.1218 H   0  0  0  0  0  0
  -27.4047  -29.7247   25.4681 H   0  0  0  0  0  0
  -27.8780  -30.4264   23.9396 H   0  0  0  0  0  0
  -27.2694  -33.3611   26.2050 H   0  0  0  0  0  0
  -28.3889  -32.6835   25.0317 H   0  0  0  0  0  0
  -28.0724  -31.8428   26.5415 H   0  0  0  0  0  0
  -28.2583  -38.0103   24.7525 H   0  0  0  0  0  0
  -28.1094  -36.2635   24.6261 H   0  0  0  0  0  0
  -27.2313  -37.1411   25.8869 H   0  0  0  0  0  0
  -20.9374  -29.8748   21.6876 H   0  0  0  0  0  0
  -26.0165  -38.2841   24.1416 H   0  0  0  0  0  0
  -27.8566  -19.9460   20.0201 H   0  0  0  0  0  0
  -27.7647  -17.5207   20.3665 H   0  0  0  0  0  0
  -32.0286  -17.3802   20.8235 H   0  0  0  0  0  0
  -33.2454  -19.3219   21.1472 H   0  0  0  0  0  0
  -32.5159  -20.9142   21.1825 H   0  0  0  0  0  0
  -32.9718  -20.1809   19.6360 H   0  0  0  0  0  0
  -28.0152  -24.8857   21.5274 H   0  0  0  0  0  0
  -27.2008  -24.6040   20.0199 H   0  0  0  0  0  0
  -28.8357  -15.4293   20.9660 H   0  0  0  0  0  0
  -28.4635  -22.3239   20.8322 H   0  0  0  0  0  0
  1 25  1  0  0  0
  1 30  2  0  0  0
  1 81  1  0  0  0
  2  3  1  0  0  0
  2 25  1  0  0  0
  2 85  1  0  0  0
  2 86  1  0  0  0
  3  4  1  0  0  0
  3 87  1  0  0  0
  3 88  1  0  0  0
  4  5  1  0  0  0
  4 89  1  0  0  0
  4 90  1  0  0  0
  5  6  1  0  0  0
  5 26  1  0  0  0
  5 91  1  0  0  0
  6 25  1  0  0  0
  6 92  1  0  0  0
  6 93  1  0  0  0
  7  8  2  0  0  0
  7 26  1  0  0  0
  7 29  1  0  0  0
  8  9  1  0  0  0
  8 22  1  0  0  0
  9 10  1  0  0  0
  9 27  2  0  0  0
 10 11  2  0  0  0
 10 15  1  0  0  0
 11 12  1  0  0  0
 11 94  1  0  0  0
 12 13  2  0  0  0
 12 95  1  0  0  0
 13 14  1  0  0  0
 13 31  1  0  0  0
 14 15  2  0  0  0
 14 96  1  0  0  0
 15 97  1  0  0  0
 16 17  2  0  0  0
 16 21  1  0  0  0
 16 31  1  0  0  0
 17 18  1  0  0  0
 17 98  1  0  0  0
 18 19  2  0  0  0
 18 99  1  0  0  0
 19 20  1  0  0  0
 19 24  1  0  0  0
 20 21  2  0  0  0
 20100  1  0  0  0
 21 23  1  0  0  0
 22 28  1  0  0  0
 22 32  2  0  0  0
 26 27  1  0  0  0
 28101  1  0  0  0
 28102  1  0  0  0
 29103  1  0  0  0
 29104  1  0  0  0
 33 34  1  0  0  0
 33 66  1  0  0  0
 33 70  2  0  0  0
 34 36  1  0  0  0
 34 59  1  0  0  0
 34105  1  0  0  0
 35 44  2  0  0  0
 35 45  1  0  0  0
 35 68  1  0  0  0
 36 56  1  0  0  0
 36106  1  0  0  0
 37 39  1  0  0  0
 37 47  1  0  0  0
 37 66  1  0  0  0
 37107  1  0  0  0
 38 43  2  0  0  0
 38 46  1  0  0  0
 38 47  1  0  0  0
 39 64  1  0  0  0
 39 67  2  0  0  0
 40 52  1  0  0  0
 40 53  2  0  0  0
 40 58  1  0  0  0
 41108  1  0  0  0
 41109  1  0  0  0
 41110  1  0  0  0
 41 48  1  0  0  0
 42 43  1  0  0  0
 42 66  1  0  0  0
 42111  1  0  0  0
 42112  1  0  0  0
 43 44  1  0  0  0
 44113  1  0  0  0
 45 46  2  0  0  0
 45114  1  0  0  0
 46115  1  0  0  0
 47116  1  0  0  0
 47117  1  0  0  0
 48 56  1  0  0  0
 48 65  1  0  0  0
 48118  1  0  0  0
 49 50  1  0  0  0
 49 53  1  0  0  0
 49 64  1  0  0  0
 49119  1  0  0  0
 50 51  1  0  0  0
 50120  1  0  0  0
 50121  1  0  0  0
 51 52  1  0  0  0
 51122  1  0  0  0
 51123  1  0  0  0
 52124  1  0  0  0
 52125  1  0  0  0
 53 54  1  0  0  0
 54 55  2  0  0  0
 54126  1  0  0  0
 55 57  1  0  0  0
 55127  1  0  0  0
 56 69  2  0  0  0
 57 58  2  0  0  0
 57128  1  0  0  0
 58129  1  0  0  0
 59 60  1  0  0  0
 59 61  1  0  0  0
 59 62  1  0  0  0
 60130  1  0  0  0
 60131  1  0  0  0
 60132  1  0  0  0
 61133  1  0  0  0
 61134  1  0  0  0
 61135  1  0  0  0
 62136  1  0  0  0
 62137  1  0  0  0
 62138  1  0  0  0
 63 65  1  0  0  0
 63139  1  0  0  0
 63140  1  0  0  0
 63141  1  0  0  0
 64142  1  0  0  0
 65143  1  0  0  0
 68 80  1  0  0  0
 71 72  2  0  0  0
 71 74  1  0  0  0
 71144  1  0  0  0
 72 76  1  0  0  0
 72145  1  0  0  0
 73 75  1  0  0  0
 73 76  2  0  0  0
 73146  1  0  0  0
 74 75  2  0  0  0
 74 77  1  0  0  0
 75 79  1  0  0  0
 76 81  1  0  0  0
 77 82  1  0  0  0
 77 83  2  0  0  0
 78 80  1  0  0  0
 78 82  1  0  0  0
 78 84  2  0  0  0
 79147  1  0  0  0
 79148  1  0  0  0
 79149  1  0  0  0
 80150  1  0  0  0
 80151  1  0  0  0
 81152  1  0  0  0
 82153  1  0  0  0
M  ISO  4   1 100  68 101  80 101  81 100
M  END
> <chiral flag>
0

> <version>
0

> <s_m_source_file>
/data/baiqing/PycharmProjects/Reinvent-master-3.2/result/LINK_invent/BTK/process_docking_weight1_custom_product_contain_oxygen_bond_distance_aromatic_linkinvent_7_9_3/rearranged_h_0050.sdf

> <i_m_source_file_index>
17

> <r_mmod_Potential_Energy-OPLS-2005>
-4.45958185195923

> <r_mmod_Stretch_Energy-OPLS-2005>
96.3057250976562

> <r_mmod_Bend_Energy-OPLS-2005>
147.197326660156

> <r_mmod_Torsional_Energy-OPLS-2005>
241.260711669922

> <r_mmod_Improper_Torsional_Energy-OPLS-2005>
5.96422863006592

> <r_mmod_Van_der_Waal_Energy-OPLS-2005>
152.523544311523

> <r_mmod_Electrostatic_Energy-OPLS-2005>
-416.862152099609

> <r_mmod_Solvation_Energy-OPLS-2005>
-290.501892089844

> <b_mmod_Minimization_Converged-OPLS-2005>
0

> <r_mmod_RMS_Derivative-OPLS-2005>
0.702880024909973

$$$$
17
                    3D
 Structure written by MMmdl.
156164  0  0  1  0            999 V2000
  -30.7430  -14.4656   20.5722 C   0  0  0  0  0  0
  -30.4204  -12.3016   19.4296 C   0  0  0  0  0  0
  -29.4954  -12.5057   18.2107 C   0  0  0  0  0  0
  -28.0199  -12.3632   18.6275 C   0  0  0  0  0  0
  -27.6631  -13.2087   19.8784 C   0  0  2  0  0  0
  -28.7093  -13.0122   21.0006 C   0  0  0  0  0  0
  -25.2574  -13.8173   20.5728 C   0  0  0  0  0  0
  -24.1818  -13.0434   20.9185 C   0  0  0  0  0  0
  -24.6360  -11.6896   20.8721 C   0  0  0  0  0  0
  -23.9046  -10.4283   21.0388 C   0  0  0  0  0  0
  -24.3597   -9.4210   21.9175 C   0  0  0  0  0  0
  -23.6249   -8.2259   22.0762 C   0  0  0  0  0  0
  -22.4248   -8.0289   21.3543 C   0  0  0  0  0  0
  -21.9881   -9.0279   20.4669 C   0  0  0  0  0  0
  -22.7220  -10.2143   20.3050 C   0  0  0  0  0  0
  -21.6839   -6.0732   22.5275 C   0  0  0  0  0  0
  -21.4020   -6.5625   23.8218 C   0  0  0  0  0  0
  -21.3659   -5.6774   24.9169 C   0  0  0  0  0  0
  -21.6056   -4.3047   24.7218 C   0  0  0  0  0  0
  -21.8807   -3.8145   23.4332 C   0  0  0  0  0  0
  -21.9187   -4.6961   22.3391 C   0  0  0  0  0  0
  -22.7854  -13.5263   21.1801 C   0  0  0  0  0  0
  -22.1670   -4.2149   21.0970 F   0  0  0  0  0  0
  -21.5639   -3.4528   25.7731 F   0  0  0  0  0  0
  -30.0419  -13.3061   20.4386 N   0  0  0  0  0  0
  -26.3030  -12.9345   20.3418 N   0  0  0  0  0  0
  -25.9302  -11.6495   20.5773 N   0  0  0  0  0  0
  -22.0456  -12.8341   22.0385 N   0  0  0  0  0  0
  -25.4254  -15.1886   20.4181 N   0  0  0  0  0  0
  -31.8726  -14.6178   20.0988 O   0  0  0  0  0  0
  -21.6617   -6.8889   21.4238 O   0  0  0  0  0  0
  -22.3565  -14.5561   20.6608 O   0  0  0  0  0  0
  -24.6160  -31.8668   23.2093 C   0  0  0  0  0  0
  -25.9042  -32.4821   23.8398 C   0  0  1  0  0  0
  -27.2393  -27.4317   20.1012 C   0  0  0  0  0  0
  -25.5907  -33.8620   24.2339 N   0  0  0  0  0  0
  -23.4057  -30.4882   21.5484 C   0  0  2  0  0  0
  -24.8580  -28.9592   20.1105 C   0  0  0  0  0  0
  -22.7435  -29.4648   22.4978 C   0  0  0  0  0  0
  -18.0276  -28.1380   22.8505 C   0  0  0  0  0  0
  -24.1487  -36.7310   23.2635 C   0  0  0  0  0  0
  -25.9351  -30.8340   21.3642 C   0  0  0  0  0  0
  -26.0170  -29.4690   20.7110 C   0  0  0  0  0  0
  -27.2123  -28.7118   20.7036 C   0  0  0  0  0  0
  -26.0693  -26.9484   19.4754 C   0  0  0  0  0  0
  -24.8800  -27.6999   19.4862 C   0  0  0  0  0  0
  -23.6171  -29.8225   20.1632 C   0  0  0  0  0  0
  -25.4111  -36.3116   24.0346 C   0  0  1  0  0  0
  -20.5867  -28.3695   23.1291 C   0  0  2  0  0  0
  -20.6756  -26.9421   22.5416 C   0  0  0  0  0  0
  -19.5718  -26.6376   21.5214 C   0  0  0  0  0  0
  -18.1920  -26.7907   22.1670 C   0  0  0  0  0  0
  -19.1526  -28.8860   23.2885 C   0  0  0  0  0  0
  -18.9436  -30.1449   23.8908 C   0  0  0  0  0  0
  -17.6451  -30.6593   24.0564 C   0  0  0  0  0  0
  -25.9042  -34.9474   23.5139 C   0  0  0  0  0  0
  -16.5346  -29.9108   23.6324 C   0  0  0  0  0  0
  -16.7262  -28.6514   23.0366 C   0  0  0  0  0  0
  -26.4453  -31.6592   25.0715 C   0  0  0  0  0  0
  -25.3721  -31.3701   26.1467 C   0  0  0  0  0  0
  -27.0276  -30.3040   24.6066 C   0  0  0  0  0  0
  -27.6047  -32.4299   25.7459 C   0  0  0  0  0  0
  -27.5584  -37.1805   24.8463 C   0  0  0  0  0  0
  -21.4161  -29.3072   22.3738 N   0  0  0  0  0  0
  -26.4302  -37.3802   23.9417 N   0  0  0  0  0  0
  -24.6703  -31.0769   22.0998 N   0  0  0  0  0  0
  -23.4210  -28.8180   23.3015 O   0  0  0  0  0  0
  -28.3766  -26.6479   20.1271 O   0  0  0  0  0  0
  -26.5586  -34.8927   22.4679 O   0  0  0  0  0  0
  -23.5342  -32.1405   23.7475 O   0  0  0  0  0  0
  -31.2714  -19.5782   21.5588 C   0  0  0  0  0  0
  -31.8449  -17.2067   21.5703 C   0  0  0  0  0  0
  -29.9388  -19.2819   21.1998 C   0  0  0  0  0  0
  -30.5156  -16.8670   21.2108 C   0  0  0  0  0  0
  -32.2181  -18.5554   21.7275 C   0  0  0  0  0  0
  -29.5709  -17.9092   21.0015 C   0  0  0  0  0  0
  -28.9870  -20.4172   21.1557 C   0  0  0  0  0  0
  -29.0919  -24.2187   20.3653 C   0  0  0  0  0  0
  -28.5114  -22.8845   20.9030 C   0  0  0  0  0  0
  -28.1945  -25.3976   20.8211 C   0  0  0  0  0  0
  -27.7393  -20.2598   21.5983 N   0  0  0  0  0  0
  -30.0799  -15.4987   21.1232 N   0  0  0  0  0  0
  -29.3518  -21.6637   20.7591 N   0  3  0  0  0  0
  -33.4886  -18.8716   22.0750 F   0  0  0  0  0  0
  -27.9690  -17.4461   20.5148 Cl  0  0  0  0  0  0
  -31.4698  -12.3762   19.1353 H   0  0  0  0  0  0
  -30.3002  -11.2968   19.8370 H   0  0  0  0  0  0
  -29.7313  -11.7842   17.4285 H   0  0  0  0  0  0
  -29.6643  -13.4893   17.7725 H   0  0  0  0  0  0
  -27.8355  -11.3091   18.8363 H   0  0  0  0  0  0
  -27.3690  -12.6325   17.7952 H   0  0  0  0  0  0
  -27.7061  -14.2543   19.5712 H   0  0  0  0  0  0
  -28.6853  -11.9840   21.3656 H   0  0  0  0  0  0
  -28.4749  -13.6298   21.8690 H   0  0  0  0  0  0
  -25.2715   -9.5688   22.4792 H   0  0  0  0  0  0
  -23.9936   -7.4656   22.7491 H   0  0  0  0  0  0
  -21.0812   -8.8828   19.8974 H   0  0  0  0  0  0
  -22.3669  -10.9710   19.6201 H   0  0  0  0  0  0
  -21.2041   -7.6136   23.9719 H   0  0  0  0  0  0
  -21.1478   -6.0506   25.9072 H   0  0  0  0  0  0
  -22.0564   -2.7596   23.2834 H   0  0  0  0  0  0
  -22.3965  -12.0007   22.4869 H   0  0  0  0  0  0
  -21.1086  -13.1479   22.2499 H   0  0  0  0  0  0
  -24.6578  -15.8375   20.5500 H   0  0  0  0  0  0
  -26.2803  -15.6457   20.1276 H   0  0  0  0  0  0
  -26.7113  -32.5549   23.1169 H   0  0  0  0  0  0
  -25.0096  -33.9776   25.0507 H   0  0  0  0  0  0
  -22.6937  -31.3044   21.4096 H   0  0  0  0  0  0
  -23.3750  -35.9638   23.3295 H   0  0  0  0  0  0
  -24.3590  -36.8912   22.2048 H   0  0  0  0  0  0
  -23.7225  -37.6516   23.6637 H   0  0  0  0  0  0
  -26.0406  -31.6038   20.5983 H   0  0  0  0  0  0
  -26.8210  -30.8889   21.9836 H   0  0  0  0  0  0
  -28.1061  -29.0963   21.1730 H   0  0  0  0  0  0
  -26.0735  -25.9834   18.9846 H   0  0  0  0  0  0
  -23.9924  -27.3024   19.0152 H   0  0  0  0  0  0
  -23.7294  -30.5972   19.4042 H   0  0  0  0  0  0
  -22.7408  -29.2436   19.8657 H   0  0  0  0  0  0
  -25.1275  -36.1988   25.0844 H   0  0  0  0  0  0
  -20.9929  -28.3262   24.1423 H   0  0  0  0  0  0
  -20.5672  -26.2288   23.3595 H   0  0  0  0  0  0
  -21.6618  -26.7454   22.1183 H   0  0  0  0  0  0
  -19.6840  -25.6280   21.1257 H   0  0  0  0  0  0
  -19.6574  -27.3175   20.6740 H   0  0  0  0  0  0
  -17.4142  -26.6581   21.4119 H   0  0  0  0  0  0
  -18.0357  -26.0086   22.9106 H   0  0  0  0  0  0
  -19.7918  -30.7267   24.2270 H   0  0  0  0  0  0
  -17.5014  -31.6266   24.5186 H   0  0  0  0  0  0
  -15.5347  -30.3011   23.7646 H   0  0  0  0  0  0
  -15.8658  -28.0832   22.7077 H   0  0  0  0  0  0
  -24.5897  -30.7044   25.7806 H   0  0  0  0  0  0
  -24.8896  -32.2855   26.4920 H   0  0  0  0  0  0
  -25.8078  -30.8875   27.0223 H   0  0  0  0  0  0
  -26.2816  -29.6815   24.1118 H   0  0  0  0  0  0
  -27.4048  -29.7273   25.4513 H   0  0  0  0  0  0
  -27.8650  -30.4362   23.9212 H   0  0  0  0  0  0
  -27.2697  -33.3613   26.2048 H   0  0  0  0  0  0
  -28.3846  -32.6832   25.0260 H   0  0  0  0  0  0
  -28.0717  -31.8400   26.5353 H   0  0  0  0  0  0
  -28.2599  -38.0101   24.7526 H   0  0  0  0  0  0
  -28.1086  -36.2634   24.6280 H   0  0  0  0  0  0
  -27.2309  -37.1452   25.8867 H   0  0  0  0  0  0
  -20.9337  -29.8851   21.7007 H   0  0  0  0  0  0
  -26.0188  -38.2884   24.1418 H   0  0  0  0  0  0
  -31.5831  -20.5967   21.7387 H   0  0  0  0  0  0
  -32.5912  -16.4464   21.7467 H   0  0  0  0  0  0
  -29.1300  -24.1829   19.2774 H   0  0  0  0  0  0
  -30.1127  -24.3727   20.7149 H   0  0  0  0  0  0
  -27.5487  -22.7139   20.4151 H   0  0  0  0  0  0
  -28.3013  -23.0065   21.9669 H   0  0  0  0  0  0
  -28.3748  -25.5794   21.8808 H   0  0  0  0  0  0
  -27.1602  -25.0567   20.7684 H   0  0  0  0  0  0
  -27.4164  -19.3285   21.8225 H   0  0  0  0  0  0
  -27.0652  -21.0027   21.6064 H   0  0  0  0  0  0
  -29.1109  -15.3325   21.3473 H   0  0  0  0  0  0
  -30.2826  -21.7798   20.3734 H   0  0  0  0  0  0
  1 25  1  0  0  0
  1 30  2  0  0  0
  1 82  1  0  0  0
  2  3  1  0  0  0
  2 25  1  0  0  0
  2 86  1  0  0  0
  2 87  1  0  0  0
  3  4  1  0  0  0
  3 88  1  0  0  0
  3 89  1  0  0  0
  4  5  1  0  0  0
  4 90  1  0  0  0
  4 91  1  0  0  0
  5  6  1  0  0  0
  5 26  1  0  0  0
  5 92  1  0  0  0
  6 25  1  0  0  0
  6 93  1  0  0  0
  6 94  1  0  0  0
  7  8  2  0  0  0
  7 26  1  0  0  0
  7 29  1  0  0  0
  8  9  1  0  0  0
  8 22  1  0  0  0
  9 10  1  0  0  0
  9 27  2  0  0  0
 10 11  2  0  0  0
 10 15  1  0  0  0
 11 12  1  0  0  0
 11 95  1  0  0  0
 12 13  2  0  0  0
 12 96  1  0  0  0
 13 14  1  0  0  0
 13 31  1  0  0  0
 14 15  2  0  0  0
 14 97  1  0  0  0
 15 98  1  0  0  0
 16 17  2  0  0  0
 16 21  1  0  0  0
 16 31  1  0  0  0
 17 18  1  0  0  0
 17 99  1  0  0  0
 18 19  2  0  0  0
 18100  1  0  0  0
 19 20  1  0  0  0
 19 24  1  0  0  0
 20 21  2  0  0  0
 20101  1  0  0  0
 21 23  1  0  0  0
 22 28  1  0  0  0
 22 32  2  0  0  0
 26 27  1  0  0  0
 28102  1  0  0  0
 28103  1  0  0  0
 29104  1  0  0  0
 29105  1  0  0  0
 33 34  1  0  0  0
 33 66  1  0  0  0
 33 70  2  0  0  0
 34 36  1  0  0  0
 34 59  1  0  0  0
 34106  1  0  0  0
 35 44  2  0  0  0
 35 45  1  0  0  0
 35 68  1  0  0  0
 36 56  1  0  0  0
 36107  1  0  0  0
 37 39  1  0  0  0
 37 47  1  0  0  0
 37 66  1  0  0  0
 37108  1  0  0  0
 38 43  2  0  0  0
 38 46  1  0  0  0
 38 47  1  0  0  0
 39 64  1  0  0  0
 39 67  2  0  0  0
 40 52  1  0  0  0
 40 53  2  0  0  0
 40 58  1  0  0  0
 41109  1  0  0  0
 41110  1  0  0  0
 41111  1  0  0  0
 41 48  1  0  0  0
 42 43  1  0  0  0
 42 66  1  0  0  0
 42112  1  0  0  0
 42113  1  0  0  0
 43 44  1  0  0  0
 44114  1  0  0  0
 45 46  2  0  0  0
 45115  1  0  0  0
 46116  1  0  0  0
 47117  1  0  0  0
 47118  1  0  0  0
 48 56  1  0  0  0
 48 65  1  0  0  0
 48119  1  0  0  0
 49 50  1  0  0  0
 49 53  1  0  0  0
 49 64  1  0  0  0
 49120  1  0  0  0
 50 51  1  0  0  0
 50121  1  0  0  0
 50122  1  0  0  0
 51 52  1  0  0  0
 51123  1  0  0  0
 51124  1  0  0  0
 52125  1  0  0  0
 52126  1  0  0  0
 53 54  1  0  0  0
 54 55  2  0  0  0
 54127  1  0  0  0
 55 57  1  0  0  0
 55128  1  0  0  0
 56 69  2  0  0  0
 57 58  2  0  0  0
 57129  1  0  0  0
 58130  1  0  0  0
 59 60  1  0  0  0
 59 61  1  0  0  0
 59 62  1  0  0  0
 60131  1  0  0  0
 60132  1  0  0  0
 60133  1  0  0  0
 61134  1  0  0  0
 61135  1  0  0  0
 61136  1  0  0  0
 62137  1  0  0  0
 62138  1  0  0  0
 62139  1  0  0  0
 63 65  1  0  0  0
 63140  1  0  0  0
 63141  1  0  0  0
 63142  1  0  0  0
 64143  1  0  0  0
 65144  1  0  0  0
 68 80  1  0  0  0
 71 73  2  0  0  0
 71 75  1  0  0  0
 71145  1  0  0  0
 72 74  1  0  0  0
 72 75  2  0  0  0
 72146  1  0  0  0
 73 76  1  0  0  0
 73 77  1  0  0  0
 74 76  2  0  0  0
 74 82  1  0  0  0
 75 84  1  0  0  0
 76 85  1  0  0  0
 77 81  1  0  0  0
 77 83  2  0  0  0
 78 79  1  0  0  0
 78 80  1  0  0  0
 78147  1  0  0  0
 78148  1  0  0  0
 79 83  1  0  0  0
 79149  1  0  0  0
 79150  1  0  0  0
 80151  1  0  0  0
 80152  1  0  0  0
 81153  1  0  0  0
 81154  1  0  0  0
 82155  1  0  0  0
 83156  1  0  0  0
M  CHG  1  83   1
M  ISO  4   1 100  68 101  80 101  82 100
M  END
> <chiral flag>
0

> <version>
0

> <s_m_source_file>
/data/baiqing/PycharmProjects/Reinvent-master-3.2/result/LINK_invent/BTK/process_docking_weight1_custom_product_contain_oxygen_bond_distance_aromatic_linkinvent_7_9_3/rearranged_h_0050.sdf

> <i_m_source_file_index>
18

> <r_mmod_Potential_Energy-OPLS-2005>
-299.495422363281

> <r_mmod_Stretch_Energy-OPLS-2005>
42.2949638366699

> <r_mmod_Bend_Energy-OPLS-2005>
100.283241271973

> <r_mmod_Torsional_Energy-OPLS-2005>
236.523330688477

> <r_mmod_Improper_Torsional_Energy-OPLS-2005>
4.45404148101807

> <r_mmod_Van_der_Waal_Energy-OPLS-2005>
166.144348144531

> <r_mmod_Electrostatic_Energy-OPLS-2005>
-434.621856689453

> <r_mmod_Solvation_Energy-OPLS-2005>
-429.230316162109

> <b_mmod_Minimization_Converged-OPLS-2005>
0

> <r_mmod_RMS_Derivative-OPLS-2005>
4.63848638534546

$$$$
18
                    3D
 Structure written by MMmdl.
168177  0  0  1  0            999 V2000
  -30.6316  -14.5589   20.5326 C   0  0  0  0  0  0
  -30.4345  -12.3501   19.4322 C   0  0  0  0  0  0
  -29.4964  -12.5116   18.2160 C   0  0  0  0  0  0
  -28.0177  -12.3598   18.6277 C   0  0  0  0  0  0
  -27.6548  -13.2062   19.8740 C   0  0  2  0  0  0
  -28.7010  -13.0021   20.9962 C   0  0  0  0  0  0
  -25.2529  -13.8139   20.5702 C   0  0  0  0  0  0
  -24.1802  -13.0423   20.9222 C   0  0  0  0  0  0
  -24.6364  -11.6884   20.8779 C   0  0  0  0  0  0
  -23.9046  -10.4285   21.0439 C   0  0  0  0  0  0
  -24.3597   -9.4188   21.9202 C   0  0  0  0  0  0
  -23.6277   -8.2219   22.0747 C   0  0  0  0  0  0
  -22.4253   -8.0283   21.3536 C   0  0  0  0  0  0
  -21.9900   -9.0250   20.4629 C   0  0  0  0  0  0
  -22.7229  -10.2135   20.3057 C   0  0  0  0  0  0
  -21.6839   -6.0742   22.5273 C   0  0  0  0  0  0
  -21.4005   -6.5637   23.8210 C   0  0  0  0  0  0
  -21.3662   -5.6787   24.9168 C   0  0  0  0  0  0
  -21.6042   -4.3050   24.7215 C   0  0  0  0  0  0
  -21.8825   -3.8152   23.4324 C   0  0  0  0  0  0
  -21.9187   -4.6970   22.3391 C   0  0  0  0  0  0
  -22.7827  -13.5208   21.1879 C   0  0  0  0  0  0
  -22.1651   -4.2151   21.0966 F   0  0  0  0  0  0
  -21.5644   -3.4541   25.7729 F   0  0  0  0  0  0
  -30.0243  -13.3393   20.4428 N   0  0  0  0  0  0
  -26.2973  -12.9315   20.3372 N   0  0  0  0  0  0
  -25.9286  -11.6481   20.5796 N   0  0  0  0  0  0
  -22.0476  -12.8193   22.0431 N   0  0  0  0  0  0
  -25.4254  -15.1855   20.4064 N   0  0  0  0  0  0
  -31.7790  -14.7568   20.1199 O   0  0  0  0  0  0
  -21.6617   -6.8874   21.4230 O   0  0  0  0  0  0
  -22.3492  -14.5512   20.6724 O   0  0  0  0  0  0
  -24.6163  -31.8607   23.2019 C   0  0  0  0  0  0
  -25.8996  -32.4796   23.8369 C   0  0  1  0  0  0
  -27.2505  -27.3767   20.0908 C   0  0  0  0  0  0
  -25.5799  -33.8600   24.2282 N   0  0  0  0  0  0
  -23.4127  -30.4811   21.5425 C   0  0  2  0  0  0
  -24.8637  -28.9324   20.1133 C   0  0  0  0  0  0
  -22.7420  -29.4634   22.4916 C   0  0  0  0  0  0
  -18.0287  -28.1414   22.8518 C   0  0  0  0  0  0
  -24.1488  -36.7362   23.2652 C   0  0  0  0  0  0
  -25.9464  -30.7970   21.3735 C   0  0  0  0  0  0
  -26.0234  -29.4281   20.7185 C   0  0  0  0  0  0
  -27.2124  -28.6577   20.7062 C   0  0  0  0  0  0
  -26.0648  -26.9054   19.4776 C   0  0  0  0  0  0
  -24.8815  -27.6687   19.4936 C   0  0  0  0  0  0
  -23.6303  -29.8076   20.1610 C   0  0  0  0  0  0
  -25.4101  -36.3130   24.0344 C   0  0  1  0  0  0
  -20.5865  -28.3714   23.1312 C   0  0  2  0  0  0
  -20.6778  -26.9445   22.5450 C   0  0  0  0  0  0
  -19.5743  -26.6430   21.5260 C   0  0  0  0  0  0
  -18.1924  -26.7963   22.1659 C   0  0  0  0  0  0
  -19.1532  -28.8885   23.2928 C   0  0  0  0  0  0
  -18.9451  -30.1487   23.8942 C   0  0  0  0  0  0
  -17.6455  -30.6616   24.0591 C   0  0  0  0  0  0
  -25.9020  -34.9472   23.5142 C   0  0  0  0  0  0
  -16.5349  -29.9134   23.6330 C   0  0  0  0  0  0
  -16.7278  -28.6549   23.0352 C   0  0  0  0  0  0
  -26.4423  -31.6587   25.0711 C   0  0  0  0  0  0
  -25.3724  -31.3611   26.1481 C   0  0  0  0  0  0
  -27.0260  -30.3029   24.6090 C   0  0  0  0  0  0
  -27.6000  -32.4344   25.7444 C   0  0  0  0  0  0
  -27.5594  -37.1807   24.8449 C   0  0  0  0  0  0
  -21.4140  -29.3049   22.3660 N   0  0  0  0  0  0
  -26.4300  -37.3799   23.9404 N   0  0  0  0  0  0
  -24.6774  -31.0631   22.0972 N   0  0  0  0  0  0
  -23.4154  -28.8195   23.3010 O   0  0  0  0  0  0
  -28.4372  -26.6466   20.1111 O   0  0  0  0  0  0
  -26.5627  -34.8927   22.4731 O   0  0  0  0  0  0
  -23.5342  -32.1404   23.7345 O   0  0  0  0  0  0
  -30.8050  -19.1550   20.1942 C   0  0  0  0  0  0
  -30.9251  -17.7948   20.5828 C   0  0  0  0  0  0
  -28.5490  -17.5347   20.2659 C   0  0  0  0  0  0
  -29.5679  -19.7382   19.7902 C   0  0  0  0  0  0
  -28.4187  -18.8820   19.8280 C   0  0  0  0  0  0
  -29.7922  -16.9500   20.6056 C   0  0  0  0  0  0
  -30.3406  -23.4393   20.0967 C   0  0  0  0  0  0
  -32.4837  -21.8784   22.6763 C   0  0  0  0  0  0
  -31.2878  -23.2197   21.0293 C   0  0  0  0  0  0
  -31.4529  -22.0268   21.8306 C   0  0  0  0  0  0
  -30.0062  -24.8376   19.5438 C   0  0  0  0  0  0
  -27.8100  -24.2694   20.7029 C   0  0  0  0  0  0
  -27.9738  -22.7424   20.3461 C   0  0  0  0  0  0
  -28.5029  -25.2484   19.6998 C   0  0  1  0  0  0
  -29.6055  -21.1278   19.0612 C   0  0  0  0  0  0
  -27.0297  -19.2844   19.3196 C   0  0  0  0  0  0
  -29.8227  -15.5559   20.9760 N   0  0  0  0  0  0
  -29.2722  -22.4759   19.6743 N   0  3  1  0  0  0
  -26.1109  -19.1187   20.2740 F   0  0  0  0  0  0
  -26.6884  -18.5348   18.2684 F   0  0  0  0  0  0
  -31.4728  -12.4817   19.1218 H   0  0  0  0  0  0
  -30.3640  -11.3434   19.8454 H   0  0  0  0  0  0
  -29.7460  -11.7824   17.4435 H   0  0  0  0  0  0
  -29.6476  -13.4945   17.7674 H   0  0  0  0  0  0
  -27.8299  -11.3067   18.8344 H   0  0  0  0  0  0
  -27.3667  -12.6244   17.7917 H   0  0  0  0  0  0
  -27.6856  -14.2498   19.5639 H   0  0  0  0  0  0
  -28.6923  -11.9653   21.3346 H   0  0  0  0  0  0
  -28.4562  -13.5979   21.8777 H   0  0  0  0  0  0
  -25.2747   -9.5654   22.4765 H   0  0  0  0  0  0
  -23.9994   -7.4608   22.7453 H   0  0  0  0  0  0
  -21.0844   -8.8786   19.8909 H   0  0  0  0  0  0
  -22.3719  -10.9687   19.6166 H   0  0  0  0  0  0
  -21.1978   -7.6148   23.9706 H   0  0  0  0  0  0
  -21.1490   -6.0522   25.9071 H   0  0  0  0  0  0
  -22.0594   -2.7615   23.2843 H   0  0  0  0  0  0
  -22.4084  -11.9843   22.4818 H   0  0  0  0  0  0
  -21.1091  -13.1212   22.2652 H   0  0  0  0  0  0
  -24.6564  -15.8424   20.4838 H   0  0  0  0  0  0
  -26.2549  -15.5992   20.0054 H   0  0  0  0  0  0
  -26.7030  -32.5485   23.1099 H   0  0  0  0  0  0
  -24.9790  -33.9781   25.0310 H   0  0  0  0  0  0
  -22.7063  -31.2983   21.3910 H   0  0  0  0  0  0
  -23.3767  -35.9681   23.3287 H   0  0  0  0  0  0
  -24.3549  -36.9041   22.2072 H   0  0  0  0  0  0
  -23.7252  -37.6549   23.6710 H   0  0  0  0  0  0
  -26.0656  -31.5528   20.5964 H   0  0  0  0  0  0
  -26.8319  -30.8532   21.9961 H   0  0  0  0  0  0
  -28.1069  -29.0323   21.1856 H   0  0  0  0  0  0
  -26.0327  -25.9475   18.9808 H   0  0  0  0  0  0
  -23.9902  -27.2748   19.0265 H   0  0  0  0  0  0
  -23.7446  -30.5788   19.3973 H   0  0  0  0  0  0
  -22.7514  -29.2313   19.8689 H   0  0  0  0  0  0
  -25.1267  -36.2015   25.0839 H   0  0  0  0  0  0
  -20.9972  -28.3353   24.1428 H   0  0  0  0  0  0
  -20.5744  -26.2330   23.3644 H   0  0  0  0  0  0
  -21.6652  -26.7510   22.1209 H   0  0  0  0  0  0
  -19.6908  -25.6359   21.1249 H   0  0  0  0  0  0
  -19.6681  -27.3278   20.6814 H   0  0  0  0  0  0
  -17.4196  -26.6766   21.4058 H   0  0  0  0  0  0
  -18.0286  -26.0100   22.9045 H   0  0  0  0  0  0
  -19.7918  -30.7328   24.2319 H   0  0  0  0  0  0
  -17.4992  -31.6262   24.5256 H   0  0  0  0  0  0
  -15.5359  -30.3046   23.7601 H   0  0  0  0  0  0
  -15.8684  -28.0899   22.6999 H   0  0  0  0  0  0
  -24.5919  -30.6928   25.7812 H   0  0  0  0  0  0
  -24.8875  -32.2714   26.5017 H   0  0  0  0  0  0
  -25.8132  -30.8732   27.0195 H   0  0  0  0  0  0
  -26.2774  -29.6755   24.1241 H   0  0  0  0  0  0
  -27.4131  -29.7273   25.4508 H   0  0  0  0  0  0
  -27.8564  -30.4341   23.9153 H   0  0  0  0  0  0
  -27.2634  -33.3681   26.1973 H   0  0  0  0  0  0
  -28.3794  -32.6885   25.0242 H   0  0  0  0  0  0
  -28.0683  -31.8520   26.5389 H   0  0  0  0  0  0
  -28.2578  -38.0137   24.7536 H   0  0  0  0  0  0
  -28.1152  -36.2673   24.6258 H   0  0  0  0  0  0
  -27.2304  -37.1427   25.8848 H   0  0  0  0  0  0
  -20.9311  -29.8762   21.6862 H   0  0  0  0  0  0
  -26.0224  -38.2891   24.1423 H   0  0  0  0  0  0
  -31.7180  -19.7356   20.1417 H   0  0  0  0  0  0
  -31.9032  -17.4052   20.8321 H   0  0  0  0  0  0
  -27.6632  -16.9158   20.2687 H   0  0  0  0  0  0
  -32.5849  -20.9911   23.2836 H   0  0  0  0  0  0
  -33.2476  -22.6374   22.7817 H   0  0  0  0  0  0
  -31.9210  -24.0609   21.2732 H   0  0  0  0  0  0
  -30.7169  -21.2402   21.7828 H   0  0  0  0  0  0
  -30.3282  -24.9119   18.5014 H   0  0  0  0  0  0
  -30.6224  -25.5552   20.0869 H   0  0  0  0  0  0
  -28.2512  -24.4382   21.6851 H   0  0  0  0  0  0
  -26.7566  -24.5164   20.8216 H   0  0  0  0  0  0
  -27.1692  -22.4391   19.6801 H   0  0  0  0  0  0
  -27.8988  -22.1310   21.2458 H   0  0  0  0  0  0
  -28.0477  -25.1538   18.7117 H   0  0  0  0  0  0
  -28.9823  -21.0284   18.1725 H   0  0  0  0  0  0
  -30.6111  -21.2362   18.6506 H   0  0  0  0  0  0
  -26.9509  -20.3143   18.9882 H   0  0  0  0  0  0
  -28.9423  -15.1922   21.3098 H   0  0  0  0  0  0
  -29.0254  -22.8702   18.7784 H   0  0  0  0  0  0
  1 25  1  0  0  0
  1 30  2  0  0  0
  1 87  1  0  0  0
  2  3  1  0  0  0
  2 25  1  0  0  0
  2 91  1  0  0  0
  2 92  1  0  0  0
  3  4  1  0  0  0
  3 93  1  0  0  0
  3 94  1  0  0  0
  4  5  1  0  0  0
  4 95  1  0  0  0
  4 96  1  0  0  0
  5  6  1  0  0  0
  5 26  1  0  0  0
  5 97  1  0  0  0
  6 25  1  0  0  0
  6 98  1  0  0  0
  6 99  1  0  0  0
  7  8  2  0  0  0
  7 26  1  0  0  0
  7 29  1  0  0  0
  8  9  1  0  0  0
  8 22  1  0  0  0
  9 10  1  0  0  0
  9 27  2  0  0  0
 10 11  2  0  0  0
 10 15  1  0  0  0
 11 12  1  0  0  0
 11100  1  0  0  0
 12 13  2  0  0  0
 12101  1  0  0  0
 13 14  1  0  0  0
 13 31  1  0  0  0
 14 15  2  0  0  0
 14102  1  0  0  0
 15103  1  0  0  0
 16 17  2  0  0  0
 16 21  1  0  0  0
 16 31  1  0  0  0
 17 18  1  0  0  0
 17104  1  0  0  0
 18 19  2  0  0  0
 18105  1  0  0  0
 19 20  1  0  0  0
 19 24  1  0  0  0
 20 21  2  0  0  0
 20106  1  0  0  0
 21 23  1  0  0  0
 22 28  1  0  0  0
 22 32  2  0  0  0
 26 27  1  0  0  0
 28107  1  0  0  0
 28108  1  0  0  0
 29109  1  0  0  0
 29110  1  0  0  0
 33 34  1  0  0  0
 33 66  1  0  0  0
 33 70  2  0  0  0
 34 36  1  0  0  0
 34 59  1  0  0  0
 34111  1  0  0  0
 35 44  2  0  0  0
 35 45  1  0  0  0
 35 68  1  0  0  0
 36 56  1  0  0  0
 36112  1  0  0  0
 37 39  1  0  0  0
 37 47  1  0  0  0
 37 66  1  0  0  0
 37113  1  0  0  0
 38 43  2  0  0  0
 38 46  1  0  0  0
 38 47  1  0  0  0
 39 64  1  0  0  0
 39 67  2  0  0  0
 40 52  1  0  0  0
 40 53  2  0  0  0
 40 58  1  0  0  0
 41114  1  0  0  0
 41115  1  0  0  0
 41116  1  0  0  0
 41 48  1  0  0  0
 42 43  1  0  0  0
 42 66  1  0  0  0
 42117  1  0  0  0
 42118  1  0  0  0
 43 44  1  0  0  0
 44119  1  0  0  0
 45 46  2  0  0  0
 45120  1  0  0  0
 46121  1  0  0  0
 47122  1  0  0  0
 47123  1  0  0  0
 48 56  1  0  0  0
 48 65  1  0  0  0
 48124  1  0  0  0
 49 50  1  0  0  0
 49 53  1  0  0  0
 49 64  1  0  0  0
 49125  1  0  0  0
 50 51  1  0  0  0
 50126  1  0  0  0
 50127  1  0  0  0
 51 52  1  0  0  0
 51128  1  0  0  0
 51129  1  0  0  0
 52130  1  0  0  0
 52131  1  0  0  0
 53 54  1  0  0  0
 54 55  2  0  0  0
 54132  1  0  0  0
 55 57  1  0  0  0
 55133  1  0  0  0
 56 69  2  0  0  0
 57 58  2  0  0  0
 57134  1  0  0  0
 58135  1  0  0  0
 59 60  1  0  0  0
 59 61  1  0  0  0
 59 62  1  0  0  0
 60136  1  0  0  0
 60137  1  0  0  0
 60138  1  0  0  0
 61139  1  0  0  0
 61140  1  0  0  0
 61141  1  0  0  0
 62142  1  0  0  0
 62143  1  0  0  0
 62144  1  0  0  0
 63 65  1  0  0  0
 63145  1  0  0  0
 63146  1  0  0  0
 63147  1  0  0  0
 64148  1  0  0  0
 65149  1  0  0  0
 68 84  1  0  0  0
 71 72  2  0  0  0
 71 74  1  0  0  0
 71150  1  0  0  0
 72 76  1  0  0  0
 72151  1  0  0  0
 73 75  1  0  0  0
 73 76  2  0  0  0
 73152  1  0  0  0
 74 75  2  0  0  0
 74 85  1  0  0  0
 75 86  1  0  0  0
 76 87  1  0  0  0
 77 79  2  0  0  0
 77 81  1  0  0  0
 77 88  1  0  0  0
 78 80  2  0  0  0
 78153  1  0  0  0
 78154  1  0  0  0
 79 80  1  0  0  0
 79155  1  0  0  0
 80156  1  0  0  0
 81 84  1  0  0  0
 81157  1  0  0  0
 81158  1  0  0  0
 82 83  1  0  0  0
 82 84  1  0  0  0
 82159  1  0  0  0
 82160  1  0  0  0
 83 88  1  0  0  0
 83161  1  0  0  0
 83162  1  0  0  0
 84163  1  0  0  0
 85164  1  0  0  0
 85165  1  0  0  0
 85 88  1  0  0  0
 86 89  1  0  0  0
 86 90  1  0  0  0
 86166  1  0  0  0
 87167  1  0  0  0
 88168  1  0  0  0
M  CHG  1  88   1
M  ISO  4   1 100  68 101  84 101  87 100
M  END
> <chiral flag>
0

> <version>
0

> <s_m_source_file>
/data/baiqing/PycharmProjects/Reinvent-master-3.2/result/LINK_invent/BTK/process_docking_weight1_custom_product_contain_oxygen_bond_distance_aromatic_linkinvent_7_9_3/rearranged_h_0050.sdf

> <i_m_source_file_index>
19

> <r_mmod_Potential_Energy-OPLS-2005>
-14.0605239868164

> <r_mmod_Stretch_Energy-OPLS-2005>
62.316478729248

> <r_mmod_Bend_Energy-OPLS-2005>
190.717636108398

> <r_mmod_Torsional_Energy-OPLS-2005>
253.05012512207

> <r_mmod_Improper_Torsional_Energy-OPLS-2005>
8.3520975112915

> <r_mmod_Van_der_Waal_Energy-OPLS-2005>
145.91227722168

> <r_mmod_Electrostatic_Energy-OPLS-2005>
-240.448928833008

> <r_mmod_Solvation_Energy-OPLS-2005>
-459.221038818359

> <b_mmod_Minimization_Converged-OPLS-2005>
0

> <r_mmod_RMS_Derivative-OPLS-2005>
4.20849132537842

$$$$
19
                    3D
 Structure written by MMmdl.
154162  0  0  1  0            999 V2000
  -30.6931  -14.4764   20.5533 C   0  0  0  0  0  0
  -30.4176  -12.3051   19.4222 C   0  0  0  0  0  0
  -29.4924  -12.5132   18.2052 C   0  0  0  0  0  0
  -28.0153  -12.3645   18.6173 C   0  0  0  0  0  0
  -27.6601  -13.2053   19.8730 C   0  0  2  0  0  0
  -28.7011  -12.9897   20.9958 C   0  0  0  0  0  0
  -25.2588  -13.8168   20.5665 C   0  0  0  0  0  0
  -24.1839  -13.0443   20.9165 C   0  0  0  0  0  0
  -24.6398  -11.6909   20.8730 C   0  0  0  0  0  0
  -23.9068  -10.4296   21.0404 C   0  0  0  0  0  0
  -24.3620   -9.4211   21.9185 C   0  0  0  0  0  0
  -23.6295   -8.2249   22.0763 C   0  0  0  0  0  0
  -22.4277   -8.0294   21.3556 C   0  0  0  0  0  0
  -21.9916   -9.0263   20.4646 C   0  0  0  0  0  0
  -22.7245  -10.2139   20.3054 C   0  0  0  0  0  0
  -21.6848   -6.0752   22.5286 C   0  0  0  0  0  0
  -21.4003   -6.5653   23.8222 C   0  0  0  0  0  0
  -21.3653   -5.6806   24.9185 C   0  0  0  0  0  0
  -21.6042   -4.3073   24.7228 C   0  0  0  0  0  0
  -21.8817   -3.8165   23.4347 C   0  0  0  0  0  0
  -21.9183   -4.6982   22.3404 C   0  0  0  0  0  0
  -22.7865  -13.5234   21.1827 C   0  0  0  0  0  0
  -22.1657   -4.2168   21.0983 F   0  0  0  0  0  0
  -21.5632   -3.4556   25.7742 F   0  0  0  0  0  0
  -30.0329  -13.2914   20.4453 N   0  0  0  0  0  0
  -26.3018  -12.9328   20.3350 N   0  0  0  0  0  0
  -25.9318  -11.6491   20.5746 N   0  0  0  0  0  0
  -22.0502  -12.8234   22.0385 N   0  0  0  0  0  0
  -25.4325  -15.1884   20.4075 N   0  0  0  0  0  0
  -31.8323  -14.6273   20.1035 O   0  0  0  0  0  0
  -21.6639   -6.8897   21.4252 O   0  0  0  0  0  0
  -22.3548  -14.5538   20.6674 O   0  0  0  0  0  0
  -24.6167  -31.8669   23.2101 C   0  0  0  0  0  0
  -25.9075  -32.4803   23.8386 C   0  0  1  0  0  0
  -27.2362  -27.4299   20.0833 C   0  0  0  0  0  0
  -25.5959  -33.8598   24.2333 N   0  0  0  0  0  0
  -23.4025  -30.4914   21.5517 C   0  0  2  0  0  0
  -24.8465  -28.9533   20.1168 C   0  0  0  0  0  0
  -22.7391  -29.4677   22.5003 C   0  0  0  0  0  0
  -18.0269  -28.1392   22.8507 C   0  0  0  0  0  0
  -24.1485  -36.7272   23.2645 C   0  0  0  0  0  0
  -25.9311  -30.8275   21.3647 C   0  0  0  0  0  0
  -26.0060  -29.4612   20.7135 C   0  0  0  0  0  0
  -27.1989  -28.7025   20.7007 C   0  0  0  0  0  0
  -26.0505  -26.9307   19.4961 C   0  0  0  0  0  0
  -24.8622  -27.6852   19.5118 C   0  0  0  0  0  0
  -23.6086  -29.8198   20.1682 C   0  0  0  0  0  0
  -25.4111  -36.3079   24.0338 C   0  0  1  0  0  0
  -20.5847  -28.3692   23.1321 C   0  0  2  0  0  0
  -20.6764  -26.9433   22.5417 C   0  0  0  0  0  0
  -19.5736  -26.6401   21.5222 C   0  0  0  0  0  0
  -18.1907  -26.7945   22.1617 C   0  0  0  0  0  0
  -19.1512  -28.8862   23.2908 C   0  0  0  0  0  0
  -18.9441  -30.1471   23.8915 C   0  0  0  0  0  0
  -17.6443  -30.6607   24.0573 C   0  0  0  0  0  0
  -25.9048  -34.9455   23.5120 C   0  0  0  0  0  0
  -16.5336  -29.9097   23.6353 C   0  0  0  0  0  0
  -16.7256  -28.6509   23.0378 C   0  0  0  0  0  0
  -26.4537  -31.6593   25.0713 C   0  0  0  0  0  0
  -25.3809  -31.3633   26.1452 C   0  0  0  0  0  0
  -27.0484  -30.3073   24.6094 C   0  0  0  0  0  0
  -27.6064  -32.4377   25.7509 C   0  0  0  0  0  0
  -27.5571  -37.1788   24.8482 C   0  0  0  0  0  0
  -21.4123  -29.3043   22.3719 N   0  0  0  0  0  0
  -26.4294  -37.3769   23.9416 N   0  0  0  0  0  0
  -24.6686  -31.0756   22.1013 N   0  0  0  0  0  0
  -23.4149  -28.8225   23.3066 O   0  0  0  0  0  0
  -28.4273  -26.7270   20.1003 O   0  0  0  0  0  0
  -26.5555  -34.8904   22.4647 O   0  0  0  0  0  0
  -23.5367  -32.1441   23.7500 O   0  0  0  0  0  0
  -31.3187  -18.9152   20.0937 C   0  0  0  0  0  0
  -29.0769  -19.1555   20.9611 C   0  0  0  0  0  0
  -31.2676  -17.5249   20.3217 C   0  0  0  0  0  0
  -29.0207  -17.7574   21.1867 C   0  0  0  0  0  0
  -30.2254  -19.7656   20.3974 C   0  0  0  0  0  0
  -30.1079  -16.9134   20.8558 C   0  0  0  0  0  0
  -30.3011  -21.2358   20.1061 C   0  0  0  0  0  0
  -28.3615  -24.2408   19.9416 C   0  0  0  0  0  0
  -31.6441  -21.7922   19.6530 C   0  0  0  0  0  0
  -28.6230  -25.5942   19.2343 C   0  0  0  0  0  0
  -29.2488  -21.9897   20.2213 N   0  0  0  0  0  0
  -29.9675  -15.4973   21.0646 N   0  0  0  0  0  0
  -29.3171  -23.2990   19.8114 N   0  0  0  0  0  0
  -27.3233  -24.0507   20.5819 O   0  0  0  0  0  0
  -31.4623  -12.3947   19.1204 H   0  0  0  0  0  0
  -30.3108  -11.2931   19.8159 H   0  0  0  0  0  0
  -29.7371  -11.8018   17.4157 H   0  0  0  0  0  0
  -29.6553  -13.5060   17.7820 H   0  0  0  0  0  0
  -27.8308  -11.3075   18.8133 H   0  0  0  0  0  0
  -27.3627  -12.6357   17.7869 H   0  0  0  0  0  0
  -27.7035  -14.2520   19.5716 H   0  0  0  0  0  0
  -28.6765  -11.9547   21.3414 H   0  0  0  0  0  0
  -28.4634  -13.5933   21.8725 H   0  0  0  0  0  0
  -25.2770   -9.5688   22.4751 H   0  0  0  0  0  0
  -24.0006   -7.4649   22.7491 H   0  0  0  0  0  0
  -21.0854   -8.8782   19.8945 H   0  0  0  0  0  0
  -22.3717  -10.9679   19.6159 H   0  0  0  0  0  0
  -21.1995   -7.6164   23.9730 H   0  0  0  0  0  0
  -21.1478   -6.0540   25.9087 H   0  0  0  0  0  0
  -22.0597   -2.7628   23.2849 H   0  0  0  0  0  0
  -22.4123  -11.9897   22.4775 H   0  0  0  0  0  0
  -21.1109  -13.1245   22.2566 H   0  0  0  0  0  0
  -24.6641  -15.8436   20.5055 H   0  0  0  0  0  0
  -26.2851  -15.6252   20.0797 H   0  0  0  0  0  0
  -26.7129  -32.5536   23.1135 H   0  0  0  0  0  0
  -25.0259  -33.9769   25.0583 H   0  0  0  0  0  0
  -22.6920  -31.3087   21.4107 H   0  0  0  0  0  0
  -23.3759  -35.9599   23.3315 H   0  0  0  0  0  0
  -24.3560  -36.8885   22.2057 H   0  0  0  0  0  0
  -23.7231  -37.6467   23.6669 H   0  0  0  0  0  0
  -26.0393  -31.5908   20.5928 H   0  0  0  0  0  0
  -26.8205  -30.8840   21.9803 H   0  0  0  0  0  0
  -28.0956  -29.0915   21.1633 H   0  0  0  0  0  0
  -26.0169  -25.9545   19.0355 H   0  0  0  0  0  0
  -23.9656  -27.2806   19.0628 H   0  0  0  0  0  0
  -23.7113  -30.5918   19.4048 H   0  0  0  0  0  0
  -22.7336  -29.2343   19.8800 H   0  0  0  0  0  0
  -25.1282  -36.1933   25.0831 H   0  0  0  0  0  0
  -20.9931  -28.3284   24.1444 H   0  0  0  0  0  0
  -20.5712  -26.2300   23.3597 H   0  0  0  0  0  0
  -21.6634  -26.7511   22.1186 H   0  0  0  0  0  0
  -19.6898  -25.6315   21.1249 H   0  0  0  0  0  0
  -19.6673  -27.3216   20.6753 H   0  0  0  0  0  0
  -17.4185  -26.6747   21.3998 H   0  0  0  0  0  0
  -18.0265  -26.0077   22.8994 H   0  0  0  0  0  0
  -19.7918  -30.7294   24.2271 H   0  0  0  0  0  0
  -17.5002  -31.6288   24.5185 H   0  0  0  0  0  0
  -15.5335  -30.3000   23.7693 H   0  0  0  0  0  0
  -15.8645  -28.0840   22.7089 H   0  0  0  0  0  0
  -24.6024  -30.6933   25.7777 H   0  0  0  0  0  0
  -24.8951  -32.2767   26.4896 H   0  0  0  0  0  0
  -25.8187  -30.8820   27.0210 H   0  0  0  0  0  0
  -26.3065  -29.6669   24.1305 H   0  0  0  0  0  0
  -27.4507  -29.7438   25.4527 H   0  0  0  0  0  0
  -27.8750  -30.4456   23.9114 H   0  0  0  0  0  0
  -27.2631  -33.3690   26.2032 H   0  0  0  0  0  0
  -28.3905  -32.6929   25.0367 H   0  0  0  0  0  0
  -28.0705  -31.8557   26.5483 H   0  0  0  0  0  0
  -28.2580  -38.0090   24.7546 H   0  0  0  0  0  0
  -28.1079  -36.2619   24.6321 H   0  0  0  0  0  0
  -27.2272  -37.1445   25.8879 H   0  0  0  0  0  0
  -20.9294  -29.8727   21.6897 H   0  0  0  0  0  0
  -26.0175  -38.2847   24.1420 H   0  0  0  0  0  0
  -32.2288  -19.3052   19.6635 H   0  0  0  0  0  0
  -28.2178  -19.7582   21.2195 H   0  0  0  0  0  0
  -32.1459  -16.9573   20.0582 H   0  0  0  0  0  0
  -28.1157  -17.3394   21.6063 H   0  0  0  0  0  0
  -32.4209  -21.5309   20.3719 H   0  0  0  0  0  0
  -31.6948  -22.8748   19.5541 H   0  0  0  0  0  0
  -31.9235  -21.3727   18.6867 H   0  0  0  0  0  0
  -28.0560  -25.6623   18.3054 H   0  0  0  0  0  0
  -29.6679  -25.6274   18.9246 H   0  0  0  0  0  0
  -29.0861  -15.2046   21.4582 H   0  0  0  0  0  0
  -30.1643  -23.5454   19.3161 H   0  0  0  0  0  0
  1 25  1  0  0  0
  1 30  2  0  0  0
  1 82  1  0  0  0
  2  3  1  0  0  0
  2 25  1  0  0  0
  2 85  1  0  0  0
  2 86  1  0  0  0
  3  4  1  0  0  0
  3 87  1  0  0  0
  3 88  1  0  0  0
  4  5  1  0  0  0
  4 89  1  0  0  0
  4 90  1  0  0  0
  5  6  1  0  0  0
  5 26  1  0  0  0
  5 91  1  0  0  0
  6 25  1  0  0  0
  6 92  1  0  0  0
  6 93  1  0  0  0
  7  8  2  0  0  0
  7 26  1  0  0  0
  7 29  1  0  0  0
  8  9  1  0  0  0
  8 22  1  0  0  0
  9 10  1  0  0  0
  9 27  2  0  0  0
 10 11  2  0  0  0
 10 15  1  0  0  0
 11 12  1  0  0  0
 11 94  1  0  0  0
 12 13  2  0  0  0
 12 95  1  0  0  0
 13 14  1  0  0  0
 13 31  1  0  0  0
 14 15  2  0  0  0
 14 96  1  0  0  0
 15 97  1  0  0  0
 16 17  2  0  0  0
 16 21  1  0  0  0
 16 31  1  0  0  0
 17 18  1  0  0  0
 17 98  1  0  0  0
 18 19  2  0  0  0
 18 99  1  0  0  0
 19 20  1  0  0  0
 19 24  1  0  0  0
 20 21  2  0  0  0
 20100  1  0  0  0
 21 23  1  0  0  0
 22 28  1  0  0  0
 22 32  2  0  0  0
 26 27  1  0  0  0
 28101  1  0  0  0
 28102  1  0  0  0
 29103  1  0  0  0
 29104  1  0  0  0
 33 34  1  0  0  0
 33 66  1  0  0  0
 33 70  2  0  0  0
 34 36  1  0  0  0
 34 59  1  0  0  0
 34105  1  0  0  0
 35 44  2  0  0  0
 35 45  1  0  0  0
 35 68  1  0  0  0
 36 56  1  0  0  0
 36106  1  0  0  0
 37 39  1  0  0  0
 37 47  1  0  0  0
 37 66  1  0  0  0
 37107  1  0  0  0
 38 43  2  0  0  0
 38 46  1  0  0  0
 38 47  1  0  0  0
 39 64  1  0  0  0
 39 67  2  0  0  0
 40 52  1  0  0  0
 40 53  2  0  0  0
 40 58  1  0  0  0
 41108  1  0  0  0
 41109  1  0  0  0
 41110  1  0  0  0
 41 48  1  0  0  0
 42 43  1  0  0  0
 42 66  1  0  0  0
 42111  1  0  0  0
 42112  1  0  0  0
 43 44  1  0  0  0
 44113  1  0  0  0
 45 46  2  0  0  0
 45114  1  0  0  0
 46115  1  0  0  0
 47116  1  0  0  0
 47117  1  0  0  0
 48 56  1  0  0  0
 48 65  1  0  0  0
 48118  1  0  0  0
 49 50  1  0  0  0
 49 53  1  0  0  0
 49 64  1  0  0  0
 49119  1  0  0  0
 50 51  1  0  0  0
 50120  1  0  0  0
 50121  1  0  0  0
 51 52  1  0  0  0
 51122  1  0  0  0
 51123  1  0  0  0
 52124  1  0  0  0
 52125  1  0  0  0
 53 54  1  0  0  0
 54 55  2  0  0  0
 54126  1  0  0  0
 55 57  1  0  0  0
 55127  1  0  0  0
 56 69  2  0  0  0
 57 58  2  0  0  0
 57128  1  0  0  0
 58129  1  0  0  0
 59 60  1  0  0  0
 59 61  1  0  0  0
 59 62  1  0  0  0
 60130  1  0  0  0
 60131  1  0  0  0
 60132  1  0  0  0
 61133  1  0  0  0
 61134  1  0  0  0
 61135  1  0  0  0
 62136  1  0  0  0
 62137  1  0  0  0
 62138  1  0  0  0
 63 65  1  0  0  0
 63139  1  0  0  0
 63140  1  0  0  0
 63141  1  0  0  0
 64142  1  0  0  0
 65143  1  0  0  0
 68 80  1  0  0  0
 71 73  2  0  0  0
 71 75  1  0  0  0
 71144  1  0  0  0
 72 74  1  0  0  0
 72 75  2  0  0  0
 72145  1  0  0  0
 73 76  1  0  0  0
 73146  1  0  0  0
 74 76  2  0  0  0
 74147  1  0  0  0
 75 77  1  0  0  0
 76 82  1  0  0  0
 77 79  1  0  0  0
 77 81  2  0  0  0
 78 80  1  0  0  0
 78 83  1  0  0  0
 78 84  2  0  0  0
 79148  1  0  0  0
 79149  1  0  0  0
 79150  1  0  0  0
 80151  1  0  0  0
 80152  1  0  0  0
 81 83  1  0  0  0
 82153  1  0  0  0
 83154  1  0  0  0
M  ISO  4   1 100  68 101  80 101  82 100
M  END
> <chiral flag>
0

> <version>
0

> <s_m_source_file>
/data/baiqing/PycharmProjects/Reinvent-master-3.2/result/LINK_invent/BTK/process_docking_weight1_custom_product_contain_oxygen_bond_distance_aromatic_linkinvent_7_9_3/rearranged_h_0050.sdf

> <i_m_source_file_index>
20

> <r_mmod_Potential_Energy-OPLS-2005>
-49.2117347717285

> <r_mmod_Stretch_Energy-OPLS-2005>
43.5878448486328

> <r_mmod_Bend_Energy-OPLS-2005>
112.309295654297

> <r_mmod_Torsional_Energy-OPLS-2005>
200.788299560547

> <r_mmod_Improper_Torsional_Energy-OPLS-2005>
3.83171081542969

> <r_mmod_Van_der_Waal_Energy-OPLS-2005>
173.088668823242

> <r_mmod_Electrostatic_Energy-OPLS-2005>
-348.273559570312

> <r_mmod_Solvation_Energy-OPLS-2005>
-248.045944213867

> <b_mmod_Minimization_Converged-OPLS-2005>
0

> <r_mmod_RMS_Derivative-OPLS-2005>
1.50360655784607

$$$$
20
                    3D
 Structure written by MMmdl.
161170  0  0  1  0            999 V2000
  -30.7151  -14.4922   20.5329 C   0  0  0  0  0  0
  -30.4092  -12.3268   19.4017 C   0  0  0  0  0  0
  -29.4785  -12.5203   18.1871 C   0  0  0  0  0  0
  -28.0012  -12.3883   18.6018 C   0  0  0  0  0  0
  -27.6549  -13.2117   19.8727 C   0  0  2  0  0  0
  -28.7087  -12.9917   20.9831 C   0  0  0  0  0  0
  -25.2561  -13.8176   20.5696 C   0  0  0  0  0  0
  -24.1833  -13.0440   20.9209 C   0  0  0  0  0  0
  -24.6392  -11.6915   20.8762 C   0  0  0  0  0  0
  -23.9064  -10.4301   21.0420 C   0  0  0  0  0  0
  -24.3618   -9.4201   21.9193 C   0  0  0  0  0  0
  -23.6292   -8.2229   22.0740 C   0  0  0  0  0  0
  -22.4276   -8.0276   21.3530 C   0  0  0  0  0  0
  -21.9917   -9.0252   20.4629 C   0  0  0  0  0  0
  -22.7242  -10.2135   20.3051 C   0  0  0  0  0  0
  -21.6861   -6.0731   22.5280 C   0  0  0  0  0  0
  -21.4024   -6.5635   23.8215 C   0  0  0  0  0  0
  -21.3657   -5.6788   24.9179 C   0  0  0  0  0  0
  -21.6040   -4.3051   24.7237 C   0  0  0  0  0  0
  -21.8809   -3.8136   23.4360 C   0  0  0  0  0  0
  -21.9191   -4.6953   22.3412 C   0  0  0  0  0  0
  -22.7847  -13.5233   21.1866 C   0  0  0  0  0  0
  -22.1661   -4.2133   21.0992 F   0  0  0  0  0  0
  -21.5616   -3.4536   25.7749 F   0  0  0  0  0  0
  -30.0181  -13.3260   20.4105 N   0  0  0  0  0  0
  -26.3003  -12.9359   20.3392 N   0  0  0  0  0  0
  -25.9330  -11.6517   20.5804 N   0  0  0  0  0  0
  -22.0494  -12.8232   22.0409 N   0  0  0  0  0  0
  -25.4243  -15.1904   20.4043 N   0  0  0  0  0  0
  -31.8840  -14.5943   20.1576 O   0  0  0  0  0  0
  -21.6628   -6.8883   21.4241 O   0  0  0  0  0  0
  -22.3526  -14.5534   20.6701 O   0  0  0  0  0  0
  -24.6194  -31.8669   23.2073 C   0  0  0  0  0  0
  -25.9080  -32.4795   23.8393 C   0  0  1  0  0  0
  -27.2305  -27.3884   20.1039 C   0  0  0  0  0  0
  -25.5903  -33.8597   24.2328 N   0  0  0  0  0  0
  -23.4047  -30.4953   21.5460 C   0  0  2  0  0  0
  -24.8508  -28.9478   20.1193 C   0  0  0  0  0  0
  -22.7399  -29.4742   22.4982 C   0  0  0  0  0  0
  -18.0345  -28.1388   22.8539 C   0  0  0  0  0  0
  -24.1483  -36.7314   23.2646 C   0  0  0  0  0  0
  -25.9397  -30.8205   21.3641 C   0  0  0  0  0  0
  -26.0159  -29.4515   20.7085 C   0  0  0  0  0  0
  -27.2087  -28.6833   20.6889 C   0  0  0  0  0  0
  -26.0352  -26.9075   19.5220 C   0  0  0  0  0  0
  -24.8573  -27.6754   19.5257 C   0  0  0  0  0  0
  -23.6134  -29.8204   20.1646 C   0  0  0  0  0  0
  -25.4092  -36.3093   24.0347 C   0  0  1  0  0  0
  -20.5929  -28.3725   23.1383 C   0  0  2  0  0  0
  -20.6778  -26.9357   22.5734 C   0  0  0  0  0  0
  -19.5929  -26.6454   21.5326 C   0  0  0  0  0  0
  -18.2049  -26.7928   22.1676 C   0  0  0  0  0  0
  -19.1598  -28.8863   23.2940 C   0  0  0  0  0  0
  -18.9561  -30.1497   23.8865 C   0  0  0  0  0  0
  -17.6607  -30.6661   24.0542 C   0  0  0  0  0  0
  -25.9030  -34.9466   23.5141 C   0  0  0  0  0  0
  -16.5469  -29.9178   23.6326 C   0  0  0  0  0  0
  -16.7343  -28.6543   23.0399 C   0  0  0  0  0  0
  -26.4475  -31.6588   25.0738 C   0  0  0  0  0  0
  -25.3759  -31.3698   26.1502 C   0  0  0  0  0  0
  -27.0288  -30.3012   24.6157 C   0  0  0  0  0  0
  -27.6041  -32.4306   25.7512 C   0  0  0  0  0  0
  -27.5573  -37.1801   24.8477 C   0  0  0  0  0  0
  -21.4163  -29.3013   22.3631 N   0  0  0  0  0  0
  -26.4278  -37.3774   23.9415 N   0  0  0  0  0  0
  -24.6719  -31.0769   22.0950 N   0  0  0  0  0  0
  -23.4141  -28.8372   23.3116 O   0  0  0  0  0  0
  -28.3990  -26.6341   20.1220 O   0  0  0  0  0  0
  -26.5619  -34.8903   22.4714 O   0  0  0  0  0  0
  -23.5377  -32.1443   23.7432 O   0  0  0  0  0  0
  -29.1100  -18.5197   20.5556 C   0  0  0  0  0  0
  -28.0158  -18.1132   22.6919 C   0  0  0  0  0  0
  -28.0078  -20.3562   21.7212 C   0  0  0  0  0  0
  -28.7362  -17.6106   21.5891 C   0  0  0  0  0  0
  -28.7743  -19.9062   20.6246 C   0  0  0  0  0  0
  -27.6463  -19.4695   22.7504 C   0  0  0  0  0  0
  -28.2344  -23.0223   18.7792 C   0  0  0  0  0  0
  -28.3428  -24.5561   18.7305 C   0  0  0  0  0  0
  -29.5190  -24.5904   20.9002 C   0  0  0  0  0  0
  -29.7413  -23.0518   20.7547 C   0  0  0  0  0  0
  -28.3126  -25.1798   20.1371 C   0  0  1  0  0  0
  -29.0267  -16.0989   21.5738 C   0  0  0  0  0  0
  -29.2627  -20.8826   19.5308 C   0  0  1  0  0  0
  -28.9921  -22.3478   19.6816 N   0  0  0  0  0  0
  -30.0319  -15.6505   20.6142 N   0  0  0  0  0  0
  -27.5185  -22.4592   17.9469 O   0  0  0  0  0  0
  -26.9390  -19.9277   23.8093 F   0  0  0  0  0  0
  -30.5809  -20.7189   19.3991 F   0  0  0  0  0  0
  -31.4495  -12.4227   19.0867 H   0  0  0  0  0  0
  -30.3122  -11.3169   19.8050 H   0  0  0  0  0  0
  -29.7149  -11.7984   17.4028 H   0  0  0  0  0  0
  -29.6452  -13.5066   17.7478 H   0  0  0  0  0  0
  -27.7964  -11.3333   18.7754 H   0  0  0  0  0  0
  -27.3537  -12.6948   17.7775 H   0  0  0  0  0  0
  -27.6934  -14.2582   19.5687 H   0  0  0  0  0  0
  -28.7040  -11.9474   21.3020 H   0  0  0  0  0  0
  -28.4943  -13.5561   21.8888 H   0  0  0  0  0  0
  -25.2766   -9.5679   22.4781 H   0  0  0  0  0  0
  -23.9990   -7.4620   22.7472 H   0  0  0  0  0  0
  -21.0843   -8.8796   19.8943 H   0  0  0  0  0  0
  -22.3715  -10.9683   19.6159 H   0  0  0  0  0  0
  -21.2022   -7.6147   23.9731 H   0  0  0  0  0  0
  -21.1495   -6.0515   25.9089 H   0  0  0  0  0  0
  -22.0594   -2.7599   23.2872 H   0  0  0  0  0  0
  -22.4107  -11.9878   22.4790 H   0  0  0  0  0  0
  -21.1099  -13.1242   22.2596 H   0  0  0  0  0  0
  -24.6585  -15.8481   20.5023 H   0  0  0  0  0  0
  -26.2719  -15.6218   20.0554 H   0  0  0  0  0  0
  -26.7151  -32.5514   23.1163 H   0  0  0  0  0  0
  -24.9962  -33.9762   25.0420 H   0  0  0  0  0  0
  -22.6951  -31.3116   21.3981 H   0  0  0  0  0  0
  -23.3715  -35.9679   23.3306 H   0  0  0  0  0  0
  -24.3586  -36.8931   22.2060 H   0  0  0  0  0  0
  -23.7254  -37.6529   23.6658 H   0  0  0  0  0  0
  -26.0632  -31.5857   20.5964 H   0  0  0  0  0  0
  -26.8206  -30.8678   21.9895 H   0  0  0  0  0  0
  -28.1076  -29.0736   21.1482 H   0  0  0  0  0  0
  -25.9767  -25.9311   19.0729 H   0  0  0  0  0  0
  -23.9571  -27.2712   19.0843 H   0  0  0  0  0  0
  -23.7251  -30.5857   19.3937 H   0  0  0  0  0  0
  -22.7346  -29.2383   19.8784 H   0  0  0  0  0  0
  -25.1260  -36.1935   25.0831 H   0  0  0  0  0  0
  -21.0028  -28.3490   24.1510 H   0  0  0  0  0  0
  -21.6755  -26.7109   22.1957 H   0  0  0  0  0  0
  -20.5223  -26.2442   23.4050 H   0  0  0  0  0  0
  -19.7030  -27.3391   20.6963 H   0  0  0  0  0  0
  -19.7136  -25.6428   21.1249 H   0  0  0  0  0  0
  -17.4340  -26.6613   21.4071 H   0  0  0  0  0  0
  -18.0520  -26.0073   22.9095 H   0  0  0  0  0  0
  -19.8071  -30.7265   24.2194 H   0  0  0  0  0  0
  -17.5249  -31.6329   24.5177 H   0  0  0  0  0  0
  -15.5513  -30.3138   23.7685 H   0  0  0  0  0  0
  -15.8724  -28.0884   22.7157 H   0  0  0  0  0  0
  -24.5960  -30.6983   25.7888 H   0  0  0  0  0  0
  -24.8926  -32.2844   26.4943 H   0  0  0  0  0  0
  -25.8166  -30.8922   27.0265 H   0  0  0  0  0  0
  -26.2865  -29.6791   24.1128 H   0  0  0  0  0  0
  -27.3910  -29.7220   25.4659 H   0  0  0  0  0  0
  -27.8771  -30.4259   23.9415 H   0  0  0  0  0  0
  -27.2668  -33.3609   26.2083 H   0  0  0  0  0  0
  -28.3889  -32.6841   25.0381 H   0  0  0  0  0  0
  -28.0664  -31.8431   26.5450 H   0  0  0  0  0  0
  -28.2599  -38.0088   24.7506 H   0  0  0  0  0  0
  -28.1055  -36.2621   24.6305 H   0  0  0  0  0  0
  -27.2322  -37.1481   25.8893 H   0  0  0  0  0  0
  -20.9361  -29.8444   21.6574 H   0  0  0  0  0  0
  -26.0165  -38.2862   24.1352 H   0  0  0  0  0  0
  -29.6637  -18.1575   19.7000 H   0  0  0  0  0  0
  -27.7197  -17.4480   23.4931 H   0  0  0  0  0  0
  -27.7024  -21.3871   21.8070 H   0  0  0  0  0  0
  -27.5718  -24.9610   18.0793 H   0  0  0  0  0  0
  -29.2940  -24.7911   18.2523 H   0  0  0  0  0  0
  -29.4484  -24.8369   21.9599 H   0  0  0  0  0  0
  -30.4260  -25.0829   20.5457 H   0  0  0  0  0  0
  -29.4972  -22.5888   21.7067 H   0  0  0  0  0  0
  -30.8092  -22.8745   20.6186 H   0  0  0  0  0  0
  -27.4047  -24.8713   20.6588 H   0  0  0  0  0  0
  -29.3307  -15.7760   22.5732 H   0  0  0  0  0  0
  -28.0756  -15.6186   21.3599 H   0  0  0  0  0  0
  -28.8613  -20.5064   18.5869 H   0  0  0  0  0  0
  -30.6171  -16.4131   20.3090 H   0  0  0  0  0  0
  1 25  1  0  0  0
  1 30  2  0  0  0
  1 85  1  0  0  0
  2  3  1  0  0  0
  2 25  1  0  0  0
  2 89  1  0  0  0
  2 90  1  0  0  0
  3  4  1  0  0  0
  3 91  1  0  0  0
  3 92  1  0  0  0
  4  5  1  0  0  0
  4 93  1  0  0  0
  4 94  1  0  0  0
  5  6  1  0  0  0
  5 26  1  0  0  0
  5 95  1  0  0  0
  6 25  1  0  0  0
  6 96  1  0  0  0
  6 97  1  0  0  0
  7  8  2  0  0  0
  7 26  1  0  0  0
  7 29  1  0  0  0
  8  9  1  0  0  0
  8 22  1  0  0  0
  9 10  1  0  0  0
  9 27  2  0  0  0
 10 11  2  0  0  0
 10 15  1  0  0  0
 11 12  1  0  0  0
 11 98  1  0  0  0
 12 13  2  0  0  0
 12 99  1  0  0  0
 13 14  1  0  0  0
 13 31  1  0  0  0
 14 15  2  0  0  0
 14100  1  0  0  0
 15101  1  0  0  0
 16 17  2  0  0  0
 16 21  1  0  0  0
 16 31  1  0  0  0
 17 18  1  0  0  0
 17102  1  0  0  0
 18 19  2  0  0  0
 18103  1  0  0  0
 19 20  1  0  0  0
 19 24  1  0  0  0
 20 21  2  0  0  0
 20104  1  0  0  0
 21 23  1  0  0  0
 22 28  1  0  0  0
 22 32  2  0  0  0
 26 27  1  0  0  0
 28105  1  0  0  0
 28106  1  0  0  0
 29107  1  0  0  0
 29108  1  0  0  0
 33 34  1  0  0  0
 33 66  1  0  0  0
 33 70  2  0  0  0
 34 36  1  0  0  0
 34 59  1  0  0  0
 34109  1  0  0  0
 35 44  2  0  0  0
 35 45  1  0  0  0
 35 68  1  0  0  0
 36 56  1  0  0  0
 36110  1  0  0  0
 37 39  1  0  0  0
 37 47  1  0  0  0
 37 66  1  0  0  0
 37111  1  0  0  0
 38 43  2  0  0  0
 38 46  1  0  0  0
 38 47  1  0  0  0
 39 64  1  0  0  0
 39 67  2  0  0  0
 40 52  1  0  0  0
 40 53  2  0  0  0
 40 58  1  0  0  0
 41112  1  0  0  0
 41113  1  0  0  0
 41114  1  0  0  0
 41 48  1  0  0  0
 42 43  1  0  0  0
 42 66  1  0  0  0
 42115  1  0  0  0
 42116  1  0  0  0
 43 44  1  0  0  0
 44117  1  0  0  0
 45 46  2  0  0  0
 45118  1  0  0  0
 46119  1  0  0  0
 47120  1  0  0  0
 47121  1  0  0  0
 48 56  1  0  0  0
 48 65  1  0  0  0
 48122  1  0  0  0
 49 50  1  0  0  0
 49 53  1  0  0  0
 49 64  1  0  0  0
 49123  1  0  0  0
 50 51  1  0  0  0
 50124  1  0  0  0
 50125  1  0  0  0
 51 52  1  0  0  0
 51126  1  0  0  0
 51127  1  0  0  0
 52128  1  0  0  0
 52129  1  0  0  0
 53 54  1  0  0  0
 54 55  2  0  0  0
 54130  1  0  0  0
 55 57  1  0  0  0
 55131  1  0  0  0
 56 69  2  0  0  0
 57 58  2  0  0  0
 57132  1  0  0  0
 58133  1  0  0  0
 59 60  1  0  0  0
 59 61  1  0  0  0
 59 62  1  0  0  0
 60134  1  0  0  0
 60135  1  0  0  0
 60136  1  0  0  0
 61137  1  0  0  0
 61138  1  0  0  0
 61139  1  0  0  0
 62140  1  0  0  0
 62141  1  0  0  0
 62142  1  0  0  0
 63 65  1  0  0  0
 63143  1  0  0  0
 63144  1  0  0  0
 63145  1  0  0  0
 64146  1  0  0  0
 65147  1  0  0  0
 68 81  1  0  0  0
 71 74  2  0  0  0
 71 75  1  0  0  0
 71148  1  0  0  0
 72 74  1  0  0  0
 72 76  2  0  0  0
 72149  1  0  0  0
 73 75  2  0  0  0
 73 76  1  0  0  0
 73150  1  0  0  0
 74 82  1  0  0  0
 75 83  1  0  0  0
 76 87  1  0  0  0
 77 78  1  0  0  0
 77 84  1  0  0  0
 77 86  2  0  0  0
 78 81  1  0  0  0
 78151  1  0  0  0
 78152  1  0  0  0
 79 80  1  0  0  0
 79 81  1  0  0  0
 79153  1  0  0  0
 79154  1  0  0  0
 80 84  1  0  0  0
 80155  1  0  0  0
 80156  1  0  0  0
 81157  1  0  0  0
 82 85  1  0  0  0
 82158  1  0  0  0
 82159  1  0  0  0
 83 84  1  0  0  0
 83 88  1  0  0  0
 83160  1  0  0  0
 85161  1  0  0  0
M  ISO  4   1 100  68 101  81 101  85 100
M  END
> <chiral flag>
0

> <version>
0

> <s_m_source_file>
/data/baiqing/PycharmProjects/Reinvent-master-3.2/result/LINK_invent/BTK/process_docking_weight1_custom_product_contain_oxygen_bond_distance_aromatic_linkinvent_7_9_3/rearranged_h_0050.sdf

> <i_m_source_file_index>
21

> <r_mmod_Potential_Energy-OPLS-2005>
-17.3707485198975

> <r_mmod_Stretch_Energy-OPLS-2005>
50.2566528320312

> <r_mmod_Bend_Energy-OPLS-2005>
135.782928466797

> <r_mmod_Torsional_Energy-OPLS-2005>
271.604217529297

> <r_mmod_Improper_Torsional_Energy-OPLS-2005>
17.52490234375

> <r_mmod_Van_der_Waal_Energy-OPLS-2005>
161.9775390625

> <r_mmod_Electrostatic_Energy-OPLS-2005>
-462.115264892578

> <r_mmod_Solvation_Energy-OPLS-2005>
-213.690246582031

> <b_mmod_Minimization_Converged-OPLS-2005>
0

> <r_mmod_RMS_Derivative-OPLS-2005>
5.34830474853516

$$$$
21
                    3D
 Structure written by MMmdl.
157165  0  0  1  0            999 V2000
  -30.6795  -14.4728   20.5845 C   0  0  0  0  0  0
  -30.4264  -12.3067   19.4297 C   0  0  0  0  0  0
  -29.5031  -12.5214   18.2114 C   0  0  0  0  0  0
  -28.0168  -12.3976   18.6076 C   0  0  0  0  0  0
  -27.6651  -13.2121   19.8810 C   0  0  2  0  0  0
  -28.7011  -12.9644   21.0001 C   0  0  0  0  0  0
  -25.2587  -13.8162   20.5671 C   0  0  0  0  0  0
  -24.1830  -13.0439   20.9154 C   0  0  0  0  0  0
  -24.6393  -11.6902   20.8699 C   0  0  0  0  0  0
  -23.9055  -10.4293   21.0384 C   0  0  0  0  0  0
  -24.3604   -9.4206   21.9163 C   0  0  0  0  0  0
  -23.6291   -8.2236   22.0726 C   0  0  0  0  0  0
  -22.4264   -8.0272   21.3533 C   0  0  0  0  0  0
  -21.9914   -9.0245   20.4633 C   0  0  0  0  0  0
  -22.7230  -10.2123   20.3037 C   0  0  0  0  0  0
  -21.6853   -6.0750   22.5283 C   0  0  0  0  0  0
  -21.4022   -6.5653   23.8222 C   0  0  0  0  0  0
  -21.3651   -5.6797   24.9179 C   0  0  0  0  0  0
  -21.6041   -4.3054   24.7217 C   0  0  0  0  0  0
  -21.8820   -3.8158   23.4332 C   0  0  0  0  0  0
  -21.9192   -4.6982   22.3400 C   0  0  0  0  0  0
  -22.7855  -13.5243   21.1848 C   0  0  0  0  0  0
  -22.1653   -4.2180   21.0971 F   0  0  0  0  0  0
  -21.5623   -3.4530   25.7721 F   0  0  0  0  0  0
  -30.0366  -13.2790   20.4638 N   0  0  0  0  0  0
  -26.3035  -12.9348   20.3359 N   0  0  0  0  0  0
  -25.9328  -11.6499   20.5729 N   0  0  0  0  0  0
  -22.0499  -12.8222   22.0403 N   0  0  0  0  0  0
  -25.4339  -15.1875   20.4116 N   0  0  0  0  0  0
  -31.7826  -14.6949   20.0742 O   0  0  0  0  0  0
  -21.6619   -6.8880   21.4241 O   0  0  0  0  0  0
  -22.3539  -14.5559   20.6720 O   0  0  0  0  0  0
  -24.6131  -31.8674   23.2092 C   0  0  0  0  0  0
  -25.9029  -32.4816   23.8380 C   0  0  1  0  0  0
  -27.2337  -27.4361   20.1004 C   0  0  0  0  0  0
  -25.5893  -33.8615   24.2315 N   0  0  0  0  0  0
  -23.4006  -30.4914   21.5479 C   0  0  2  0  0  0
  -24.8488  -28.9519   20.1174 C   0  0  0  0  0  0
  -22.7390  -29.4663   22.4967 C   0  0  0  0  0  0
  -18.0263  -28.1374   22.8489 C   0  0  0  0  0  0
  -24.1483  -36.7316   23.2637 C   0  0  0  0  0  0
  -25.9289  -30.8328   21.3626 C   0  0  0  0  0  0
  -26.0076  -29.4655   20.7145 C   0  0  0  0  0  0
  -27.2046  -28.7123   20.7070 C   0  0  0  0  0  0
  -26.0626  -26.9350   19.4970 C   0  0  0  0  0  0
  -24.8699  -27.6826   19.5108 C   0  0  0  0  0  0
  -23.6115  -29.8201   20.1636 C   0  0  0  0  0  0
  -25.4101  -36.3109   24.0339 C   0  0  1  0  0  0
  -20.5853  -28.3655   23.1318 C   0  0  2  0  0  0
  -20.6746  -26.9389   22.5420 C   0  0  0  0  0  0
  -19.5729  -26.6379   21.5209 C   0  0  0  0  0  0
  -18.1910  -26.7919   22.1624 C   0  0  0  0  0  0
  -19.1518  -28.8826   23.2904 C   0  0  0  0  0  0
  -18.9452  -30.1435   23.8917 C   0  0  0  0  0  0
  -17.6461  -30.6583   24.0565 C   0  0  0  0  0  0
  -25.9031  -34.9475   23.5129 C   0  0  0  0  0  0
  -16.5348  -29.9097   23.6328 C   0  0  0  0  0  0
  -16.7254  -28.6514   23.0343 C   0  0  0  0  0  0
  -26.4462  -31.6594   25.0706 C   0  0  0  0  0  0
  -25.3741  -31.3727   26.1470 C   0  0  0  0  0  0
  -27.0279  -30.3027   24.6087 C   0  0  0  0  0  0
  -27.6032  -32.4307   25.7481 C   0  0  0  0  0  0
  -27.5581  -37.1802   24.8457 C   0  0  0  0  0  0
  -21.4121  -29.3038   22.3729 N   0  0  0  0  0  0
  -26.4281  -37.3801   23.9421 N   0  0  0  0  0  0
  -24.6653  -31.0790   22.0983 N   0  0  0  0  0  0
  -23.4177  -28.8197   23.2992 O   0  0  0  0  0  0
  -28.3844  -26.6806   20.0844 O   0  0  0  0  0  0
  -26.5601  -34.8935   22.4689 O   0  0  0  0  0  0
  -23.5324  -32.1421   23.7492 O   0  0  0  0  0  0
  -29.9122  -18.7812   19.5196 C   0  0  0  0  0  0
  -29.8385  -17.3865   19.7261 C   0  0  0  0  0  0
  -30.3585  -17.7199   22.0733 C   0  0  0  0  0  0
  -30.2485  -19.6632   20.5721 C   0  0  0  0  0  0
  -30.4672  -19.1207   21.8716 C   0  0  0  0  0  0
  -30.0858  -16.8398   21.0041 C   0  0  0  0  0  0
  -29.3489  -23.3727   20.2349 C   0  0  0  0  0  0
  -30.4627  -21.1510   20.2423 C   0  0  0  0  0  0
  -28.1297  -24.2204   20.6519 C   0  0  0  0  0  0
  -28.4498  -25.6748   21.1106 C   0  0  0  0  0  0
  -30.8667  -20.0059   23.0506 C   0  0  0  0  0  0
  -29.9965  -15.4336   21.2394 N   0  0  0  0  0  0
  -29.3282  -22.0494   20.4975 N   0  0  0  0  0  0
  -30.3111  -23.9084   19.6828 O   0  0  0  0  0  0
  -30.7993  -19.3443   24.2069 F   0  0  0  0  0  0
  -32.1234  -20.4218   22.8907 F   0  0  0  0  0  0
  -30.0679  -21.0668   23.1498 F   0  0  0  0  0  0
  -31.4750  -12.4055   19.1416 H   0  0  0  0  0  0
  -30.3193  -11.2910   19.8134 H   0  0  0  0  0  0
  -29.7427  -11.8054   17.4248 H   0  0  0  0  0  0
  -29.6856  -13.5103   17.7881 H   0  0  0  0  0  0
  -27.7963  -11.3413   18.7654 H   0  0  0  0  0  0
  -27.3844  -12.7232   17.7800 H   0  0  0  0  0  0
  -27.7185  -14.2655   19.6042 H   0  0  0  0  0  0
  -28.6727  -11.9197   21.3115 H   0  0  0  0  0  0
  -28.4559  -13.5343   21.8969 H   0  0  0  0  0  0
  -25.2745   -9.5700   22.4733 H   0  0  0  0  0  0
  -24.0020   -7.4630   22.7437 H   0  0  0  0  0  0
  -21.0841   -8.8758   19.8943 H   0  0  0  0  0  0
  -22.3684  -10.9653   19.6130 H   0  0  0  0  0  0
  -21.2024   -7.6160   23.9745 H   0  0  0  0  0  0
  -21.1468   -6.0508   25.9089 H   0  0  0  0  0  0
  -22.0614   -2.7621   23.2805 H   0  0  0  0  0  0
  -22.4115  -11.9870   22.4761 H   0  0  0  0  0  0
  -21.1120  -13.1256   22.2636 H   0  0  0  0  0  0
  -24.6742  -15.8493   20.5281 H   0  0  0  0  0  0
  -26.2978  -15.6263   20.1185 H   0  0  0  0  0  0
  -26.7091  -32.5542   23.1137 H   0  0  0  0  0  0
  -25.0032  -33.9767   25.0456 H   0  0  0  0  0  0
  -22.6884  -31.3072   21.4062 H   0  0  0  0  0  0
  -23.3748  -35.9645   23.3288 H   0  0  0  0  0  0
  -24.3583  -36.8940   22.2055 H   0  0  0  0  0  0
  -23.7229  -37.6516   23.6655 H   0  0  0  0  0  0
  -26.0382  -31.5967   20.5917 H   0  0  0  0  0  0
  -26.8173  -30.8898   21.9796 H   0  0  0  0  0  0
  -28.0993  -29.1021   21.1729 H   0  0  0  0  0  0
  -26.0729  -25.9666   19.0172 H   0  0  0  0  0  0
  -23.9765  -27.2791   19.0539 H   0  0  0  0  0  0
  -23.7218  -30.5927   19.4013 H   0  0  0  0  0  0
  -22.7355  -29.2399   19.8672 H   0  0  0  0  0  0
  -25.1273  -36.1965   25.0830 H   0  0  0  0  0  0
  -20.9953  -28.3221   24.1437 H   0  0  0  0  0  0
  -20.5627  -26.2266   23.3610 H   0  0  0  0  0  0
  -21.6619  -26.7419   22.1231 H   0  0  0  0  0  0
  -19.6890  -25.6295   21.1228 H   0  0  0  0  0  0
  -19.6673  -27.3197   20.6748 H   0  0  0  0  0  0
  -17.4175  -26.6653   21.4032 H   0  0  0  0  0  0
  -18.0322  -26.0067   22.9030 H   0  0  0  0  0  0
  -19.7935  -30.7228   24.2304 H   0  0  0  0  0  0
  -17.5031  -31.6272   24.5156 H   0  0  0  0  0  0
  -15.5353  -30.3009   23.7653 H   0  0  0  0  0  0
  -15.8650  -28.0852   22.7042 H   0  0  0  0  0  0
  -24.5870  -30.7117   25.7830 H   0  0  0  0  0  0
  -24.8996  -32.2905   26.4952 H   0  0  0  0  0  0
  -25.8104  -30.8869   27.0206 H   0  0  0  0  0  0
  -26.2819  -29.6804   24.1129 H   0  0  0  0  0  0
  -27.4021  -29.7248   25.4549 H   0  0  0  0  0  0
  -27.8670  -30.4325   23.9247 H   0  0  0  0  0  0
  -27.2635  -33.3589   26.2090 H   0  0  0  0  0  0
  -28.3844  -32.6890   25.0321 H   0  0  0  0  0  0
  -28.0694  -31.8409   26.5385 H   0  0  0  0  0  0
  -28.2577  -38.0121   24.7541 H   0  0  0  0  0  0
  -28.1093  -36.2655   24.6220 H   0  0  0  0  0  0
  -27.2311  -37.1389   25.8861 H   0  0  0  0  0  0
  -20.9257  -29.8800   21.7001 H   0  0  0  0  0  0
  -26.0167  -38.2871   24.1452 H   0  0  0  0  0  0
  -29.7396  -19.1735   18.5276 H   0  0  0  0  0  0
  -29.5944  -16.7447   18.8897 H   0  0  0  0  0  0
  -30.5221  -17.3104   23.0589 H   0  0  0  0  0  0
  -30.7175  -21.2309   19.1836 H   0  0  0  0  0  0
  -31.3424  -21.5191   20.7720 H   0  0  0  0  0  0
  -27.6572  -23.7101   21.4921 H   0  0  0  0  0  0
  -27.3928  -24.2171   19.8496 H   0  0  0  0  0  0
  -29.4498  -25.7128   21.5438 H   0  0  0  0  0  0
  -27.7847  -25.9372   21.9364 H   0  0  0  0  0  0
  -29.2010  -15.1192   21.7735 H   0  0  0  0  0  0
  -28.5103  -21.6562   20.9416 H   0  0  0  0  0  0
  1 25  1  0  0  0
  1 30  2  0  0  0
  1 82  1  0  0  0
  2  3  1  0  0  0
  2 25  1  0  0  0
  2 88  1  0  0  0
  2 89  1  0  0  0
  3  4  1  0  0  0
  3 90  1  0  0  0
  3 91  1  0  0  0
  4  5  1  0  0  0
  4 92  1  0  0  0
  4 93  1  0  0  0
  5  6  1  0  0  0
  5 26  1  0  0  0
  5 94  1  0  0  0
  6 25  1  0  0  0
  6 95  1  0  0  0
  6 96  1  0  0  0
  7  8  2  0  0  0
  7 26  1  0  0  0
  7 29  1  0  0  0
  8  9  1  0  0  0
  8 22  1  0  0  0
  9 10  1  0  0  0
  9 27  2  0  0  0
 10 11  2  0  0  0
 10 15  1  0  0  0
 11 12  1  0  0  0
 11 97  1  0  0  0
 12 13  2  0  0  0
 12 98  1  0  0  0
 13 14  1  0  0  0
 13 31  1  0  0  0
 14 15  2  0  0  0
 14 99  1  0  0  0
 15100  1  0  0  0
 16 17  2  0  0  0
 16 21  1  0  0  0
 16 31  1  0  0  0
 17 18  1  0  0  0
 17101  1  0  0  0
 18 19  2  0  0  0
 18102  1  0  0  0
 19 20  1  0  0  0
 19 24  1  0  0  0
 20 21  2  0  0  0
 20103  1  0  0  0
 21 23  1  0  0  0
 22 28  1  0  0  0
 22 32  2  0  0  0
 26 27  1  0  0  0
 28104  1  0  0  0
 28105  1  0  0  0
 29106  1  0  0  0
 29107  1  0  0  0
 33 34  1  0  0  0
 33 66  1  0  0  0
 33 70  2  0  0  0
 34 36  1  0  0  0
 34 59  1  0  0  0
 34108  1  0  0  0
 35 44  2  0  0  0
 35 45  1  0  0  0
 35 68  1  0  0  0
 36 56  1  0  0  0
 36109  1  0  0  0
 37 39  1  0  0  0
 37 47  1  0  0  0
 37 66  1  0  0  0
 37110  1  0  0  0
 38 43  2  0  0  0
 38 46  1  0  0  0
 38 47  1  0  0  0
 39 64  1  0  0  0
 39 67  2  0  0  0
 40 52  1  0  0  0
 40 53  2  0  0  0
 40 58  1  0  0  0
 41111  1  0  0  0
 41112  1  0  0  0
 41113  1  0  0  0
 41 48  1  0  0  0
 42 43  1  0  0  0
 42 66  1  0  0  0
 42114  1  0  0  0
 42115  1  0  0  0
 43 44  1  0  0  0
 44116  1  0  0  0
 45 46  2  0  0  0
 45117  1  0  0  0
 46118  1  0  0  0
 47119  1  0  0  0
 47120  1  0  0  0
 48 56  1  0  0  0
 48 65  1  0  0  0
 48121  1  0  0  0
 49 50  1  0  0  0
 49 53  1  0  0  0
 49 64  1  0  0  0
 49122  1  0  0  0
 50 51  1  0  0  0
 50123  1  0  0  0
 50124  1  0  0  0
 51 52  1  0  0  0
 51125  1  0  0  0
 51126  1  0  0  0
 52127  1  0  0  0
 52128  1  0  0  0
 53 54  1  0  0  0
 54 55  2  0  0  0
 54129  1  0  0  0
 55 57  1  0  0  0
 55130  1  0  0  0
 56 69  2  0  0  0
 57 58  2  0  0  0
 57131  1  0  0  0
 58132  1  0  0  0
 59 60  1  0  0  0
 59 61  1  0  0  0
 59 62  1  0  0  0
 60133  1  0  0  0
 60134  1  0  0  0
 60135  1  0  0  0
 61136  1  0  0  0
 61137  1  0  0  0
 61138  1  0  0  0
 62139  1  0  0  0
 62140  1  0  0  0
 62141  1  0  0  0
 63 65  1  0  0  0
 63142  1  0  0  0
 63143  1  0  0  0
 63144  1  0  0  0
 64145  1  0  0  0
 65146  1  0  0  0
 68 80  1  0  0  0
 71 72  2  0  0  0
 71 74  1  0  0  0
 71147  1  0  0  0
 72 76  1  0  0  0
 72148  1  0  0  0
 73 75  1  0  0  0
 73 76  2  0  0  0
 73149  1  0  0  0
 74 75  2  0  0  0
 74 78  1  0  0  0
 75 81  1  0  0  0
 76 82  1  0  0  0
 77 79  1  0  0  0
 77 83  1  0  0  0
 77 84  2  0  0  0
 78 83  1  0  0  0
 78150  1  0  0  0
 78151  1  0  0  0
 79 80  1  0  0  0
 79152  1  0  0  0
 79153  1  0  0  0
 80154  1  0  0  0
 80155  1  0  0  0
 81 85  1  0  0  0
 81 86  1  0  0  0
 81 87  1  0  0  0
 82156  1  0  0  0
 83157  1  0  0  0
M  ISO  4   1 100  68 101  80 101  82 100
M  END
> <chiral flag>
0

> <version>
0

> <s_m_source_file>
/data/baiqing/PycharmProjects/Reinvent-master-3.2/result/LINK_invent/BTK/process_docking_weight1_custom_product_contain_oxygen_bond_distance_aromatic_linkinvent_7_9_3/rearranged_h_0050.sdf

> <i_m_source_file_index>
22

> <r_mmod_Potential_Energy-OPLS-2005>
-90.6414947509766

> <r_mmod_Stretch_Energy-OPLS-2005>
39.2394332885742

> <r_mmod_Bend_Energy-OPLS-2005>
92.2173385620117

> <r_mmod_Torsional_Energy-OPLS-2005>
259.378784179688

> <r_mmod_Improper_Torsional_Energy-OPLS-2005>
3.41693258285522

> <r_mmod_Van_der_Waal_Energy-OPLS-2005>
150.17512512207

> <r_mmod_Electrostatic_Energy-OPLS-2005>
-409.822967529297

> <r_mmod_Solvation_Energy-OPLS-2005>
-236.857299804688

> <b_mmod_Minimization_Converged-OPLS-2005>
0

> <r_mmod_RMS_Derivative-OPLS-2005>
2.25346446037292

$$$$
22
                    3D
 Structure written by MMmdl.
157165  0  0  1  0            999 V2000
  -30.7004  -14.5066   20.4742 C   0  0  0  0  0  0
  -30.4190  -12.2995   19.4355 C   0  0  0  0  0  0
  -29.4917  -12.4577   18.2120 C   0  0  0  0  0  0
  -28.0131  -12.3375   18.6260 C   0  0  0  0  0  0
  -27.6559  -13.2089   19.8606 C   0  0  2  0  0  0
  -28.7034  -13.0487   20.9859 C   0  0  0  0  0  0
  -25.2590  -13.8181   20.5676 C   0  0  0  0  0  0
  -24.1845  -13.0458   20.9188 C   0  0  0  0  0  0
  -24.6390  -11.6922   20.8739 C   0  0  0  0  0  0
  -23.9045  -10.4307   21.0403 C   0  0  0  0  0  0
  -24.3607   -9.4228   21.9177 C   0  0  0  0  0  0
  -23.6293   -8.2256   22.0751 C   0  0  0  0  0  0
  -22.4270   -8.0283   21.3540 C   0  0  0  0  0  0
  -21.9898   -9.0256   20.4642 C   0  0  0  0  0  0
  -22.7221  -10.2142   20.3054 C   0  0  0  0  0  0
  -21.6862   -6.0728   22.5275 C   0  0  0  0  0  0
  -21.4023   -6.5636   23.8207 C   0  0  0  0  0  0
  -21.3665   -5.6787   24.9168 C   0  0  0  0  0  0
  -21.6052   -4.3049   24.7218 C   0  0  0  0  0  0
  -21.8825   -3.8142   23.4341 C   0  0  0  0  0  0
  -21.9204   -4.6957   22.3400 C   0  0  0  0  0  0
  -22.7863  -13.5254   21.1831 C   0  0  0  0  0  0
  -22.1658   -4.2145   21.0976 F   0  0  0  0  0  0
  -21.5635   -3.4535   25.7732 F   0  0  0  0  0  0
  -30.0305  -13.3248   20.4153 N   0  0  0  0  0  0
  -26.3009  -12.9345   20.3335 N   0  0  0  0  0  0
  -25.9322  -11.6506   20.5792 N   0  0  0  0  0  0
  -22.0481  -12.8267   22.0385 N   0  0  0  0  0  0
  -25.4337  -15.1894   20.4067 N   0  0  0  0  0  0
  -31.8987  -14.5992   20.2070 O   0  0  0  0  0  0
  -21.6649   -6.8872   21.4236 O   0  0  0  0  0  0
  -22.3558  -14.5549   20.6661 O   0  0  0  0  0  0
  -24.6151  -31.8684   23.2106 C   0  0  0  0  0  0
  -25.9035  -32.4827   23.8400 C   0  0  1  0  0  0
  -27.2140  -27.4076   20.1130 C   0  0  0  0  0  0
  -25.5891  -33.8626   24.2320 N   0  0  0  0  0  0
  -23.4035  -30.4931   21.5536 C   0  0  2  0  0  0
  -24.8472  -28.9674   20.1086 C   0  0  0  0  0  0
  -22.7412  -29.4650   22.4999 C   0  0  0  0  0  0
  -18.0271  -28.1366   22.8499 C   0  0  0  0  0  0
  -24.1492  -36.7313   23.2640 C   0  0  0  0  0  0
  -25.9353  -30.8294   21.3672 C   0  0  0  0  0  0
  -26.0122  -29.4662   20.7069 C   0  0  0  0  0  0
  -27.2020  -28.6969   20.6999 C   0  0  0  0  0  0
  -26.0330  -26.9433   19.4867 C   0  0  0  0  0  0
  -24.8555  -27.7088   19.4906 C   0  0  0  0  0  0
  -23.6091  -29.8321   20.1656 C   0  0  0  0  0  0
  -25.4117  -36.3114   24.0331 C   0  0  1  0  0  0
  -20.5861  -28.3651   23.1318 C   0  0  2  0  0  0
  -20.6765  -26.9390   22.5409 C   0  0  0  0  0  0
  -19.5742  -26.6375   21.5210 C   0  0  0  0  0  0
  -18.1922  -26.7916   22.1621 C   0  0  0  0  0  0
  -19.1519  -28.8827   23.2908 C   0  0  0  0  0  0
  -18.9447  -30.1436   23.8909 C   0  0  0  0  0  0
  -17.6450  -30.6582   24.0555 C   0  0  0  0  0  0
  -25.9038  -34.9474   23.5123 C   0  0  0  0  0  0
  -16.5343  -29.9073   23.6330 C   0  0  0  0  0  0
  -16.7257  -28.6483   23.0368 C   0  0  0  0  0  0
  -26.4456  -31.6612   25.0731 C   0  0  0  0  0  0
  -25.3716  -31.3718   26.1474 C   0  0  0  0  0  0
  -27.0283  -30.3056   24.6111 C   0  0  0  0  0  0
  -27.6039  -32.4332   25.7485 C   0  0  0  0  0  0
  -27.5583  -37.1819   24.8468 C   0  0  0  0  0  0
  -21.4139  -29.3018   22.3730 N   0  0  0  0  0  0
  -26.4316  -37.3791   23.9392 N   0  0  0  0  0  0
  -24.6699  -31.0763   22.1024 N   0  0  0  0  0  0
  -23.4182  -28.8184   23.3034 O   0  0  0  0  0  0
  -28.3343  -26.5976   20.1990 O   0  0  0  0  0  0
  -26.5602  -34.8923   22.4685 O   0  0  0  0  0  0
  -23.5332  -32.1443   23.7485 O   0  0  0  0  0  0
  -29.6705  -18.0299   20.9245 C   0  0  0  0  0  0
  -30.9572  -18.6205   18.5310 C   0  0  0  0  0  0
  -29.8093  -19.3959   20.5425 C   0  0  0  0  0  0
  -30.7949  -17.2730   18.8987 C   0  0  0  0  0  0
  -30.1710  -16.9517   20.1419 C   0  0  0  0  0  0
  -30.4824  -19.6770   19.3204 C   0  0  0  0  0  0
  -28.7056  -22.9384   21.5007 C   0  0  0  0  0  0
  -31.2707  -16.2516   17.8768 C   0  0  0  0  0  0
  -29.1860  -20.4645   21.4719 C   0  0  0  0  0  0
  -29.1693  -24.3451   21.0455 C   0  0  0  0  0  0
  -28.0346  -25.1937   20.4155 C   0  0  0  0  0  0
  -29.9253  -15.6076   20.6070 N   0  0  0  0  0  0
  -29.4802  -21.8808   21.2009 N   0  0  0  0  0  0
  -27.6541  -22.8071   22.1304 O   0  0  0  0  0  0
  -30.7507  -21.2636   18.6813 Cl  0  0  0  0  0  0
  -31.4629  -12.3867   19.1289 H   0  0  0  0  0  0
  -30.3169  -11.3043   19.8706 H   0  0  0  0  0  0
  -29.7295  -11.7021   17.4614 H   0  0  0  0  0  0
  -29.6585  -13.4192   17.7308 H   0  0  0  0  0  0
  -27.8207  -11.2870   18.8470 H   0  0  0  0  0  0
  -27.3656  -12.5930   17.7869 H   0  0  0  0  0  0
  -27.6809  -14.2447   19.5239 H   0  0  0  0  0  0
  -28.6779  -12.0360   21.3918 H   0  0  0  0  0  0
  -28.4832  -13.7143   21.8209 H   0  0  0  0  0  0
  -25.2741   -9.5718   22.4761 H   0  0  0  0  0  0
  -24.0011   -7.4651   22.7471 H   0  0  0  0  0  0
  -21.0829   -8.8769   19.8947 H   0  0  0  0  0  0
  -22.3656  -10.9688   19.6175 H   0  0  0  0  0  0
  -21.1999   -7.6141   23.9713 H   0  0  0  0  0  0
  -21.1482   -6.0505   25.9074 H   0  0  0  0  0  0
  -22.0594   -2.7605   23.2839 H   0  0  0  0  0  0
  -22.4059  -11.9943   22.4847 H   0  0  0  0  0  0
  -21.1098  -13.1336   22.2543 H   0  0  0  0  0  0
  -24.6732  -15.8497   20.5196 H   0  0  0  0  0  0
  -26.2842  -15.6234   20.0706 H   0  0  0  0  0  0
  -26.7093  -32.5532   23.1152 H   0  0  0  0  0  0
  -25.0041  -33.9795   25.0462 H   0  0  0  0  0  0
  -22.6917  -31.3101   21.4184 H   0  0  0  0  0  0
  -23.3745  -35.9661   23.3343 H   0  0  0  0  0  0
  -24.3577  -36.8885   22.2046 H   0  0  0  0  0  0
  -23.7254  -37.6535   23.6626 H   0  0  0  0  0  0
  -26.0531  -31.5999   20.6039 H   0  0  0  0  0  0
  -26.8205  -30.8753   21.9902 H   0  0  0  0  0  0
  -28.0946  -29.0693   21.1835 H   0  0  0  0  0  0
  -25.9912  -25.9771   19.0059 H   0  0  0  0  0  0
  -23.9617  -27.3203   19.0223 H   0  0  0  0  0  0
  -23.7109  -30.6097   19.4074 H   0  0  0  0  0  0
  -22.7334  -29.2494   19.8730 H   0  0  0  0  0  0
  -25.1299  -36.1997   25.0827 H   0  0  0  0  0  0
  -20.9950  -28.3203   24.1444 H   0  0  0  0  0  0
  -20.5677  -26.2251   23.3588 H   0  0  0  0  0  0
  -21.6634  -26.7447   22.1195 H   0  0  0  0  0  0
  -19.6904  -25.6286   21.1234 H   0  0  0  0  0  0
  -19.6688  -27.3184   20.6740 H   0  0  0  0  0  0
  -17.4199  -26.6675   21.4020 H   0  0  0  0  0  0
  -18.0328  -26.0051   22.9003 H   0  0  0  0  0  0
  -19.7925  -30.7252   24.2287 H   0  0  0  0  0  0
  -17.5005  -31.6271   24.5131 H   0  0  0  0  0  0
  -15.5339  -30.2977   23.7650 H   0  0  0  0  0  0
  -15.8662  -28.0789   22.7104 H   0  0  0  0  0  0
  -24.5883  -30.7080   25.7789 H   0  0  0  0  0  0
  -24.8919  -32.2877   26.4935 H   0  0  0  0  0  0
  -25.8059  -30.8863   27.0222 H   0  0  0  0  0  0
  -26.2825  -29.6831   24.1152 H   0  0  0  0  0  0
  -27.4028  -29.7277   25.4566 H   0  0  0  0  0  0
  -27.8670  -30.4363   23.9274 H   0  0  0  0  0  0
  -27.2660  -33.3614   26.2099 H   0  0  0  0  0  0
  -28.3823  -32.6922   25.0296 H   0  0  0  0  0  0
  -28.0739  -31.8444   26.5370 H   0  0  0  0  0  0
  -28.2633  -38.0085   24.7482 H   0  0  0  0  0  0
  -28.1050  -36.2614   24.6352 H   0  0  0  0  0  0
  -27.2293  -37.1536   25.8873 H   0  0  0  0  0  0
  -20.9294  -29.8747   21.6959 H   0  0  0  0  0  0
  -26.0208  -38.2882   24.1364 H   0  0  0  0  0  0
  -29.1549  -17.8064   21.8473 H   0  0  0  0  0  0
  -31.4392  -18.8606   17.5938 H   0  0  0  0  0  0
  -31.2715  -16.6728   16.8707 H   0  0  0  0  0  0
  -30.6205  -15.3830   17.8463 H   0  0  0  0  0  0
  -32.2912  -15.9335   18.0889 H   0  0  0  0  0  0
  -29.5043  -20.2514   22.4942 H   0  0  0  0  0  0
  -28.1056  -20.3090   21.4576 H   0  0  0  0  0  0
  -29.9988  -24.2571   20.3437 H   0  0  0  0  0  0
  -29.5565  -24.8585   21.9255 H   0  0  0  0  0  0
  -27.1618  -25.1193   21.0676 H   0  0  0  0  0  0
  -27.7562  -24.7324   19.4675 H   0  0  0  0  0  0
  -29.0084  -15.4356   20.9890 H   0  0  0  0  0  0
  -30.3145  -22.0601   20.6573 H   0  0  0  0  0  0
  1 25  1  0  0  0
  1 30  2  0  0  0
  1 82  1  0  0  0
  2  3  1  0  0  0
  2 25  1  0  0  0
  2 86  1  0  0  0
  2 87  1  0  0  0
  3  4  1  0  0  0
  3 88  1  0  0  0
  3 89  1  0  0  0
  4  5  1  0  0  0
  4 90  1  0  0  0
  4 91  1  0  0  0
  5  6  1  0  0  0
  5 26  1  0  0  0
  5 92  1  0  0  0
  6 25  1  0  0  0
  6 93  1  0  0  0
  6 94  1  0  0  0
  7  8  2  0  0  0
  7 26  1  0  0  0
  7 29  1  0  0  0
  8  9  1  0  0  0
  8 22  1  0  0  0
  9 10  1  0  0  0
  9 27  2  0  0  0
 10 11  2  0  0  0
 10 15  1  0  0  0
 11 12  1  0  0  0
 11 95  1  0  0  0
 12 13  2  0  0  0
 12 96  1  0  0  0
 13 14  1  0  0  0
 13 31  1  0  0  0
 14 15  2  0  0  0
 14 97  1  0  0  0
 15 98  1  0  0  0
 16 17  2  0  0  0
 16 21  1  0  0  0
 16 31  1  0  0  0
 17 18  1  0  0  0
 17 99  1  0  0  0
 18 19  2  0  0  0
 18100  1  0  0  0
 19 20  1  0  0  0
 19 24  1  0  0  0
 20 21  2  0  0  0
 20101  1  0  0  0
 21 23  1  0  0  0
 22 28  1  0  0  0
 22 32  2  0  0  0
 26 27  1  0  0  0
 28102  1  0  0  0
 28103  1  0  0  0
 29104  1  0  0  0
 29105  1  0  0  0
 33 34  1  0  0  0
 33 66  1  0  0  0
 33 70  2  0  0  0
 34 36  1  0  0  0
 34 59  1  0  0  0
 34106  1  0  0  0
 35 44  2  0  0  0
 35 45  1  0  0  0
 35 68  1  0  0  0
 36 56  1  0  0  0
 36107  1  0  0  0
 37 39  1  0  0  0
 37 47  1  0  0  0
 37 66  1  0  0  0
 37108  1  0  0  0
 38 43  2  0  0  0
 38 46  1  0  0  0
 38 47  1  0  0  0
 39 64  1  0  0  0
 39 67  2  0  0  0
 40 52  1  0  0  0
 40 53  2  0  0  0
 40 58  1  0  0  0
 41109  1  0  0  0
 41110  1  0  0  0
 41111  1  0  0  0
 41 48  1  0  0  0
 42 43  1  0  0  0
 42 66  1  0  0  0
 42112  1  0  0  0
 42113  1  0  0  0
 43 44  1  0  0  0
 44114  1  0  0  0
 45 46  2  0  0  0
 45115  1  0  0  0
 46116  1  0  0  0
 47117  1  0  0  0
 47118  1  0  0  0
 48 56  1  0  0  0
 48 65  1  0  0  0
 48119  1  0  0  0
 49 50  1  0  0  0
 49 53  1  0  0  0
 49 64  1  0  0  0
 49120  1  0  0  0
 50 51  1  0  0  0
 50121  1  0  0  0
 50122  1  0  0  0
 51 52  1  0  0  0
 51123  1  0  0  0
 51124  1  0  0  0
 52125  1  0  0  0
 52126  1  0  0  0
 53 54  1  0  0  0
 54 55  2  0  0  0
 54127  1  0  0  0
 55 57  1  0  0  0
 55128  1  0  0  0
 56 69  2  0  0  0
 57 58  2  0  0  0
 57129  1  0  0  0
 58130  1  0  0  0
 59 60  1  0  0  0
 59 61  1  0  0  0
 59 62  1  0  0  0
 60131  1  0  0  0
 60132  1  0  0  0
 60133  1  0  0  0
 61134  1  0  0  0
 61135  1  0  0  0
 61136  1  0  0  0
 62137  1  0  0  0
 62138  1  0  0  0
 62139  1  0  0  0
 63 65  1  0  0  0
 63140  1  0  0  0
 63141  1  0  0  0
 63142  1  0  0  0
 64143  1  0  0  0
 65144  1  0  0  0
 68 81  1  0  0  0
 71 73  2  0  0  0
 71 75  1  0  0  0
 71145  1  0  0  0
 72 74  1  0  0  0
 72 76  2  0  0  0
 72146  1  0  0  0
 73 76  1  0  0  0
 73 79  1  0  0  0
 74 75  2  0  0  0
 74 78  1  0  0  0
 75 82  1  0  0  0
 76 85  1  0  0  0
 77 80  1  0  0  0
 77 83  1  0  0  0
 77 84  2  0  0  0
 78147  1  0  0  0
 78148  1  0  0  0
 78149  1  0  0  0
 79 83  1  0  0  0
 79150  1  0  0  0
 79151  1  0  0  0
 80 81  1  0  0  0
 80152  1  0  0  0
 80153  1  0  0  0
 81154  1  0  0  0
 81155  1  0  0  0
 82156  1  0  0  0
 83157  1  0  0  0
M  ISO  4   1 100  68 101  81 101  82 100
M  END
> <chiral flag>
0

> <version>
0

> <s_m_source_file>
/data/baiqing/PycharmProjects/Reinvent-master-3.2/result/LINK_invent/BTK/process_docking_weight1_custom_product_contain_oxygen_bond_distance_aromatic_linkinvent_7_9_3/rearranged_h_0050.sdf

> <i_m_source_file_index>
23

> <r_mmod_Potential_Energy-OPLS-2005>
-85.8019866943359

> <r_mmod_Stretch_Energy-OPLS-2005>
44.8569679260254

> <r_mmod_Bend_Energy-OPLS-2005>
110.688652038574

> <r_mmod_Torsional_Energy-OPLS-2005>
238.016021728516

> <r_mmod_Improper_Torsional_Energy-OPLS-2005>
6.09364604949951

> <r_mmod_Van_der_Waal_Energy-OPLS-2005>
169.142303466797

> <r_mmod_Electrostatic_Energy-OPLS-2005>
-453.523651123047

> <r_mmod_Solvation_Energy-OPLS-2005>
-229.626998901367

> <b_mmod_Minimization_Converged-OPLS-2005>
0

> <r_mmod_RMS_Derivative-OPLS-2005>
1.90541470050812

$$$$
23
                    3D
 Structure written by MMmdl.
171180  0  0  1  0            999 V2000
  -30.6811  -14.4734   20.5304 C   0  0  0  0  0  0
  -30.4269  -12.2888   19.4242 C   0  0  0  0  0  0
  -29.4957  -12.4647   18.2058 C   0  0  0  0  0  0
  -28.0128  -12.3613   18.6144 C   0  0  0  0  0  0
  -27.6640  -13.2020   19.8715 C   0  0  2  0  0  0
  -28.7059  -12.9741   20.9911 C   0  0  0  0  0  0
  -25.2607  -13.8165   20.5678 C   0  0  0  0  0  0
  -24.1841  -13.0453   20.9167 C   0  0  0  0  0  0
  -24.6371  -11.6921   20.8712 C   0  0  0  0  0  0
  -23.9032  -10.4299   21.0388 C   0  0  0  0  0  0
  -24.3581   -9.4220   21.9172 C   0  0  0  0  0  0
  -23.6268   -8.2251   22.0753 C   0  0  0  0  0  0
  -22.4253   -8.0279   21.3544 C   0  0  0  0  0  0
  -21.9870   -9.0249   20.4650 C   0  0  0  0  0  0
  -22.7196  -10.2125   20.3052 C   0  0  0  0  0  0
  -21.6857   -6.0723   22.5271 C   0  0  0  0  0  0
  -21.4018   -6.5624   23.8201 C   0  0  0  0  0  0
  -21.3664   -5.6777   24.9165 C   0  0  0  0  0  0
  -21.6050   -4.3042   24.7229 C   0  0  0  0  0  0
  -21.8816   -3.8134   23.4345 C   0  0  0  0  0  0
  -21.9195   -4.6944   22.3397 C   0  0  0  0  0  0
  -22.7871  -13.5270   21.1843 C   0  0  0  0  0  0
  -22.1667   -4.2130   21.0975 F   0  0  0  0  0  0
  -21.5619   -3.4530   25.7743 F   0  0  0  0  0  0
  -30.0401  -13.2758   20.4412 N   0  0  0  0  0  0
  -26.3033  -12.9325   20.3343 N   0  0  0  0  0  0
  -25.9295  -11.6490   20.5733 N   0  0  0  0  0  0
  -22.0479  -12.8290   22.0383 N   0  0  0  0  0  0
  -25.4324  -15.1884   20.4109 N   0  0  0  0  0  0
  -31.8202  -14.6700   20.0957 O   0  0  0  0  0  0
  -21.6638   -6.8867   21.4235 O   0  0  0  0  0  0
  -22.3575  -14.5594   20.6699 O   0  0  0  0  0  0
  -24.6138  -31.8693   23.2123 C   0  0  0  0  0  0
  -25.9033  -32.4827   23.8411 C   0  0  1  0  0  0
  -27.2383  -27.4527   20.0675 C   0  0  0  0  0  0
  -25.5891  -33.8624   24.2340 N   0  0  0  0  0  0
  -23.4004  -30.4946   21.5524 C   0  0  2  0  0  0
  -24.8449  -28.9605   20.1187 C   0  0  0  0  0  0
  -22.7399  -29.4665   22.4987 C   0  0  0  0  0  0
  -18.0269  -28.1378   22.8492 C   0  0  0  0  0  0
  -24.1480  -36.7312   23.2637 C   0  0  0  0  0  0
  -25.9295  -30.8347   21.3672 C   0  0  0  0  0  0
  -26.0060  -29.4697   20.7150 C   0  0  0  0  0  0
  -27.2027  -28.7167   20.6984 C   0  0  0  0  0  0
  -26.0484  -26.9410   19.5030 C   0  0  0  0  0  0
  -24.8579  -27.6906   19.5181 C   0  0  0  0  0  0
  -23.6089  -29.8294   20.1666 C   0  0  0  0  0  0
  -25.4100  -36.3113   24.0340 C   0  0  1  0  0  0
  -20.5861  -28.3662   23.1316 C   0  0  2  0  0  0
  -20.6762  -26.9398   22.5415 C   0  0  0  0  0  0
  -19.5740  -26.6386   21.5209 C   0  0  0  0  0  0
  -18.1917  -26.7925   22.1619 C   0  0  0  0  0  0
  -19.1524  -28.8836   23.2903 C   0  0  0  0  0  0
  -18.9449  -30.1440   23.8920 C   0  0  0  0  0  0
  -17.6457  -30.6583   24.0571 C   0  0  0  0  0  0
  -25.9028  -34.9477   23.5141 C   0  0  0  0  0  0
  -16.5345  -29.9090   23.6323 C   0  0  0  0  0  0
  -16.7263  -28.6502   23.0346 C   0  0  0  0  0  0
  -26.4471  -31.6603   25.0731 C   0  0  0  0  0  0
  -25.3747  -31.3704   26.1490 C   0  0  0  0  0  0
  -27.0296  -30.3045   24.6098 C   0  0  0  0  0  0
  -27.6059  -32.4314   25.7481 C   0  0  0  0  0  0
  -27.5573  -37.1812   24.8463 C   0  0  0  0  0  0
  -21.4131  -29.3035   22.3723 N   0  0  0  0  0  0
  -26.4288  -37.3795   23.9405 N   0  0  0  0  0  0
  -24.6658  -31.0803   22.1024 N   0  0  0  0  0  0
  -23.4172  -28.8201   23.3025 O   0  0  0  0  0  0
  -28.4139  -26.7320   20.0261 O   0  0  0  0  0  0
  -26.5592  -34.8925   22.4702 O   0  0  0  0  0  0
  -23.5338  -32.1444   23.7526 O   0  0  0  0  0  0
  -31.6481  -22.7129   20.7208 C   0  0  0  0  0  0
  -29.7512  -17.8144   21.5910 C   0  0  0  0  0  0
  -29.4982  -19.1679   21.2863 C   0  0  0  0  0  0
  -29.3210  -19.5848   19.9365 C   0  0  0  0  0  0
  -29.4676  -18.6092   18.9028 C   0  0  0  0  0  0
  -29.8583  -16.8368   20.5849 C   0  0  0  0  0  0
  -29.7296  -17.2439   19.2277 C   0  0  0  0  0  0
  -30.4947  -22.9012   20.1214 C   0  0  0  0  0  0
  -32.7910  -22.4921   21.3239 C   0  0  0  0  0  0
  -29.6609  -24.1869   20.1813 C   0  0  0  0  0  0
  -28.8982  -23.8101   17.8341 C   0  0  0  0  0  0
  -29.7333  -22.5159   17.7775 C   0  0  0  0  0  0
  -29.5241  -24.8407   18.7911 C   0  0  1  0  0  0
  -29.3722  -20.1356   22.4552 C   0  0  0  0  0  0
  -29.3167  -19.0243   17.4340 C   0  0  0  0  0  0
  -28.8797  -21.0343   19.6131 C   0  0  0  0  0  0
  -28.7830  -26.2048   18.7452 C   0  0  0  0  0  0
  -29.9261  -15.4731   21.0174 N   0  0  0  0  0  0
  -29.9748  -21.9170   19.1214 N   0  3  2  0  0  0
  -29.8001  -16.0758   17.9502 Cl  0  0  0  0  0  0
  -31.4702  -12.3889   19.1223 H   0  0  0  0  0  0
  -30.3277  -11.2821   19.8305 H   0  0  0  0  0  0
  -29.7192  -11.7084   17.4523 H   0  0  0  0  0  0
  -29.6840  -13.4216   17.7256 H   0  0  0  0  0  0
  -27.7996  -11.3100   18.8060 H   0  0  0  0  0  0
  -27.3751  -12.6520   17.7779 H   0  0  0  0  0  0
  -27.7101  -14.2491   19.5723 H   0  0  0  0  0  0
  -28.6784  -11.9369   21.3277 H   0  0  0  0  0  0
  -28.4686  -13.5686   21.8737 H   0  0  0  0  0  0
  -25.2707   -9.5711   22.4767 H   0  0  0  0  0  0
  -23.9980   -7.4647   22.7477 H   0  0  0  0  0  0
  -21.0794   -8.8769   19.8957 H   0  0  0  0  0  0
  -22.3648  -10.9665   19.6175 H   0  0  0  0  0  0
  -21.2008   -7.6131   23.9706 H   0  0  0  0  0  0
  -21.1489   -6.0503   25.9064 H   0  0  0  0  0  0
  -22.0589   -2.7595   23.2859 H   0  0  0  0  0  0
  -22.4055  -11.9958   22.4816 H   0  0  0  0  0  0
  -21.1098  -13.1351   22.2562 H   0  0  0  0  0  0
  -24.6650  -15.8412   20.5254 H   0  0  0  0  0  0
  -26.2889  -15.6300   20.1007 H   0  0  0  0  0  0
  -26.7096  -32.5546   23.1170 H   0  0  0  0  0  0
  -25.0046  -33.9786   25.0489 H   0  0  0  0  0  0
  -22.6886  -31.3111   21.4155 H   0  0  0  0  0  0
  -23.3734  -35.9657   23.3334 H   0  0  0  0  0  0
  -24.3573  -36.8891   22.2045 H   0  0  0  0  0  0
  -23.7249  -37.6534   23.6631 H   0  0  0  0  0  0
  -26.0437  -31.6015   20.5999 H   0  0  0  0  0  0
  -26.8169  -30.8869   21.9863 H   0  0  0  0  0  0
  -28.1023  -29.1104   21.1503 H   0  0  0  0  0  0
  -26.0288  -25.9589   19.0531 H   0  0  0  0  0  0
  -23.9604  -27.2849   19.0712 H   0  0  0  0  0  0
  -23.7225  -30.6058   19.4092 H   0  0  0  0  0  0
  -22.7312  -29.2534   19.8672 H   0  0  0  0  0  0
  -25.1276  -36.1988   25.0835 H   0  0  0  0  0  0
  -20.9952  -28.3237   24.1438 H   0  0  0  0  0  0
  -20.5661  -26.2273   23.3601 H   0  0  0  0  0  0
  -21.6638  -26.7438   22.1220 H   0  0  0  0  0  0
  -19.6904  -25.6302   21.1225 H   0  0  0  0  0  0
  -19.6676  -27.3210   20.6749 H   0  0  0  0  0  0
  -17.4182  -26.6673   21.4022 H   0  0  0  0  0  0
  -18.0316  -26.0062   22.9010 H   0  0  0  0  0  0
  -19.7929  -30.7250   24.2299 H   0  0  0  0  0  0
  -17.5013  -31.6267   24.5165 H   0  0  0  0  0  0
  -15.5352  -30.3005   23.7631 H   0  0  0  0  0  0
  -15.8654  -28.0830   22.7058 H   0  0  0  0  0  0
  -24.5909  -30.7060   25.7831 H   0  0  0  0  0  0
  -24.8956  -32.2863   26.4961 H   0  0  0  0  0  0
  -25.8116  -30.8856   27.0228 H   0  0  0  0  0  0
  -26.2834  -29.6805   24.1165 H   0  0  0  0  0  0
  -27.4083  -29.7282   25.4546 H   0  0  0  0  0  0
  -27.8665  -30.4358   23.9234 H   0  0  0  0  0  0
  -27.2690  -33.3605   26.2089 H   0  0  0  0  0  0
  -28.3852  -32.6883   25.0292 H   0  0  0  0  0  0
  -28.0745  -31.8418   26.5369 H   0  0  0  0  0  0
  -28.2611  -38.0089   24.7499 H   0  0  0  0  0  0
  -28.1052  -36.2629   24.6304 H   0  0  0  0  0  0
  -27.2296  -37.1482   25.8867 H   0  0  0  0  0  0
  -20.9282  -29.8763   21.6958 H   0  0  0  0  0  0
  -26.0182  -38.2876   24.1410 H   0  0  0  0  0  0
  -29.8305  -17.5095   22.6255 H   0  0  0  0  0  0
  -32.8382  -22.0049   22.2871 H   0  0  0  0  0  0
  -33.7306  -22.7913   20.8813 H   0  0  0  0  0  0
  -30.1232  -24.8878   20.8781 H   0  0  0  0  0  0
  -28.6748  -23.9595   20.5883 H   0  0  0  0  0  0
  -27.8744  -23.5865   18.1397 H   0  0  0  0  0  0
  -28.8302  -24.2292   16.8284 H   0  0  0  0  0  0
  -30.7049  -22.7430   17.3373 H   0  0  0  0  0  0
  -29.2650  -21.8038   17.0995 H   0  0  0  0  0  0
  -30.5382  -25.0405   18.4390 H   0  0  0  0  0  0
  -29.6335  -19.6551   23.3978 H   0  0  0  0  0  0
  -28.3493  -20.4993   22.5525 H   0  0  0  0  0  0
  -30.0409  -20.9866   22.3423 H   0  0  0  0  0  0
  -30.1853  -19.6025   17.1189 H   0  0  0  0  0  0
  -28.4174  -19.6138   17.2650 H   0  0  0  0  0  0
  -29.2308  -18.1999   16.7301 H   0  0  0  0  0  0
  -28.4180  -21.4975   20.4832 H   0  0  0  0  0  0
  -28.0545  -21.0057   18.9028 H   0  0  0  0  0  0
  -27.9515  -26.1404   18.0433 H   0  0  0  0  0  0
  -29.4459  -26.9422   18.2908 H   0  0  0  0  0  0
  -29.1319  -15.1645   21.5563 H   0  0  0  0  0  0
  -30.7233  -21.2616   18.9572 H   0  0  0  0  0  0
  1 25  1  0  0  0
  1 30  2  0  0  0
  1 88  1  0  0  0
  2  3  1  0  0  0
  2 25  1  0  0  0
  2 91  1  0  0  0
  2 92  1  0  0  0
  3  4  1  0  0  0
  3 93  1  0  0  0
  3 94  1  0  0  0
  4  5  1  0  0  0
  4 95  1  0  0  0
  4 96  1  0  0  0
  5  6  1  0  0  0
  5 26  1  0  0  0
  5 97  1  0  0  0
  6 25  1  0  0  0
  6 98  1  0  0  0
  6 99  1  0  0  0
  7  8  2  0  0  0
  7 26  1  0  0  0
  7 29  1  0  0  0
  8  9  1  0  0  0
  8 22  1  0  0  0
  9 10  1  0  0  0
  9 27  2  0  0  0
 10 11  2  0  0  0
 10 15  1  0  0  0
 11 12  1  0  0  0
 11100  1  0  0  0
 12 13  2  0  0  0
 12101  1  0  0  0
 13 14  1  0  0  0
 13 31  1  0  0  0
 14 15  2  0  0  0
 14102  1  0  0  0
 15103  1  0  0  0
 16 17  2  0  0  0
 16 21  1  0  0  0
 16 31  1  0  0  0
 17 18  1  0  0  0
 17104  1  0  0  0
 18 19  2  0  0  0
 18105  1  0  0  0
 19 20  1  0  0  0
 19 24  1  0  0  0
 20 21  2  0  0  0
 20106  1  0  0  0
 21 23  1  0  0  0
 22 28  1  0  0  0
 22 32  2  0  0  0
 26 27  1  0  0  0
 28107  1  0  0  0
 28108  1  0  0  0
 29109  1  0  0  0
 29110  1  0  0  0
 33 34  1  0  0  0
 33 66  1  0  0  0
 33 70  2  0  0  0
 34 36  1  0  0  0
 34 59  1  0  0  0
 34111  1  0  0  0
 35 44  2  0  0  0
 35 45  1  0  0  0
 35 68  1  0  0  0
 36 56  1  0  0  0
 36112  1  0  0  0
 37 39  1  0  0  0
 37 47  1  0  0  0
 37 66  1  0  0  0
 37113  1  0  0  0
 38 43  2  0  0  0
 38 46  1  0  0  0
 38 47  1  0  0  0
 39 64  1  0  0  0
 39 67  2  0  0  0
 40 52  1  0  0  0
 40 53  2  0  0  0
 40 58  1  0  0  0
 41114  1  0  0  0
 41115  1  0  0  0
 41116  1  0  0  0
 41 48  1  0  0  0
 42 43  1  0  0  0
 42 66  1  0  0  0
 42117  1  0  0  0
 42118  1  0  0  0
 43 44  1  0  0  0
 44119  1  0  0  0
 45 46  2  0  0  0
 45120  1  0  0  0
 46121  1  0  0  0
 47122  1  0  0  0
 47123  1  0  0  0
 48 56  1  0  0  0
 48 65  1  0  0  0
 48124  1  0  0  0
 49 50  1  0  0  0
 49 53  1  0  0  0
 49 64  1  0  0  0
 49125  1  0  0  0
 50 51  1  0  0  0
 50126  1  0  0  0
 50127  1  0  0  0
 51 52  1  0  0  0
 51128  1  0  0  0
 51129  1  0  0  0
 52130  1  0  0  0
 52131  1  0  0  0
 53 54  1  0  0  0
 54 55  2  0  0  0
 54132  1  0  0  0
 55 57  1  0  0  0
 55133  1  0  0  0
 56 69  2  0  0  0
 57 58  2  0  0  0
 57134  1  0  0  0
 58135  1  0  0  0
 59 60  1  0  0  0
 59 61  1  0  0  0
 59 62  1  0  0  0
 60136  1  0  0  0
 60137  1  0  0  0
 60138  1  0  0  0
 61139  1  0  0  0
 61140  1  0  0  0
 61141  1  0  0  0
 62142  1  0  0  0
 62143  1  0  0  0
 62144  1  0  0  0
 63 65  1  0  0  0
 63145  1  0  0  0
 63146  1  0  0  0
 63147  1  0  0  0
 64148  1  0  0  0
 65149  1  0  0  0
 68 87  1  0  0  0
 71 78  2  0  0  0
 71 79  2  0  0  0
 72 73  2  0  0  0
 72 76  1  0  0  0
 72150  1  0  0  0
 73 74  1  0  0  0
 73 84  1  0  0  0
 74 75  2  0  0  0
 74 86  1  0  0  0
 75 77  1  0  0  0
 75 85  1  0  0  0
 76 77  2  0  0  0
 76 88  1  0  0  0
 77 90  1  0  0  0
 78 80  1  0  0  0
 78 89  1  0  0  0
 79151  1  0  0  0
 79152  1  0  0  0
 80 83  1  0  0  0
 80153  1  0  0  0
 80154  1  0  0  0
 81 82  1  0  0  0
 81 83  1  0  0  0
 81155  1  0  0  0
 81156  1  0  0  0
 82 89  1  0  0  0
 82157  1  0  0  0
 82158  1  0  0  0
 83 87  1  0  0  0
 83159  1  0  0  0
 84160  1  0  0  0
 84161  1  0  0  0
 84162  1  0  0  0
 85163  1  0  0  0
 85164  1  0  0  0
 85165  1  0  0  0
 86166  1  0  0  0
 86167  1  0  0  0
 86 89  1  0  0  0
 87168  1  0  0  0
 87169  1  0  0  0
 88170  1  0  0  0
 89171  1  0  0  0
M  CHG  1  89   1
M  ISO  4   1 100  68 101  87 101  88 100
M  END
> <chiral flag>
0

> <version>
0

> <s_m_source_file>
/data/baiqing/PycharmProjects/Reinvent-master-3.2/result/LINK_invent/BTK/process_docking_weight1_custom_product_contain_oxygen_bond_distance_aromatic_linkinvent_7_9_3/rearranged_h_0050.sdf

> <i_m_source_file_index>
24

> <r_mmod_Potential_Energy-OPLS-2005>
-200.518966674805

> <r_mmod_Stretch_Energy-OPLS-2005>
43.9348297119141

> <r_mmod_Bend_Energy-OPLS-2005>
114.089302062988

> <r_mmod_Torsional_Energy-OPLS-2005>
208.534927368164

> <r_mmod_Improper_Torsional_Energy-OPLS-2005>
5.27295303344727

> <r_mmod_Van_der_Waal_Energy-OPLS-2005>
163.182846069336

> <r_mmod_Electrostatic_Energy-OPLS-2005>
-311.34375

> <r_mmod_Solvation_Energy-OPLS-2005>
-436.775390625

> <b_mmod_Minimization_Converged-OPLS-2005>
0

> <r_mmod_RMS_Derivative-OPLS-2005>
2.30723309516907

$$$$
24
                    3D
 Structure written by MMmdl.
169178  0  0  1  0            999 V2000
  -30.6884  -14.5535   20.5060 C   0  0  0  0  0  0
  -30.4242  -12.3410   19.4446 C   0  0  0  0  0  0
  -29.5047  -12.4886   18.2146 C   0  0  0  0  0  0
  -28.0275  -12.3351   18.6259 C   0  0  0  0  0  0
  -27.6524  -13.2099   19.8511 C   0  0  2  0  0  0
  -28.6940  -13.0709   20.9864 C   0  0  0  0  0  0
  -25.2517  -13.8110   20.5599 C   0  0  0  0  0  0
  -24.1809  -13.0399   20.9188 C   0  0  0  0  0  0
  -24.6379  -11.6879   20.8742 C   0  0  0  0  0  0
  -23.9036  -10.4278   21.0403 C   0  0  0  0  0  0
  -24.3596   -9.4201   21.9182 C   0  0  0  0  0  0
  -23.6287   -8.2229   22.0742 C   0  0  0  0  0  0
  -22.4259   -8.0266   21.3546 C   0  0  0  0  0  0
  -21.9878   -9.0233   20.4640 C   0  0  0  0  0  0
  -22.7211  -10.2112   20.3054 C   0  0  0  0  0  0
  -21.6839   -6.0733   22.5284 C   0  0  0  0  0  0
  -21.4007   -6.5639   23.8224 C   0  0  0  0  0  0
  -21.3657   -5.6783   24.9184 C   0  0  0  0  0  0
  -21.6042   -4.3050   24.7247 C   0  0  0  0  0  0
  -21.8816   -3.8146   23.4363 C   0  0  0  0  0  0
  -21.9191   -4.6958   22.3414 C   0  0  0  0  0  0
  -22.7839  -13.5217   21.1846 C   0  0  0  0  0  0
  -22.1658   -4.2148   21.0993 F   0  0  0  0  0  0
  -21.5629   -3.4533   25.7760 F   0  0  0  0  0  0
  -30.0201  -13.3656   20.4233 N   0  0  0  0  0  0
  -26.2964  -12.9309   20.3224 N   0  0  0  0  0  0
  -25.9301  -11.6470   20.5715 N   0  0  0  0  0  0
  -22.0448  -12.8229   22.0405 N   0  0  0  0  0  0
  -25.4144  -15.1807   20.3879 N   0  0  0  0  0  0
  -31.8573  -14.6613   20.1326 O   0  0  0  0  0  0
  -21.6619   -6.8865   21.4245 O   0  0  0  0  0  0
  -22.3532  -14.5524   20.6672 O   0  0  0  0  0  0
  -24.6162  -31.8683   23.2101 C   0  0  0  0  0  0
  -25.9049  -32.4827   23.8403 C   0  0  1  0  0  0
  -27.2309  -27.4064   20.0980 C   0  0  0  0  0  0
  -25.5901  -33.8625   24.2334 N   0  0  0  0  0  0
  -23.4046  -30.4926   21.5521 C   0  0  2  0  0  0
  -24.8501  -28.9600   20.1140 C   0  0  0  0  0  0
  -22.7411  -29.4662   22.4991 C   0  0  0  0  0  0
  -18.0276  -28.1379   22.8484 C   0  0  0  0  0  0
  -24.1485  -36.7312   23.2635 C   0  0  0  0  0  0
  -25.9362  -30.8258   21.3666 C   0  0  0  0  0  0
  -26.0137  -29.4591   20.7113 C   0  0  0  0  0  0
  -27.2052  -28.6912   20.6994 C   0  0  0  0  0  0
  -26.0444  -26.9394   19.4804 C   0  0  0  0  0  0
  -24.8617  -27.7012   19.4949 C   0  0  0  0  0  0
  -23.6126  -29.8288   20.1660 C   0  0  0  0  0  0
  -25.4101  -36.3109   24.0338 C   0  0  1  0  0  0
  -20.5864  -28.3666   23.1299 C   0  0  2  0  0  0
  -20.6757  -26.9401   22.5404 C   0  0  0  0  0  0
  -19.5738  -26.6388   21.5194 C   0  0  0  0  0  0
  -18.1919  -26.7920   22.1608 C   0  0  0  0  0  0
  -19.1520  -28.8836   23.2891 C   0  0  0  0  0  0
  -18.9459  -30.1430   23.8923 C   0  0  0  0  0  0
  -17.6463  -30.6583   24.0560 C   0  0  0  0  0  0
  -25.9032  -34.9478   23.5131 C   0  0  0  0  0  0
  -16.5350  -29.9085   23.6317 C   0  0  0  0  0  0
  -16.7268  -28.6490   23.0358 C   0  0  0  0  0  0
  -26.4471  -31.6611   25.0732 C   0  0  0  0  0  0
  -25.3744  -31.3752   26.1503 C   0  0  0  0  0  0
  -27.0271  -30.3042   24.6116 C   0  0  0  0  0  0
  -27.6060  -32.4328   25.7476 C   0  0  0  0  0  0
  -27.5578  -37.1803   24.8460 C   0  0  0  0  0  0
  -21.4142  -29.3041   22.3720 N   0  0  0  0  0  0
  -26.4286  -37.3790   23.9411 N   0  0  0  0  0  0
  -24.6711  -31.0763   22.1015 N   0  0  0  0  0  0
  -23.4175  -28.8200   23.3031 O   0  0  0  0  0  0
  -28.3880  -26.6382   20.1433 O   0  0  0  0  0  0
  -26.5596  -34.8934   22.4695 O   0  0  0  0  0  0
  -23.5348  -32.1448   23.7475 O   0  0  0  0  0  0
  -31.8214  -18.9201   20.4175 C   0  0  0  0  0  0
  -31.5333  -17.5779   20.7563 C   0  0  0  0  0  0
  -29.5115  -19.2824   19.8255 C   0  0  0  0  0  0
  -30.8320  -19.7848   19.8798 C   0  0  0  0  0  0
  -29.2102  -17.9421   20.1856 C   0  0  0  0  0  0
  -30.2344  -17.0397   20.5919 C   0  0  0  0  0  0
  -33.7681  -21.1732   18.7558 C   0  0  0  0  0  0
  -32.5194  -20.8786   18.3515 C   0  0  0  0  0  0
  -29.4131  -24.3533   20.3858 C   0  0  0  0  0  0
  -34.0992  -21.8403   20.0702 C   0  0  0  0  0  0
  -33.4876  -23.2415   20.1781 C   0  0  0  0  0  0
  -32.1401  -23.4352   19.4511 C   0  0  0  0  0  0
  -31.2164  -21.0952   19.1330 C   0  0  2  0  0  0
  -27.7750  -17.4753   20.0502 C   0  0  0  0  0  0
  -29.6993  -23.0271   19.6248 C   0  0  0  0  0  0
  -28.2424  -25.2231   19.8651 C   0  0  0  0  0  0
  -29.9362  -15.6418   20.8245 N   0  0  0  0  0  0
  -31.0749  -22.4435   19.8372 N   0  3  2  0  0  0
  -30.0610  -24.6805   21.3872 O   0  0  0  0  0  0
  -31.4700  -12.4299   19.1497 H   0  0  0  0  0  0
  -30.3230  -11.3486   19.8846 H   0  0  0  0  0  0
  -29.7627  -11.7422   17.4627 H   0  0  0  0  0  0
  -29.6653  -13.4595   17.7437 H   0  0  0  0  0  0
  -27.8640  -11.2818   18.8614 H   0  0  0  0  0  0
  -27.3792  -12.5611   17.7781 H   0  0  0  0  0  0
  -27.6732  -14.2437   19.5042 H   0  0  0  0  0  0
  -28.6803  -12.0595   21.3960 H   0  0  0  0  0  0
  -28.4482  -13.7330   21.8175 H   0  0  0  0  0  0
  -25.2734   -9.5676   22.4770 H   0  0  0  0  0  0
  -24.0011   -7.4588   22.7423 H   0  0  0  0  0  0
  -21.0824   -8.8720   19.8933 H   0  0  0  0  0  0
  -22.3648  -10.9641   19.6165 H   0  0  0  0  0  0
  -21.1972   -7.6136   23.9731 H   0  0  0  0  0  0
  -21.1486   -6.0513   25.9085 H   0  0  0  0  0  0
  -22.0590   -2.7609   23.2870 H   0  0  0  0  0  0
  -22.4043  -11.9946   22.4905 H   0  0  0  0  0  0
  -21.1049  -13.1255   22.2520 H   0  0  0  0  0  0
  -24.6342  -15.8250   20.4636 H   0  0  0  0  0  0
  -26.2362  -15.6016   19.9779 H   0  0  0  0  0  0
  -26.7118  -32.5528   23.1164 H   0  0  0  0  0  0
  -25.0052  -33.9794   25.0473 H   0  0  0  0  0  0
  -22.6939  -31.3096   21.4139 H   0  0  0  0  0  0
  -23.3746  -35.9647   23.3307 H   0  0  0  0  0  0
  -24.3578  -36.8918   22.2046 H   0  0  0  0  0  0
  -23.7249  -37.6524   23.6643 H   0  0  0  0  0  0
  -26.0513  -31.5925   20.5990 H   0  0  0  0  0  0
  -26.8229  -30.8795   21.9858 H   0  0  0  0  0  0
  -28.1007  -29.0709   21.1716 H   0  0  0  0  0  0
  -26.0027  -25.9837   18.9796 H   0  0  0  0  0  0
  -23.9665  -27.3137   19.0294 H   0  0  0  0  0  0
  -23.7210  -30.6051   19.4075 H   0  0  0  0  0  0
  -22.7353  -29.2509   19.8691 H   0  0  0  0  0  0
  -25.1277  -36.1969   25.0831 H   0  0  0  0  0  0
  -20.9947  -28.3239   24.1420 H   0  0  0  0  0  0
  -20.5632  -26.2286   23.3599 H   0  0  0  0  0  0
  -21.6641  -26.7434   22.1222 H   0  0  0  0  0  0
  -19.6905  -25.6302   21.1222 H   0  0  0  0  0  0
  -19.6669  -27.3197   20.6724 H   0  0  0  0  0  0
  -17.4183  -26.6663   21.4019 H   0  0  0  0  0  0
  -18.0331  -26.0060   22.8999 H   0  0  0  0  0  0
  -19.7938  -30.7231   24.2317 H   0  0  0  0  0  0
  -17.5026  -31.6264   24.5154 H   0  0  0  0  0  0
  -15.5355  -30.2998   23.7635 H   0  0  0  0  0  0
  -15.8661  -28.0809   22.7089 H   0  0  0  0  0  0
  -24.5875  -30.7142   25.7859 H   0  0  0  0  0  0
  -24.8989  -32.2927   26.4970 H   0  0  0  0  0  0
  -25.8096  -30.8900   27.0246 H   0  0  0  0  0  0
  -26.2796  -29.6825   24.1176 H   0  0  0  0  0  0
  -27.4034  -29.7261   25.4564 H   0  0  0  0  0  0
  -27.8645  -30.4340   23.9257 H   0  0  0  0  0  0
  -27.2703  -33.3638   26.2050 H   0  0  0  0  0  0
  -28.3853  -32.6877   25.0282 H   0  0  0  0  0  0
  -28.0746  -31.8462   26.5384 H   0  0  0  0  0  0
  -28.2608  -38.0086   24.7505 H   0  0  0  0  0  0
  -28.1064  -36.2627   24.6280 H   0  0  0  0  0  0
  -27.2312  -37.1458   25.8867 H   0  0  0  0  0  0
  -20.9302  -29.8770   21.6950 H   0  0  0  0  0  0
  -26.0180  -38.2871   24.1414 H   0  0  0  0  0  0
  -32.8505  -19.2341   20.4883 H   0  0  0  0  0  0
  -32.3443  -16.9513   21.0995 H   0  0  0  0  0  0
  -28.7244  -19.9079   19.4251 H   0  0  0  0  0  0
  -34.6032  -20.9353   18.1116 H   0  0  0  0  0  0
  -32.3979  -20.3853   17.3981 H   0  0  0  0  0  0
  -35.1829  -21.8884   20.1885 H   0  0  0  0  0  0
  -33.7371  -21.2192   20.8889 H   0  0  0  0  0  0
  -34.1933  -23.9566   19.7525 H   0  0  0  0  0  0
  -33.3913  -23.5201   21.2289 H   0  0  0  0  0  0
  -32.2665  -23.4498   18.3670 H   0  0  0  0  0  0
  -31.8670  -24.4653   19.6674 H   0  0  0  0  0  0
  -30.5044  -21.1531   18.3078 H   0  0  0  0  0  0
  -27.0879  -18.3198   19.9860 H   0  0  0  0  0  0
  -27.4872  -16.8873   20.9203 H   0  0  0  0  0  0
  -27.6521  -16.8734   19.1493 H   0  0  0  0  0  0
  -29.5492  -23.2142   18.5617 H   0  0  0  0  0  0
  -28.9440  -22.3017   19.9262 H   0  0  0  0  0  0
  -27.3396  -24.8459   20.3452 H   0  0  0  0  0  0
  -28.1364  -25.0751   18.7904 H   0  0  0  0  0  0
  -28.9711  -15.4280   21.0202 H   0  0  0  0  0  0
  -31.1677  -22.2893   20.8298 H   0  0  0  0  0  0
  1 25  1  0  0  0
  1 30  2  0  0  0
  1 87  1  0  0  0
  2  3  1  0  0  0
  2 25  1  0  0  0
  2 90  1  0  0  0
  2 91  1  0  0  0
  3  4  1  0  0  0
  3 92  1  0  0  0
  3 93  1  0  0  0
  4  5  1  0  0  0
  4 94  1  0  0  0
  4 95  1  0  0  0
  5  6  1  0  0  0
  5 26  1  0  0  0
  5 96  1  0  0  0
  6 25  1  0  0  0
  6 97  1  0  0  0
  6 98  1  0  0  0
  7  8  2  0  0  0
  7 26  1  0  0  0
  7 29  1  0  0  0
  8  9  1  0  0  0
  8 22  1  0  0  0
  9 10  1  0  0  0
  9 27  2  0  0  0
 10 11  2  0  0  0
 10 15  1  0  0  0
 11 12  1  0  0  0
 11 99  1  0  0  0
 12 13  2  0  0  0
 12100  1  0  0  0
 13 14  1  0  0  0
 13 31  1  0  0  0
 14 15  2  0  0  0
 14101  1  0  0  0
 15102  1  0  0  0
 16 17  2  0  0  0
 16 21  1  0  0  0
 16 31  1  0  0  0
 17 18  1  0  0  0
 17103  1  0  0  0
 18 19  2  0  0  0
 18104  1  0  0  0
 19 20  1  0  0  0
 19 24  1  0  0  0
 20 21  2  0  0  0
 20105  1  0  0  0
 21 23  1  0  0  0
 22 28  1  0  0  0
 22 32  2  0  0  0
 26 27  1  0  0  0
 28106  1  0  0  0
 28107  1  0  0  0
 29108  1  0  0  0
 29109  1  0  0  0
 33 34  1  0  0  0
 33 66  1  0  0  0
 33 70  2  0  0  0
 34 36  1  0  0  0
 34 59  1  0  0  0
 34110  1  0  0  0
 35 44  2  0  0  0
 35 45  1  0  0  0
 35 68  1  0  0  0
 36 56  1  0  0  0
 36111  1  0  0  0
 37 39  1  0  0  0
 37 47  1  0  0  0
 37 66  1  0  0  0
 37112  1  0  0  0
 38 43  2  0  0  0
 38 46  1  0  0  0
 38 47  1  0  0  0
 39 64  1  0  0  0
 39 67  2  0  0  0
 40 52  1  0  0  0
 40 53  2  0  0  0
 40 58  1  0  0  0
 41113  1  0  0  0
 41114  1  0  0  0
 41115  1  0  0  0
 41 48  1  0  0  0
 42 43  1  0  0  0
 42 66  1  0  0  0
 42116  1  0  0  0
 42117  1  0  0  0
 43 44  1  0  0  0
 44118  1  0  0  0
 45 46  2  0  0  0
 45119  1  0  0  0
 46120  1  0  0  0
 47121  1  0  0  0
 47122  1  0  0  0
 48 56  1  0  0  0
 48 65  1  0  0  0
 48123  1  0  0  0
 49 50  1  0  0  0
 49 53  1  0  0  0
 49 64  1  0  0  0
 49124  1  0  0  0
 50 51  1  0  0  0
 50125  1  0  0  0
 50126  1  0  0  0
 51 52  1  0  0  0
 51127  1  0  0  0
 51128  1  0  0  0
 52129  1  0  0  0
 52130  1  0  0  0
 53 54  1  0  0  0
 54 55  2  0  0  0
 54131  1  0  0  0
 55 57  1  0  0  0
 55132  1  0  0  0
 56 69  2  0  0  0
 57 58  2  0  0  0
 57133  1  0  0  0
 58134  1  0  0  0
 59 60  1  0  0  0
 59 61  1  0  0  0
 59 62  1  0  0  0
 60135  1  0  0  0
 60136  1  0  0  0
 60137  1  0  0  0
 61138  1  0  0  0
 61139  1  0  0  0
 61140  1  0  0  0
 62141  1  0  0  0
 62142  1  0  0  0
 62143  1  0  0  0
 63 65  1  0  0  0
 63144  1  0  0  0
 63145  1  0  0  0
 63146  1  0  0  0
 64147  1  0  0  0
 65148  1  0  0  0
 68 86  1  0  0  0
 71 72  2  0  0  0
 71 74  1  0  0  0
 71149  1  0  0  0
 72 76  1  0  0  0
 72150  1  0  0  0
 73 74  2  0  0  0
 73 75  1  0  0  0
 73151  1  0  0  0
 74 83  1  0  0  0
 75 76  2  0  0  0
 75 84  1  0  0  0
 76 87  1  0  0  0
 77 78  2  0  0  0
 77 80  1  0  0  0
 77152  1  0  0  0
 78 83  1  0  0  0
 78153  1  0  0  0
 79 85  1  0  0  0
 79 86  1  0  0  0
 79 89  2  0  0  0
 80 81  1  0  0  0
 80154  1  0  0  0
 80155  1  0  0  0
 81 82  1  0  0  0
 81156  1  0  0  0
 81157  1  0  0  0
 82 88  1  0  0  0
 82158  1  0  0  0
 82159  1  0  0  0
 83 88  1  0  0  0
 83160  1  0  0  0
 84161  1  0  0  0
 84162  1  0  0  0
 84163  1  0  0  0
 85164  1  0  0  0
 85165  1  0  0  0
 85 88  1  0  0  0
 86166  1  0  0  0
 86167  1  0  0  0
 87168  1  0  0  0
 88169  1  0  0  0
M  CHG  1  88   1
M  ISO  4   1 100  68 101  86 101  87 100
M  END
> <chiral flag>
0

> <version>
0

> <s_m_source_file>
/data/baiqing/PycharmProjects/Reinvent-master-3.2/result/LINK_invent/BTK/process_docking_weight1_custom_product_contain_oxygen_bond_distance_aromatic_linkinvent_7_9_3/rearranged_h_0050.sdf

> <i_m_source_file_index>
25

> <r_mmod_Potential_Energy-OPLS-2005>
-118.949409484863

> <r_mmod_Stretch_Energy-OPLS-2005>
57.585018157959

> <r_mmod_Bend_Energy-OPLS-2005>
131.163116455078

> <r_mmod_Torsional_Energy-OPLS-2005>
270.659881591797

> <r_mmod_Improper_Torsional_Energy-OPLS-2005>
7.60436487197876

> <r_mmod_Van_der_Waal_Energy-OPLS-2005>
176.733291625977

> <r_mmod_Electrostatic_Energy-OPLS-2005>
-341.299377441406

> <r_mmod_Solvation_Energy-OPLS-2005>
-446.824768066406

> <b_mmod_Minimization_Converged-OPLS-2005>
0

> <r_mmod_RMS_Derivative-OPLS-2005>
3.04446768760681

$$$$
25
                    3D
 Structure written by MMmdl.
157165  0  0  1  0            999 V2000
  -30.6072  -14.6420   20.4918 C   0  0  0  0  0  0
  -30.4438  -12.3940   19.4450 C   0  0  0  0  0  0
  -29.5077  -12.5066   18.2201 C   0  0  0  0  0  0
  -28.0309  -12.3422   18.6344 C   0  0  0  0  0  0
  -27.6534  -13.2114   19.8627 C   0  0  2  0  0  0
  -28.7001  -13.0607   20.9902 C   0  0  0  0  0  0
  -25.2567  -13.8154   20.5680 C   0  0  0  0  0  0
  -24.1825  -13.0437   20.9185 C   0  0  0  0  0  0
  -24.6386  -11.6902   20.8742 C   0  0  0  0  0  0
  -23.9054  -10.4291   21.0415 C   0  0  0  0  0  0
  -24.3607   -9.4203   21.9187 C   0  0  0  0  0  0
  -23.6277   -8.2241   22.0757 C   0  0  0  0  0  0
  -22.4259   -8.0291   21.3549 C   0  0  0  0  0  0
  -21.9895   -9.0263   20.4656 C   0  0  0  0  0  0
  -22.7229  -10.2137   20.3066 C   0  0  0  0  0  0
  -21.6855   -6.0737   22.5277 C   0  0  0  0  0  0
  -21.4018   -6.5641   23.8210 C   0  0  0  0  0  0
  -21.3656   -5.6789   24.9171 C   0  0  0  0  0  0
  -21.6046   -4.3055   24.7223 C   0  0  0  0  0  0
  -21.8818   -3.8145   23.4345 C   0  0  0  0  0  0
  -21.9190   -4.6965   22.3396 C   0  0  0  0  0  0
  -22.7851  -13.5252   21.1838 C   0  0  0  0  0  0
  -22.1659   -4.2149   21.0973 F   0  0  0  0  0  0
  -21.5617   -3.4535   25.7738 F   0  0  0  0  0  0
  -30.0141  -13.4089   20.4250 N   0  0  0  0  0  0
  -26.2990  -12.9324   20.3313 N   0  0  0  0  0  0
  -25.9313  -11.6483   20.5751 N   0  0  0  0  0  0
  -22.0469  -12.8273   22.0402 N   0  0  0  0  0  0
  -25.4267  -15.1881   20.4094 N   0  0  0  0  0  0
  -31.7769  -14.8195   20.1363 O   0  0  0  0  0  0
  -21.6631   -6.8884   21.4242 O   0  0  0  0  0  0
  -22.3548  -14.5553   20.6673 O   0  0  0  0  0  0
  -24.6255  -31.8600   23.2032 C   0  0  0  0  0  0
  -25.9102  -32.4781   23.8362 C   0  0  1  0  0  0
  -27.2278  -27.3254   20.1207 C   0  0  0  0  0  0
  -25.5918  -33.8580   24.2288 N   0  0  0  0  0  0
  -23.4198  -30.4819   21.5453 C   0  0  2  0  0  0
  -24.8686  -28.9366   20.1138 C   0  0  0  0  0  0
  -22.7476  -29.4611   22.4945 C   0  0  0  0  0  0
  -18.0285  -28.1382   22.8485 C   0  0  0  0  0  0
  -24.1486  -36.7296   23.2634 C   0  0  0  0  0  0
  -25.9603  -30.7926   21.3742 C   0  0  0  0  0  0
  -26.0365  -29.4192   20.7193 C   0  0  0  0  0  0
  -27.2212  -28.6245   20.7137 C   0  0  0  0  0  0
  -26.0428  -26.8993   19.4816 C   0  0  0  0  0  0
  -24.8729  -27.6815   19.4862 C   0  0  0  0  0  0
  -23.6358  -29.8151   20.1613 C   0  0  0  0  0  0
  -25.4107  -36.3082   24.0330 C   0  0  1  0  0  0
  -20.5883  -28.3679   23.1289 C   0  0  2  0  0  0
  -20.6771  -26.9402   22.5413 C   0  0  0  0  0  0
  -19.5748  -26.6379   21.5211 C   0  0  0  0  0  0
  -18.1928  -26.7927   22.1621 C   0  0  0  0  0  0
  -19.1535  -28.8850   23.2882 C   0  0  0  0  0  0
  -18.9461  -30.1453   23.8898 C   0  0  0  0  0  0
  -17.6457  -30.6584   24.0561 C   0  0  0  0  0  0
  -25.9046  -34.9453   23.5109 C   0  0  0  0  0  0
  -16.5350  -29.9082   23.6324 C   0  0  0  0  0  0
  -16.7272  -28.6499   23.0350 C   0  0  0  0  0  0
  -26.4490  -31.6592   25.0731 C   0  0  0  0  0  0
  -25.3730  -31.3735   26.1466 C   0  0  0  0  0  0
  -27.0323  -30.3015   24.6175 C   0  0  0  0  0  0
  -27.6058  -32.4324   25.7494 C   0  0  0  0  0  0
  -27.5579  -37.1794   24.8455 C   0  0  0  0  0  0
  -21.4189  -29.3036   22.3692 N   0  0  0  0  0  0
  -26.4283  -37.3778   23.9413 N   0  0  0  0  0  0
  -24.6872  -31.0612   22.0981 N   0  0  0  0  0  0
  -23.4200  -28.8148   23.3016 O   0  0  0  0  0  0
  -28.3408  -26.4748   20.1402 O   0  0  0  0  0  0
  -26.5612  -34.8916   22.4677 O   0  0  0  0  0  0
  -23.5419  -32.1395   23.7358 O   0  0  0  0  0  0
  -28.9406  -19.1762   19.5068 C   0  0  0  0  0  0
  -28.9524  -17.7619   19.6785 C   0  0  0  0  0  0
  -30.7146  -17.9682   21.2986 C   0  0  0  0  0  0
  -29.8109  -20.0361   20.2270 C   0  0  0  0  0  0
  -30.6924  -19.3966   21.1592 C   0  0  0  0  0  0
  -29.8589  -17.1155   20.5574 C   0  0  0  0  0  0
  -29.1064  -23.9790   20.0677 C   0  0  0  0  0  0
  -27.9385  -22.2130   21.3588 C   0  0  0  0  0  0
  -29.8942  -21.5746   19.8634 C   0  0  0  0  0  0
  -28.1108  -25.0841   20.6093 C   0  0  0  0  0  0
  -31.6503  -20.2230   22.0155 C   0  0  0  0  0  0
  -29.7604  -15.6770   20.7863 N   0  0  0  0  0  0
  -28.9837  -22.6439   20.4264 N   0  0  0  0  0  0
  -30.0006  -24.3445   19.2972 O   0  0  0  0  0  0
  -32.1439  -19.5140   23.0314 F   0  0  0  0  0  0
  -32.6722  -20.6439   21.2712 F   0  0  0  0  0  0
  -31.0275  -21.2819   22.5347 F   0  0  0  0  0  0
  -31.4825  -12.5321   19.1397 H   0  0  0  0  0  0
  -30.3886  -11.3968   19.8835 H   0  0  0  0  0  0
  -29.7712  -11.7564   17.4732 H   0  0  0  0  0  0
  -29.6479  -13.4759   17.7388 H   0  0  0  0  0  0
  -27.8704  -11.2888   18.8653 H   0  0  0  0  0  0
  -27.3758  -12.5745   17.7938 H   0  0  0  0  0  0
  -27.6714  -14.2457   19.5205 H   0  0  0  0  0  0
  -28.7127  -12.0364   21.3667 H   0  0  0  0  0  0
  -28.4470  -13.6877   21.8471 H   0  0  0  0  0  0
  -25.2749   -9.5673   22.4761 H   0  0  0  0  0  0
  -23.9984   -7.4636   22.7480 H   0  0  0  0  0  0
  -21.0818   -8.8793   19.8970 H   0  0  0  0  0  0
  -22.3691  -10.9678   19.6182 H   0  0  0  0  0  0
  -21.2020   -7.6151   23.9717 H   0  0  0  0  0  0
  -21.1473   -6.0517   25.9072 H   0  0  0  0  0  0
  -22.0597   -2.7609   23.2845 H   0  0  0  0  0  0
  -22.4059  -11.9948   22.4829 H   0  0  0  0  0  0
  -21.1097  -13.1336   22.2589 H   0  0  0  0  0  0
  -24.6554  -15.8378   20.5175 H   0  0  0  0  0  0
  -26.2684  -15.6310   20.0645 H   0  0  0  0  0  0
  -26.7170  -32.5455   23.1114 H   0  0  0  0  0  0
  -25.0070  -33.9729   25.0435 H   0  0  0  0  0  0
  -22.7129  -31.3017   21.4009 H   0  0  0  0  0  0
  -23.3749  -35.9625   23.3286 H   0  0  0  0  0  0
  -24.3587  -36.8930   22.2052 H   0  0  0  0  0  0
  -23.7235  -37.6493   23.6667 H   0  0  0  0  0  0
  -26.0894  -31.5547   20.6042 H   0  0  0  0  0  0
  -26.8413  -30.8440   22.0025 H   0  0  0  0  0  0
  -28.1181  -28.9890   21.1944 H   0  0  0  0  0  0
  -26.0099  -25.9473   18.9714 H   0  0  0  0  0  0
  -23.9800  -27.3107   19.0011 H   0  0  0  0  0  0
  -23.7550  -30.5903   19.4035 H   0  0  0  0  0  0
  -22.7574  -29.2421   19.8583 H   0  0  0  0  0  0
  -25.1282  -36.1932   25.0819 H   0  0  0  0  0  0
  -20.9969  -28.3251   24.1411 H   0  0  0  0  0  0
  -20.5665  -26.2287   23.3610 H   0  0  0  0  0  0
  -21.6646  -26.7429   22.1214 H   0  0  0  0  0  0
  -19.6909  -25.6287   21.1247 H   0  0  0  0  0  0
  -19.6690  -27.3187   20.6738 H   0  0  0  0  0  0
  -17.4197  -26.6674   21.4024 H   0  0  0  0  0  0
  -18.0327  -26.0069   22.9015 H   0  0  0  0  0  0
  -19.7936  -30.7273   24.2270 H   0  0  0  0  0  0
  -17.5011  -31.6265   24.5160 H   0  0  0  0  0  0
  -15.5351  -30.2983   23.7647 H   0  0  0  0  0  0
  -15.8672  -28.0813   22.7070 H   0  0  0  0  0  0
  -24.5901  -30.7082   25.7808 H   0  0  0  0  0  0
  -24.8926  -32.2903   26.4893 H   0  0  0  0  0  0
  -25.8063  -30.8920   27.0241 H   0  0  0  0  0  0
  -26.2890  -29.6781   24.1192 H   0  0  0  0  0  0
  -27.4014  -29.7257   25.4671 H   0  0  0  0  0  0
  -27.8765  -30.4302   23.9398 H   0  0  0  0  0  0
  -27.2672  -33.3620   26.2081 H   0  0  0  0  0  0
  -28.3860  -32.6890   25.0315 H   0  0  0  0  0  0
  -28.0736  -31.8446   26.5403 H   0  0  0  0  0  0
  -28.2579  -38.0108   24.7531 H   0  0  0  0  0  0
  -28.1097  -36.2649   24.6238 H   0  0  0  0  0  0
  -27.2314  -37.1390   25.8859 H   0  0  0  0  0  0
  -20.9369  -29.8773   21.6917 H   0  0  0  0  0  0
  -26.0167  -38.2847   24.1439 H   0  0  0  0  0  0
  -28.2597  -19.6018   18.7826 H   0  0  0  0  0  0
  -28.2554  -17.1682   19.1036 H   0  0  0  0  0  0
  -31.3931  -17.5203   22.0092 H   0  0  0  0  0  0
  -26.9538  -22.3182   20.9020 H   0  0  0  0  0  0
  -27.9579  -22.8116   22.2700 H   0  0  0  0  0  0
  -28.0407  -21.1760   21.6729 H   0  0  0  0  0  0
  -29.7789  -21.6240   18.7794 H   0  0  0  0  0  0
  -30.9199  -21.9052   20.0274 H   0  0  0  0  0  0
  -28.1905  -25.1022   21.6962 H   0  0  0  0  0  0
  -27.1036  -24.7333   20.3925 H   0  0  0  0  0  0
  -28.8259  -15.3493   20.9768 H   0  0  0  0  0  0
  1 25  1  0  0  0
  1 30  2  0  0  0
  1 82  1  0  0  0
  2  3  1  0  0  0
  2 25  1  0  0  0
  2 88  1  0  0  0
  2 89  1  0  0  0
  3  4  1  0  0  0
  3 90  1  0  0  0
  3 91  1  0  0  0
  4  5  1  0  0  0
  4 92  1  0  0  0
  4 93  1  0  0  0
  5  6  1  0  0  0
  5 26  1  0  0  0
  5 94  1  0  0  0
  6 25  1  0  0  0
  6 95  1  0  0  0
  6 96  1  0  0  0
  7  8  2  0  0  0
  7 26  1  0  0  0
  7 29  1  0  0  0
  8  9  1  0  0  0
  8 22  1  0  0  0
  9 10  1  0  0  0
  9 27  2  0  0  0
 10 11  2  0  0  0
 10 15  1  0  0  0
 11 12  1  0  0  0
 11 97  1  0  0  0
 12 13  2  0  0  0
 12 98  1  0  0  0
 13 14  1  0  0  0
 13 31  1  0  0  0
 14 15  2  0  0  0
 14 99  1  0  0  0
 15100  1  0  0  0
 16 17  2  0  0  0
 16 21  1  0  0  0
 16 31  1  0  0  0
 17 18  1  0  0  0
 17101  1  0  0  0
 18 19  2  0  0  0
 18102  1  0  0  0
 19 20  1  0  0  0
 19 24  1  0  0  0
 20 21  2  0  0  0
 20103  1  0  0  0
 21 23  1  0  0  0
 22 28  1  0  0  0
 22 32  2  0  0  0
 26 27  1  0  0  0
 28104  1  0  0  0
 28105  1  0  0  0
 29106  1  0  0  0
 29107  1  0  0  0
 33 34  1  0  0  0
 33 66  1  0  0  0
 33 70  2  0  0  0
 34 36  1  0  0  0
 34 59  1  0  0  0
 34108  1  0  0  0
 35 44  2  0  0  0
 35 45  1  0  0  0
 35 68  1  0  0  0
 36 56  1  0  0  0
 36109  1  0  0  0
 37 39  1  0  0  0
 37 47  1  0  0  0
 37 66  1  0  0  0
 37110  1  0  0  0
 38 43  2  0  0  0
 38 46  1  0  0  0
 38 47  1  0  0  0
 39 64  1  0  0  0
 39 67  2  0  0  0
 40 52  1  0  0  0
 40 53  2  0  0  0
 40 58  1  0  0  0
 41111  1  0  0  0
 41112  1  0  0  0
 41113  1  0  0  0
 41 48  1  0  0  0
 42 43  1  0  0  0
 42 66  1  0  0  0
 42114  1  0  0  0
 42115  1  0  0  0
 43 44  1  0  0  0
 44116  1  0  0  0
 45 46  2  0  0  0
 45117  1  0  0  0
 46118  1  0  0  0
 47119  1  0  0  0
 47120  1  0  0  0
 48 56  1  0  0  0
 48 65  1  0  0  0
 48121  1  0  0  0
 49 50  1  0  0  0
 49 53  1  0  0  0
 49 64  1  0  0  0
 49122  1  0  0  0
 50 51  1  0  0  0
 50123  1  0  0  0
 50124  1  0  0  0
 51 52  1  0  0  0
 51125  1  0  0  0
 51126  1  0  0  0
 52127  1  0  0  0
 52128  1  0  0  0
 53 54  1  0  0  0
 54 55  2  0  0  0
 54129  1  0  0  0
 55 57  1  0  0  0
 55130  1  0  0  0
 56 69  2  0  0  0
 57 58  2  0  0  0
 57131  1  0  0  0
 58132  1  0  0  0
 59 60  1  0  0  0
 59 61  1  0  0  0
 59 62  1  0  0  0
 60133  1  0  0  0
 60134  1  0  0  0
 60135  1  0  0  0
 61136  1  0  0  0
 61137  1  0  0  0
 61138  1  0  0  0
 62139  1  0  0  0
 62140  1  0  0  0
 62141  1  0  0  0
 63 65  1  0  0  0
 63142  1  0  0  0
 63143  1  0  0  0
 63144  1  0  0  0
 64145  1  0  0  0
 65146  1  0  0  0
 68 80  1  0  0  0
 71 72  2  0  0  0
 71 74  1  0  0  0
 71147  1  0  0  0
 72 76  1  0  0  0
 72148  1  0  0  0
 73 75  1  0  0  0
 73 76  2  0  0  0
 73149  1  0  0  0
 74 75  2  0  0  0
 74 79  1  0  0  0
 75 81  1  0  0  0
 76 82  1  0  0  0
 77 80  1  0  0  0
 77 83  1  0  0  0
 77 84  2  0  0  0
 78 83  1  0  0  0
 78150  1  0  0  0
 78151  1  0  0  0
 78152  1  0  0  0
 79 83  1  0  0  0
 79153  1  0  0  0
 79154  1  0  0  0
 80155  1  0  0  0
 80156  1  0  0  0
 81 85  1  0  0  0
 81 86  1  0  0  0
 81 87  1  0  0  0
 82157  1  0  0  0
M  ISO  4   1 100  68 101  80 101  82 100
M  END
> <chiral flag>
0

> <version>
0

> <s_m_source_file>
/data/baiqing/PycharmProjects/Reinvent-master-3.2/result/LINK_invent/BTK/process_docking_weight1_custom_product_contain_oxygen_bond_distance_aromatic_linkinvent_7_9_3/rearranged_h_0050.sdf

> <i_m_source_file_index>
26

> <r_mmod_Potential_Energy-OPLS-2005>
133.811416625977

> <r_mmod_Stretch_Energy-OPLS-2005>
83.6171798706055

> <r_mmod_Bend_Energy-OPLS-2005>
133.660369873047

> <r_mmod_Torsional_Energy-OPLS-2005>
267.274322509766

> <r_mmod_Improper_Torsional_Energy-OPLS-2005>
6.51393365859985

> <r_mmod_Van_der_Waal_Energy-OPLS-2005>
148.013519287109

> <r_mmod_Electrostatic_Energy-OPLS-2005>
-318.032684326172

> <r_mmod_Solvation_Energy-OPLS-2005>
-235.478302001953

> <b_mmod_Minimization_Converged-OPLS-2005>
0

> <r_mmod_RMS_Derivative-OPLS-2005>
1.34651350975037

$$$$
26
                    3D
 Structure written by MMmdl.
154162  0  0  1  0            999 V2000
  -30.6050  -14.6690   20.4916 C   0  0  0  0  0  0
  -30.4341  -12.4043   19.4853 C   0  0  0  0  0  0
  -29.5219  -12.5110   18.2434 C   0  0  0  0  0  0
  -28.0397  -12.3532   18.6414 C   0  0  0  0  0  0
  -27.6504  -13.2228   19.8668 C   0  0  2  0  0  0
  -28.6849  -13.0992   21.0074 C   0  0  0  0  0  0
  -25.2517  -13.8185   20.5695 C   0  0  0  0  0  0
  -24.1789  -13.0448   20.9201 C   0  0  0  0  0  0
  -24.6363  -11.6918   20.8735 C   0  0  0  0  0  0
  -23.9038  -10.4289   21.0411 C   0  0  0  0  0  0
  -24.3593   -9.4213   21.9202 C   0  0  0  0  0  0
  -23.6275   -8.2241   22.0762 C   0  0  0  0  0  0
  -22.4260   -8.0275   21.3548 C   0  0  0  0  0  0
  -21.9886   -9.0241   20.4658 C   0  0  0  0  0  0
  -22.7199  -10.2128   20.3073 C   0  0  0  0  0  0
  -21.6856   -6.0723   22.5273 C   0  0  0  0  0  0
  -21.4013   -6.5628   23.8205 C   0  0  0  0  0  0
  -21.3662   -5.6781   24.9176 C   0  0  0  0  0  0
  -21.6057   -4.3042   24.7223 C   0  0  0  0  0  0
  -21.8811   -3.8136   23.4338 C   0  0  0  0  0  0
  -21.9191   -4.6955   22.3399 C   0  0  0  0  0  0
  -22.7819  -13.5262   21.1858 C   0  0  0  0  0  0
  -22.1671   -4.2143   21.0978 F   0  0  0  0  0  0
  -21.5629   -3.4528   25.7733 F   0  0  0  0  0  0
  -30.0027  -13.4382   20.4523 N   0  0  0  0  0  0
  -26.2954  -12.9385   20.3314 N   0  0  0  0  0  0
  -25.9297  -11.6537   20.5737 N   0  0  0  0  0  0
  -22.0454  -12.8275   22.0427 N   0  0  0  0  0  0
  -25.4192  -15.1911   20.4099 N   0  0  0  0  0  0
  -31.7578  -14.8215   20.0741 O   0  0  0  0  0  0
  -21.6636   -6.8863   21.4234 O   0  0  0  0  0  0
  -22.3521  -14.5566   20.6689 O   0  0  0  0  0  0
  -24.6283  -31.8613   23.2068 C   0  0  0  0  0  0
  -25.9133  -32.4783   23.8380 C   0  0  1  0  0  0
  -27.2073  -27.3053   20.1124 C   0  0  0  0  0  0
  -25.5958  -33.8589   24.2309 N   0  0  0  0  0  0
  -23.4199  -30.4909   21.5519 C   0  0  2  0  0  0
  -24.8625  -28.9493   20.1127 C   0  0  0  0  0  0
  -22.7499  -29.4640   22.4940 C   0  0  0  0  0  0
  -18.0289  -28.1295   22.8592 C   0  0  0  0  0  0
  -24.1484  -36.7274   23.2628 C   0  0  0  0  0  0
  -25.9648  -30.7855   21.3833 C   0  0  0  0  0  0
  -26.0343  -29.4160   20.7187 C   0  0  0  0  0  0
  -27.2107  -28.6060   20.7076 C   0  0  0  0  0  0
  -26.0091  -26.9013   19.4759 C   0  0  0  0  0  0
  -24.8530  -27.6980   19.4823 C   0  0  0  0  0  0
  -23.6348  -29.8364   20.1648 C   0  0  0  0  0  0
  -25.4113  -36.3086   24.0332 C   0  0  1  0  0  0
  -20.5909  -28.3613   23.1180 C   0  0  2  0  0  0
  -20.6843  -26.9457   22.5005 C   0  0  0  0  0  0
  -19.5567  -26.6316   21.5126 C   0  0  0  0  0  0
  -18.1932  -26.7747   22.1944 C   0  0  0  0  0  0
  -19.1560  -28.8797   23.2864 C   0  0  0  0  0  0
  -18.9517  -30.1425   23.8832 C   0  0  0  0  0  0
  -17.6524  -30.6575   24.0505 C   0  0  0  0  0  0
  -25.9064  -34.9457   23.5115 C   0  0  0  0  0  0
  -16.5395  -29.9054   23.6354 C   0  0  0  0  0  0
  -16.7283  -28.6434   23.0435 C   0  0  0  0  0  0
  -26.4499  -31.6599   25.0757 C   0  0  0  0  0  0
  -25.3706  -31.3746   26.1469 C   0  0  0  0  0  0
  -27.0342  -30.3020   24.6230 C   0  0  0  0  0  0
  -27.6075  -32.4325   25.7515 C   0  0  0  0  0  0
  -27.5583  -37.1804   24.8468 C   0  0  0  0  0  0
  -21.4206  -29.3104   22.3742 N   0  0  0  0  0  0
  -26.4305  -37.3790   23.9397 N   0  0  0  0  0  0
  -24.6898  -31.0614   22.1044 N   0  0  0  0  0  0
  -23.4234  -28.8123   23.2956 O   0  0  0  0  0  0
  -28.3063  -26.4276   20.1709 O   0  0  0  0  0  0
  -26.5608  -34.8923   22.4672 O   0  0  0  0  0  0
  -23.5445  -32.1406   23.7384 O   0  0  0  0  0  0
  -28.9339  -18.0634   18.0563 C   0  0  0  0  0  0
  -29.2392  -16.9131   18.8055 C   0  0  0  0  0  0
  -29.6461  -18.3231   20.7411 C   0  0  0  0  0  0
  -29.0080  -19.3605   18.6149 C   0  0  0  0  0  0
  -29.6232  -16.9994   20.1596 C   0  0  0  0  0  0
  -29.3544  -19.5238   19.9858 C   0  0  0  0  0  0
  -28.7345  -20.5317   17.6871 C   0  0  0  0  0  0
  -29.1181  -23.8719   20.3919 C   0  0  0  0  0  0
  -28.0440  -24.9740   19.9751 C   0  0  0  0  0  0
  -28.7258  -22.4402   20.0829 N   0  0  0  0  0  0
  -29.8447  -15.7452   20.8869 N   0  0  0  0  0  0
  -29.4258  -21.0311   22.2085 O   0  0  0  0  0  0
  -31.1078  -21.6345   20.5397 F   0  0  0  0  0  0
  -29.5621  -21.2370   20.7543 S   0  0  1  0  0  0
  -31.4808  -12.5183   19.1997 H   0  0  0  0  0  0
  -30.3585  -11.4139   19.9354 H   0  0  0  0  0  0
  -29.7966  -11.7553   17.5060 H   0  0  0  0  0  0
  -29.6733  -13.4768   17.7590 H   0  0  0  0  0  0
  -27.8764  -11.2994   18.8696 H   0  0  0  0  0  0
  -27.3934  -12.5855   17.7938 H   0  0  0  0  0  0
  -27.6634  -14.2567   19.5228 H   0  0  0  0  0  0
  -28.6938  -12.0880   21.4155 H   0  0  0  0  0  0
  -28.4191  -13.7543   21.8379 H   0  0  0  0  0  0
  -25.2731   -9.5711   22.4791 H   0  0  0  0  0  0
  -23.9987   -7.4632   22.7485 H   0  0  0  0  0  0
  -21.0815   -8.8744   19.8973 H   0  0  0  0  0  0
  -22.3638  -10.9667   19.6187 H   0  0  0  0  0  0
  -21.2013   -7.6138   23.9712 H   0  0  0  0  0  0
  -21.1508   -6.0513   25.9078 H   0  0  0  0  0  0
  -22.0591   -2.7602   23.2830 H   0  0  0  0  0  0
  -22.4038  -11.9936   22.4839 H   0  0  0  0  0  0
  -21.1083  -13.1337   22.2626 H   0  0  0  0  0  0
  -24.6358  -15.8309   20.4887 H   0  0  0  0  0  0
  -26.2569  -15.6342   20.0509 H   0  0  0  0  0  0
  -26.7206  -32.5450   23.1119 H   0  0  0  0  0  0
  -25.0173  -33.9738   25.0505 H   0  0  0  0  0  0
  -22.7114  -31.3110   21.4162 H   0  0  0  0  0  0
  -23.3769  -35.9585   23.3300 H   0  0  0  0  0  0
  -24.3573  -36.8873   22.2040 H   0  0  0  0  0  0
  -23.7226  -37.6466   23.6646 H   0  0  0  0  0  0
  -26.1079  -31.5561   20.6251 H   0  0  0  0  0  0
  -26.8418  -30.8218   22.0185 H   0  0  0  0  0  0
  -28.1101  -28.9575   21.1932 H   0  0  0  0  0  0
  -25.9314  -25.9496   18.9715 H   0  0  0  0  0  0
  -23.9538  -27.3357   19.0047 H   0  0  0  0  0  0
  -23.7635  -30.6177   19.4152 H   0  0  0  0  0  0
  -22.7525  -29.2733   19.8562 H   0  0  0  0  0  0
  -25.1296  -36.1937   25.0830 H   0  0  0  0  0  0
  -20.9983  -28.2927   24.1289 H   0  0  0  0  0  0
  -20.6285  -26.2136   23.3067 H   0  0  0  0  0  0
  -21.6561  -26.7808   22.0344 H   0  0  0  0  0  0
  -19.6715  -25.6235   21.1151 H   0  0  0  0  0  0
  -19.6159  -27.3110   20.6615 H   0  0  0  0  0  0
  -17.3954  -26.6104   21.4684 H   0  0  0  0  0  0
  -18.0795  -26.0037   22.9592 H   0  0  0  0  0  0
  -19.8013  -30.7257   24.2124 H   0  0  0  0  0  0
  -17.5103  -31.6287   24.5034 H   0  0  0  0  0  0
  -15.5392  -30.2977   23.7675 H   0  0  0  0  0  0
  -15.8663  -28.0708   22.7259 H   0  0  0  0  0  0
  -24.5890  -30.7094   25.7773 H   0  0  0  0  0  0
  -24.8881  -32.2907   26.4878 H   0  0  0  0  0  0
  -25.7999  -30.8917   27.0256 H   0  0  0  0  0  0
  -26.2933  -29.6772   24.1232 H   0  0  0  0  0  0
  -27.3986  -29.7280   25.4751 H   0  0  0  0  0  0
  -27.8821  -30.4272   23.9505 H   0  0  0  0  0  0
  -27.2721  -33.3642   26.2082 H   0  0  0  0  0  0
  -28.3892  -32.6858   25.0343 H   0  0  0  0  0  0
  -28.0733  -31.8450   26.5426 H   0  0  0  0  0  0
  -28.2617  -38.0091   24.7524 H   0  0  0  0  0  0
  -28.1080  -36.2627   24.6307 H   0  0  0  0  0  0
  -27.2300  -37.1459   25.8875 H   0  0  0  0  0  0
  -20.9356  -29.8987   21.7120 H   0  0  0  0  0  0
  -26.0177  -38.2855   24.1422 H   0  0  0  0  0  0
  -28.6463  -17.9397   17.0202 H   0  0  0  0  0  0
  -29.1560  -15.9493   18.3216 H   0  0  0  0  0  0
  -29.9119  -18.4359   21.7815 H   0  0  0  0  0  0
  -28.6650  -20.2052   16.6486 H   0  0  0  0  0  0
  -29.5434  -21.2621   17.7303 H   0  0  0  0  0  0
  -27.7924  -21.0185   17.9357 H   0  0  0  0  0  0
  -29.3285  -23.9952   21.4554 H   0  0  0  0  0  0
  -30.0512  -24.1246   19.8880 H   0  0  0  0  0  0
  -27.1290  -24.7191   20.5140 H   0  0  0  0  0  0
  -27.8319  -24.8286   18.9158 H   0  0  0  0  0  0
  -29.0666  -15.4804   21.4723 H   0  0  0  0  0  0
  1 25  1  0  0  0
  1 30  2  0  0  0
  1 81  1  0  0  0
  2  3  1  0  0  0
  2 25  1  0  0  0
  2 85  1  0  0  0
  2 86  1  0  0  0
  3  4  1  0  0  0
  3 87  1  0  0  0
  3 88  1  0  0  0
  4  5  1  0  0  0
  4 89  1  0  0  0
  4 90  1  0  0  0
  5  6  1  0  0  0
  5 26  1  0  0  0
  5 91  1  0  0  0
  6 25  1  0  0  0
  6 92  1  0  0  0
  6 93  1  0  0  0
  7  8  2  0  0  0
  7 26  1  0  0  0
  7 29  1  0  0  0
  8  9  1  0  0  0
  8 22  1  0  0  0
  9 10  1  0  0  0
  9 27  2  0  0  0
 10 11  2  0  0  0
 10 15  1  0  0  0
 11 12  1  0  0  0
 11 94  1  0  0  0
 12 13  2  0  0  0
 12 95  1  0  0  0
 13 14  1  0  0  0
 13 31  1  0  0  0
 14 15  2  0  0  0
 14 96  1  0  0  0
 15 97  1  0  0  0
 16 17  2  0  0  0
 16 21  1  0  0  0
 16 31  1  0  0  0
 17 18  1  0  0  0
 17 98  1  0  0  0
 18 19  2  0  0  0
 18 99  1  0  0  0
 19 20  1  0  0  0
 19 24  1  0  0  0
 20 21  2  0  0  0
 20100  1  0  0  0
 21 23  1  0  0  0
 22 28  1  0  0  0
 22 32  2  0  0  0
 26 27  1  0  0  0
 28101  1  0  0  0
 28102  1  0  0  0
 29103  1  0  0  0
 29104  1  0  0  0
 33 34  1  0  0  0
 33 66  1  0  0  0
 33 70  2  0  0  0
 34 36  1  0  0  0
 34 59  1  0  0  0
 34105  1  0  0  0
 35 44  2  0  0  0
 35 45  1  0  0  0
 35 68  1  0  0  0
 36 56  1  0  0  0
 36106  1  0  0  0
 37 39  1  0  0  0
 37 47  1  0  0  0
 37 66  1  0  0  0
 37107  1  0  0  0
 38 43  2  0  0  0
 38 46  1  0  0  0
 38 47  1  0  0  0
 39 64  1  0  0  0
 39 67  2  0  0  0
 40 52  1  0  0  0
 40 53  2  0  0  0
 40 58  1  0  0  0
 41108  1  0  0  0
 41109  1  0  0  0
 41110  1  0  0  0
 41 48  1  0  0  0
 42 43  1  0  0  0
 42 66  1  0  0  0
 42111  1  0  0  0
 42112  1  0  0  0
 43 44  1  0  0  0
 44113  1  0  0  0
 45 46  2  0  0  0
 45114  1  0  0  0
 46115  1  0  0  0
 47116  1  0  0  0
 47117  1  0  0  0
 48 56  1  0  0  0
 48 65  1  0  0  0
 48118  1  0  0  0
 49 50  1  0  0  0
 49 53  1  0  0  0
 49 64  1  0  0  0
 49119  1  0  0  0
 50 51  1  0  0  0
 50120  1  0  0  0
 50121  1  0  0  0
 51 52  1  0  0  0
 51122  1  0  0  0
 51123  1  0  0  0
 52124  1  0  0  0
 52125  1  0  0  0
 53 54  1  0  0  0
 54 55  2  0  0  0
 54126  1  0  0  0
 55 57  1  0  0  0
 55127  1  0  0  0
 56 69  2  0  0  0
 57 58  2  0  0  0
 57128  1  0  0  0
 58129  1  0  0  0
 59 60  1  0  0  0
 59 61  1  0  0  0
 59 62  1  0  0  0
 60130  1  0  0  0
 60131  1  0  0  0
 60132  1  0  0  0
 61133  1  0  0  0
 61134  1  0  0  0
 61135  1  0  0  0
 62136  1  0  0  0
 62137  1  0  0  0
 62138  1  0  0  0
 63 65  1  0  0  0
 63139  1  0  0  0
 63140  1  0  0  0
 63141  1  0  0  0
 64142  1  0  0  0
 65143  1  0  0  0
 68 79  1  0  0  0
 71 72  2  0  0  0
 71 74  1  0  0  0
 71144  1  0  0  0
 72 75  1  0  0  0
 72145  1  0  0  0
 73 75  2  0  0  0
 73 76  1  0  0  0
 73146  1  0  0  0
 74 76  2  0  0  0
 74 77  1  0  0  0
 75 81  1  0  0  0
 76 84  1  0  0  0
 77147  1  0  0  0
 77148  1  0  0  0
 77149  1  0  0  0
 78 79  1  0  0  0
 78 80  1  0  0  0
 78150  1  0  0  0
 78151  1  0  0  0
 79152  1  0  0  0
 79153  1  0  0  0
 80 84  2  0  0  0
 81154  1  0  0  0
 82 84  2  0  0  0
 83 84  1  0  0  0
M  ISO  4   1 100  68 101  79 101  81 100
M  END
> <chiral flag>
0

> <version>
0

> <s_m_source_file>
/data/baiqing/PycharmProjects/Reinvent-master-3.2/result/LINK_invent/BTK/process_docking_weight1_custom_product_contain_oxygen_bond_distance_aromatic_linkinvent_7_9_3/rearranged_h_0050.sdf

> <i_m_source_file_index>
27

> <r_mmod_Potential_Energy-OPLS-2005>
109.741180419922

> <r_mmod_Stretch_Energy-OPLS-2005>
92.3004760742188

> <r_mmod_Bend_Energy-OPLS-2005>
140.11540222168

> <r_mmod_Torsional_Energy-OPLS-2005>
245.797805786133

> <r_mmod_Improper_Torsional_Energy-OPLS-2005>
6.08782386779785

> <r_mmod_Van_der_Waal_Energy-OPLS-2005>
140.765289306641

> <r_mmod_Electrostatic_Energy-OPLS-2005>
-344.41015625

> <r_mmod_Solvation_Energy-OPLS-2005>
-230.505249023438

> <b_mmod_Minimization_Converged-OPLS-2005>
0

> <r_mmod_RMS_Derivative-OPLS-2005>
3.55566048622131

$$$$
27
                    3D
 Structure written by MMmdl.
164173  0  0  1  0            999 V2000
  -30.6557  -14.6620   20.5240 C   0  0  0  0  0  0
  -30.4343  -12.4155   19.4420 C   0  0  0  0  0  0
  -29.5064  -12.5106   18.2144 C   0  0  0  0  0  0
  -28.0292  -12.3513   18.6307 C   0  0  0  0  0  0
  -27.6504  -13.2257   19.8555 C   0  0  2  0  0  0
  -28.7016  -13.1151   20.9796 C   0  0  0  0  0  0
  -25.2518  -13.8152   20.5664 C   0  0  0  0  0  0
  -24.1799  -13.0395   20.9175 C   0  0  0  0  0  0
  -24.6364  -11.6878   20.8654 C   0  0  0  0  0  0
  -23.9002  -10.4263   21.0324 C   0  0  0  0  0  0
  -24.3553   -9.4205   21.9136 C   0  0  0  0  0  0
  -23.6262   -8.2211   22.0715 C   0  0  0  0  0  0
  -22.4239   -8.0212   21.3507 C   0  0  0  0  0  0
  -21.9850   -9.0185   20.4617 C   0  0  0  0  0  0
  -22.7141  -10.2083   20.3016 C   0  0  0  0  0  0
  -21.6863   -6.0663   22.5246 C   0  0  0  0  0  0
  -21.4038   -6.5600   23.8175 C   0  0  0  0  0  0
  -21.3664   -5.6754   24.9140 C   0  0  0  0  0  0
  -21.6049   -4.3016   24.7204 C   0  0  0  0  0  0
  -21.8826   -3.8096   23.4341 C   0  0  0  0  0  0
  -21.9210   -4.6897   22.3380 C   0  0  0  0  0  0
  -22.7822  -13.5171   21.1873 C   0  0  0  0  0  0
  -22.1663   -4.2077   21.0954 F   0  0  0  0  0  0
  -21.5634   -3.4510   25.7739 F   0  0  0  0  0  0
  -30.0073  -13.4577   20.4002 N   0  0  0  0  0  0
  -26.2976  -12.9369   20.3271 N   0  0  0  0  0  0
  -25.9318  -11.6497   20.5702 N   0  0  0  0  0  0
  -22.0480  -12.8167   22.0435 N   0  0  0  0  0  0
  -25.4204  -15.1865   20.4086 N   0  0  0  0  0  0
  -31.8468  -14.7760   20.2262 O   0  0  0  0  0  0
  -21.6624   -6.8795   21.4202 O   0  0  0  0  0  0
  -22.3484  -14.5490   20.6739 O   0  0  0  0  0  0
  -24.6270  -31.8577   23.2042 C   0  0  0  0  0  0
  -25.9119  -32.4766   23.8385 C   0  0  1  0  0  0
  -27.2260  -27.2969   20.1200 C   0  0  0  0  0  0
  -25.5931  -33.8566   24.2302 N   0  0  0  0  0  0
  -23.4228  -30.4823   21.5463 C   0  0  2  0  0  0
  -24.8719  -28.9382   20.1185 C   0  0  0  0  0  0
  -22.7476  -29.4597   22.4931 C   0  0  0  0  0  0
  -18.0277  -28.1360   22.8478 C   0  0  0  0  0  0
  -24.1502  -36.7274   23.2643 C   0  0  0  0  0  0
  -25.9680  -30.7857   21.3787 C   0  0  0  0  0  0
  -26.0433  -29.4126   20.7172 C   0  0  0  0  0  0
  -27.2230  -28.6056   20.7064 C   0  0  0  0  0  0
  -26.0151  -26.8773   19.5152 C   0  0  0  0  0  0
  -24.8585  -27.6756   19.5150 C   0  0  0  0  0  0
  -23.6410  -29.8177   20.1635 C   0  0  0  0  0  0
  -25.4111  -36.3059   24.0329 C   0  0  1  0  0  0
  -20.5883  -28.3663   23.1287 C   0  0  2  0  0  0
  -20.6778  -26.9390   22.5407 C   0  0  0  0  0  0
  -19.5757  -26.6362   21.5207 C   0  0  0  0  0  0
  -18.1928  -26.7909   22.1605 C   0  0  0  0  0  0
  -19.1531  -28.8827   23.2875 C   0  0  0  0  0  0
  -18.9445  -30.1429   23.8893 C   0  0  0  0  0  0
  -17.6449  -30.6574   24.0527 C   0  0  0  0  0  0
  -25.9035  -34.9432   23.5093 C   0  0  0  0  0  0
  -16.5338  -29.9055   23.6333 C   0  0  0  0  0  0
  -16.7264  -28.6464   23.0367 C   0  0  0  0  0  0
  -26.4521  -31.6568   25.0750 C   0  0  0  0  0  0
  -25.3786  -31.3721   26.1511 C   0  0  0  0  0  0
  -27.0317  -30.2975   24.6191 C   0  0  0  0  0  0
  -27.6057  -32.4321   25.7509 C   0  0  0  0  0  0
  -27.5586  -37.1782   24.8446 C   0  0  0  0  0  0
  -21.4195  -29.3019   22.3678 N   0  0  0  0  0  0
  -26.4285  -37.3758   23.9404 N   0  0  0  0  0  0
  -24.6912  -31.0577   22.1000 N   0  0  0  0  0  0
  -23.4197  -28.8110   23.2995 O   0  0  0  0  0  0
  -28.3552  -26.4524   20.1653 O   0  0  0  0  0  0
  -26.5566  -34.8894   22.4642 O   0  0  0  0  0  0
  -23.5433  -32.1361   23.7374 O   0  0  0  0  0  0
  -31.1927  -18.5679   22.8667 C   0  0  0  0  0  0
  -31.0622  -17.3112   22.2478 C   0  0  0  0  0  0
  -29.5354  -18.3193   20.6533 C   0  0  0  0  0  0
  -30.4828  -19.7078   22.4176 C   0  0  0  0  0  0
  -29.6887  -19.6378   21.2324 C   0  0  0  0  0  0
  -30.1853  -17.1321   21.1570 C   0  0  0  0  0  0
  -30.2283  -23.1001   19.9977 C   0  0  0  0  0  0
  -31.5255  -22.7643   19.8678 C   0  0  0  0  0  0
  -29.5791  -24.3205   19.2738 C   0  0  0  0  0  0
  -27.5021  -24.0559   20.7574 C   0  0  0  0  0  0
  -28.3940  -23.1923   21.6865 C   0  0  0  0  0  0
  -28.2650  -25.0082   19.7941 C   0  0  1  0  0  0
  -30.5494  -20.9393   23.3119 C   0  0  0  0  0  0
  -28.9324  -20.8941   20.6122 C   0  0  0  0  0  0
  -29.8641  -15.7740   20.7077 N   0  0  0  0  0  0
  -29.3706  -22.3158   20.9679 N   0  3  1  0  0  0
  -31.4771  -12.5353   19.1372 H   0  0  0  0  0  0
  -30.3609  -11.4233   19.8933 H   0  0  0  0  0  0
  -29.7659  -11.7444   17.4814 H   0  0  0  0  0  0
  -29.6500  -13.4721   17.7206 H   0  0  0  0  0  0
  -27.8588  -11.3019   18.8697 H   0  0  0  0  0  0
  -27.3727  -12.5789   17.7897 H   0  0  0  0  0  0
  -27.6635  -14.2554   19.4986 H   0  0  0  0  0  0
  -28.7280  -12.1070   21.3911 H   0  0  0  0  0  0
  -28.4547  -13.7761   21.8141 H   0  0  0  0  0  0
  -25.2691   -9.5741   22.4701 H   0  0  0  0  0  0
  -23.9983   -7.4622   22.7446 H   0  0  0  0  0  0
  -21.0760   -8.8655   19.8969 H   0  0  0  0  0  0
  -22.3512  -10.9584   19.6122 H   0  0  0  0  0  0
  -21.2032   -7.6111   23.9653 H   0  0  0  0  0  0
  -21.1498   -6.0483   25.9034 H   0  0  0  0  0  0
  -22.0627   -2.7557   23.2842 H   0  0  0  0  0  0
  -22.4093  -11.9797   22.4793 H   0  0  0  0  0  0
  -21.1126  -13.1241   22.2695 H   0  0  0  0  0  0
  -24.6515  -15.8402   20.5175 H   0  0  0  0  0  0
  -26.2571  -15.6247   20.0499 H   0  0  0  0  0  0
  -26.7159  -32.5435   23.1113 H   0  0  0  0  0  0
  -25.0194  -33.9711   25.0526 H   0  0  0  0  0  0
  -22.7181  -31.3044   21.4008 H   0  0  0  0  0  0
  -23.3759  -35.9615   23.3290 H   0  0  0  0  0  0
  -24.3627  -36.8900   22.2067 H   0  0  0  0  0  0
  -23.7289  -37.6485   23.6655 H   0  0  0  0  0  0
  -26.1083  -31.5566   20.6196 H   0  0  0  0  0  0
  -26.8447  -30.8289   22.0137 H   0  0  0  0  0  0
  -28.1241  -28.9669   21.1834 H   0  0  0  0  0  0
  -25.9034  -25.9096   19.0557 H   0  0  0  0  0  0
  -23.9512  -27.2964   19.0662 H   0  0  0  0  0  0
  -23.7667  -30.5921   19.4062 H   0  0  0  0  0  0
  -22.7633  -29.2466   19.8560 H   0  0  0  0  0  0
  -25.1302  -36.1895   25.0830 H   0  0  0  0  0  0
  -20.9965  -28.3234   24.1413 H   0  0  0  0  0  0
  -20.5707  -26.2248   23.3594 H   0  0  0  0  0  0
  -21.6644  -26.7447   22.1195 H   0  0  0  0  0  0
  -19.6930  -25.6276   21.1233 H   0  0  0  0  0  0
  -19.6723  -27.3167   20.6734 H   0  0  0  0  0  0
  -17.4216  -26.6667   21.3984 H   0  0  0  0  0  0
  -18.0317  -26.0051   22.9003 H   0  0  0  0  0  0
  -19.7922  -30.7227   24.2298 H   0  0  0  0  0  0
  -17.5004  -31.6269   24.5089 H   0  0  0  0  0  0
  -15.5340  -30.2934   23.7682 H   0  0  0  0  0  0
  -15.8659  -28.0757   22.7124 H   0  0  0  0  0  0
  -24.5931  -30.7078   25.7899 H   0  0  0  0  0  0
  -24.9025  -32.2894   26.4978 H   0  0  0  0  0  0
  -25.8191  -30.8911   27.0255 H   0  0  0  0  0  0
  -26.2854  -29.6767   24.1224 H   0  0  0  0  0  0
  -27.3991  -29.7213   25.4688 H   0  0  0  0  0  0
  -27.8754  -30.4227   23.9407 H   0  0  0  0  0  0
  -27.2629  -33.3617   26.2066 H   0  0  0  0  0  0
  -28.3880  -32.6899   25.0355 H   0  0  0  0  0  0
  -28.0700  -31.8474   26.5460 H   0  0  0  0  0  0
  -28.2545  -38.0132   24.7510 H   0  0  0  0  0  0
  -28.1126  -36.2644   24.6214 H   0  0  0  0  0  0
  -27.2294  -37.1383   25.8849 H   0  0  0  0  0  0
  -20.9354  -29.8732   21.6891 H   0  0  0  0  0  0
  -26.0146  -38.2815   24.1433 H   0  0  0  0  0  0
  -31.8152  -18.6361   23.7479 H   0  0  0  0  0  0
  -31.5850  -16.4695   22.6802 H   0  0  0  0  0  0
  -28.8718  -18.2086   19.8078 H   0  0  0  0  0  0
  -32.1885  -23.3271   19.2241 H   0  0  0  0  0  0
  -31.9606  -21.9301   20.4006 H   0  0  0  0  0  0
  -29.3623  -23.9345   18.2749 H   0  0  0  0  0  0
  -30.3414  -25.0827   19.1029 H   0  0  0  0  0  0
  -26.7870  -24.6229   21.3548 H   0  0  0  0  0  0
  -26.8963  -23.3626   20.1713 H   0  0  0  0  0  0
  -27.7837  -22.6092   22.3764 H   0  0  0  0  0  0
  -28.9724  -23.8729   22.3146 H   0  0  0  0  0  0
  -27.6869  -25.0166   18.8729 H   0  0  0  0  0  0
  -31.1158  -20.7411   24.2231 H   0  0  0  0  0  0
  -29.5480  -21.2201   23.6416 H   0  0  0  0  0  0
  -31.0374  -21.7854   22.8336 H   0  0  0  0  0  0
  -27.8731  -20.7814   20.8476 H   0  0  0  0  0  0
  -28.9887  -20.7964   19.5261 H   0  0  0  0  0  0
  -28.8795  -15.5844   20.6180 H   0  0  0  0  0  0
  -29.9918  -22.0722   21.7261 H   0  0  0  0  0  0
  1 25  1  0  0  0
  1 30  2  0  0  0
  1 85  1  0  0  0
  2  3  1  0  0  0
  2 25  1  0  0  0
  2 87  1  0  0  0
  2 88  1  0  0  0
  3  4  1  0  0  0
  3 89  1  0  0  0
  3 90  1  0  0  0
  4  5  1  0  0  0
  4 91  1  0  0  0
  4 92  1  0  0  0
  5  6  1  0  0  0
  5 26  1  0  0  0
  5 93  1  0  0  0
  6 25  1  0  0  0
  6 94  1  0  0  0
  6 95  1  0  0  0
  7  8  2  0  0  0
  7 26  1  0  0  0
  7 29  1  0  0  0
  8  9  1  0  0  0
  8 22  1  0  0  0
  9 10  1  0  0  0
  9 27  2  0  0  0
 10 11  2  0  0  0
 10 15  1  0  0  0
 11 12  1  0  0  0
 11 96  1  0  0  0
 12 13  2  0  0  0
 12 97  1  0  0  0
 13 14  1  0  0  0
 13 31  1  0  0  0
 14 15  2  0  0  0
 14 98  1  0  0  0
 15 99  1  0  0  0
 16 17  2  0  0  0
 16 21  1  0  0  0
 16 31  1  0  0  0
 17 18  1  0  0  0
 17100  1  0  0  0
 18 19  2  0  0  0
 18101  1  0  0  0
 19 20  1  0  0  0
 19 24  1  0  0  0
 20 21  2  0  0  0
 20102  1  0  0  0
 21 23  1  0  0  0
 22 28  1  0  0  0
 22 32  2  0  0  0
 26 27  1  0  0  0
 28103  1  0  0  0
 28104  1  0  0  0
 29105  1  0  0  0
 29106  1  0  0  0
 33 34  1  0  0  0
 33 66  1  0  0  0
 33 70  2  0  0  0
 34 36  1  0  0  0
 34 59  1  0  0  0
 34107  1  0  0  0
 35 44  2  0  0  0
 35 45  1  0  0  0
 35 68  1  0  0  0
 36 56  1  0  0  0
 36108  1  0  0  0
 37 39  1  0  0  0
 37 47  1  0  0  0
 37 66  1  0  0  0
 37109  1  0  0  0
 38 43  2  0  0  0
 38 46  1  0  0  0
 38 47  1  0  0  0
 39 64  1  0  0  0
 39 67  2  0  0  0
 40 52  1  0  0  0
 40 53  2  0  0  0
 40 58  1  0  0  0
 41110  1  0  0  0
 41111  1  0  0  0
 41112  1  0  0  0
 41 48  1  0  0  0
 42 43  1  0  0  0
 42 66  1  0  0  0
 42113  1  0  0  0
 42114  1  0  0  0
 43 44  1  0  0  0
 44115  1  0  0  0
 45 46  2  0  0  0
 45116  1  0  0  0
 46117  1  0  0  0
 47118  1  0  0  0
 47119  1  0  0  0
 48 56  1  0  0  0
 48 65  1  0  0  0
 48120  1  0  0  0
 49 50  1  0  0  0
 49 53  1  0  0  0
 49 64  1  0  0  0
 49121  1  0  0  0
 50 51  1  0  0  0
 50122  1  0  0  0
 50123  1  0  0  0
 51 52  1  0  0  0
 51124  1  0  0  0
 51125  1  0  0  0
 52126  1  0  0  0
 52127  1  0  0  0
 53 54  1  0  0  0
 54 55  2  0  0  0
 54128  1  0  0  0
 55 57  1  0  0  0
 55129  1  0  0  0
 56 69  2  0  0  0
 57 58  2  0  0  0
 57130  1  0  0  0
 58131  1  0  0  0
 59 60  1  0  0  0
 59 61  1  0  0  0
 59 62  1  0  0  0
 60132  1  0  0  0
 60133  1  0  0  0
 60134  1  0  0  0
 61135  1  0  0  0
 61136  1  0  0  0
 61137  1  0  0  0
 62138  1  0  0  0
 62139  1  0  0  0
 62140  1  0  0  0
 63 65  1  0  0  0
 63141  1  0  0  0
 63142  1  0  0  0
 63143  1  0  0  0
 64144  1  0  0  0
 65145  1  0  0  0
 68 82  1  0  0  0
 71 72  2  0  0  0
 71 74  1  0  0  0
 71146  1  0  0  0
 72 76  1  0  0  0
 72147  1  0  0  0
 73 75  1  0  0  0
 73 76  2  0  0  0
 73148  1  0  0  0
 74 75  2  0  0  0
 74 83  1  0  0  0
 75 84  1  0  0  0
 76 85  1  0  0  0
 77 78  2  0  0  0
 77 79  1  0  0  0
 77 86  1  0  0  0
 78149  1  0  0  0
 78150  1  0  0  0
 79 82  1  0  0  0
 79151  1  0  0  0
 79152  1  0  0  0
 80 81  1  0  0  0
 80 82  1  0  0  0
 80153  1  0  0  0
 80154  1  0  0  0
 81 86  1  0  0  0
 81155  1  0  0  0
 81156  1  0  0  0
 82157  1  0  0  0
 83158  1  0  0  0
 83159  1  0  0  0
 83160  1  0  0  0
 84161  1  0  0  0
 84162  1  0  0  0
 84 86  1  0  0  0
 85163  1  0  0  0
 86164  1  0  0  0
M  CHG  1  86   1
M  ISO  4   1 100  68 101  82 101  85 100
M  END
> <chiral flag>
0

> <version>
0

> <s_m_source_file>
/data/baiqing/PycharmProjects/Reinvent-master-3.2/result/LINK_invent/BTK/process_docking_weight1_custom_product_contain_oxygen_bond_distance_aromatic_linkinvent_7_9_3/rearranged_h_0050.sdf

> <i_m_source_file_index>
28

> <r_mmod_Potential_Energy-OPLS-2005>
46.5634803771973

> <r_mmod_Stretch_Energy-OPLS-2005>
94.5390548706055

> <r_mmod_Bend_Energy-OPLS-2005>
185.919448852539

> <r_mmod_Torsional_Energy-OPLS-2005>
269.601226806641

> <r_mmod_Improper_Torsional_Energy-OPLS-2005>
7.86583995819092

> <r_mmod_Van_der_Waal_Energy-OPLS-2005>
145.812042236328

> <r_mmod_Electrostatic_Energy-OPLS-2005>
-269.84130859375

> <r_mmod_Solvation_Energy-OPLS-2005>
-445.488555908203

> <b_mmod_Minimization_Converged-OPLS-2005>
0

> <r_mmod_RMS_Derivative-OPLS-2005>
4.97311449050903

$$$$
28
                    3D
 Structure written by MMmdl.
154162  0  0  1  0            999 V2000
  -30.7035  -14.4874   20.5316 C   0  0  0  0  0  0
  -30.4162  -12.3012   19.4394 C   0  0  0  0  0  0
  -29.4988  -12.4930   18.2140 C   0  0  0  0  0  0
  -28.0180  -12.3605   18.6207 C   0  0  0  0  0  0
  -27.6585  -13.2107   19.8698 C   0  0  2  0  0  0
  -28.6995  -13.0239   20.9973 C   0  0  0  0  0  0
  -25.2580  -13.8168   20.5675 C   0  0  0  0  0  0
  -24.1838  -13.0445   20.9183 C   0  0  0  0  0  0
  -24.6388  -11.6909   20.8725 C   0  0  0  0  0  0
  -23.9051  -10.4294   21.0395 C   0  0  0  0  0  0
  -24.3604   -9.4216   21.9178 C   0  0  0  0  0  0
  -23.6284   -8.2250   22.0754 C   0  0  0  0  0  0
  -22.4272   -8.0276   21.3540 C   0  0  0  0  0  0
  -21.9897   -9.0248   20.4646 C   0  0  0  0  0  0
  -22.7222  -10.2129   20.3052 C   0  0  0  0  0  0
  -21.6853   -6.0731   22.5278 C   0  0  0  0  0  0
  -21.4014   -6.5636   23.8211 C   0  0  0  0  0  0
  -21.3659   -5.6790   24.9174 C   0  0  0  0  0  0
  -21.6046   -4.3054   24.7226 C   0  0  0  0  0  0
  -21.8820   -3.8144   23.4348 C   0  0  0  0  0  0
  -21.9190   -4.6958   22.3403 C   0  0  0  0  0  0
  -22.7857  -13.5243   21.1838 C   0  0  0  0  0  0
  -22.1662   -4.2144   21.0981 F   0  0  0  0  0  0
  -21.5625   -3.4540   25.7739 F   0  0  0  0  0  0
  -30.0298  -13.3090   20.4396 N   0  0  0  0  0  0
  -26.3010  -12.9343   20.3343 N   0  0  0  0  0  0
  -25.9316  -11.6497   20.5752 N   0  0  0  0  0  0
  -22.0495  -12.8233   22.0385 N   0  0  0  0  0  0
  -25.4296  -15.1888   20.4086 N   0  0  0  0  0  0
  -31.8552  -14.6272   20.1118 O   0  0  0  0  0  0
  -21.6637   -6.8875   21.4241 O   0  0  0  0  0  0
  -22.3536  -14.5539   20.6679 O   0  0  0  0  0  0
  -24.6162  -31.8674   23.2062 C   0  0  0  0  0  0
  -25.9043  -32.4821   23.8386 C   0  0  1  0  0  0
  -27.2360  -27.4293   20.1073 C   0  0  0  0  0  0
  -25.5886  -33.8618   24.2311 N   0  0  0  0  0  0
  -23.4049  -30.4901   21.5466 C   0  0  2  0  0  0
  -24.8508  -28.9497   20.1163 C   0  0  0  0  0  0
  -22.7421  -29.4671   22.4977 C   0  0  0  0  0  0
  -18.0277  -28.1393   22.8514 C   0  0  0  0  0  0
  -24.1472  -36.7310   23.2648 C   0  0  0  0  0  0
  -25.9334  -30.8328   21.3574 C   0  0  0  0  0  0
  -26.0116  -29.4643   20.7095 C   0  0  0  0  0  0
  -27.2086  -28.7137   20.6975 C   0  0  0  0  0  0
  -26.0614  -26.9263   19.5101 C   0  0  0  0  0  0
  -24.8712  -27.6790   19.5147 C   0  0  0  0  0  0
  -23.6134  -29.8186   20.1628 C   0  0  0  0  0  0
  -25.4094  -36.3122   24.0353 C   0  0  1  0  0  0
  -20.5877  -28.3679   23.1325 C   0  0  2  0  0  0
  -20.6771  -26.9412   22.5428 C   0  0  0  0  0  0
  -19.5739  -26.6402   21.5225 C   0  0  0  0  0  0
  -18.1921  -26.7938   22.1638 C   0  0  0  0  0  0
  -19.1533  -28.8852   23.2919 C   0  0  0  0  0  0
  -18.9454  -30.1459   23.8927 C   0  0  0  0  0  0
  -17.6452  -30.6603   24.0588 C   0  0  0  0  0  0
  -25.9040  -34.9489   23.5146 C   0  0  0  0  0  0
  -16.5341  -29.9122   23.6335 C   0  0  0  0  0  0
  -16.7267  -28.6535   23.0366 C   0  0  0  0  0  0
  -26.4455  -31.6615   25.0725 C   0  0  0  0  0  0
  -25.3717  -31.3717   26.1474 C   0  0  0  0  0  0
  -27.0287  -30.3066   24.6110 C   0  0  0  0  0  0
  -27.6032  -32.4333   25.7480 C   0  0  0  0  0  0
  -27.5570  -37.1815   24.8474 C   0  0  0  0  0  0
  -21.4138  -29.3044   22.3717 N   0  0  0  0  0  0
  -26.4271  -37.3814   23.9431 N   0  0  0  0  0  0
  -24.6703  -31.0794   22.0951 N   0  0  0  0  0  0
  -23.4188  -28.8230   23.3044 O   0  0  0  0  0  0
  -28.3933  -26.6815   20.0981 O   0  0  0  0  0  0
  -26.5603  -34.8952   22.4704 O   0  0  0  0  0  0
  -23.5352  -32.1398   23.7463 O   0  0  0  0  0  0
  -29.4673  -19.3138   20.3347 C   0  0  0  0  0  0
  -28.8204  -17.9957   22.2729 C   0  0  0  0  0  0
  -29.5277  -18.0946   21.0594 C   0  0  0  0  0  0
  -28.7114  -20.4283   20.7910 C   0  0  0  0  0  0
  -28.0579  -19.0832   22.7409 C   0  0  0  0  0  0
  -27.9852  -20.2886   22.0064 C   0  0  0  0  0  0
  -28.5001  -24.1946   19.9540 C   0  0  0  0  0  0
  -30.4037  -16.9408   20.5550 C   0  0  0  0  0  0
  -28.6604  -21.6906   19.9019 C   0  0  0  0  0  0
  -28.3426  -25.4475   20.8477 C   0  0  0  0  0  0
  -28.6367  -23.0020   20.5703 N   0  0  0  0  0  0
  -29.9776  -15.5673   20.8869 N   0  0  0  0  0  0
  -28.4867  -24.2954   18.7241 O   0  0  0  0  0  0
  -27.3819  -18.9594   23.9100 F   0  0  0  0  0  0
  -26.9704  -21.5503   22.6239 Cl  0  0  0  0  0  0
  -31.4653  -12.3797   19.1471 H   0  0  0  0  0  0
  -30.2969  -11.2984   19.8541 H   0  0  0  0  0  0
  -29.7413  -11.7609   17.4427 H   0  0  0  0  0  0
  -29.6744  -13.4744   17.7701 H   0  0  0  0  0  0
  -27.8251  -11.3060   18.8215 H   0  0  0  0  0  0
  -27.3737  -12.6308   17.7832 H   0  0  0  0  0  0
  -27.6939  -14.2543   19.5562 H   0  0  0  0  0  0
  -28.6732  -12.0011   21.3765 H   0  0  0  0  0  0
  -28.4685  -13.6622   21.8516 H   0  0  0  0  0  0
  -25.2760   -9.5695   22.4740 H   0  0  0  0  0  0
  -24.0002   -7.4641   22.7469 H   0  0  0  0  0  0
  -21.0833   -8.8758   19.8944 H   0  0  0  0  0  0
  -22.3684  -10.9659   19.6150 H   0  0  0  0  0  0
  -21.2011   -7.6145   23.9710 H   0  0  0  0  0  0
  -21.1478   -6.0524   25.9075 H   0  0  0  0  0  0
  -22.0598   -2.7605   23.2850 H   0  0  0  0  0  0
  -22.4106  -11.9902   22.4800 H   0  0  0  0  0  0
  -21.1109  -13.1245   22.2561 H   0  0  0  0  0  0
  -24.6622  -15.8439   20.5155 H   0  0  0  0  0  0
  -26.2784  -15.6272   20.0732 H   0  0  0  0  0  0
  -26.7131  -32.5532   23.1174 H   0  0  0  0  0  0
  -25.0034  -33.9773   25.0457 H   0  0  0  0  0  0
  -22.6946  -31.3071   21.4055 H   0  0  0  0  0  0
  -23.3744  -35.9637   23.3330 H   0  0  0  0  0  0
  -24.3556  -36.8892   22.2061 H   0  0  0  0  0  0
  -23.7215  -37.6522   23.6634 H   0  0  0  0  0  0
  -26.0466  -31.5935   20.5820 H   0  0  0  0  0  0
  -26.8215  -30.8889   21.9768 H   0  0  0  0  0  0
  -28.1057  -29.1109   21.1502 H   0  0  0  0  0  0
  -26.0705  -25.9528   19.0401 H   0  0  0  0  0  0
  -23.9781  -27.2754   19.0567 H   0  0  0  0  0  0
  -23.7241  -30.5910   19.4012 H   0  0  0  0  0  0
  -22.7364  -29.2396   19.8683 H   0  0  0  0  0  0
  -25.1273  -36.1975   25.0847 H   0  0  0  0  0  0
  -20.9983  -28.3238   24.1445 H   0  0  0  0  0  0
  -20.5688  -26.2275   23.3614 H   0  0  0  0  0  0
  -21.6638  -26.7459   22.1208 H   0  0  0  0  0  0
  -19.6883  -25.6320   21.1238 H   0  0  0  0  0  0
  -19.6680  -27.3228   20.6771 H   0  0  0  0  0  0
  -17.4193  -26.6721   21.4031 H   0  0  0  0  0  0
  -18.0306  -26.0065   22.9021 H   0  0  0  0  0  0
  -19.7925  -30.7298   24.2282 H   0  0  0  0  0  0
  -17.5009  -31.6283   24.5199 H   0  0  0  0  0  0
  -15.5353  -30.3052   23.7623 H   0  0  0  0  0  0
  -15.8658  -28.0874   22.7062 H   0  0  0  0  0  0
  -24.5880  -30.7063   25.7822 H   0  0  0  0  0  0
  -24.8911  -32.2885   26.4921 H   0  0  0  0  0  0
  -25.8077  -30.8888   27.0231 H   0  0  0  0  0  0
  -26.2827  -29.6839   24.1165 H   0  0  0  0  0  0
  -27.4059  -29.7289   25.4555 H   0  0  0  0  0  0
  -27.8673  -30.4411   23.9268 H   0  0  0  0  0  0
  -27.2654  -33.3626   26.2083 H   0  0  0  0  0  0
  -28.3844  -32.6897   25.0309 H   0  0  0  0  0  0
  -28.0712  -31.8432   26.5374 H   0  0  0  0  0  0
  -28.2631  -38.0076   24.7530 H   0  0  0  0  0  0
  -28.1025  -36.2622   24.6289 H   0  0  0  0  0  0
  -27.2295  -37.1468   25.8878 H   0  0  0  0  0  0
  -20.9274  -29.8753   21.6939 H   0  0  0  0  0  0
  -26.0159  -38.2892   24.1416 H   0  0  0  0  0  0
  -30.0104  -19.3945   19.4026 H   0  0  0  0  0  0
  -28.8611  -17.0934   22.8637 H   0  0  0  0  0  0
  -31.4141  -17.1075   20.9343 H   0  0  0  0  0  0
  -30.4732  -17.0127   19.4679 H   0  0  0  0  0  0
  -27.7716  -21.6024   19.2753 H   0  0  0  0  0  0
  -29.5113  -21.6817   19.2190 H   0  0  0  0  0  0
  -29.1643  -25.4619   21.5645 H   0  0  0  0  0  0
  -27.4260  -25.3579   21.4348 H   0  0  0  0  0  0
  -28.6350  -22.9959   21.5810 H   0  0  0  0  0  0
  -29.0276  -15.4197   21.1895 H   0  0  0  0  0  0
  1 25  1  0  0  0
  1 30  2  0  0  0
  1 82  1  0  0  0
  2  3  1  0  0  0
  2 25  1  0  0  0
  2 86  1  0  0  0
  2 87  1  0  0  0
  3  4  1  0  0  0
  3 88  1  0  0  0
  3 89  1  0  0  0
  4  5  1  0  0  0
  4 90  1  0  0  0
  4 91  1  0  0  0
  5  6  1  0  0  0
  5 26  1  0  0  0
  5 92  1  0  0  0
  6 25  1  0  0  0
  6 93  1  0  0  0
  6 94  1  0  0  0
  7  8  2  0  0  0
  7 26  1  0  0  0
  7 29  1  0  0  0
  8  9  1  0  0  0
  8 22  1  0  0  0
  9 10  1  0  0  0
  9 27  2  0  0  0
 10 11  2  0  0  0
 10 15  1  0  0  0
 11 12  1  0  0  0
 11 95  1  0  0  0
 12 13  2  0  0  0
 12 96  1  0  0  0
 13 14  1  0  0  0
 13 31  1  0  0  0
 14 15  2  0  0  0
 14 97  1  0  0  0
 15 98  1  0  0  0
 16 17  2  0  0  0
 16 21  1  0  0  0
 16 31  1  0  0  0
 17 18  1  0  0  0
 17 99  1  0  0  0
 18 19  2  0  0  0
 18100  1  0  0  0
 19 20  1  0  0  0
 19 24  1  0  0  0
 20 21  2  0  0  0
 20101  1  0  0  0
 21 23  1  0  0  0
 22 28  1  0  0  0
 22 32  2  0  0  0
 26 27  1  0  0  0
 28102  1  0  0  0
 28103  1  0  0  0
 29104  1  0  0  0
 29105  1  0  0  0
 33 34  1  0  0  0
 33 66  1  0  0  0
 33 70  2  0  0  0
 34 36  1  0  0  0
 34 59  1  0  0  0
 34106  1  0  0  0
 35 44  2  0  0  0
 35 45  1  0  0  0
 35 68  1  0  0  0
 36 56  1  0  0  0
 36107  1  0  0  0
 37 39  1  0  0  0
 37 47  1  0  0  0
 37 66  1  0  0  0
 37108  1  0  0  0
 38 43  2  0  0  0
 38 46  1  0  0  0
 38 47  1  0  0  0
 39 64  1  0  0  0
 39 67  2  0  0  0
 40 52  1  0  0  0
 40 53  2  0  0  0
 40 58  1  0  0  0
 41109  1  0  0  0
 41110  1  0  0  0
 41111  1  0  0  0
 41 48  1  0  0  0
 42 43  1  0  0  0
 42 66  1  0  0  0
 42112  1  0  0  0
 42113  1  0  0  0
 43 44  1  0  0  0
 44114  1  0  0  0
 45 46  2  0  0  0
 45115  1  0  0  0
 46116  1  0  0  0
 47117  1  0  0  0
 47118  1  0  0  0
 48 56  1  0  0  0
 48 65  1  0  0  0
 48119  1  0  0  0
 49 50  1  0  0  0
 49 53  1  0  0  0
 49 64  1  0  0  0
 49120  1  0  0  0
 50 51  1  0  0  0
 50121  1  0  0  0
 50122  1  0  0  0
 51 52  1  0  0  0
 51123  1  0  0  0
 51124  1  0  0  0
 52125  1  0  0  0
 52126  1  0  0  0
 53 54  1  0  0  0
 54 55  2  0  0  0
 54127  1  0  0  0
 55 57  1  0  0  0
 55128  1  0  0  0
 56 69  2  0  0  0
 57 58  2  0  0  0
 57129  1  0  0  0
 58130  1  0  0  0
 59 60  1  0  0  0
 59 61  1  0  0  0
 59 62  1  0  0  0
 60131  1  0  0  0
 60132  1  0  0  0
 60133  1  0  0  0
 61134  1  0  0  0
 61135  1  0  0  0
 61136  1  0  0  0
 62137  1  0  0  0
 62138  1  0  0  0
 62139  1  0  0  0
 63 65  1  0  0  0
 63140  1  0  0  0
 63141  1  0  0  0
 63142  1  0  0  0
 64143  1  0  0  0
 65144  1  0  0  0
 68 80  1  0  0  0
 71 73  2  0  0  0
 71 74  1  0  0  0
 71145  1  0  0  0
 72 73  1  0  0  0
 72 75  2  0  0  0
 72146  1  0  0  0
 73 78  1  0  0  0
 74 76  2  0  0  0
 74 79  1  0  0  0
 75 76  1  0  0  0
 75 84  1  0  0  0
 76 85  1  0  0  0
 77 80  1  0  0  0
 77 81  1  0  0  0
 77 83  2  0  0  0
 78 82  1  0  0  0
 78147  1  0  0  0
 78148  1  0  0  0
 79 81  1  0  0  0
 79149  1  0  0  0
 79150  1  0  0  0
 80151  1  0  0  0
 80152  1  0  0  0
 81153  1  0  0  0
 82154  1  0  0  0
M  ISO  4   1 100  68 101  80 101  82 100
M  END
> <chiral flag>
0

> <version>
0

> <s_m_source_file>
/data/baiqing/PycharmProjects/Reinvent-master-3.2/result/LINK_invent/BTK/process_docking_weight1_custom_product_contain_oxygen_bond_distance_aromatic_linkinvent_7_9_3/rearranged_h_0050.sdf

> <i_m_source_file_index>
29

> <r_mmod_Potential_Energy-OPLS-2005>
-133.690795898438

> <r_mmod_Stretch_Energy-OPLS-2005>
40.4680709838867

> <r_mmod_Bend_Energy-OPLS-2005>
94.9075393676758

> <r_mmod_Torsional_Energy-OPLS-2005>
221.580688476562

> <r_mmod_Improper_Torsional_Energy-OPLS-2005>
6.1245641708374

> <r_mmod_Van_der_Waal_Energy-OPLS-2005>
149.094085693359

> <r_mmod_Electrostatic_Energy-OPLS-2005>
-425.396697998047

> <r_mmod_Solvation_Energy-OPLS-2005>
-236.037292480469

> <b_mmod_Minimization_Converged-OPLS-2005>
0

> <r_mmod_RMS_Derivative-OPLS-2005>
2.26167988777161

$$$$
29
                    3D
 Structure written by MMmdl.
174183  0  0  1  0            999 V2000
  -30.7061  -14.4924   20.4703 C   0  0  0  0  0  0
  -30.4167  -12.2950   19.4346 C   0  0  0  0  0  0
  -29.4947  -12.4788   18.2108 C   0  0  0  0  0  0
  -28.0152  -12.3499   18.6236 C   0  0  0  0  0  0
  -27.6577  -13.2088   19.8660 C   0  0  2  0  0  0
  -28.7061  -13.0456   20.9917 C   0  0  0  0  0  0
  -25.2569  -13.8153   20.5668 C   0  0  0  0  0  0
  -24.1817  -13.0437   20.9170 C   0  0  0  0  0  0
  -24.6369  -11.6910   20.8717 C   0  0  0  0  0  0
  -23.9031  -10.4296   21.0382 C   0  0  0  0  0  0
  -24.3595   -9.4224   21.9168 C   0  0  0  0  0  0
  -23.6286   -8.2245   22.0743 C   0  0  0  0  0  0
  -22.4275   -8.0261   21.3535 C   0  0  0  0  0  0
  -21.9890   -9.0231   20.4637 C   0  0  0  0  0  0
  -22.7192  -10.2130   20.3043 C   0  0  0  0  0  0
  -21.6863   -6.0711   22.5276 C   0  0  0  0  0  0
  -21.4007   -6.5621   23.8205 C   0  0  0  0  0  0
  -21.3664   -5.6780   24.9178 C   0  0  0  0  0  0
  -21.6059   -4.3042   24.7231 C   0  0  0  0  0  0
  -21.8820   -3.8130   23.4350 C   0  0  0  0  0  0
  -21.9191   -4.6935   22.3399 C   0  0  0  0  0  0
  -22.7838  -13.5243   21.1835 C   0  0  0  0  0  0
  -22.1664   -4.2122   21.0979 F   0  0  0  0  0  0
  -21.5644   -3.4524   25.7747 F   0  0  0  0  0  0
  -30.0326  -13.3139   20.4225 N   0  0  0  0  0  0
  -26.3011  -12.9328   20.3344 N   0  0  0  0  0  0
  -25.9309  -11.6501   20.5772 N   0  0  0  0  0  0
  -22.0480  -12.8249   22.0404 N   0  0  0  0  0  0
  -25.4275  -15.1865   20.4057 N   0  0  0  0  0  0
  -31.9017  -14.5887   20.1919 O   0  0  0  0  0  0
  -21.6654   -6.8850   21.4237 O   0  0  0  0  0  0
  -22.3524  -14.5544   20.6674 O   0  0  0  0  0  0
  -24.6145  -31.8686   23.2107 C   0  0  0  0  0  0
  -25.9042  -32.4820   23.8399 C   0  0  1  0  0  0
  -27.2269  -27.4368   20.0956 C   0  0  0  0  0  0
  -25.5902  -33.8619   24.2329 N   0  0  0  0  0  0
  -23.4021  -30.4932   21.5502 C   0  0  2  0  0  0
  -24.8485  -28.9621   20.1111 C   0  0  0  0  0  0
  -22.7411  -29.4666   22.4978 C   0  0  0  0  0  0
  -18.0272  -28.1373   22.8492 C   0  0  0  0  0  0
  -24.1490  -36.7317   23.2634 C   0  0  0  0  0  0
  -25.9314  -30.8350   21.3641 C   0  0  0  0  0  0
  -26.0094  -29.4708   20.7086 C   0  0  0  0  0  0
  -27.2056  -28.7151   20.6975 C   0  0  0  0  0  0
  -26.0550  -26.9490   19.4804 C   0  0  0  0  0  0
  -24.8657  -27.7000   19.4930 C   0  0  0  0  0  0
  -23.6102  -29.8281   20.1639 C   0  0  0  0  0  0
  -25.4105  -36.3112   24.0338 C   0  0  1  0  0  0
  -20.5867  -28.3660   23.1315 C   0  0  2  0  0  0
  -20.6760  -26.9394   22.5421 C   0  0  0  0  0  0
  -19.5744  -26.6384   21.5211 C   0  0  0  0  0  0
  -18.1919  -26.7922   22.1620 C   0  0  0  0  0  0
  -19.1523  -28.8830   23.2902 C   0  0  0  0  0  0
  -18.9452  -30.1437   23.8910 C   0  0  0  0  0  0
  -17.6454  -30.6580   24.0564 C   0  0  0  0  0  0
  -25.9033  -34.9471   23.5128 C   0  0  0  0  0  0
  -16.5345  -29.9083   23.6324 C   0  0  0  0  0  0
  -16.7264  -28.6501   23.0345 C   0  0  0  0  0  0
  -26.4467  -31.6597   25.0721 C   0  0  0  0  0  0
  -25.3746  -31.3722   26.1488 C   0  0  0  0  0  0
  -27.0282  -30.3031   24.6096 C   0  0  0  0  0  0
  -27.6059  -32.4307   25.7472 C   0  0  0  0  0  0
  -27.5584  -37.1801   24.8456 C   0  0  0  0  0  0
  -21.4139  -29.3035   22.3719 N   0  0  0  0  0  0
  -26.4287  -37.3796   23.9418 N   0  0  0  0  0  0
  -24.6673  -31.0800   22.0999 N   0  0  0  0  0  0
  -23.4185  -28.8198   23.3011 O   0  0  0  0  0  0
  -28.3616  -26.6561   20.1132 O   0  0  0  0  0  0
  -26.5590  -34.8929   22.4688 O   0  0  0  0  0  0
  -23.5337  -32.1429   23.7508 O   0  0  0  0  0  0
  -29.5167  -17.9971   19.9688 C   0  0  0  0  0  0
  -30.6330  -16.5668   18.3578 C   0  0  0  0  0  0
  -29.5396  -19.0817   19.0454 C   0  0  0  0  0  0
  -30.6917  -17.6167   17.4242 C   0  0  0  0  0  0
  -30.0954  -18.8677   17.7460 C   0  0  0  0  0  0
  -30.0498  -16.7250   19.6346 C   0  0  0  0  0  0
  -30.0017  -21.9586   21.1803 C   0  0  0  0  0  0
  -32.5230  -19.7697   22.7777 C   0  0  0  0  0  0
  -30.8250  -21.3849   22.0807 C   0  0  0  0  0  0
  -31.7168  -20.2680   21.8276 C   0  0  0  0  0  0
  -29.0676  -23.1336   21.4884 C   0  0  0  0  0  0
  -28.9431  -23.7656   19.0903 C   0  0  0  0  0  0
  -29.9473  -22.6430   18.7688 C   0  0  0  0  0  0
  -29.1805  -24.3154   20.5006 C   0  0  1  0  0  0
  -30.0315  -19.9513   16.6743 C   0  0  0  0  0  0
  -28.9178  -20.4399   19.4585 C   0  0  0  0  0  0
  -28.1989  -25.4502   20.8806 C   0  0  0  0  0  0
  -31.3877  -17.3539   16.0816 C   0  0  0  0  0  0
  -29.9391  -15.6052   20.5343 N   0  0  0  0  0  0
  -29.9229  -21.5120   19.7458 N   0  3  2  0  0  0
  -32.0828  -16.2150   16.0918 F   0  0  0  0  0  0
  -30.4862  -17.2646   15.1045 F   0  0  0  0  0  0
  -32.2493  -18.3317   15.7990 F   0  0  0  0  0  0
  -31.4628  -12.3733   19.1346 H   0  0  0  0  0  0
  -30.3003  -11.2964   19.8591 H   0  0  0  0  0  0
  -29.7340  -11.7405   17.4446 H   0  0  0  0  0  0
  -29.6688  -13.4547   17.7546 H   0  0  0  0  0  0
  -27.8191  -11.2974   18.8318 H   0  0  0  0  0  0
  -27.3672  -12.6158   17.7881 H   0  0  0  0  0  0
  -27.6871  -14.2461   19.5356 H   0  0  0  0  0  0
  -28.6827  -12.0326   21.3943 H   0  0  0  0  0  0
  -28.4911  -13.7095   21.8292 H   0  0  0  0  0  0
  -25.2736   -9.5719   22.4746 H   0  0  0  0  0  0
  -24.0001   -7.4640   22.7464 H   0  0  0  0  0  0
  -21.0811   -8.8731   19.8962 H   0  0  0  0  0  0
  -22.3611  -10.9659   19.6160 H   0  0  0  0  0  0
  -21.2006   -7.6139   23.9692 H   0  0  0  0  0  0
  -21.1487   -6.0517   25.9071 H   0  0  0  0  0  0
  -22.0595   -2.7585   23.2858 H   0  0  0  0  0  0
  -22.4095  -11.9926   22.4823 H   0  0  0  0  0  0
  -21.1091  -13.1261   22.2605 H   0  0  0  0  0  0
  -24.6575  -15.8373   20.5110 H   0  0  0  0  0  0
  -26.2749  -15.6288   20.0738 H   0  0  0  0  0  0
  -26.7105  -32.5540   23.1162 H   0  0  0  0  0  0
  -25.0067  -33.9782   25.0481 H   0  0  0  0  0  0
  -22.6897  -31.3097   21.4128 H   0  0  0  0  0  0
  -23.3752  -35.9650   23.3287 H   0  0  0  0  0  0
  -24.3596  -36.8937   22.2054 H   0  0  0  0  0  0
  -23.7238  -37.6517   23.6651 H   0  0  0  0  0  0
  -26.0449  -31.6024   20.5981 H   0  0  0  0  0  0
  -26.8194  -30.8861   21.9824 H   0  0  0  0  0  0
  -28.0999  -29.0986   21.1672 H   0  0  0  0  0  0
  -26.0589  -25.9817   18.9981 H   0  0  0  0  0  0
  -23.9736  -27.3037   19.0280 H   0  0  0  0  0  0
  -23.7172  -30.6041   19.4047 H   0  0  0  0  0  0
  -22.7347  -29.2472   19.8691 H   0  0  0  0  0  0
  -25.1278  -36.1969   25.0825 H   0  0  0  0  0  0
  -20.9959  -28.3230   24.1436 H   0  0  0  0  0  0
  -20.5659  -26.2269   23.3605 H   0  0  0  0  0  0
  -21.6630  -26.7437   22.1220 H   0  0  0  0  0  0
  -19.6906  -25.6301   21.1224 H   0  0  0  0  0  0
  -19.6689  -27.3203   20.6746 H   0  0  0  0  0  0
  -17.4195  -26.6677   21.4011 H   0  0  0  0  0  0
  -18.0317  -26.0061   22.9011 H   0  0  0  0  0  0
  -19.7930  -30.7250   24.2283 H   0  0  0  0  0  0
  -17.5016  -31.6263   24.5164 H   0  0  0  0  0  0
  -15.5351  -30.2988   23.7649 H   0  0  0  0  0  0
  -15.8664  -28.0833   22.7044 H   0  0  0  0  0  0
  -24.5906  -30.7071   25.7847 H   0  0  0  0  0  0
  -24.8957  -32.2888   26.4944 H   0  0  0  0  0  0
  -25.8117  -30.8895   27.0241 H   0  0  0  0  0  0
  -26.2813  -29.6804   24.1159 H   0  0  0  0  0  0
  -27.4045  -29.7259   25.4553 H   0  0  0  0  0  0
  -27.8657  -30.4332   23.9241 H   0  0  0  0  0  0
  -27.2688  -33.3596   26.2091 H   0  0  0  0  0  0
  -28.3847  -32.6886   25.0280 H   0  0  0  0  0  0
  -28.0754  -31.8406   26.5355 H   0  0  0  0  0  0
  -28.2587  -38.0114   24.7532 H   0  0  0  0  0  0
  -28.1094  -36.2649   24.6233 H   0  0  0  0  0  0
  -27.2320  -37.1397   25.8863 H   0  0  0  0  0  0
  -20.9283  -29.8765   21.6957 H   0  0  0  0  0  0
  -26.0177  -38.2868   24.1443 H   0  0  0  0  0  0
  -29.0659  -18.1348   20.9429 H   0  0  0  0  0  0
  -31.0346  -15.6105   18.0595 H   0  0  0  0  0  0
  -33.1759  -18.9326   22.5739 H   0  0  0  0  0  0
  -32.5477  -20.1848   23.7769 H   0  0  0  0  0  0
  -30.8101  -21.7899   23.0838 H   0  0  0  0  0  0
  -31.7492  -19.8001   20.8542 H   0  0  0  0  0  0
  -29.2740  -23.4888   22.4986 H   0  0  0  0  0  0
  -28.0442  -22.7576   21.5109 H   0  0  0  0  0  0
  -27.9229  -23.3932   18.9959 H   0  0  0  0  0  0
  -29.0450  -24.5659   18.3557 H   0  0  0  0  0  0
  -30.9553  -23.0593   18.7729 H   0  0  0  0  0  0
  -29.7761  -22.3111   17.7513 H   0  0  0  0  0  0
  -30.1937  -24.7183   20.5570 H   0  0  0  0  0  0
  -30.8625  -20.6478   16.7804 H   0  0  0  0  0  0
  -29.0834  -20.4854   16.6973 H   0  0  0  0  0  0
  -30.0830  -19.5493   15.6648 H   0  0  0  0  0  0
  -28.3066  -20.2858   20.3488 H   0  0  0  0  0  0
  -28.2045  -20.7686   18.7038 H   0  0  0  0  0  0
  -28.3529  -25.7173   21.9275 H   0  0  0  0  0  0
  -27.1852  -25.0518   20.8251 H   0  0  0  0  0  0
  -29.0528  -15.5008   21.0021 H   0  0  0  0  0  0
  -30.7913  -21.0361   19.5556 H   0  0  0  0  0  0
  1 25  1  0  0  0
  1 30  2  0  0  0
  1 89  1  0  0  0
  2  3  1  0  0  0
  2 25  1  0  0  0
  2 94  1  0  0  0
  2 95  1  0  0  0
  3  4  1  0  0  0
  3 96  1  0  0  0
  3 97  1  0  0  0
  4  5  1  0  0  0
  4 98  1  0  0  0
  4 99  1  0  0  0
  5  6  1  0  0  0
  5 26  1  0  0  0
  5100  1  0  0  0
  6 25  1  0  0  0
  6101  1  0  0  0
  6102  1  0  0  0
  7  8  2  0  0  0
  7 26  1  0  0  0
  7 29  1  0  0  0
  8  9  1  0  0  0
  8 22  1  0  0  0
  9 10  1  0  0  0
  9 27  2  0  0  0
 10 11  2  0  0  0
 10 15  1  0  0  0
 11 12  1  0  0  0
 11103  1  0  0  0
 12 13  2  0  0  0
 12104  1  0  0  0
 13 14  1  0  0  0
 13 31  1  0  0  0
 14 15  2  0  0  0
 14105  1  0  0  0
 15106  1  0  0  0
 16 17  2  0  0  0
 16 21  1  0  0  0
 16 31  1  0  0  0
 17 18  1  0  0  0
 17107  1  0  0  0
 18 19  2  0  0  0
 18108  1  0  0  0
 19 20  1  0  0  0
 19 24  1  0  0  0
 20 21  2  0  0  0
 20109  1  0  0  0
 21 23  1  0  0  0
 22 28  1  0  0  0
 22 32  2  0  0  0
 26 27  1  0  0  0
 28110  1  0  0  0
 28111  1  0  0  0
 29112  1  0  0  0
 29113  1  0  0  0
 33 34  1  0  0  0
 33 66  1  0  0  0
 33 70  2  0  0  0
 34 36  1  0  0  0
 34 59  1  0  0  0
 34114  1  0  0  0
 35 44  2  0  0  0
 35 45  1  0  0  0
 35 68  1  0  0  0
 36 56  1  0  0  0
 36115  1  0  0  0
 37 39  1  0  0  0
 37 47  1  0  0  0
 37 66  1  0  0  0
 37116  1  0  0  0
 38 43  2  0  0  0
 38 46  1  0  0  0
 38 47  1  0  0  0
 39 64  1  0  0  0
 39 67  2  0  0  0
 40 52  1  0  0  0
 40 53  2  0  0  0
 40 58  1  0  0  0
 41117  1  0  0  0
 41118  1  0  0  0
 41119  1  0  0  0
 41 48  1  0  0  0
 42 43  1  0  0  0
 42 66  1  0  0  0
 42120  1  0  0  0
 42121  1  0  0  0
 43 44  1  0  0  0
 44122  1  0  0  0
 45 46  2  0  0  0
 45123  1  0  0  0
 46124  1  0  0  0
 47125  1  0  0  0
 47126  1  0  0  0
 48 56  1  0  0  0
 48 65  1  0  0  0
 48127  1  0  0  0
 49 50  1  0  0  0
 49 53  1  0  0  0
 49 64  1  0  0  0
 49128  1  0  0  0
 50 51  1  0  0  0
 50129  1  0  0  0
 50130  1  0  0  0
 51 52  1  0  0  0
 51131  1  0  0  0
 51132  1  0  0  0
 52133  1  0  0  0
 52134  1  0  0  0
 53 54  1  0  0  0
 54 55  2  0  0  0
 54135  1  0  0  0
 55 57  1  0  0  0
 55136  1  0  0  0
 56 69  2  0  0  0
 57 58  2  0  0  0
 57137  1  0  0  0
 58138  1  0  0  0
 59 60  1  0  0  0
 59 61  1  0  0  0
 59 62  1  0  0  0
 60139  1  0  0  0
 60140  1  0  0  0
 60141  1  0  0  0
 61142  1  0  0  0
 61143  1  0  0  0
 61144  1  0  0  0
 62145  1  0  0  0
 62146  1  0  0  0
 62147  1  0  0  0
 63 65  1  0  0  0
 63148  1  0  0  0
 63149  1  0  0  0
 63150  1  0  0  0
 64151  1  0  0  0
 65152  1  0  0  0
 68 87  1  0  0  0
 71 73  2  0  0  0
 71 76  1  0  0  0
 71153  1  0  0  0
 72 74  1  0  0  0
 72 76  2  0  0  0
 72154  1  0  0  0
 73 75  1  0  0  0
 73 86  1  0  0  0
 74 75  2  0  0  0
 74 88  1  0  0  0
 75 85  1  0  0  0
 76 89  1  0  0  0
 77 79  2  0  0  0
 77 81  1  0  0  0
 77 90  1  0  0  0
 78 80  2  0  0  0
 78155  1  0  0  0
 78156  1  0  0  0
 79 80  1  0  0  0
 79157  1  0  0  0
 80158  1  0  0  0
 81 84  1  0  0  0
 81159  1  0  0  0
 81160  1  0  0  0
 82 83  1  0  0  0
 82 84  1  0  0  0
 82161  1  0  0  0
 82162  1  0  0  0
 83 90  1  0  0  0
 83163  1  0  0  0
 83164  1  0  0  0
 84 87  1  0  0  0
 84165  1  0  0  0
 85166  1  0  0  0
 85167  1  0  0  0
 85168  1  0  0  0
 86169  1  0  0  0
 86170  1  0  0  0
 86 90  1  0  0  0
 87171  1  0  0  0
 87172  1  0  0  0
 88 91  1  0  0  0
 88 92  1  0  0  0
 88 93  1  0  0  0
 89173  1  0  0  0
 90174  1  0  0  0
M  CHG  1  90   1
M  ISO  4   1 100  68 101  87 101  89 100
M  END
> <chiral flag>
0

> <version>
0

> <s_m_source_file>
/data/baiqing/PycharmProjects/Reinvent-master-3.2/result/LINK_invent/BTK/process_docking_weight1_custom_product_contain_oxygen_bond_distance_aromatic_linkinvent_7_9_3/rearranged_h_0050.sdf

> <i_m_source_file_index>
30

> <r_mmod_Potential_Energy-OPLS-2005>
-34.1846923828125

> <r_mmod_Stretch_Energy-OPLS-2005>
45.7581901550293

> <r_mmod_Bend_Energy-OPLS-2005>
109.969108581543

> <r_mmod_Torsional_Energy-OPLS-2005>
282.171630859375

> <r_mmod_Improper_Torsional_Energy-OPLS-2005>
9.00139713287354

> <r_mmod_Van_der_Waal_Energy-OPLS-2005>
160.072631835938

> <r_mmod_Electrostatic_Energy-OPLS-2005>
-219.61279296875

> <r_mmod_Solvation_Energy-OPLS-2005>
-443.552825927734

> <b_mmod_Minimization_Converged-OPLS-2005>
0

> <r_mmod_RMS_Derivative-OPLS-2005>
2.0047070980072

$$$$
30
                    3D
 Structure written by MMmdl.
165173  0  0  1  0            999 V2000
  -30.6807  -14.4729   20.6044 C   0  0  0  0  0  0
  -30.4357  -12.3174   19.4147 C   0  0  0  0  0  0
  -29.4975  -12.5142   18.2047 C   0  0  0  0  0  0
  -28.0187  -12.3695   18.6171 C   0  0  0  0  0  0
  -27.6662  -13.1998   19.8794 C   0  0  2  0  0  0
  -28.7067  -12.9498   20.9941 C   0  0  0  0  0  0
  -25.2611  -13.8147   20.5680 C   0  0  0  0  0  0
  -24.1846  -13.0436   20.9160 C   0  0  0  0  0  0
  -24.6385  -11.6898   20.8712 C   0  0  0  0  0  0
  -23.9045  -10.4290   21.0391 C   0  0  0  0  0  0
  -24.3601   -9.4210   21.9173 C   0  0  0  0  0  0
  -23.6281   -8.2244   22.0747 C   0  0  0  0  0  0
  -22.4262   -8.0278   21.3540 C   0  0  0  0  0  0
  -21.9891   -9.0249   20.4641 C   0  0  0  0  0  0
  -22.7216  -10.2129   20.3048 C   0  0  0  0  0  0
  -21.6853   -6.0727   22.5274 C   0  0  0  0  0  0
  -21.4012   -6.5633   23.8206 C   0  0  0  0  0  0
  -21.3659   -5.6785   24.9168 C   0  0  0  0  0  0
  -21.6044   -4.3048   24.7220 C   0  0  0  0  0  0
  -21.8821   -3.8137   23.4344 C   0  0  0  0  0  0
  -21.9195   -4.6954   22.3399 C   0  0  0  0  0  0
  -22.7871  -13.5243   21.1835 C   0  0  0  0  0  0
  -22.1666   -4.2140   21.0974 F   0  0  0  0  0  0
  -21.5630   -3.4535   25.7739 F   0  0  0  0  0  0
  -30.0412  -13.2794   20.4555 N   0  0  0  0  0  0
  -26.3043  -12.9302   20.3373 N   0  0  0  0  0  0
  -25.9312  -11.6468   20.5746 N   0  0  0  0  0  0
  -22.0505  -12.8243   22.0395 N   0  0  0  0  0  0
  -25.4358  -15.1865   20.4115 N   0  0  0  0  0  0
  -31.7763  -14.7144   20.0862 O   0  0  0  0  0  0
  -21.6636   -6.8869   21.4236 O   0  0  0  0  0  0
  -22.3560  -14.5552   20.6693 O   0  0  0  0  0  0
  -24.6146  -31.8684   23.2089 C   0  0  0  0  0  0
  -25.9040  -32.4825   23.8390 C   0  0  1  0  0  0
  -27.2396  -27.4370   20.1010 C   0  0  0  0  0  0
  -25.5899  -33.8623   24.2330 N   0  0  0  0  0  0
  -23.4035  -30.4893   21.5498 C   0  0  2  0  0  0
  -24.8529  -28.9515   20.1178 C   0  0  0  0  0  0
  -22.7412  -29.4652   22.4994 C   0  0  0  0  0  0
  -18.0275  -28.1368   22.8494 C   0  0  0  0  0  0
  -24.1486  -36.7309   23.2633 C   0  0  0  0  0  0
  -25.9313  -30.8345   21.3611 C   0  0  0  0  0  0
  -26.0126  -29.4667   20.7128 C   0  0  0  0  0  0
  -27.2120  -28.7176   20.6996 C   0  0  0  0  0  0
  -26.0665  -26.9322   19.5042 C   0  0  0  0  0  0
  -24.8743  -27.6831   19.5103 C   0  0  0  0  0  0
  -23.6140  -29.8182   20.1655 C   0  0  0  0  0  0
  -25.4105  -36.3114   24.0340 C   0  0  1  0  0  0
  -20.5863  -28.3655   23.1321 C   0  0  2  0  0  0
  -20.6764  -26.9393   22.5415 C   0  0  0  0  0  0
  -19.5744  -26.6382   21.5208 C   0  0  0  0  0  0
  -18.1922  -26.7917   22.1622 C   0  0  0  0  0  0
  -19.1525  -28.8829   23.2904 C   0  0  0  0  0  0
  -18.9454  -30.1437   23.8916 C   0  0  0  0  0  0
  -17.6457  -30.6578   24.0566 C   0  0  0  0  0  0
  -25.9035  -34.9480   23.5133 C   0  0  0  0  0  0
  -16.5348  -29.9082   23.6320 C   0  0  0  0  0  0
  -16.7264  -28.6494   23.0351 C   0  0  0  0  0  0
  -26.4470  -31.6595   25.0708 C   0  0  0  0  0  0
  -25.3745  -31.3721   26.1470 C   0  0  0  0  0  0
  -27.0268  -30.3028   24.6062 C   0  0  0  0  0  0
  -27.6071  -32.4288   25.7458 C   0  0  0  0  0  0
  -27.5584  -37.1805   24.8462 C   0  0  0  0  0  0
  -21.4139  -29.3027   22.3731 N   0  0  0  0  0  0
  -26.4292  -37.3797   23.9415 N   0  0  0  0  0  0
  -24.6679  -31.0783   22.0990 N   0  0  0  0  0  0
  -23.4182  -28.8200   23.3040 O   0  0  0  0  0  0
  -28.3930  -26.6869   20.0687 O   0  0  0  0  0  0
  -26.5598  -34.8931   22.4694 O   0  0  0  0  0  0
  -23.5340  -32.1434   23.7487 O   0  0  0  0  0  0
  -30.8772  -19.0379   20.7706 C   0  0  0  0  0  0
  -30.8909  -17.6304   20.6045 C   0  0  0  0  0  0
  -29.2084  -17.4272   22.3386 C   0  0  0  0  0  0
  -30.0517  -19.6569   21.7410 C   0  0  0  0  0  0
  -29.1956  -18.8291   22.5195 C   0  0  0  0  0  0
  -30.0632  -16.8049   21.4050 C   0  0  0  0  0  0
  -30.1880  -21.1372   22.0317 C   0  0  0  0  0  0
  -29.0341  -24.3092   20.3645 C   0  0  0  0  0  0
  -28.2482  -19.4076   23.5626 C   0  0  0  0  0  0
  -33.6144  -23.9275   19.9159 C   0  0  0  0  0  0
  -28.3965  -25.5763   20.9819 C   0  0  0  0  0  0
  -31.4701  -24.0113   21.1653 C   0  0  0  0  0  0
  -30.0105  -23.4957   21.2514 C   0  0  2  0  0  0
  -29.9872  -15.3779   21.3240 N   0  0  0  0  0  0
  -29.9409  -22.0252   21.0494 N   0  0  0  0  0  0
  -32.1927  -23.5323   19.9629 N   0  3  0  0  0  0
  -30.5244  -21.4993   23.1603 O   0  0  0  0  0  0
  -28.7753  -23.9785   19.2026 O   0  0  0  0  0  0
  -31.4764  -12.4399   19.1090 H   0  0  0  0  0  0
  -30.3579  -11.2996   19.7998 H   0  0  0  0  0  0
  -29.7375  -11.7932   17.4223 H   0  0  0  0  0  0
  -29.6609  -13.5019   17.7704 H   0  0  0  0  0  0
  -27.8298  -11.3121   18.8070 H   0  0  0  0  0  0
  -27.3675  -12.6487   17.7881 H   0  0  0  0  0  0
  -27.7186  -14.2515   19.5969 H   0  0  0  0  0  0
  -28.6884  -11.9015   21.2962 H   0  0  0  0  0  0
  -28.4512  -13.5044   21.8973 H   0  0  0  0  0  0
  -25.2744   -9.5695   22.4746 H   0  0  0  0  0  0
  -23.9995   -7.4638   22.7465 H   0  0  0  0  0  0
  -21.0822   -8.8764   19.8946 H   0  0  0  0  0  0
  -22.3667  -10.9669   19.6160 H   0  0  0  0  0  0
  -21.1999   -7.6141   23.9708 H   0  0  0  0  0  0
  -21.1481   -6.0513   25.9070 H   0  0  0  0  0  0
  -22.0601   -2.7600   23.2847 H   0  0  0  0  0  0
  -22.4108  -11.9894   22.4773 H   0  0  0  0  0  0
  -21.1131  -13.1284   22.2610 H   0  0  0  0  0  0
  -24.6735  -15.8461   20.5251 H   0  0  0  0  0  0
  -26.2974  -15.6256   20.1120 H   0  0  0  0  0  0
  -26.7115  -32.5547   23.1164 H   0  0  0  0  0  0
  -25.0064  -33.9785   25.0485 H   0  0  0  0  0  0
  -22.6922  -31.3057   21.4089 H   0  0  0  0  0  0
  -23.3755  -35.9633   23.3296 H   0  0  0  0  0  0
  -24.3586  -36.8923   22.2047 H   0  0  0  0  0  0
  -23.7226  -37.6509   23.6648 H   0  0  0  0  0  0
  -26.0393  -31.5980   20.5894 H   0  0  0  0  0  0
  -26.8204  -30.8938   21.9769 H   0  0  0  0  0  0
  -28.1100  -29.1137   21.1528 H   0  0  0  0  0  0
  -26.0779  -25.9599   19.0321 H   0  0  0  0  0  0
  -23.9840  -27.2811   19.0468 H   0  0  0  0  0  0
  -23.7228  -30.5918   19.4044 H   0  0  0  0  0  0
  -22.7376  -29.2383   19.8704 H   0  0  0  0  0  0
  -25.1273  -36.1983   25.0830 H   0  0  0  0  0  0
  -20.9954  -28.3220   24.1443 H   0  0  0  0  0  0
  -20.5660  -26.2263   23.3597 H   0  0  0  0  0  0
  -21.6640  -26.7435   22.1216 H   0  0  0  0  0  0
  -19.6906  -25.6299   21.1221 H   0  0  0  0  0  0
  -19.6675  -27.3207   20.6751 H   0  0  0  0  0  0
  -17.4187  -26.6666   21.4029 H   0  0  0  0  0  0
  -18.0326  -26.0051   22.9009 H   0  0  0  0  0  0
  -19.7931  -30.7247   24.2294 H   0  0  0  0  0  0
  -17.5013  -31.6259   24.5162 H   0  0  0  0  0  0
  -15.5351  -30.2996   23.7627 H   0  0  0  0  0  0
  -15.8663  -28.0817   22.7066 H   0  0  0  0  0  0
  -24.5875  -30.7118   25.7811 H   0  0  0  0  0  0
  -24.8994  -32.2893   26.4960 H   0  0  0  0  0  0
  -25.8090  -30.8841   27.0200 H   0  0  0  0  0  0
  -26.2782  -29.6811   24.1131 H   0  0  0  0  0  0
  -27.4056  -29.7246   25.4500 H   0  0  0  0  0  0
  -27.8622  -30.4339   23.9181 H   0  0  0  0  0  0
  -27.2722  -33.3595   26.2052 H   0  0  0  0  0  0
  -28.3870  -32.6824   25.0265 H   0  0  0  0  0  0
  -28.0740  -31.8386   26.5354 H   0  0  0  0  0  0
  -28.2605  -38.0102   24.7531 H   0  0  0  0  0  0
  -28.1081  -36.2641   24.6259 H   0  0  0  0  0  0
  -27.2311  -37.1422   25.8868 H   0  0  0  0  0  0
  -20.9300  -29.8753   21.6959 H   0  0  0  0  0  0
  -26.0185  -38.2872   24.1436 H   0  0  0  0  0  0
  -31.5477  -19.6400   20.1739 H   0  0  0  0  0  0
  -31.5519  -17.2040   19.8637 H   0  0  0  0  0  0
  -28.5535  -16.8164   22.9448 H   0  0  0  0  0  0
  -27.5384  -18.6599   23.9184 H   0  0  0  0  0  0
  -27.6679  -20.2326   23.1479 H   0  0  0  0  0  0
  -28.8021  -19.7749   24.4270 H   0  0  0  0  0  0
  -34.0835  -23.5473   19.0082 H   0  0  0  0  0  0
  -34.1632  -23.5260   20.7685 H   0  0  0  0  0  0
  -33.7219  -25.0125   19.9198 H   0  0  0  0  0  0
  -28.9491  -25.8645   21.8762 H   0  0  0  0  0  0
  -27.3846  -25.3259   21.3040 H   0  0  0  0  0  0
  -32.0155  -23.6808   22.0505 H   0  0  0  0  0  0
  -31.4919  -25.1025   21.1932 H   0  0  0  0  0  0
  -29.6830  -23.6943   22.2740 H   0  0  0  0  0  0
  -29.1898  -14.9721   21.7887 H   0  0  0  0  0  0
  -29.5945  -21.6831   20.1626 H   0  0  0  0  0  0
  -32.1464  -22.5270   19.9350 H   0  0  0  0  0  0
  -31.7401  -23.8797   19.1318 H   0  0  0  0  0  0
  1 25  1  0  0  0
  1 30  2  0  0  0
  1 84  1  0  0  0
  2  3  1  0  0  0
  2 25  1  0  0  0
  2 89  1  0  0  0
  2 90  1  0  0  0
  3  4  1  0  0  0
  3 91  1  0  0  0
  3 92  1  0  0  0
  4  5  1  0  0  0
  4 93  1  0  0  0
  4 94  1  0  0  0
  5  6  1  0  0  0
  5 26  1  0  0  0
  5 95  1  0  0  0
  6 25  1  0  0  0
  6 96  1  0  0  0
  6 97  1  0  0  0
  7  8  2  0  0  0
  7 26  1  0  0  0
  7 29  1  0  0  0
  8  9  1  0  0  0
  8 22  1  0  0  0
  9 10  1  0  0  0
  9 27  2  0  0  0
 10 11  2  0  0  0
 10 15  1  0  0  0
 11 12  1  0  0  0
 11 98  1  0  0  0
 12 13  2  0  0  0
 12 99  1  0  0  0
 13 14  1  0  0  0
 13 31  1  0  0  0
 14 15  2  0  0  0
 14100  1  0  0  0
 15101  1  0  0  0
 16 17  2  0  0  0
 16 21  1  0  0  0
 16 31  1  0  0  0
 17 18  1  0  0  0
 17102  1  0  0  0
 18 19  2  0  0  0
 18103  1  0  0  0
 19 20  1  0  0  0
 19 24  1  0  0  0
 20 21  2  0  0  0
 20104  1  0  0  0
 21 23  1  0  0  0
 22 28  1  0  0  0
 22 32  2  0  0  0
 26 27  1  0  0  0
 28105  1  0  0  0
 28106  1  0  0  0
 29107  1  0  0  0
 29108  1  0  0  0
 33 34  1  0  0  0
 33 66  1  0  0  0
 33 70  2  0  0  0
 34 36  1  0  0  0
 34 59  1  0  0  0
 34109  1  0  0  0
 35 44  2  0  0  0
 35 45  1  0  0  0
 35 68  1  0  0  0
 36 56  1  0  0  0
 36110  1  0  0  0
 37 39  1  0  0  0
 37 47  1  0  0  0
 37 66  1  0  0  0
 37111  1  0  0  0
 38 43  2  0  0  0
 38 46  1  0  0  0
 38 47  1  0  0  0
 39 64  1  0  0  0
 39 67  2  0  0  0
 40 52  1  0  0  0
 40 53  2  0  0  0
 40 58  1  0  0  0
 41112  1  0  0  0
 41113  1  0  0  0
 41114  1  0  0  0
 41 48  1  0  0  0
 42 43  1  0  0  0
 42 66  1  0  0  0
 42115  1  0  0  0
 42116  1  0  0  0
 43 44  1  0  0  0
 44117  1  0  0  0
 45 46  2  0  0  0
 45118  1  0  0  0
 46119  1  0  0  0
 47120  1  0  0  0
 47121  1  0  0  0
 48 56  1  0  0  0
 48 65  1  0  0  0
 48122  1  0  0  0
 49 50  1  0  0  0
 49 53  1  0  0  0
 49 64  1  0  0  0
 49123  1  0  0  0
 50 51  1  0  0  0
 50124  1  0  0  0
 50125  1  0  0  0
 51 52  1  0  0  0
 51126  1  0  0  0
 51127  1  0  0  0
 52128  1  0  0  0
 52129  1  0  0  0
 53 54  1  0  0  0
 54 55  2  0  0  0
 54130  1  0  0  0
 55 57  1  0  0  0
 55131  1  0  0  0
 56 69  2  0  0  0
 57 58  2  0  0  0
 57132  1  0  0  0
 58133  1  0  0  0
 59 60  1  0  0  0
 59 61  1  0  0  0
 59 62  1  0  0  0
 60134  1  0  0  0
 60135  1  0  0  0
 60136  1  0  0  0
 61137  1  0  0  0
 61138  1  0  0  0
 61139  1  0  0  0
 62140  1  0  0  0
 62141  1  0  0  0
 62142  1  0  0  0
 63 65  1  0  0  0
 63143  1  0  0  0
 63144  1  0  0  0
 63145  1  0  0  0
 64146  1  0  0  0
 65147  1  0  0  0
 68 81  1  0  0  0
 71 72  2  0  0  0
 71 74  1  0  0  0
 71148  1  0  0  0
 72 76  1  0  0  0
 72149  1  0  0  0
 73 75  1  0  0  0
 73 76  2  0  0  0
 73150  1  0  0  0
 74 75  2  0  0  0
 74 77  1  0  0  0
 75 79  1  0  0  0
 76 84  1  0  0  0
 77 85  1  0  0  0
 77 87  2  0  0  0
 78 81  1  0  0  0
 78 83  1  0  0  0
 78 88  2  0  0  0
 79151  1  0  0  0
 79152  1  0  0  0
 79153  1  0  0  0
 80 86  1  0  0  0
 80154  1  0  0  0
 80155  1  0  0  0
 80156  1  0  0  0
 81157  1  0  0  0
 81158  1  0  0  0
 82 86  1  0  0  0
 82159  1  0  0  0
 82160  1  0  0  0
 82 83  1  0  0  0
 83 85  1  0  0  0
 83161  1  0  0  0
 84162  1  0  0  0
 85163  1  0  0  0
 86164  1  0  0  0
 86165  1  0  0  0
M  CHG  1  86   1
M  ISO  4   1 100  68 101  81 101  84 100
M  END
> <chiral flag>
0

> <version>
0

> <s_m_source_file>
/data/baiqing/PycharmProjects/Reinvent-master-3.2/result/LINK_invent/BTK/process_docking_weight1_custom_product_contain_oxygen_bond_distance_aromatic_linkinvent_7_9_3/rearranged_h_0050.sdf

> <i_m_source_file_index>
31

> <r_mmod_Potential_Energy-OPLS-2005>
-295.655334472656

> <r_mmod_Stretch_Energy-OPLS-2005>
41.8041496276855

> <r_mmod_Bend_Energy-OPLS-2005>
107.009368896484

> <r_mmod_Torsional_Energy-OPLS-2005>
288.134094238281

> <r_mmod_Improper_Torsional_Energy-OPLS-2005>
2.93389821052551

> <r_mmod_Van_der_Waal_Energy-OPLS-2005>
150.053131103516

> <r_mmod_Electrostatic_Energy-OPLS-2005>
-395.772918701172

> <r_mmod_Solvation_Energy-OPLS-2005>
-501.144165039062

> <b_mmod_Minimization_Converged-OPLS-2005>
0

> <r_mmod_RMS_Derivative-OPLS-2005>
0.84294980764389

$$$$
31
                    3D
 Structure written by MMmdl.
157165  0  0  1  0            999 V2000
  -30.6615  -14.5443   20.5585 C   0  0  0  0  0  0
  -30.4330  -12.3521   19.4222 C   0  0  0  0  0  0
  -29.4966  -12.5046   18.2049 C   0  0  0  0  0  0
  -28.0196  -12.3510   18.6222 C   0  0  0  0  0  0
  -27.6557  -13.2072   19.8647 C   0  0  2  0  0  0
  -28.7003  -13.0170   20.9858 C   0  0  0  0  0  0
  -25.2574  -13.8155   20.5673 C   0  0  0  0  0  0
  -24.1832  -13.0432   20.9182 C   0  0  0  0  0  0
  -24.6387  -11.6900   20.8736 C   0  0  0  0  0  0
  -23.9056  -10.4288   21.0407 C   0  0  0  0  0  0
  -24.3611   -9.4204   21.9185 C   0  0  0  0  0  0
  -23.6288   -8.2240   22.0754 C   0  0  0  0  0  0
  -22.4270   -8.0278   21.3544 C   0  0  0  0  0  0
  -21.9903   -9.0252   20.4647 C   0  0  0  0  0  0
  -22.7230  -10.2131   20.3056 C   0  0  0  0  0  0
  -21.6851   -6.0734   22.5280 C   0  0  0  0  0  0
  -21.4013   -6.5639   23.8213 C   0  0  0  0  0  0
  -21.3659   -5.6792   24.9176 C   0  0  0  0  0  0
  -21.6044   -4.3055   24.7226 C   0  0  0  0  0  0
  -21.8820   -3.8146   23.4348 C   0  0  0  0  0  0
  -21.9192   -4.6962   22.3403 C   0  0  0  0  0  0
  -22.7857  -13.5233   21.1851 C   0  0  0  0  0  0
  -22.1661   -4.2148   21.0981 F   0  0  0  0  0  0
  -21.5629   -3.4539   25.7739 F   0  0  0  0  0  0
  -30.0191  -13.3489   20.4231 N   0  0  0  0  0  0
  -26.2995  -12.9320   20.3319 N   0  0  0  0  0  0
  -25.9310  -11.6483   20.5750 N   0  0  0  0  0  0
  -22.0498  -12.8227   22.0408 N   0  0  0  0  0  0
  -25.4298  -15.1875   20.4085 N   0  0  0  0  0  0
  -31.8167  -14.7241   20.1638 O   0  0  0  0  0  0
  -21.6636   -6.8875   21.4240 O   0  0  0  0  0  0
  -22.3544  -14.5543   20.6703 O   0  0  0  0  0  0
  -24.6190  -31.8649   23.2065 C   0  0  0  0  0  0
  -25.9067  -32.4805   23.8376 C   0  0  1  0  0  0
  -27.2303  -27.3873   20.1107 C   0  0  0  0  0  0
  -25.5909  -33.8603   24.2308 N   0  0  0  0  0  0
  -23.4092  -30.4874   21.5486 C   0  0  2  0  0  0
  -24.8557  -28.9425   20.1215 C   0  0  0  0  0  0
  -22.7430  -29.4649   22.4981 C   0  0  0  0  0  0
  -18.0274  -28.1378   22.8492 C   0  0  0  0  0  0
  -24.1489  -36.7309   23.2639 C   0  0  0  0  0  0
  -25.9424  -30.8162   21.3662 C   0  0  0  0  0  0
  -26.0199  -29.4447   20.7179 C   0  0  0  0  0  0
  -27.2132  -28.6767   20.7045 C   0  0  0  0  0  0
  -26.0480  -26.9093   19.5108 C   0  0  0  0  0  0
  -24.8665  -27.6753   19.5142 C   0  0  0  0  0  0
  -23.6208  -29.8166   20.1656 C   0  0  0  0  0  0
  -25.4110  -36.3101   24.0334 C   0  0  1  0  0  0
  -20.5867  -28.3673   23.1307 C   0  0  2  0  0  0
  -20.6767  -26.9406   22.5416 C   0  0  0  0  0  0
  -19.5746  -26.6386   21.5213 C   0  0  0  0  0  0
  -18.1922  -26.7924   22.1624 C   0  0  0  0  0  0
  -19.1524  -28.8842   23.2896 C   0  0  0  0  0  0
  -18.9453  -30.1446   23.8909 C   0  0  0  0  0  0
  -17.6456  -30.6587   24.0565 C   0  0  0  0  0  0
  -25.9041  -34.9467   23.5121 C   0  0  0  0  0  0
  -16.5346  -29.9089   23.6327 C   0  0  0  0  0  0
  -16.7263  -28.6503   23.0352 C   0  0  0  0  0  0
  -26.4481  -31.6590   25.0715 C   0  0  0  0  0  0
  -25.3737  -31.3701   26.1457 C   0  0  0  0  0  0
  -27.0314  -30.3027   24.6109 C   0  0  0  0  0  0
  -27.6054  -32.4313   25.7480 C   0  0  0  0  0  0
  -27.5580  -37.1808   24.8465 C   0  0  0  0  0  0
  -21.4154  -29.3037   22.3714 N   0  0  0  0  0  0
  -26.4294  -37.3787   23.9407 N   0  0  0  0  0  0
  -24.6753  -31.0715   22.0984 N   0  0  0  0  0  0
  -23.4182  -28.8193   23.3041 O   0  0  0  0  0  0
  -28.3836  -26.6220   20.0480 O   0  0  0  0  0  0
  -26.5608  -34.8926   22.4685 O   0  0  0  0  0  0
  -23.5372  -32.1423   23.7433 O   0  0  0  0  0  0
  -30.8649  -18.1720   19.3506 C   0  0  0  0  0  0
  -30.8075  -19.3172   18.5322 C   0  0  0  0  0  0
  -29.3070  -19.2325   20.8909 C   0  0  0  0  0  0
  -30.1265  -18.1138   20.5478 C   0  0  0  0  0  0
  -29.2284  -20.3974   20.0648 C   0  0  0  0  0  0
  -30.0035  -20.4219   18.8800 C   0  0  0  0  0  0
  -28.2863  -24.0676   20.1663 C   0  0  0  0  0  0
  -29.6255  -22.9226   21.9119 C   0  0  0  0  0  0
  -30.3188  -16.9054   21.4932 C   0  0  0  0  0  0
  -28.2326  -21.5472   20.3837 C   0  0  0  0  0  0
  -28.4631  -25.4439   20.9008 C   0  0  0  0  0  0
  -29.9020  -15.5610   21.0315 N   0  0  0  0  0  0
  -28.7439  -22.9064   20.7423 N   0  0  0  0  0  0
  -27.6610  -24.0504   19.1021 O   0  0  0  0  0  0
  -29.9652  -21.7776   17.8099 Cl  0  0  0  0  0  0
  -31.4733  -12.4781   19.1168 H   0  0  0  0  0  0
  -30.3630  -11.3467   19.8401 H   0  0  0  0  0  0
  -29.7474  -11.7665   17.4418 H   0  0  0  0  0  0
  -29.6474  -13.4825   17.7450 H   0  0  0  0  0  0
  -27.8461  -11.2961   18.8384 H   0  0  0  0  0  0
  -27.3637  -12.6003   17.7873 H   0  0  0  0  0  0
  -27.6888  -14.2495   19.5468 H   0  0  0  0  0  0
  -28.6978  -11.9843   21.3376 H   0  0  0  0  0  0
  -28.4544  -13.6231   21.8589 H   0  0  0  0  0  0
  -25.2757   -9.5682   22.4756 H   0  0  0  0  0  0
  -23.9999   -7.4631   22.7472 H   0  0  0  0  0  0
  -21.0835   -8.8769   19.8953 H   0  0  0  0  0  0
  -22.3689  -10.9670   19.6164 H   0  0  0  0  0  0
  -21.2004   -7.6147   23.9716 H   0  0  0  0  0  0
  -21.1480   -6.0523   25.9079 H   0  0  0  0  0  0
  -22.0600   -2.7608   23.2849 H   0  0  0  0  0  0
  -22.4109  -11.9882   22.4790 H   0  0  0  0  0  0
  -21.1120  -13.1258   22.2621 H   0  0  0  0  0  0
  -24.6624  -15.8421   20.5158 H   0  0  0  0  0  0
  -26.2788  -15.6267   20.0750 H   0  0  0  0  0  0
  -26.7136  -32.5507   23.1136 H   0  0  0  0  0  0
  -25.0057  -33.9759   25.0452 H   0  0  0  0  0  0
  -22.6999  -31.3051   21.4058 H   0  0  0  0  0  0
  -23.3745  -35.9648   23.3313 H   0  0  0  0  0  0
  -24.3579  -36.8914   22.2051 H   0  0  0  0  0  0
  -23.7250  -37.6519   23.6649 H   0  0  0  0  0  0
  -26.0588  -31.5779   20.5941 H   0  0  0  0  0  0
  -26.8289  -30.8724   21.9864 H   0  0  0  0  0  0
  -28.1162  -29.0660   21.1540 H   0  0  0  0  0  0
  -26.0358  -25.9450   19.0256 H   0  0  0  0  0  0
  -23.9736  -27.2839   19.0465 H   0  0  0  0  0  0
  -23.7350  -30.5901   19.4050 H   0  0  0  0  0  0
  -22.7428  -29.2403   19.8681 H   0  0  0  0  0  0
  -25.1287  -36.1965   25.0827 H   0  0  0  0  0  0
  -20.9954  -28.3244   24.1430 H   0  0  0  0  0  0
  -20.5676  -26.2281   23.3606 H   0  0  0  0  0  0
  -21.6637  -26.7454   22.1205 H   0  0  0  0  0  0
  -19.6913  -25.6301   21.1236 H   0  0  0  0  0  0
  -19.6684  -27.3204   20.6748 H   0  0  0  0  0  0
  -17.4194  -26.6673   21.4025 H   0  0  0  0  0  0
  -18.0323  -26.0061   22.9015 H   0  0  0  0  0  0
  -19.7931  -30.7253   24.2288 H   0  0  0  0  0  0
  -17.5015  -31.6269   24.5162 H   0  0  0  0  0  0
  -15.5348  -30.2997   23.7645 H   0  0  0  0  0  0
  -15.8661  -28.0827   22.7065 H   0  0  0  0  0  0
  -24.5912  -30.7048   25.7790 H   0  0  0  0  0  0
  -24.8924  -32.2856   26.4909 H   0  0  0  0  0  0
  -25.8083  -30.8867   27.0215 H   0  0  0  0  0  0
  -26.2865  -29.6781   24.1164 H   0  0  0  0  0  0
  -27.4075  -29.7270   25.4577 H   0  0  0  0  0  0
  -27.8705  -30.4333   23.9270 H   0  0  0  0  0  0
  -27.2674  -33.3606   26.2077 H   0  0  0  0  0  0
  -28.3854  -32.6883   25.0300 H   0  0  0  0  0  0
  -28.0734  -31.8423   26.5378 H   0  0  0  0  0  0
  -28.2605  -38.0098   24.7507 H   0  0  0  0  0  0
  -28.1068  -36.2630   24.6300 H   0  0  0  0  0  0
  -27.2297  -37.1471   25.8869 H   0  0  0  0  0  0
  -20.9323  -29.8756   21.6928 H   0  0  0  0  0  0
  -26.0183  -38.2867   24.1401 H   0  0  0  0  0  0
  -31.5055  -17.3472   19.0704 H   0  0  0  0  0  0
  -31.3892  -19.3489   17.6220 H   0  0  0  0  0  0
  -28.7278  -19.1964   21.8031 H   0  0  0  0  0  0
  -29.1556  -23.4377   22.7508 H   0  0  0  0  0  0
  -30.5660  -23.4231   21.6784 H   0  0  0  0  0  0
  -29.8745  -21.9178   22.2541 H   0  0  0  0  0  0
  -29.7811  -17.1061   22.4206 H   0  0  0  0  0  0
  -31.3720  -16.8709   21.7779 H   0  0  0  0  0  0
  -27.5956  -21.2241   21.2080 H   0  0  0  0  0  0
  -27.5543  -21.6084   19.5315 H   0  0  0  0  0  0
  -29.4446  -25.4826   21.3709 H   0  0  0  0  0  0
  -27.7331  -25.5035   21.7096 H   0  0  0  0  0  0
  -28.9475  -15.3127   21.2407 H   0  0  0  0  0  0
  1 25  1  0  0  0
  1 30  2  0  0  0
  1 82  1  0  0  0
  2  3  1  0  0  0
  2 25  1  0  0  0
  2 86  1  0  0  0
  2 87  1  0  0  0
  3  4  1  0  0  0
  3 88  1  0  0  0
  3 89  1  0  0  0
  4  5  1  0  0  0
  4 90  1  0  0  0
  4 91  1  0  0  0
  5  6  1  0  0  0
  5 26  1  0  0  0
  5 92  1  0  0  0
  6 25  1  0  0  0
  6 93  1  0  0  0
  6 94  1  0  0  0
  7  8  2  0  0  0
  7 26  1  0  0  0
  7 29  1  0  0  0
  8  9  1  0  0  0
  8 22  1  0  0  0
  9 10  1  0  0  0
  9 27  2  0  0  0
 10 11  2  0  0  0
 10 15  1  0  0  0
 11 12  1  0  0  0
 11 95  1  0  0  0
 12 13  2  0  0  0
 12 96  1  0  0  0
 13 14  1  0  0  0
 13 31  1  0  0  0
 14 15  2  0  0  0
 14 97  1  0  0  0
 15 98  1  0  0  0
 16 17  2  0  0  0
 16 21  1  0  0  0
 16 31  1  0  0  0
 17 18  1  0  0  0
 17 99  1  0  0  0
 18 19  2  0  0  0
 18100  1  0  0  0
 19 20  1  0  0  0
 19 24  1  0  0  0
 20 21  2  0  0  0
 20101  1  0  0  0
 21 23  1  0  0  0
 22 28  1  0  0  0
 22 32  2  0  0  0
 26 27  1  0  0  0
 28102  1  0  0  0
 28103  1  0  0  0
 29104  1  0  0  0
 29105  1  0  0  0
 33 34  1  0  0  0
 33 66  1  0  0  0
 33 70  2  0  0  0
 34 36  1  0  0  0
 34 59  1  0  0  0
 34106  1  0  0  0
 35 44  2  0  0  0
 35 45  1  0  0  0
 35 68  1  0  0  0
 36 56  1  0  0  0
 36107  1  0  0  0
 37 39  1  0  0  0
 37 47  1  0  0  0
 37 66  1  0  0  0
 37108  1  0  0  0
 38 43  2  0  0  0
 38 46  1  0  0  0
 38 47  1  0  0  0
 39 64  1  0  0  0
 39 67  2  0  0  0
 40 52  1  0  0  0
 40 53  2  0  0  0
 40 58  1  0  0  0
 41109  1  0  0  0
 41110  1  0  0  0
 41111  1  0  0  0
 41 48  1  0  0  0
 42 43  1  0  0  0
 42 66  1  0  0  0
 42112  1  0  0  0
 42113  1  0  0  0
 43 44  1  0  0  0
 44114  1  0  0  0
 45 46  2  0  0  0
 45115  1  0  0  0
 46116  1  0  0  0
 47117  1  0  0  0
 47118  1  0  0  0
 48 56  1  0  0  0
 48 65  1  0  0  0
 48119  1  0  0  0
 49 50  1  0  0  0
 49 53  1  0  0  0
 49 64  1  0  0  0
 49120  1  0  0  0
 50 51  1  0  0  0
 50121  1  0  0  0
 50122  1  0  0  0
 51 52  1  0  0  0
 51123  1  0  0  0
 51124  1  0  0  0
 52125  1  0  0  0
 52126  1  0  0  0
 53 54  1  0  0  0
 54 55  2  0  0  0
 54127  1  0  0  0
 55 57  1  0  0  0
 55128  1  0  0  0
 56 69  2  0  0  0
 57 58  2  0  0  0
 57129  1  0  0  0
 58130  1  0  0  0
 59 60  1  0  0  0
 59 61  1  0  0  0
 59 62  1  0  0  0
 60131  1  0  0  0
 60132  1  0  0  0
 60133  1  0  0  0
 61134  1  0  0  0
 61135  1  0  0  0
 61136  1  0  0  0
 62137  1  0  0  0
 62138  1  0  0  0
 62139  1  0  0  0
 63 65  1  0  0  0
 63140  1  0  0  0
 63141  1  0  0  0
 63142  1  0  0  0
 64143  1  0  0  0
 65144  1  0  0  0
 68 81  1  0  0  0
 71 72  2  0  0  0
 71 74  1  0  0  0
 71145  1  0  0  0
 72 76  1  0  0  0
 72146  1  0  0  0
 73 74  2  0  0  0
 73 75  1  0  0  0
 73147  1  0  0  0
 74 79  1  0  0  0
 75 76  2  0  0  0
 75 80  1  0  0  0
 76 85  1  0  0  0
 77 81  1  0  0  0
 77 83  1  0  0  0
 77 84  2  0  0  0
 78 83  1  0  0  0
 78148  1  0  0  0
 78149  1  0  0  0
 78150  1  0  0  0
 79 82  1  0  0  0
 79151  1  0  0  0
 79152  1  0  0  0
 80 83  1  0  0  0
 80153  1  0  0  0
 80154  1  0  0  0
 81155  1  0  0  0
 81156  1  0  0  0
 82157  1  0  0  0
M  ISO  4   1 100  68 101  81 101  82 100
M  END
> <chiral flag>
0

> <version>
0

> <s_m_source_file>
/data/baiqing/PycharmProjects/Reinvent-master-3.2/result/LINK_invent/BTK/process_docking_weight1_custom_product_contain_oxygen_bond_distance_aromatic_linkinvent_7_9_3/rearranged_h_0050.sdf

> <i_m_source_file_index>
32

> <r_mmod_Potential_Energy-OPLS-2005>
-32.8085556030273

> <r_mmod_Stretch_Energy-OPLS-2005>
54.9209785461426

> <r_mmod_Bend_Energy-OPLS-2005>
111.819747924805

> <r_mmod_Torsional_Energy-OPLS-2005>
244.785583496094

> <r_mmod_Improper_Torsional_Energy-OPLS-2005>
4.63857555389404

> <r_mmod_Van_der_Waal_Energy-OPLS-2005>
143.171417236328

> <r_mmod_Electrostatic_Energy-OPLS-2005>
-381.316680908203

> <r_mmod_Solvation_Energy-OPLS-2005>
-233.035522460938

> <b_mmod_Minimization_Converged-OPLS-2005>
0

> <r_mmod_RMS_Derivative-OPLS-2005>
0.302566289901733

$$$$
32
                    3D
 Structure written by MMmdl.
162171  0  0  1  0            999 V2000
  -30.7059  -14.4515   20.6160 C   0  0  0  0  0  0
  -30.4302  -12.3112   19.4086 C   0  0  0  0  0  0
  -29.4952  -12.5127   18.1995 C   0  0  0  0  0  0
  -28.0164  -12.3681   18.6134 C   0  0  0  0  0  0
  -27.6647  -13.1993   19.8755 C   0  0  2  0  0  0
  -28.7056  -12.9599   20.9914 C   0  0  0  0  0  0
  -25.2610  -13.8148   20.5669 C   0  0  0  0  0  0
  -24.1851  -13.0440   20.9171 C   0  0  0  0  0  0
  -24.6384  -11.6904   20.8717 C   0  0  0  0  0  0
  -23.9046  -10.4298   21.0392 C   0  0  0  0  0  0
  -24.3599   -9.4214   21.9168 C   0  0  0  0  0  0
  -23.6278   -8.2250   22.0750 C   0  0  0  0  0  0
  -22.4256   -8.0284   21.3551 C   0  0  0  0  0  0
  -21.9886   -9.0259   20.4650 C   0  0  0  0  0  0
  -22.7220  -10.2138   20.3049 C   0  0  0  0  0  0
  -21.6857   -6.0721   22.5275 C   0  0  0  0  0  0
  -21.4020   -6.5628   23.8210 C   0  0  0  0  0  0
  -21.3661   -5.6782   24.9173 C   0  0  0  0  0  0
  -21.6039   -4.3044   24.7234 C   0  0  0  0  0  0
  -21.8819   -3.8139   23.4354 C   0  0  0  0  0  0
  -21.9199   -4.6949   22.3402 C   0  0  0  0  0  0
  -22.7876  -13.5256   21.1834 C   0  0  0  0  0  0
  -22.1666   -4.2130   21.0981 F   0  0  0  0  0  0
  -21.5629   -3.4535   25.7752 F   0  0  0  0  0  0
  -30.0374  -13.2788   20.4437 N   0  0  0  0  0  0
  -26.3036  -12.9297   20.3354 N   0  0  0  0  0  0
  -25.9305  -11.6464   20.5739 N   0  0  0  0  0  0
  -22.0495  -12.8273   22.0391 N   0  0  0  0  0  0
  -25.4353  -15.1865   20.4072 N   0  0  0  0  0  0
  -31.8173  -14.6679   20.1241 O   0  0  0  0  0  0
  -21.6637   -6.8870   21.4238 O   0  0  0  0  0  0
  -22.3573  -14.5562   20.6673 O   0  0  0  0  0  0
  -24.6124  -31.8698   23.2117 C   0  0  0  0  0  0
  -25.9026  -32.4834   23.8411 C   0  0  1  0  0  0
  -27.2464  -27.4543   20.1052 C   0  0  0  0  0  0
  -25.5884  -33.8627   24.2354 N   0  0  0  0  0  0
  -23.4008  -30.4915   21.5514 C   0  0  2  0  0  0
  -24.8526  -28.9567   20.1213 C   0  0  0  0  0  0
  -22.7406  -29.4656   22.5003 C   0  0  0  0  0  0
  -18.0271  -28.1383   22.8491 C   0  0  0  0  0  0
  -24.1483  -36.7322   23.2636 C   0  0  0  0  0  0
  -25.9265  -30.8419   21.3623 C   0  0  0  0  0  0
  -26.0083  -29.4727   20.7226 C   0  0  0  0  0  0
  -27.2086  -28.7283   20.7195 C   0  0  0  0  0  0
  -26.0804  -26.9549   19.4927 C   0  0  0  0  0  0
  -24.8812  -27.6927   19.5060 C   0  0  0  0  0  0
  -23.6120  -29.8203   20.1675 C   0  0  0  0  0  0
  -25.4097  -36.3115   24.0347 C   0  0  1  0  0  0
  -20.5858  -28.3660   23.1328 C   0  0  2  0  0  0
  -20.6761  -26.9395   22.5425 C   0  0  0  0  0  0
  -19.5742  -26.6386   21.5214 C   0  0  0  0  0  0
  -18.1917  -26.7934   22.1615 C   0  0  0  0  0  0
  -19.1519  -28.8839   23.2909 C   0  0  0  0  0  0
  -18.9447  -30.1445   23.8919 C   0  0  0  0  0  0
  -17.6448  -30.6585   24.0567 C   0  0  0  0  0  0
  -25.9019  -34.9480   23.5150 C   0  0  0  0  0  0
  -16.5339  -29.9090   23.6320 C   0  0  0  0  0  0
  -16.7258  -28.6506   23.0349 C   0  0  0  0  0  0
  -26.4464  -31.6600   25.0723 C   0  0  0  0  0  0
  -25.3749  -31.3716   26.1494 C   0  0  0  0  0  0
  -27.0269  -30.3040   24.6069 C   0  0  0  0  0  0
  -27.6070  -32.4299   25.7456 C   0  0  0  0  0  0
  -27.5584  -37.1802   24.8455 C   0  0  0  0  0  0
  -21.4135  -29.3025   22.3737 N   0  0  0  0  0  0
  -26.4286  -37.3798   23.9413 N   0  0  0  0  0  0
  -24.6645  -31.0822   22.1004 N   0  0  0  0  0  0
  -23.4184  -28.8194   23.3038 O   0  0  0  0  0  0
  -28.3835  -26.6835   20.0145 O   0  0  0  0  0  0
  -26.5582  -34.8925   22.4709 O   0  0  0  0  0  0
  -23.5320  -32.1428   23.7522 O   0  0  0  0  0  0
  -29.6087  -19.0415   22.0278 C   0  0  0  0  0  0
  -29.3338  -17.7232   21.6099 C   0  0  0  0  0  0
  -31.6651  -17.1286   21.9472 C   0  0  0  0  0  0
  -30.9052  -19.4125   22.4455 C   0  0  0  0  0  0
  -30.3554  -16.7488   21.5743 C   0  0  0  0  0  0
  -31.9419  -18.4436   22.3824 C   0  0  0  0  0  0
  -30.2081  -24.1882   21.6728 C   0  0  0  0  0  0
  -29.9590  -22.8365   22.2251 C   0  0  0  0  0  0
  -29.1667  -25.0584   21.6388 C   0  0  0  0  0  0
  -31.6060  -24.6078   21.2060 C   0  0  0  0  0  0
  -32.7015  -23.5765   21.4870 C   0  0  0  0  0  0
  -32.1523  -22.1701   21.2690 C   0  0  0  0  0  0
  -31.1227  -20.8029   23.0561 C   0  0  0  0  0  0
  -29.1855  -26.5141   21.1813 C   0  0  0  0  0  0
  -30.9964  -21.9568   22.1438 N   0  0  0  0  0  0
  -29.9956  -15.4064   21.2478 N   0  0  0  0  0  0
  -28.9133  -22.5285   22.8090 O   0  0  0  0  0  0
  -33.5600  -18.8157   22.8672 Cl  0  0  0  0  0  0
  -31.4719  -12.4247   19.1037 H   0  0  0  0  0  0
  -30.3438  -11.2948   19.7962 H   0  0  0  0  0  0
  -29.7354  -11.7944   17.4144 H   0  0  0  0  0  0
  -29.6610  -13.5015   17.7685 H   0  0  0  0  0  0
  -27.8269  -11.3107   18.8026 H   0  0  0  0  0  0
  -27.3658  -12.6494   17.7851 H   0  0  0  0  0  0
  -27.7156  -14.2495   19.5863 H   0  0  0  0  0  0
  -28.6861  -11.9165   21.3082 H   0  0  0  0  0  0
  -28.4591  -13.5329   21.8862 H   0  0  0  0  0  0
  -25.2739   -9.5701   22.4744 H   0  0  0  0  0  0
  -23.9993   -7.4644   22.7470 H   0  0  0  0  0  0
  -21.0816   -8.8785   19.8961 H   0  0  0  0  0  0
  -22.3671  -10.9676   19.6165 H   0  0  0  0  0  0
  -21.2007   -7.6131   23.9712 H   0  0  0  0  0  0
  -21.1478   -6.0510   25.9076 H   0  0  0  0  0  0
  -22.0593   -2.7599   23.2868 H   0  0  0  0  0  0
  -22.4089  -11.9941   22.4803 H   0  0  0  0  0  0
  -21.1114  -13.1328   22.2567 H   0  0  0  0  0  0
  -24.6694  -15.8429   20.5121 H   0  0  0  0  0  0
  -26.2827  -15.6213   20.0648 H   0  0  0  0  0  0
  -26.7108  -32.5574   23.1194 H   0  0  0  0  0  0
  -25.0054  -33.9789   25.0510 H   0  0  0  0  0  0
  -22.6871  -31.3057   21.4109 H   0  0  0  0  0  0
  -23.3738  -35.9661   23.3301 H   0  0  0  0  0  0
  -24.3588  -36.8928   22.2050 H   0  0  0  0  0  0
  -23.7242  -37.6533   23.6644 H   0  0  0  0  0  0
  -26.0307  -31.6006   20.5854 H   0  0  0  0  0  0
  -26.8172  -30.9066   21.9747 H   0  0  0  0  0  0
  -28.1011  -29.1417   21.1681 H   0  0  0  0  0  0
  -26.1042  -25.9891   19.0078 H   0  0  0  0  0  0
  -23.9956  -27.2882   19.0356 H   0  0  0  0  0  0
  -23.7176  -30.5917   19.4040 H   0  0  0  0  0  0
  -22.7383  -29.2355   19.8742 H   0  0  0  0  0  0
  -25.1267  -36.1991   25.0841 H   0  0  0  0  0  0
  -20.9951  -28.3233   24.1447 H   0  0  0  0  0  0
  -20.5651  -26.2264   23.3610 H   0  0  0  0  0  0
  -21.6637  -26.7437   22.1227 H   0  0  0  0  0  0
  -19.6890  -25.6299   21.1234 H   0  0  0  0  0  0
  -19.6686  -27.3205   20.6752 H   0  0  0  0  0  0
  -17.4191  -26.6696   21.4014 H   0  0  0  0  0  0
  -18.0296  -26.0072   22.9001 H   0  0  0  0  0  0
  -19.7921  -30.7260   24.2297 H   0  0  0  0  0  0
  -17.4999  -31.6265   24.5171 H   0  0  0  0  0  0
  -15.5340  -30.3000   23.7624 H   0  0  0  0  0  0
  -15.8659  -28.0824   22.7061 H   0  0  0  0  0  0
  -24.5905  -30.7071   25.7853 H   0  0  0  0  0  0
  -24.8957  -32.2877   26.4961 H   0  0  0  0  0  0
  -25.8115  -30.8879   27.0243 H   0  0  0  0  0  0
  -26.2784  -29.6816   24.1151 H   0  0  0  0  0  0
  -27.4073  -29.7265   25.4505 H   0  0  0  0  0  0
  -27.8611  -30.4357   23.9175 H   0  0  0  0  0  0
  -27.2729  -33.3600   26.2066 H   0  0  0  0  0  0
  -28.3849  -32.6855   25.0249 H   0  0  0  0  0  0
  -28.0772  -31.8400   26.5335 H   0  0  0  0  0  0
  -28.2607  -38.0094   24.7518 H   0  0  0  0  0  0
  -28.1077  -36.2636   24.6254 H   0  0  0  0  0  0
  -27.2316  -37.1435   25.8861 H   0  0  0  0  0  0
  -20.9291  -29.8753   21.6967 H   0  0  0  0  0  0
  -26.0184  -38.2876   24.1430 H   0  0  0  0  0  0
  -28.8031  -19.7618   22.0715 H   0  0  0  0  0  0
  -28.3212  -17.4637   21.3346 H   0  0  0  0  0  0
  -32.4670  -16.4046   21.9444 H   0  0  0  0  0  0
  -28.1927  -24.7356   21.9794 H   0  0  0  0  0  0
  -31.8871  -25.5536   21.6708 H   0  0  0  0  0  0
  -31.5531  -24.7870   20.1314 H   0  0  0  0  0  0
  -33.0493  -23.6750   22.5167 H   0  0  0  0  0  0
  -33.5678  -23.7575   20.8494 H   0  0  0  0  0  0
  -32.9371  -21.4341   21.4495 H   0  0  0  0  0  0
  -31.8403  -22.0407   20.2315 H   0  0  0  0  0  0
  -32.0948  -20.8688   23.5431 H   0  0  0  0  0  0
  -30.4266  -20.8933   23.8915 H   0  0  0  0  0  0
  -30.1941  -26.8476   20.9410 H   0  0  0  0  0  0
  -28.8495  -27.1237   22.0213 H   0  0  0  0  0  0
  -29.0469  -15.1397   21.4629 H   0  0  0  0  0  0
  1 25  1  0  0  0
  1 30  2  0  0  0
  1 86  1  0  0  0
  2  3  1  0  0  0
  2 25  1  0  0  0
  2 89  1  0  0  0
  2 90  1  0  0  0
  3  4  1  0  0  0
  3 91  1  0  0  0
  3 92  1  0  0  0
  4  5  1  0  0  0
  4 93  1  0  0  0
  4 94  1  0  0  0
  5  6  1  0  0  0
  5 26  1  0  0  0
  5 95  1  0  0  0
  6 25  1  0  0  0
  6 96  1  0  0  0
  6 97  1  0  0  0
  7  8  2  0  0  0
  7 26  1  0  0  0
  7 29  1  0  0  0
  8  9  1  0  0  0
  8 22  1  0  0  0
  9 10  1  0  0  0
  9 27  2  0  0  0
 10 11  2  0  0  0
 10 15  1  0  0  0
 11 12  1  0  0  0
 11 98  1  0  0  0
 12 13  2  0  0  0
 12 99  1  0  0  0
 13 14  1  0  0  0
 13 31  1  0  0  0
 14 15  2  0  0  0
 14100  1  0  0  0
 15101  1  0  0  0
 16 17  2  0  0  0
 16 21  1  0  0  0
 16 31  1  0  0  0
 17 18  1  0  0  0
 17102  1  0  0  0
 18 19  2  0  0  0
 18103  1  0  0  0
 19 20  1  0  0  0
 19 24  1  0  0  0
 20 21  2  0  0  0
 20104  1  0  0  0
 21 23  1  0  0  0
 22 28  1  0  0  0
 22 32  2  0  0  0
 26 27  1  0  0  0
 28105  1  0  0  0
 28106  1  0  0  0
 29107  1  0  0  0
 29108  1  0  0  0
 33 34  1  0  0  0
 33 66  1  0  0  0
 33 70  2  0  0  0
 34 36  1  0  0  0
 34 59  1  0  0  0
 34109  1  0  0  0
 35 44  2  0  0  0
 35 45  1  0  0  0
 35 68  1  0  0  0
 36 56  1  0  0  0
 36110  1  0  0  0
 37 39  1  0  0  0
 37 47  1  0  0  0
 37 66  1  0  0  0
 37111  1  0  0  0
 38 43  2  0  0  0
 38 46  1  0  0  0
 38 47  1  0  0  0
 39 64  1  0  0  0
 39 67  2  0  0  0
 40 52  1  0  0  0
 40 53  2  0  0  0
 40 58  1  0  0  0
 41112  1  0  0  0
 41113  1  0  0  0
 41114  1  0  0  0
 41 48  1  0  0  0
 42 43  1  0  0  0
 42 66  1  0  0  0
 42115  1  0  0  0
 42116  1  0  0  0
 43 44  1  0  0  0
 44117  1  0  0  0
 45 46  2  0  0  0
 45118  1  0  0  0
 46119  1  0  0  0
 47120  1  0  0  0
 47121  1  0  0  0
 48 56  1  0  0  0
 48 65  1  0  0  0
 48122  1  0  0  0
 49 50  1  0  0  0
 49 53  1  0  0  0
 49 64  1  0  0  0
 49123  1  0  0  0
 50 51  1  0  0  0
 50124  1  0  0  0
 50125  1  0  0  0
 51 52  1  0  0  0
 51126  1  0  0  0
 51127  1  0  0  0
 52128  1  0  0  0
 52129  1  0  0  0
 53 54  1  0  0  0
 54 55  2  0  0  0
 54130  1  0  0  0
 55 57  1  0  0  0
 55131  1  0  0  0
 56 69  2  0  0  0
 57 58  2  0  0  0
 57132  1  0  0  0
 58133  1  0  0  0
 59 60  1  0  0  0
 59 61  1  0  0  0
 59 62  1  0  0  0
 60134  1  0  0  0
 60135  1  0  0  0
 60136  1  0  0  0
 61137  1  0  0  0
 61138  1  0  0  0
 61139  1  0  0  0
 62140  1  0  0  0
 62141  1  0  0  0
 62142  1  0  0  0
 63 65  1  0  0  0
 63143  1  0  0  0
 63144  1  0  0  0
 63145  1  0  0  0
 64146  1  0  0  0
 65147  1  0  0  0
 68 84  1  0  0  0
 71 72  2  0  0  0
 71 74  1  0  0  0
 71148  1  0  0  0
 72 75  1  0  0  0
 72149  1  0  0  0
 73 75  2  0  0  0
 73 76  1  0  0  0
 73150  1  0  0  0
 74 76  2  0  0  0
 74 83  1  0  0  0
 75 86  1  0  0  0
 76 88  1  0  0  0
 77 78  1  0  0  0
 77 79  2  0  0  0
 77 80  1  0  0  0
 78 85  1  0  0  0
 78 87  2  0  0  0
 79 84  1  0  0  0
 79151  1  0  0  0
 80 81  1  0  0  0
 80152  1  0  0  0
 80153  1  0  0  0
 81 82  1  0  0  0
 81154  1  0  0  0
 81155  1  0  0  0
 82 85  1  0  0  0
 82156  1  0  0  0
 82157  1  0  0  0
 83 85  1  0  0  0
 83158  1  0  0  0
 83159  1  0  0  0
 84160  1  0  0  0
 84161  1  0  0  0
 86162  1  0  0  0
M  ISO  4   1 100  68 101  84 101  86 100
M  END
> <chiral flag>
0

> <version>
0

> <s_m_source_file>
/data/baiqing/PycharmProjects/Reinvent-master-3.2/result/LINK_invent/BTK/process_docking_weight1_custom_product_contain_oxygen_bond_distance_aromatic_linkinvent_7_9_3/rearranged_h_0050.sdf

> <i_m_source_file_index>
33

> <r_mmod_Potential_Energy-OPLS-2005>
8.44704914093018

> <r_mmod_Stretch_Energy-OPLS-2005>
40.9691352844238

> <r_mmod_Bend_Energy-OPLS-2005>
106.713676452637

> <r_mmod_Torsional_Energy-OPLS-2005>
256.511779785156

> <r_mmod_Improper_Torsional_Energy-OPLS-2005>
4.42884922027588

> <r_mmod_Van_der_Waal_Energy-OPLS-2005>
171.93864440918

> <r_mmod_Electrostatic_Energy-OPLS-2005>
-362.794586181641

> <r_mmod_Solvation_Energy-OPLS-2005>
-218.754806518555

> <b_mmod_Minimization_Converged-OPLS-2005>
0

> <r_mmod_RMS_Derivative-OPLS-2005>
1.34161627292633

$$$$
33
                    3D
 Structure written by MMmdl.
154162  0  0  1  0            999 V2000
  -30.5869  -14.7540   20.4124 C   0  0  0  0  0  0
  -30.4189  -12.4531   19.4738 C   0  0  0  0  0  0
  -29.4962  -12.5108   18.2366 C   0  0  0  0  0  0
  -28.0234  -12.3315   18.6491 C   0  0  0  0  0  0
  -27.6327  -13.2313   19.8529 C   0  0  2  0  0  0
  -28.6745  -13.1683   20.9890 C   0  0  0  0  0  0
  -25.2448  -13.8209   20.5728 C   0  0  0  0  0  0
  -24.1744  -13.0444   20.9239 C   0  0  0  0  0  0
  -24.6348  -11.6924   20.8775 C   0  0  0  0  0  0
  -23.9021  -10.4312   21.0428 C   0  0  0  0  0  0
  -24.3588   -9.4211   21.9187 C   0  0  0  0  0  0
  -23.6287   -8.2233   22.0768 C   0  0  0  0  0  0
  -22.4273   -8.0264   21.3558 C   0  0  0  0  0  0
  -21.9908   -9.0217   20.4649 C   0  0  0  0  0  0
  -22.7214  -10.2105   20.3063 C   0  0  0  0  0  0
  -21.6847   -6.0732   22.5297 C   0  0  0  0  0  0
  -21.4000   -6.5640   23.8233 C   0  0  0  0  0  0
  -21.3668   -5.6793   24.9199 C   0  0  0  0  0  0
  -21.6043   -4.3054   24.7234 C   0  0  0  0  0  0
  -21.8815   -3.8139   23.4360 C   0  0  0  0  0  0
  -21.9195   -4.6962   22.3413 C   0  0  0  0  0  0
  -22.7771  -13.5197   21.1908 C   0  0  0  0  0  0
  -22.1671   -4.2144   21.0995 F   0  0  0  0  0  0
  -21.5631   -3.4535   25.7748 F   0  0  0  0  0  0
  -29.9817  -13.5149   20.4117 N   0  0  0  0  0  0
  -26.2871  -12.9414   20.3313 N   0  0  0  0  0  0
  -25.9277  -11.6554   20.5784 N   0  0  0  0  0  0
  -22.0423  -12.8153   22.0448 N   0  0  0  0  0  0
  -25.4140  -15.1942   20.4152 N   0  0  0  0  0  0
  -31.7662  -14.8575   20.0617 O   0  0  0  0  0  0
  -21.6637   -6.8861   21.4259 O   0  0  0  0  0  0
  -22.3440  -14.5506   20.6784 O   0  0  0  0  0  0
  -24.6310  -31.8563   23.2012 C   0  0  0  0  0  0
  -25.9131  -32.4759   23.8348 C   0  0  1  0  0  0
  -27.2103  -27.2674   20.1129 C   0  0  0  0  0  0
  -25.5942  -33.8568   24.2277 N   0  0  0  0  0  0
  -23.4269  -30.4791   21.5466 C   0  0  2  0  0  0
  -24.8714  -28.9379   20.1068 C   0  0  0  0  0  0
  -22.7502  -29.4605   22.4960 C   0  0  0  0  0  0
  -18.0295  -28.1386   22.8487 C   0  0  0  0  0  0
  -24.1505  -36.7274   23.2644 C   0  0  0  0  0  0
  -25.9752  -30.7682   21.3843 C   0  0  0  0  0  0
  -26.0453  -29.3956   20.7175 C   0  0  0  0  0  0
  -27.2174  -28.5707   20.7156 C   0  0  0  0  0  0
  -26.0155  -26.8922   19.4527 C   0  0  0  0  0  0
  -24.8609  -27.6950   19.4630 C   0  0  0  0  0  0
  -23.6404  -29.8204   20.1604 C   0  0  0  0  0  0
  -25.4126  -36.3088   24.0344 C   0  0  1  0  0  0
  -20.5892  -28.3696   23.1284 C   0  0  2  0  0  0
  -20.6801  -26.9422   22.5413 C   0  0  0  0  0  0
  -19.5781  -26.6397   21.5210 C   0  0  0  0  0  0
  -18.1951  -26.7936   22.1604 C   0  0  0  0  0  0
  -19.1544  -28.8861   23.2866 C   0  0  0  0  0  0
  -18.9458  -30.1467   23.8879 C   0  0  0  0  0  0
  -17.6456  -30.6587   24.0574 C   0  0  0  0  0  0
  -25.9055  -34.9451   23.5107 C   0  0  0  0  0  0
  -16.5352  -29.9085   23.6345 C   0  0  0  0  0  0
  -16.7281  -28.6502   23.0367 C   0  0  0  0  0  0
  -26.4496  -31.6575   25.0732 C   0  0  0  0  0  0
  -25.3735  -31.3676   26.1458 C   0  0  0  0  0  0
  -27.0347  -30.2997   24.6216 C   0  0  0  0  0  0
  -27.6055  -32.4310   25.7496 C   0  0  0  0  0  0
  -27.5604  -37.1778   24.8452 C   0  0  0  0  0  0
  -21.4212  -29.3034   22.3683 N   0  0  0  0  0  0
  -26.4303  -37.3785   23.9421 N   0  0  0  0  0  0
  -24.6954  -31.0523   22.0987 N   0  0  0  0  0  0
  -23.4207  -28.8164   23.3073 O   0  0  0  0  0  0
  -28.2888  -26.3517   20.1833 O   0  0  0  0  0  0
  -26.5618  -34.8937   22.4670 O   0  0  0  0  0  0
  -23.5464  -32.1389   23.7310 O   0  0  0  0  0  0
  -29.9639  -18.5112   17.9092 C   0  0  0  0  0  0
  -30.0369  -17.2869   18.6071 C   0  0  0  0  0  0
  -29.5550  -18.4951   20.6473 C   0  0  0  0  0  0
  -29.7136  -19.7451   18.5535 C   0  0  0  0  0  0
  -29.5093  -19.7862   19.9622 C   0  0  0  0  0  0
  -29.8357  -17.2204   20.0026 C   0  0  0  0  0  0
  -28.9739  -23.7750   20.4627 C   0  0  0  0  0  0
  -29.7118  -21.0008   17.6903 C   0  0  0  0  0  0
  -28.0135  -24.9032   19.8701 C   0  0  0  0  0  0
  -29.3964  -21.1775   20.7544 C   0  0  0  0  0  0
  -29.8167  -15.8846   20.6619 N   0  0  0  0  0  0
  -28.7521  -22.4344   20.1777 N   0  0  0  0  0  0
  -29.8918  -24.1319   21.2070 O   0  0  0  0  0  0
  -28.7736  -20.9157   21.9046 F   0  0  0  0  0  0
  -30.6645  -21.4664   21.0519 F   0  0  0  0  0  0
  -31.4583  -12.5711   19.1663 H   0  0  0  0  0  0
  -30.3602  -11.4751   19.9529 H   0  0  0  0  0  0
  -29.7736  -11.7413   17.5160 H   0  0  0  0  0  0
  -29.6169  -13.4635   17.7209 H   0  0  0  0  0  0
  -27.8784  -11.2814   18.9045 H   0  0  0  0  0  0
  -27.3684  -12.5296   17.8009 H   0  0  0  0  0  0
  -27.6275  -14.2527   19.4726 H   0  0  0  0  0  0
  -28.6996  -12.1731   21.4370 H   0  0  0  0  0  0
  -28.4060  -13.8519   21.7968 H   0  0  0  0  0  0
  -25.2730   -9.5677   22.4748 H   0  0  0  0  0  0
  -24.0004   -7.4615   22.7472 H   0  0  0  0  0  0
  -21.0873   -8.8693   19.8926 H   0  0  0  0  0  0
  -22.3671  -10.9618   19.6157 H   0  0  0  0  0  0
  -21.1981   -7.6152   23.9704 H   0  0  0  0  0  0
  -21.1514   -6.0560   25.9096 H   0  0  0  0  0  0
  -22.0590   -2.7602   23.2873 H   0  0  0  0  0  0
  -22.4076  -11.9817   22.4793 H   0  0  0  0  0  0
  -21.1020  -13.1131   22.2651 H   0  0  0  0  0  0
  -24.6438  -15.8454   20.5251 H   0  0  0  0  0  0
  -26.2613  -15.6385   20.0817 H   0  0  0  0  0  0
  -26.7207  -32.5422   23.1093 H   0  0  0  0  0  0
  -25.0091  -33.9711   25.0435 H   0  0  0  0  0  0
  -22.7227  -31.3002   21.4044 H   0  0  0  0  0  0
  -23.3819  -35.9546   23.3239 H   0  0  0  0  0  0
  -24.3585  -36.8964   22.2064 H   0  0  0  0  0  0
  -23.7209  -37.6433   23.6707 H   0  0  0  0  0  0
  -26.1287  -31.5350   20.6241 H   0  0  0  0  0  0
  -26.8469  -30.8027   22.0258 H   0  0  0  0  0  0
  -28.1124  -28.9127   21.2167 H   0  0  0  0  0  0
  -25.9300  -25.9546   18.9259 H   0  0  0  0  0  0
  -23.9701  -27.3414   18.9623 H   0  0  0  0  0  0
  -23.7580  -30.5977   19.4040 H   0  0  0  0  0  0
  -22.7594  -29.2480   19.8606 H   0  0  0  0  0  0
  -25.1310  -36.1933   25.0843 H   0  0  0  0  0  0
  -20.9960  -28.3287   24.1410 H   0  0  0  0  0  0
  -20.5735  -26.2292   23.3604 H   0  0  0  0  0  0
  -21.6673  -26.7463   22.1204 H   0  0  0  0  0  0
  -19.6953  -25.6310   21.1236 H   0  0  0  0  0  0
  -19.6737  -27.3214   20.6747 H   0  0  0  0  0  0
  -17.4235  -26.6714   21.4002 H   0  0  0  0  0  0
  -18.0301  -26.0064   22.8973 H   0  0  0  0  0  0
  -19.7932  -30.7298   24.2246 H   0  0  0  0  0  0
  -17.5008  -31.6257   24.5185 H   0  0  0  0  0  0
  -15.5354  -30.2986   23.7665 H   0  0  0  0  0  0
  -15.8683  -28.0815   22.7103 H   0  0  0  0  0  0
  -24.5961  -30.6964   25.7785 H   0  0  0  0  0  0
  -24.8865  -32.2816   26.4867 H   0  0  0  0  0  0
  -25.8088  -30.8881   27.0243 H   0  0  0  0  0  0
  -26.2920  -29.6730   24.1269 H   0  0  0  0  0  0
  -27.4065  -29.7263   25.4719 H   0  0  0  0  0  0
  -27.8796  -30.4267   23.9442 H   0  0  0  0  0  0
  -27.2681  -33.3644   26.2018 H   0  0  0  0  0  0
  -28.3881  -32.6812   25.0319 H   0  0  0  0  0  0
  -28.0710  -31.8472   26.5453 H   0  0  0  0  0  0
  -28.2567  -38.0131   24.7588 H   0  0  0  0  0  0
  -28.1172  -36.2668   24.6184 H   0  0  0  0  0  0
  -27.2320  -37.1301   25.8851 H   0  0  0  0  0  0
  -20.9431  -29.8670   21.6796 H   0  0  0  0  0  0
  -26.0196  -38.2857   24.1465 H   0  0  0  0  0  0
  -30.1244  -18.4957   16.8405 H   0  0  0  0  0  0
  -30.2258  -16.3899   18.0362 H   0  0  0  0  0  0
  -29.3943  -18.4942   21.7149 H   0  0  0  0  0  0
  -30.0405  -20.7866   16.6702 H   0  0  0  0  0  0
  -30.3895  -21.7581   18.0856 H   0  0  0  0  0  0
  -28.7083  -21.4229   17.6158 H   0  0  0  0  0  0
  -27.0254  -24.6299   20.2418 H   0  0  0  0  0  0
  -27.9898  -24.7863   18.7859 H   0  0  0  0  0  0
  -28.9794  -15.6985   21.1937 H   0  0  0  0  0  0
  -27.9572  -22.2484   19.5859 H   0  0  0  0  0  0
  1 25  1  0  0  0
  1 30  2  0  0  0
  1 81  1  0  0  0
  2  3  1  0  0  0
  2 25  1  0  0  0
  2 86  1  0  0  0
  2 87  1  0  0  0
  3  4  1  0  0  0
  3 88  1  0  0  0
  3 89  1  0  0  0
  4  5  1  0  0  0
  4 90  1  0  0  0
  4 91  1  0  0  0
  5  6  1  0  0  0
  5 26  1  0  0  0
  5 92  1  0  0  0
  6 25  1  0  0  0
  6 93  1  0  0  0
  6 94  1  0  0  0
  7  8  2  0  0  0
  7 26  1  0  0  0
  7 29  1  0  0  0
  8  9  1  0  0  0
  8 22  1  0  0  0
  9 10  1  0  0  0
  9 27  2  0  0  0
 10 11  2  0  0  0
 10 15  1  0  0  0
 11 12  1  0  0  0
 11 95  1  0  0  0
 12 13  2  0  0  0
 12 96  1  0  0  0
 13 14  1  0  0  0
 13 31  1  0  0  0
 14 15  2  0  0  0
 14 97  1  0  0  0
 15 98  1  0  0  0
 16 17  2  0  0  0
 16 21  1  0  0  0
 16 31  1  0  0  0
 17 18  1  0  0  0
 17 99  1  0  0  0
 18 19  2  0  0  0
 18100  1  0  0  0
 19 20  1  0  0  0
 19 24  1  0  0  0
 20 21  2  0  0  0
 20101  1  0  0  0
 21 23  1  0  0  0
 22 28  1  0  0  0
 22 32  2  0  0  0
 26 27  1  0  0  0
 28102  1  0  0  0
 28103  1  0  0  0
 29104  1  0  0  0
 29105  1  0  0  0
 33 34  1  0  0  0
 33 66  1  0  0  0
 33 70  2  0  0  0
 34 36  1  0  0  0
 34 59  1  0  0  0
 34106  1  0  0  0
 35 44  2  0  0  0
 35 45  1  0  0  0
 35 68  1  0  0  0
 36 56  1  0  0  0
 36107  1  0  0  0
 37 39  1  0  0  0
 37 47  1  0  0  0
 37 66  1  0  0  0
 37108  1  0  0  0
 38 43  2  0  0  0
 38 46  1  0  0  0
 38 47  1  0  0  0
 39 64  1  0  0  0
 39 67  2  0  0  0
 40 52  1  0  0  0
 40 53  2  0  0  0
 40 58  1  0  0  0
 41109  1  0  0  0
 41110  1  0  0  0
 41111  1  0  0  0
 41 48  1  0  0  0
 42 43  1  0  0  0
 42 66  1  0  0  0
 42112  1  0  0  0
 42113  1  0  0  0
 43 44  1  0  0  0
 44114  1  0  0  0
 45 46  2  0  0  0
 45115  1  0  0  0
 46116  1  0  0  0
 47117  1  0  0  0
 47118  1  0  0  0
 48 56  1  0  0  0
 48 65  1  0  0  0
 48119  1  0  0  0
 49 50  1  0  0  0
 49 53  1  0  0  0
 49 64  1  0  0  0
 49120  1  0  0  0
 50 51  1  0  0  0
 50121  1  0  0  0
 50122  1  0  0  0
 51 52  1  0  0  0
 51123  1  0  0  0
 51124  1  0  0  0
 52125  1  0  0  0
 52126  1  0  0  0
 53 54  1  0  0  0
 54 55  2  0  0  0
 54127  1  0  0  0
 55 57  1  0  0  0
 55128  1  0  0  0
 56 69  2  0  0  0
 57 58  2  0  0  0
 57129  1  0  0  0
 58130  1  0  0  0
 59 60  1  0  0  0
 59 61  1  0  0  0
 59 62  1  0  0  0
 60131  1  0  0  0
 60132  1  0  0  0
 60133  1  0  0  0
 61134  1  0  0  0
 61135  1  0  0  0
 61136  1  0  0  0
 62137  1  0  0  0
 62138  1  0  0  0
 62139  1  0  0  0
 63 65  1  0  0  0
 63140  1  0  0  0
 63141  1  0  0  0
 63142  1  0  0  0
 64143  1  0  0  0
 65144  1  0  0  0
 68 79  1  0  0  0
 71 72  2  0  0  0
 71 74  1  0  0  0
 71145  1  0  0  0
 72 76  1  0  0  0
 72146  1  0  0  0
 73 75  1  0  0  0
 73 76  2  0  0  0
 73147  1  0  0  0
 74 75  2  0  0  0
 74 78  1  0  0  0
 75 80  1  0  0  0
 76 81  1  0  0  0
 77 79  1  0  0  0
 77 82  1  0  0  0
 77 83  2  0  0  0
 78148  1  0  0  0
 78149  1  0  0  0
 78150  1  0  0  0
 79151  1  0  0  0
 79152  1  0  0  0
 80 82  1  0  0  0
 80 84  1  0  0  0
 80 85  1  0  0  0
 81153  1  0  0  0
 82154  1  0  0  0
M  ISO  4   1 100  68 101  79 101  81 100
M  END
> <chiral flag>
0

> <version>
0

> <s_m_source_file>
/data/baiqing/PycharmProjects/Reinvent-master-3.2/result/LINK_invent/BTK/process_docking_weight1_custom_product_contain_oxygen_bond_distance_aromatic_linkinvent_7_9_3/rearranged_h_0050.sdf

> <i_m_source_file_index>
34

> <r_mmod_Potential_Energy-OPLS-2005>
77.1078338623047

> <r_mmod_Stretch_Energy-OPLS-2005>
122.767997741699

> <r_mmod_Bend_Energy-OPLS-2005>
157.161163330078

> <r_mmod_Torsional_Energy-OPLS-2005>
230.198638916016

> <r_mmod_Improper_Torsional_Energy-OPLS-2005>
5.40971565246582

> <r_mmod_Van_der_Waal_Energy-OPLS-2005>
144.885559082031

> <r_mmod_Electrostatic_Energy-OPLS-2005>
-423.773986816406

> <r_mmod_Solvation_Energy-OPLS-2005>
-249.573211669922

> <b_mmod_Minimization_Converged-OPLS-2005>
0

> <r_mmod_RMS_Derivative-OPLS-2005>
3.69434022903442

$$$$
34
                    3D
 Structure written by MMmdl.
163172  0  0  1  0            999 V2000
  -30.6979  -14.5214   20.5019 C   0  0  0  0  0  0
  -30.4091  -12.3442   19.4219 C   0  0  0  0  0  0
  -29.4994  -12.5393   18.1942 C   0  0  0  0  0  0
  -28.0125  -12.4269   18.5881 C   0  0  0  0  0  0
  -27.6438  -13.2480   19.8537 C   0  0  2  0  0  0
  -28.6880  -13.0600   20.9765 C   0  0  0  0  0  0
  -25.2467  -13.8240   20.5665 C   0  0  0  0  0  0
  -24.1790  -13.0454   20.9146 C   0  0  0  0  0  0
  -24.6401  -11.6926   20.8637 C   0  0  0  0  0  0
  -23.9068  -10.4305   21.0321 C   0  0  0  0  0  0
  -24.3633   -9.4226   21.9074 C   0  0  0  0  0  0
  -23.6340   -8.2266   22.0669 C   0  0  0  0  0  0
  -22.4295   -8.0281   21.3500 C   0  0  0  0  0  0
  -21.9909   -9.0232   20.4607 C   0  0  0  0  0  0
  -22.7220  -10.2115   20.2996 C   0  0  0  0  0  0
  -21.6907   -6.0704   22.5231 C   0  0  0  0  0  0
  -21.4041   -6.5617   23.8157 C   0  0  0  0  0  0
  -21.3674   -5.6767   24.9118 C   0  0  0  0  0  0
  -21.6073   -4.3032   24.7209 C   0  0  0  0  0  0
  -21.8839   -3.8118   23.4339 C   0  0  0  0  0  0
  -21.9228   -4.6927   22.3385 C   0  0  0  0  0  0
  -22.7798  -13.5169   21.1893 C   0  0  0  0  0  0
  -22.1671   -4.2108   21.0959 F   0  0  0  0  0  0
  -21.5643   -3.4517   25.7720 F   0  0  0  0  0  0
  -30.0115  -13.3508   20.4148 N   0  0  0  0  0  0
  -26.2925  -12.9489   20.3248 N   0  0  0  0  0  0
  -25.9345  -11.6606   20.5664 N   0  0  0  0  0  0
  -22.0531  -12.8113   22.0478 N   0  0  0  0  0  0
  -25.4147  -15.1985   20.4089 N   0  0  0  0  0  0
  -31.9195  -14.5532   20.3715 O   0  0  0  0  0  0
  -21.6710   -6.8849   21.4195 O   0  0  0  0  0  0
  -22.3433  -14.5457   20.6729 O   0  0  0  0  0  0
  -24.6150  -31.8637   23.2060 C   0  0  0  0  0  0
  -25.9004  -32.4819   23.8402 C   0  0  1  0  0  0
  -27.2420  -27.4291   20.0879 C   0  0  0  0  0  0
  -25.5856  -33.8620   24.2336 N   0  0  0  0  0  0
  -23.4082  -30.4870   21.5421 C   0  0  2  0  0  0
  -24.8654  -28.9605   20.1006 C   0  0  0  0  0  0
  -22.7446  -29.4598   22.4907 C   0  0  0  0  0  0
  -18.0293  -28.1340   22.8493 C   0  0  0  0  0  0
  -24.1483  -36.7325   23.2642 C   0  0  0  0  0  0
  -25.9404  -30.8293   21.3618 C   0  0  0  0  0  0
  -26.0235  -29.4625   20.7119 C   0  0  0  0  0  0
  -27.2178  -28.6987   20.7114 C   0  0  0  0  0  0
  -26.0714  -26.9626   19.4473 C   0  0  0  0  0  0
  -24.8864  -27.7102   19.4635 C   0  0  0  0  0  0
  -23.6242  -29.8184   20.1578 C   0  0  0  0  0  0
  -25.4090  -36.3122   24.0363 C   0  0  1  0  0  0
  -20.5887  -28.3622   23.1317 C   0  0  2  0  0  0
  -20.6751  -26.9339   22.5441 C   0  0  0  0  0  0
  -19.5730  -26.6344   21.5220 C   0  0  0  0  0  0
  -18.1908  -26.7899   22.1621 C   0  0  0  0  0  0
  -19.1545  -28.8787   23.2918 C   0  0  0  0  0  0
  -18.9461  -30.1395   23.8924 C   0  0  0  0  0  0
  -17.6445  -30.6535   24.0557 C   0  0  0  0  0  0
  -25.9001  -34.9481   23.5151 C   0  0  0  0  0  0
  -16.5338  -29.9035   23.6288 C   0  0  0  0  0  0
  -16.7279  -28.6462   23.0302 C   0  0  0  0  0  0
  -26.4432  -31.6611   25.0714 C   0  0  0  0  0  0
  -25.3705  -31.3707   26.1483 C   0  0  0  0  0  0
  -27.0300  -30.3087   24.6026 C   0  0  0  0  0  0
  -27.6024  -32.4300   25.7465 C   0  0  0  0  0  0
  -27.5608  -37.1801   24.8444 C   0  0  0  0  0  0
  -21.4143  -29.3012   22.3734 N   0  0  0  0  0  0
  -26.4284  -37.3798   23.9437 N   0  0  0  0  0  0
  -24.6730  -31.0726   22.0969 N   0  0  0  0  0  0
  -23.4205  -28.8107   23.2923 O   0  0  0  0  0  0
  -28.3520  -26.6079   20.1344 O   0  0  0  0  0  0
  -26.5566  -34.8935   22.4701 O   0  0  0  0  0  0
  -23.5309  -32.1403   23.7391 O   0  0  0  0  0  0
  -30.5149  -19.7030   19.1039 C   0  0  0  0  0  0
  -31.3489  -18.6939   18.6215 C   0  0  0  0  0  0
  -29.3494  -18.0386   20.4433 C   0  0  0  0  0  0
  -29.4781  -19.3878   19.9963 C   0  0  0  0  0  0
  -31.2157  -17.3508   19.0299 C   0  0  0  0  0  0
  -30.2156  -16.9923   19.9986 C   0  0  0  0  0  0
  -29.8233  -23.7206   21.5181 C   0  0  0  0  0  0
  -28.9034  -24.1663   20.6523 C   0  0  0  0  0  0
  -28.4746  -23.0343   19.8611 C   0  0  0  0  0  0
  -29.9390  -22.2799   21.3922 C   0  0  0  0  0  0
  -27.7005  -23.1798   18.7519 C   0  0  0  0  0  0
  -32.1991  -16.4058   18.3481 C   0  0  0  0  0  0
  -27.2244  -22.2075   17.6835 C   0  0  0  0  0  0
  -28.4942  -20.5009   20.4073 C   0  0  0  0  0  0
  -28.0635  -25.4191   20.8958 C   0  0  0  0  0  0
  -29.0315  -21.8879   20.4644 N   0  0  0  0  0  0
  -29.9527  -15.6522   20.5138 N   0  0  0  0  0  0
  -30.6580  -21.5385   22.0706 O   0  0  0  0  0  0
  -31.4560  -12.4363   19.1402 H   0  0  0  0  0  0
  -30.2896  -11.3411   19.8243 H   0  0  0  0  0  0
  -29.7379  -11.7933   17.4343 H   0  0  0  0  0  0
  -29.6961  -13.5160   17.7451 H   0  0  0  0  0  0
  -27.7909  -11.3705   18.7432 H   0  0  0  0  0  0
  -27.3922  -12.7543   17.7507 H   0  0  0  0  0  0
  -27.6655  -14.2998   19.5604 H   0  0  0  0  0  0
  -28.6731  -12.0262   21.3241 H   0  0  0  0  0  0
  -28.4660  -13.6835   21.8431 H   0  0  0  0  0  0
  -25.2800   -9.5764   22.4626 H   0  0  0  0  0  0
  -24.0081   -7.4710   22.7391 H   0  0  0  0  0  0
  -21.0800   -8.8720   19.8973 H   0  0  0  0  0  0
  -22.3595  -10.9625   19.6118 H   0  0  0  0  0  0
  -21.2001   -7.6108   23.9626 H   0  0  0  0  0  0
  -21.1471   -6.0500   25.9020 H   0  0  0  0  0  0
  -22.0624   -2.7571   23.2840 H   0  0  0  0  0  0
  -22.4229  -11.9790   22.4836 H   0  0  0  0  0  0
  -21.1111  -13.0962   22.2713 H   0  0  0  0  0  0
  -24.6497  -15.8519   20.5184 H   0  0  0  0  0  0
  -26.2602  -15.6355   20.0621 H   0  0  0  0  0  0
  -26.7085  -32.5547   23.1184 H   0  0  0  0  0  0
  -25.0083  -33.9795   25.0536 H   0  0  0  0  0  0
  -22.6964  -31.3021   21.3892 H   0  0  0  0  0  0
  -23.3788  -35.9613   23.3202 H   0  0  0  0  0  0
  -24.3646  -36.9038   22.2094 H   0  0  0  0  0  0
  -23.7198  -37.6481   23.6707 H   0  0  0  0  0  0
  -26.0341  -31.5831   20.5774 H   0  0  0  0  0  0
  -26.8346  -30.9005   21.9708 H   0  0  0  0  0  0
  -28.1018  -29.0616   21.2192 H   0  0  0  0  0  0
  -26.0694  -25.9995   18.9570 H   0  0  0  0  0  0
  -24.0019  -27.3169   18.9773 H   0  0  0  0  0  0
  -23.7318  -30.5847   19.3907 H   0  0  0  0  0  0
  -22.7554  -29.2301   19.8609 H   0  0  0  0  0  0
  -25.1270  -36.1981   25.0866 H   0  0  0  0  0  0
  -21.0024  -28.3173   24.1418 H   0  0  0  0  0  0
  -20.5546  -26.2237   23.3641 H   0  0  0  0  0  0
  -21.6620  -26.7261   22.1286 H   0  0  0  0  0  0
  -19.6851  -25.6254   21.1236 H   0  0  0  0  0  0
  -19.6691  -27.3178   20.6773 H   0  0  0  0  0  0
  -17.4194  -26.6710   21.3996 H   0  0  0  0  0  0
  -18.0229  -26.0012   22.8973 H   0  0  0  0  0  0
  -19.7921  -30.7225   24.2309 H   0  0  0  0  0  0
  -17.4970  -31.6223   24.5143 H   0  0  0  0  0  0
  -15.5321  -30.2920   23.7561 H   0  0  0  0  0  0
  -15.8710  -28.0787   22.6929 H   0  0  0  0  0  0
  -24.5834  -30.7076   25.7866 H   0  0  0  0  0  0
  -24.8915  -32.2856   26.4982 H   0  0  0  0  0  0
  -25.8060  -30.8870   27.0231 H   0  0  0  0  0  0
  -26.2872  -29.6823   24.1039 H   0  0  0  0  0  0
  -27.4166  -29.7307   25.4440 H   0  0  0  0  0  0
  -27.8639  -30.4542   23.9134 H   0  0  0  0  0  0
  -27.2671  -33.3587   26.2090 H   0  0  0  0  0  0
  -28.3791  -32.6867   25.0245 H   0  0  0  0  0  0
  -28.0709  -31.8368   26.5331 H   0  0  0  0  0  0
  -28.2546  -38.0171   24.7565 H   0  0  0  0  0  0
  -28.1177  -36.2714   24.6113 H   0  0  0  0  0  0
  -27.2359  -37.1264   25.8848 H   0  0  0  0  0  0
  -20.9252  -29.8924   21.7175 H   0  0  0  0  0  0
  -26.0175  -38.2871   24.1467 H   0  0  0  0  0  0
  -30.6770  -20.7134   18.7556 H   0  0  0  0  0  0
  -32.1101  -18.9727   17.9047 H   0  0  0  0  0  0
  -28.5515  -17.8019   21.1350 H   0  0  0  0  0  0
  -30.2360  -24.2677   22.3565 H   0  0  0  0  0  0
  -27.4312  -24.1928   18.4858 H   0  0  0  0  0  0
  -33.1003  -16.3149   18.9549 H   0  0  0  0  0  0
  -32.5230  -16.7920   17.3822 H   0  0  0  0  0  0
  -31.7903  -15.4188   18.1433 H   0  0  0  0  0  0
  -27.3658  -21.1548   17.8867 H   0  0  0  0  0  0
  -27.7617  -22.3943   16.7537 H   0  0  0  0  0  0
  -26.1672  -22.3816   17.4675 H   0  0  0  0  0  0
  -28.0848  -20.2629   21.3916 H   0  0  0  0  0  0
  -27.6233  -20.4441   19.7637 H   0  0  0  0  0  0
  -28.1122  -25.6576   21.9562 H   0  0  0  0  0  0
  -27.0469  -25.0655   20.7243 H   0  0  0  0  0  0
  -29.0080  -15.5009   20.8379 H   0  0  0  0  0  0
  1 25  1  0  0  0
  1 30  2  0  0  0
  1 87  1  0  0  0
  2  3  1  0  0  0
  2 25  1  0  0  0
  2 89  1  0  0  0
  2 90  1  0  0  0
  3  4  1  0  0  0
  3 91  1  0  0  0
  3 92  1  0  0  0
  4  5  1  0  0  0
  4 93  1  0  0  0
  4 94  1  0  0  0
  5  6  1  0  0  0
  5 26  1  0  0  0
  5 95  1  0  0  0
  6 25  1  0  0  0
  6 96  1  0  0  0
  6 97  1  0  0  0
  7  8  2  0  0  0
  7 26  1  0  0  0
  7 29  1  0  0  0
  8  9  1  0  0  0
  8 22  1  0  0  0
  9 10  1  0  0  0
  9 27  2  0  0  0
 10 11  2  0  0  0
 10 15  1  0  0  0
 11 12  1  0  0  0
 11 98  1  0  0  0
 12 13  2  0  0  0
 12 99  1  0  0  0
 13 14  1  0  0  0
 13 31  1  0  0  0
 14 15  2  0  0  0
 14100  1  0  0  0
 15101  1  0  0  0
 16 17  2  0  0  0
 16 21  1  0  0  0
 16 31  1  0  0  0
 17 18  1  0  0  0
 17102  1  0  0  0
 18 19  2  0  0  0
 18103  1  0  0  0
 19 20  1  0  0  0
 19 24  1  0  0  0
 20 21  2  0  0  0
 20104  1  0  0  0
 21 23  1  0  0  0
 22 28  1  0  0  0
 22 32  2  0  0  0
 26 27  1  0  0  0
 28105  1  0  0  0
 28106  1  0  0  0
 29107  1  0  0  0
 29108  1  0  0  0
 33 34  1  0  0  0
 33 66  1  0  0  0
 33 70  2  0  0  0
 34 36  1  0  0  0
 34 59  1  0  0  0
 34109  1  0  0  0
 35 44  2  0  0  0
 35 45  1  0  0  0
 35 68  1  0  0  0
 36 56  1  0  0  0
 36110  1  0  0  0
 37 39  1  0  0  0
 37 47  1  0  0  0
 37 66  1  0  0  0
 37111  1  0  0  0
 38 43  2  0  0  0
 38 46  1  0  0  0
 38 47  1  0  0  0
 39 64  1  0  0  0
 39 67  2  0  0  0
 40 52  1  0  0  0
 40 53  2  0  0  0
 40 58  1  0  0  0
 41112  1  0  0  0
 41113  1  0  0  0
 41114  1  0  0  0
 41 48  1  0  0  0
 42 43  1  0  0  0
 42 66  1  0  0  0
 42115  1  0  0  0
 42116  1  0  0  0
 43 44  1  0  0  0
 44117  1  0  0  0
 45 46  2  0  0  0
 45118  1  0  0  0
 46119  1  0  0  0
 47120  1  0  0  0
 47121  1  0  0  0
 48 56  1  0  0  0
 48 65  1  0  0  0
 48122  1  0  0  0
 49 50  1  0  0  0
 49 53  1  0  0  0
 49 64  1  0  0  0
 49123  1  0  0  0
 50 51  1  0  0  0
 50124  1  0  0  0
 50125  1  0  0  0
 51 52  1  0  0  0
 51126  1  0  0  0
 51127  1  0  0  0
 52128  1  0  0  0
 52129  1  0  0  0
 53 54  1  0  0  0
 54 55  2  0  0  0
 54130  1  0  0  0
 55 57  1  0  0  0
 55131  1  0  0  0
 56 69  2  0  0  0
 57 58  2  0  0  0
 57132  1  0  0  0
 58133  1  0  0  0
 59 60  1  0  0  0
 59 61  1  0  0  0
 59 62  1  0  0  0
 60134  1  0  0  0
 60135  1  0  0  0
 60136  1  0  0  0
 61137  1  0  0  0
 61138  1  0  0  0
 61139  1  0  0  0
 62140  1  0  0  0
 62141  1  0  0  0
 62142  1  0  0  0
 63 65  1  0  0  0
 63143  1  0  0  0
 63144  1  0  0  0
 63145  1  0  0  0
 64146  1  0  0  0
 65147  1  0  0  0
 68 85  1  0  0  0
 71 72  2  0  0  0
 71 74  1  0  0  0
 71148  1  0  0  0
 72 75  1  0  0  0
 72149  1  0  0  0
 73 74  2  0  0  0
 73 76  1  0  0  0
 73150  1  0  0  0
 74 84  1  0  0  0
 75 76  2  0  0  0
 75 82  1  0  0  0
 76 87  1  0  0  0
 77 78  2  0  0  0
 77 80  1  0  0  0
 77151  1  0  0  0
 78 79  1  0  0  0
 78 85  1  0  0  0
 79 81  2  0  0  0
 79 86  1  0  0  0
 80 86  1  0  0  0
 80 88  2  0  0  0
 81 83  1  0  0  0
 81152  1  0  0  0
 82153  1  0  0  0
 82154  1  0  0  0
 82155  1  0  0  0
 83156  1  0  0  0
 83157  1  0  0  0
 83158  1  0  0  0
 84 86  1  0  0  0
 84159  1  0  0  0
 84160  1  0  0  0
 85161  1  0  0  0
 85162  1  0  0  0
 87163  1  0  0  0
M  ISO  4   1 100  68 101  85 101  87 100
M  END
> <chiral flag>
0

> <version>
0

> <s_m_source_file>
/data/baiqing/PycharmProjects/Reinvent-master-3.2/result/LINK_invent/BTK/process_docking_weight1_custom_product_contain_oxygen_bond_distance_aromatic_linkinvent_7_9_3/rearranged_h_0050.sdf

> <i_m_source_file_index>
35

> <r_mmod_Potential_Energy-OPLS-2005>
156.04248046875

> <r_mmod_Stretch_Energy-OPLS-2005>
50.604621887207

> <r_mmod_Bend_Energy-OPLS-2005>
215.490768432617

> <r_mmod_Torsional_Energy-OPLS-2005>
277.326568603516

> <r_mmod_Improper_Torsional_Energy-OPLS-2005>
9.51102352142334

> <r_mmod_Van_der_Waal_Energy-OPLS-2005>
160.331069946289

> <r_mmod_Electrostatic_Energy-OPLS-2005>
-376.354217529297

> <r_mmod_Solvation_Energy-OPLS-2005>
-216.709259033203

> <b_mmod_Minimization_Converged-OPLS-2005>
0

> <r_mmod_RMS_Derivative-OPLS-2005>
8.02487468719482

$$$$
35
                    3D
 Structure written by MMmdl.
164173  0  0  1  0            999 V2000
  -30.6824  -14.5989   20.5519 C   0  0  0  0  0  0
  -30.4381  -12.3905   19.4403 C   0  0  0  0  0  0
  -29.5007  -12.5377   18.2221 C   0  0  0  0  0  0
  -28.0295  -12.3643   18.6416 C   0  0  0  0  0  0
  -27.6619  -13.2244   19.8757 C   0  0  2  0  0  0
  -28.7131  -13.0755   21.0005 C   0  0  0  0  0  0
  -25.2605  -13.8203   20.5779 C   0  0  0  0  0  0
  -24.1849  -13.0442   20.9215 C   0  0  0  0  0  0
  -24.6437  -11.6932   20.8779 C   0  0  0  0  0  0
  -23.9122  -10.4314   21.0457 C   0  0  0  0  0  0
  -24.3678   -9.4225   21.9233 C   0  0  0  0  0  0
  -23.6336   -8.2273   22.0799 C   0  0  0  0  0  0
  -22.4323   -8.0312   21.3582 C   0  0  0  0  0  0
  -21.9985   -9.0297   20.4646 C   0  0  0  0  0  0
  -22.7318  -10.2167   20.3079 C   0  0  0  0  0  0
  -21.6837   -6.0765   22.5305 C   0  0  0  0  0  0
  -21.4004   -6.5677   23.8232 C   0  0  0  0  0  0
  -21.3660   -5.6826   24.9201 C   0  0  0  0  0  0
  -21.6051   -4.3088   24.7252 C   0  0  0  0  0  0
  -21.8819   -3.8184   23.4374 C   0  0  0  0  0  0
  -21.9179   -4.6997   22.3413 C   0  0  0  0  0  0
  -22.7854  -13.5213   21.1860 C   0  0  0  0  0  0
  -22.1640   -4.2185   21.1000 F   0  0  0  0  0  0
  -21.5638   -3.4574   25.7752 F   0  0  0  0  0  0
  -30.0327  -13.3992   20.4392 N   0  0  0  0  0  0
  -26.3038  -12.9402   20.3429 N   0  0  0  0  0  0
  -25.9388  -11.6553   20.5846 N   0  0  0  0  0  0
  -22.0456  -12.8217   22.0364 N   0  0  0  0  0  0
  -25.4289  -15.1935   20.4284 N   0  0  0  0  0  0
  -31.8352  -14.7495   20.1388 O   0  0  0  0  0  0
  -21.6648   -6.8948   21.4276 O   0  0  0  0  0  0
  -22.3582  -14.5534   20.6682 O   0  0  0  0  0  0
  -24.6275  -31.8587   23.1978 C   0  0  0  0  0  0
  -25.9115  -32.4764   23.8335 C   0  0  1  0  0  0
  -27.2586  -27.3351   20.1136 C   0  0  0  0  0  0
  -25.5939  -33.8571   24.2273 N   0  0  0  0  0  0
  -23.4232  -30.4756   21.5418 C   0  0  2  0  0  0
  -24.8798  -28.9250   20.1112 C   0  0  0  0  0  0
  -22.7481  -29.4598   22.4933 C   0  0  0  0  0  0
  -18.0289  -28.1387   22.8459 C   0  0  0  0  0  0
  -24.1483  -36.7268   23.2645 C   0  0  0  0  0  0
  -25.9591  -30.7972   21.3630 C   0  0  0  0  0  0
  -26.0453  -29.4231   20.7046 C   0  0  0  0  0  0
  -27.2420  -28.6451   20.6818 C   0  0  0  0  0  0
  -26.0649  -26.8728   19.5188 C   0  0  0  0  0  0
  -24.8907  -27.6581   19.5033 C   0  0  0  0  0  0
  -23.6404  -29.8006   20.1602 C   0  0  0  0  0  0
  -25.4114  -36.3088   24.0320 C   0  0  1  0  0  0
  -20.5879  -28.3701   23.1269 C   0  0  2  0  0  0
  -20.6777  -26.9414   22.5435 C   0  0  0  0  0  0
  -19.5780  -26.6371   21.5217 C   0  0  0  0  0  0
  -18.1935  -26.7928   22.1582 C   0  0  0  0  0  0
  -19.1537  -28.8864   23.2856 C   0  0  0  0  0  0
  -18.9463  -30.1454   23.8884 C   0  0  0  0  0  0
  -17.6473  -30.6590   24.0561 C   0  0  0  0  0  0
  -25.9066  -34.9447   23.5109 C   0  0  0  0  0  0
  -16.5364  -29.9088   23.6330 C   0  0  0  0  0  0
  -16.7281  -28.6510   23.0341 C   0  0  0  0  0  0
  -26.4495  -31.6564   25.0706 C   0  0  0  0  0  0
  -25.3712  -31.3744   26.1433 C   0  0  0  0  0  0
  -27.0294  -30.2958   24.6172 C   0  0  0  0  0  0
  -27.6091  -32.4239   25.7476 C   0  0  0  0  0  0
  -27.5575  -37.1812   24.8454 C   0  0  0  0  0  0
  -21.4192  -29.3048   22.3652 N   0  0  0  0  0  0
  -26.4276  -37.3793   23.9416 N   0  0  0  0  0  0
  -24.6879  -31.0589   22.0925 N   0  0  0  0  0  0
  -23.4179  -28.8138   23.3039 O   0  0  0  0  0  0
  -28.3953  -26.5116   20.0841 O   0  0  0  0  0  0
  -26.5626  -34.8912   22.4672 O   0  0  0  0  0  0
  -23.5431  -32.1369   23.7309 O   0  0  0  0  0  0
  -30.3292  -18.2008   24.6715 C   0  0  0  0  0  0
  -30.4362  -19.5858   24.5857 C   0  0  0  0  0  0
  -30.2760  -17.4099   23.5120 C   0  0  0  0  0  0
  -30.2699  -18.0216   22.2018 C   0  0  0  0  0  0
  -30.3243  -19.4896   22.1220 C   0  0  0  0  0  0
  -30.4456  -20.2193   23.3407 C   0  0  0  0  0  0
  -29.7857  -22.8887   20.3603 C   0  0  0  0  0  0
  -27.4348  -22.7773   20.5863 C   0  0  0  0  0  0
  -28.0675  -21.3710   20.6464 C   0  0  0  0  0  0
  -28.5126  -23.7769   20.1172 C   0  0  1  0  0  0
  -30.2603  -15.9070   23.7965 C   0  0  0  0  0  0
  -30.3932  -20.3523   20.7979 C   0  0  0  0  0  0
  -30.2545  -17.1280   20.9104 C   0  0  0  0  0  0
  -28.3523  -25.2234   20.8136 C   0  0  0  0  0  0
  -29.5012  -21.5727   20.6382 N   0  0  0  0  0  0
  -29.9393  -15.6590   20.9782 N   0  0  0  0  0  0
  -30.9238  -23.3505   20.2502 O   0  0  0  0  0  0
  -30.6888  -21.9293   23.4012 Cl  0  0  0  0  0  0
  -31.4783  -12.5172   19.1287 H   0  0  0  0  0  0
  -30.3671  -11.3892   19.8729 H   0  0  0  0  0  0
  -29.7568  -11.8146   17.4464 H   0  0  0  0  0  0
  -29.6365  -13.5291   17.7815 H   0  0  0  0  0  0
  -27.8596  -11.3090   18.8597 H   0  0  0  0  0  0
  -27.3702  -12.6151   17.8098 H   0  0  0  0  0  0
  -27.6834  -14.2609   19.5396 H   0  0  0  0  0  0
  -28.7256  -12.0583   21.3874 H   0  0  0  0  0  0
  -28.4721  -13.7100   21.8521 H   0  0  0  0  0  0
  -25.2829   -9.5661   22.4818 H   0  0  0  0  0  0
  -24.0000   -7.4668   22.7568 H   0  0  0  0  0  0
  -21.0913   -8.8850   19.8954 H   0  0  0  0  0  0
  -22.3815  -10.9742   19.6196 H   0  0  0  0  0  0
  -21.2003   -7.6176   23.9743 H   0  0  0  0  0  0
  -21.1461   -6.0566   25.9104 H   0  0  0  0  0  0
  -22.0581   -2.7635   23.2877 H   0  0  0  0  0  0
  -22.4010  -11.9820   22.4696 H   0  0  0  0  0  0
  -21.1050  -13.1259   22.2531 H   0  0  0  0  0  0
  -24.6650  -15.8457   20.5740 H   0  0  0  0  0  0
  -26.2859  -15.6469   20.1391 H   0  0  0  0  0  0
  -26.7178  -32.5461   23.1091 H   0  0  0  0  0  0
  -25.0132  -33.9723   25.0450 H   0  0  0  0  0  0
  -22.7198  -31.2948   21.3919 H   0  0  0  0  0  0
  -23.3796  -35.9534   23.3203 H   0  0  0  0  0  0
  -24.3592  -36.9004   22.2071 H   0  0  0  0  0  0
  -23.7118  -37.6386   23.6731 H   0  0  0  0  0  0
  -26.0820  -31.5627   20.5957 H   0  0  0  0  0  0
  -26.8381  -30.8493   21.9949 H   0  0  0  0  0  0
  -28.1439  -29.0418   21.1236 H   0  0  0  0  0  0
  -26.0433  -25.8901   19.0688 H   0  0  0  0  0  0
  -23.9975  -27.2708   19.0354 H   0  0  0  0  0  0
  -23.7527  -30.5735   19.3989 H   0  0  0  0  0  0
  -22.7595  -29.2243   19.8674 H   0  0  0  0  0  0
  -25.1287  -36.1940   25.0807 H   0  0  0  0  0  0
  -20.9985  -28.3287   24.1386 H   0  0  0  0  0  0
  -20.5650  -26.2334   23.3648 H   0  0  0  0  0  0
  -21.6648  -26.7413   22.1271 H   0  0  0  0  0  0
  -19.6983  -25.6275   21.1281 H   0  0  0  0  0  0
  -19.6742  -27.3153   20.6722 H   0  0  0  0  0  0
  -17.4235  -26.6684   21.3952 H   0  0  0  0  0  0
  -18.0293  -26.0050   22.8968 H   0  0  0  0  0  0
  -19.7935  -30.7268   24.2256 H   0  0  0  0  0  0
  -17.5027  -31.6269   24.5177 H   0  0  0  0  0  0
  -15.5366  -30.3015   23.7653 H   0  0  0  0  0  0
  -15.8661  -28.0857   22.7063 H   0  0  0  0  0  0
  -24.5807  -30.7214   25.7730 H   0  0  0  0  0  0
  -24.9032  -32.2954   26.4915 H   0  0  0  0  0  0
  -25.7998  -30.8815   27.0176 H   0  0  0  0  0  0
  -26.2870  -29.6718   24.1200 H   0  0  0  0  0  0
  -27.3952  -29.7216   25.4703 H   0  0  0  0  0  0
  -27.8762  -30.4183   23.9406 H   0  0  0  0  0  0
  -27.2833  -33.3684   26.1840 H   0  0  0  0  0  0
  -28.4038  -32.6509   25.0358 H   0  0  0  0  0  0
  -28.0551  -31.8431   26.5561 H   0  0  0  0  0  0
  -28.2587  -38.0121   24.7517 H   0  0  0  0  0  0
  -28.1076  -36.2652   24.6259 H   0  0  0  0  0  0
  -27.2320  -37.1456   25.8869 H   0  0  0  0  0  0
  -20.9391  -29.8775   21.6848 H   0  0  0  0  0  0
  -26.0156  -38.2858   24.1456 H   0  0  0  0  0  0
  -30.3233  -17.7467   25.6567 H   0  0  0  0  0  0
  -30.5401  -20.1765   25.4826 H   0  0  0  0  0  0
  -27.0947  -23.0398   21.5892 H   0  0  0  0  0  0
  -26.5589  -22.7898   19.9379 H   0  0  0  0  0  0
  -27.8146  -20.7671   19.7745 H   0  0  0  0  0  0
  -27.7547  -20.8273   21.5404 H   0  0  0  0  0  0
  -28.4343  -23.8958   19.0352 H   0  0  0  0  0  0
  -31.0666  -15.3880   23.2786 H   0  0  0  0  0  0
  -29.3007  -15.4612   23.5382 H   0  0  0  0  0  0
  -30.4115  -15.6851   24.8552 H   0  0  0  0  0  0
  -30.2553  -19.7048   19.9306 H   0  0  0  0  0  0
  -31.4261  -20.6995   20.7261 H   0  0  0  0  0  0
  -31.2022  -17.2813   20.3910 H   0  0  0  0  0  0
  -29.4928  -17.5504   20.2583 H   0  0  0  0  0  0
  -29.1162  -25.2942   21.5884 H   0  0  0  0  0  0
  -27.4149  -25.2264   21.3683 H   0  0  0  0  0  0
  -29.0057  -15.4268   21.2798 H   0  0  0  0  0  0
  1 25  1  0  0  0
  1 30  2  0  0  0
  1 86  1  0  0  0
  2  3  1  0  0  0
  2 25  1  0  0  0
  2 89  1  0  0  0
  2 90  1  0  0  0
  3  4  1  0  0  0
  3 91  1  0  0  0
  3 92  1  0  0  0
  4  5  1  0  0  0
  4 93  1  0  0  0
  4 94  1  0  0  0
  5  6  1  0  0  0
  5 26  1  0  0  0
  5 95  1  0  0  0
  6 25  1  0  0  0
  6 96  1  0  0  0
  6 97  1  0  0  0
  7  8  2  0  0  0
  7 26  1  0  0  0
  7 29  1  0  0  0
  8  9  1  0  0  0
  8 22  1  0  0  0
  9 10  1  0  0  0
  9 27  2  0  0  0
 10 11  2  0  0  0
 10 15  1  0  0  0
 11 12  1  0  0  0
 11 98  1  0  0  0
 12 13  2  0  0  0
 12 99  1  0  0  0
 13 14  1  0  0  0
 13 31  1  0  0  0
 14 15  2  0  0  0
 14100  1  0  0  0
 15101  1  0  0  0
 16 17  2  0  0  0
 16 21  1  0  0  0
 16 31  1  0  0  0
 17 18  1  0  0  0
 17102  1  0  0  0
 18 19  2  0  0  0
 18103  1  0  0  0
 19 20  1  0  0  0
 19 24  1  0  0  0
 20 21  2  0  0  0
 20104  1  0  0  0
 21 23  1  0  0  0
 22 28  1  0  0  0
 22 32  2  0  0  0
 26 27  1  0  0  0
 28105  1  0  0  0
 28106  1  0  0  0
 29107  1  0  0  0
 29108  1  0  0  0
 33 34  1  0  0  0
 33 66  1  0  0  0
 33 70  2  0  0  0
 34 36  1  0  0  0
 34 59  1  0  0  0
 34109  1  0  0  0
 35 44  2  0  0  0
 35 45  1  0  0  0
 35 68  1  0  0  0
 36 56  1  0  0  0
 36110  1  0  0  0
 37 39  1  0  0  0
 37 47  1  0  0  0
 37 66  1  0  0  0
 37111  1  0  0  0
 38 43  2  0  0  0
 38 46  1  0  0  0
 38 47  1  0  0  0
 39 64  1  0  0  0
 39 67  2  0  0  0
 40 52  1  0  0  0
 40 53  2  0  0  0
 40 58  1  0  0  0
 41112  1  0  0  0
 41113  1  0  0  0
 41114  1  0  0  0
 41 48  1  0  0  0
 42 43  1  0  0  0
 42 66  1  0  0  0
 42115  1  0  0  0
 42116  1  0  0  0
 43 44  1  0  0  0
 44117  1  0  0  0
 45 46  2  0  0  0
 45118  1  0  0  0
 46119  1  0  0  0
 47120  1  0  0  0
 47121  1  0  0  0
 48 56  1  0  0  0
 48 65  1  0  0  0
 48122  1  0  0  0
 49 50  1  0  0  0
 49 53  1  0  0  0
 49 64  1  0  0  0
 49123  1  0  0  0
 50 51  1  0  0  0
 50124  1  0  0  0
 50125  1  0  0  0
 51 52  1  0  0  0
 51126  1  0  0  0
 51127  1  0  0  0
 52128  1  0  0  0
 52129  1  0  0  0
 53 54  1  0  0  0
 54 55  2  0  0  0
 54130  1  0  0  0
 55 57  1  0  0  0
 55131  1  0  0  0
 56 69  2  0  0  0
 57 58  2  0  0  0
 57132  1  0  0  0
 58133  1  0  0  0
 59 60  1  0  0  0
 59 61  1  0  0  0
 59 62  1  0  0  0
 60134  1  0  0  0
 60135  1  0  0  0
 60136  1  0  0  0
 61137  1  0  0  0
 61138  1  0  0  0
 61139  1  0  0  0
 62140  1  0  0  0
 62141  1  0  0  0
 62142  1  0  0  0
 63 65  1  0  0  0
 63143  1  0  0  0
 63144  1  0  0  0
 63145  1  0  0  0
 64146  1  0  0  0
 65147  1  0  0  0
 68 84  1  0  0  0
 71 72  2  0  0  0
 71 73  1  0  0  0
 71148  1  0  0  0
 72 76  1  0  0  0
 72149  1  0  0  0
 73 74  2  0  0  0
 73 81  1  0  0  0
 74 75  1  0  0  0
 74 83  1  0  0  0
 75 76  2  0  0  0
 75 82  1  0  0  0
 76 88  1  0  0  0
 77 80  1  0  0  0
 77 85  1  0  0  0
 77 87  2  0  0  0
 78 79  1  0  0  0
 78 80  1  0  0  0
 78150  1  0  0  0
 78151  1  0  0  0
 79 85  1  0  0  0
 79152  1  0  0  0
 79153  1  0  0  0
 80 84  1  0  0  0
 80154  1  0  0  0
 81155  1  0  0  0
 81156  1  0  0  0
 81157  1  0  0  0
 82 85  1  0  0  0
 82158  1  0  0  0
 82159  1  0  0  0
 83 86  1  0  0  0
 83160  1  0  0  0
 83161  1  0  0  0
 84162  1  0  0  0
 84163  1  0  0  0
 86164  1  0  0  0
M  ISO  4   1 100  68 101  84 101  86 100
M  END
> <chiral flag>
0

> <version>
0

> <s_m_source_file>
/data/baiqing/PycharmProjects/Reinvent-master-3.2/result/LINK_invent/BTK/process_docking_weight1_custom_product_contain_oxygen_bond_distance_aromatic_linkinvent_7_9_3/rearranged_h_0050.sdf

> <i_m_source_file_index>
36

> <r_mmod_Potential_Energy-OPLS-2005>
83.0186233520508

> <r_mmod_Stretch_Energy-OPLS-2005>
99.9932403564453

> <r_mmod_Bend_Energy-OPLS-2005>
186.246231079102

> <r_mmod_Torsional_Energy-OPLS-2005>
249.215377807617

> <r_mmod_Improper_Torsional_Energy-OPLS-2005>
4.50554847717285

> <r_mmod_Van_der_Waal_Energy-OPLS-2005>
146.301330566406

> <r_mmod_Electrostatic_Energy-OPLS-2005>
-404.684631347656

> <r_mmod_Solvation_Energy-OPLS-2005>
-235.653076171875

> <b_mmod_Minimization_Converged-OPLS-2005>
0

> <r_mmod_RMS_Derivative-OPLS-2005>
6.44392156600952

$$$$
36
                    3D
 Structure written by MMmdl.
178187  0  0  1  0            999 V2000
  -30.8173  -14.2784   20.7549 C   0  0  0  0  0  0
  -30.4036  -12.2846   19.3661 C   0  0  0  0  0  0
  -29.4700  -12.5343   18.1724 C   0  0  0  0  0  0
  -27.9985  -12.3793   18.5964 C   0  0  0  0  0  0
  -27.6590  -13.2013   19.8673 C   0  0  2  0  0  0
  -28.6941  -12.9429   20.9813 C   0  0  0  0  0  0
  -25.2587  -13.8170   20.5664 C   0  0  0  0  0  0
  -24.1845  -13.0446   20.9183 C   0  0  0  0  0  0
  -24.6387  -11.6914   20.8721 C   0  0  0  0  0  0
  -23.9066  -10.4290   21.0396 C   0  0  0  0  0  0
  -24.3622   -9.4208   21.9176 C   0  0  0  0  0  0
  -23.6299   -8.2244   22.0742 C   0  0  0  0  0  0
  -22.4278   -8.0276   21.3537 C   0  0  0  0  0  0
  -21.9916   -9.0257   20.4648 C   0  0  0  0  0  0
  -22.7237  -10.2133   20.3053 C   0  0  0  0  0  0
  -21.6851   -6.0742   22.5292 C   0  0  0  0  0  0
  -21.4008   -6.5643   23.8224 C   0  0  0  0  0  0
  -21.3654   -5.6786   24.9183 C   0  0  0  0  0  0
  -21.6045   -4.3056   24.7224 C   0  0  0  0  0  0
  -21.8812   -3.8150   23.4349 C   0  0  0  0  0  0
  -21.9189   -4.6972   22.3403 C   0  0  0  0  0  0
  -22.7863  -13.5247   21.1859 C   0  0  0  0  0  0
  -22.1654   -4.2161   21.0986 F   0  0  0  0  0  0
  -21.5632   -3.4528   25.7731 F   0  0  0  0  0  0
  -30.0390  -13.2155   20.4414 N   0  0  0  0  0  0
  -26.3007  -12.9325   20.3319 N   0  0  0  0  0  0
  -25.9307  -11.6490   20.5731 N   0  0  0  0  0  0
  -22.0502  -12.8229   22.0412 N   0  0  0  0  0  0
  -25.4325  -15.1884   20.4058 N   0  0  0  0  0  0
  -31.7717  -14.6613   20.0705 O   0  0  0  0  0  0
  -21.6635   -6.8885   21.4245 O   0  0  0  0  0  0
  -22.3546  -14.5547   20.6707 O   0  0  0  0  0  0
  -24.6081  -31.8708   23.2116 C   0  0  0  0  0  0
  -25.9001  -32.4832   23.8405 C   0  0  1  0  0  0
  -27.2663  -27.4887   20.1096 C   0  0  0  0  0  0
  -25.5888  -33.8627   24.2352 N   0  0  0  0  0  0
  -23.3951  -30.4899   21.5500 C   0  0  2  0  0  0
  -24.8483  -28.9605   20.1178 C   0  0  0  0  0  0
  -22.7384  -29.4656   22.5009 C   0  0  0  0  0  0
  -18.0281  -28.1353   22.8501 C   0  0  0  0  0  0
  -24.1492  -36.7307   23.2624 C   0  0  0  0  0  0
  -25.9142  -30.8593   21.3535 C   0  0  0  0  0  0
  -25.9991  -29.4972   20.7044 C   0  0  0  0  0  0
  -27.2076  -28.7782   20.6909 C   0  0  0  0  0  0
  -26.0958  -26.9581   19.5255 C   0  0  0  0  0  0
  -24.8895  -27.6862   19.5226 C   0  0  0  0  0  0
  -23.6023  -29.8147   20.1659 C   0  0  0  0  0  0
  -25.4097  -36.3102   24.0344 C   0  0  1  0  0  0
  -20.5862  -28.3633   23.1326 C   0  0  2  0  0  0
  -20.6762  -26.9366   22.5429 C   0  0  0  0  0  0
  -19.5742  -26.6358   21.5219 C   0  0  0  0  0  0
  -18.1925  -26.7902   22.1627 C   0  0  0  0  0  0
  -19.1526  -28.8811   23.2913 C   0  0  0  0  0  0
  -18.9453  -30.1431   23.8905 C   0  0  0  0  0  0
  -17.6450  -30.6561   24.0564 C   0  0  0  0  0  0
  -25.9031  -34.9471   23.5138 C   0  0  0  0  0  0
  -16.5342  -29.9065   23.6313 C   0  0  0  0  0  0
  -16.7271  -28.6480   23.0336 C   0  0  0  0  0  0
  -26.4454  -31.6595   25.0708 C   0  0  0  0  0  0
  -25.3747  -31.3748   26.1494 C   0  0  0  0  0  0
  -27.0237  -30.3030   24.6032 C   0  0  0  0  0  0
  -27.6060  -32.4295   25.7444 C   0  0  0  0  0  0
  -27.5613  -37.1755   24.8425 C   0  0  0  0  0  0
  -21.4126  -29.3002   22.3746 N   0  0  0  0  0  0
  -26.4273  -37.3792   23.9454 N   0  0  0  0  0  0
  -24.6567  -31.0861   22.0986 N   0  0  0  0  0  0
  -23.4179  -28.8203   23.3041 O   0  0  0  0  0  0
  -28.3986  -26.7022   20.0713 O   0  0  0  0  0  0
  -26.5570  -34.8918   22.4698 O   0  0  0  0  0  0
  -23.5283  -32.1426   23.7541 O   0  0  0  0  0  0
  -29.7771  -20.9428   21.0897 C   0  0  0  0  0  0
  -30.2622  -22.0995   20.4563 C   0  0  0  0  0  0
  -32.9553  -14.2773   25.4467 C   0  0  0  0  0  0
  -31.6395  -14.7638   25.5491 C   0  0  0  0  0  0
  -28.2520  -23.2941   21.1252 C   0  0  0  0  0  0
  -32.7274  -14.1842   23.0247 C   0  0  0  0  0  0
  -28.5240  -20.9403   21.7446 C   0  0  0  0  0  0
  -29.5076  -23.2863   20.4807 C   0  0  0  0  0  0
  -33.5039  -13.9923   24.1834 C   0  0  0  0  0  0
  -30.8507  -14.9558   24.3945 C   0  0  0  0  0  0
  -27.7581  -22.1329   21.7600 C   0  0  0  0  0  0
  -31.3919  -14.6540   23.1150 C   0  0  0  0  0  0
  -28.0681  -19.7181   22.4324 C   0  0  0  0  0  0
  -28.9052  -18.8234   22.9922 C   0  0  0  0  0  0
  -28.4341  -17.5819   23.5710 C   0  0  0  0  0  0
  -29.3456  -26.6660   21.0574 C   0  0  0  0  0  0
  -34.9194  -13.4635   24.0653 C   0  0  0  0  0  0
  -26.4161  -22.1936   22.4694 C   0  0  0  0  0  0
  -31.3755  -25.4500   21.7657 C   0  0  0  0  0  0
  -30.0652  -24.5534   19.8477 C   0  0  0  0  0  0
  -29.4513  -15.5345   24.5646 C   0  0  0  0  0  0
  -30.5593  -14.7870   21.9663 N   0  0  0  0  0  0
  -29.4464  -16.9230   24.1347 N   0  0  0  0  0  0
  -30.2512  -25.6213   20.8412 N   0  0  0  0  0  0
  -27.2852  -17.1389   23.5169 O   0  0  0  0  0  0
  -29.4008  -27.4361   22.0220 O   0  0  0  0  0  0
  -31.4466  -12.3859   19.0601 H   0  0  0  0  0  0
  -30.2986  -11.2585   19.7231 H   0  0  0  0  0  0
  -29.7013  -11.8431   17.3604 H   0  0  0  0  0  0
  -29.6356  -13.5385   17.7785 H   0  0  0  0  0  0
  -27.8110  -11.3194   18.7748 H   0  0  0  0  0  0
  -27.3415  -12.6675   17.7742 H   0  0  0  0  0  0
  -27.7183  -14.2558   19.5959 H   0  0  0  0  0  0
  -28.6475  -11.9043   21.3110 H   0  0  0  0  0  0
  -28.4336  -13.5387   21.8566 H   0  0  0  0  0  0
  -25.2763   -9.5688   22.4756 H   0  0  0  0  0  0
  -24.0016   -7.4623   22.7444 H   0  0  0  0  0  0
  -21.0856   -8.8783   19.8943 H   0  0  0  0  0  0
  -22.3705  -10.9685   19.6168 H   0  0  0  0  0  0
  -21.1995   -7.6141   23.9741 H   0  0  0  0  0  0
  -21.1480   -6.0509   25.9092 H   0  0  0  0  0  0
  -22.0596   -2.7616   23.2836 H   0  0  0  0  0  0
  -22.4079  -11.9864   22.4791 H   0  0  0  0  0  0
  -21.1129  -13.1279   22.2620 H   0  0  0  0  0  0
  -24.6772  -15.8502   20.5479 H   0  0  0  0  0  0
  -26.2972  -15.6320   20.1232 H   0  0  0  0  0  0
  -26.7092  -32.5576   23.1201 H   0  0  0  0  0  0
  -25.0102  -33.9799   25.0535 H   0  0  0  0  0  0
  -22.6797  -31.3023   21.4072 H   0  0  0  0  0  0
  -23.3756  -35.9633   23.3215 H   0  0  0  0  0  0
  -24.3626  -36.8978   22.2062 H   0  0  0  0  0  0
  -23.7219  -37.6484   23.6670 H   0  0  0  0  0  0
  -26.0171  -31.6285   20.5867 H   0  0  0  0  0  0
  -26.8029  -30.9160   21.9701 H   0  0  0  0  0  0
  -28.0843  -29.2352   21.1250 H   0  0  0  0  0  0
  -26.1237  -25.9772   19.0720 H   0  0  0  0  0  0
  -24.0058  -27.2606   19.0680 H   0  0  0  0  0  0
  -23.6994  -30.5856   19.4008 H   0  0  0  0  0  0
  -22.7310  -29.2241   19.8768 H   0  0  0  0  0  0
  -25.1253  -36.1958   25.0823 H   0  0  0  0  0  0
  -20.9968  -28.3204   24.1443 H   0  0  0  0  0  0
  -20.5646  -26.2242   23.3619 H   0  0  0  0  0  0
  -21.6631  -26.7396   22.1226 H   0  0  0  0  0  0
  -19.6901  -25.6279   21.1212 H   0  0  0  0  0  0
  -19.6685  -27.3189   20.6766 H   0  0  0  0  0  0
  -17.4203  -26.6682   21.4020 H   0  0  0  0  0  0
  -18.0301  -26.0028   22.8999 H   0  0  0  0  0  0
  -19.7933  -30.7262   24.2247 H   0  0  0  0  0  0
  -17.4996  -31.6231   24.5183 H   0  0  0  0  0  0
  -15.5338  -30.2963   23.7608 H   0  0  0  0  0  0
  -15.8684  -28.0799   22.7013 H   0  0  0  0  0  0
  -24.5877  -30.7124   25.7871 H   0  0  0  0  0  0
  -24.8997  -32.2941   26.4940 H   0  0  0  0  0  0
  -25.8120  -30.8929   27.0248 H   0  0  0  0  0  0
  -26.2761  -29.6830   24.1070 H   0  0  0  0  0  0
  -27.3998  -29.7226   25.4462 H   0  0  0  0  0  0
  -27.8600  -30.4332   23.9161 H   0  0  0  0  0  0
  -27.2703  -33.3575   26.2082 H   0  0  0  0  0  0
  -28.3835  -32.6886   25.0248 H   0  0  0  0  0  0
  -28.0754  -31.8374   26.5304 H   0  0  0  0  0  0
  -28.2499  -38.0177   24.7645 H   0  0  0  0  0  0
  -28.1235  -36.2723   24.5996 H   0  0  0  0  0  0
  -27.2380  -37.1094   25.8826 H   0  0  0  0  0  0
  -20.9277  -29.8754   21.7006 H   0  0  0  0  0  0
  -26.0148  -38.2840   24.1561 H   0  0  0  0  0  0
  -30.3797  -20.0465   21.0541 H   0  0  0  0  0  0
  -31.2240  -22.0721   19.9628 H   0  0  0  0  0  0
  -33.5417  -14.1268   26.3433 H   0  0  0  0  0  0
  -31.2375  -14.9922   26.5262 H   0  0  0  0  0  0
  -27.6667  -24.2024   21.1446 H   0  0  0  0  0  0
  -33.1739  -13.9432   22.0702 H   0  0  0  0  0  0
  -27.0034  -19.5288   22.4415 H   0  0  0  0  0  0
  -29.9661  -19.0270   22.9973 H   0  0  0  0  0  0
  -35.5204  -13.7439   24.9308 H   0  0  0  0  0  0
  -35.4116  -13.8607   23.1771 H   0  0  0  0  0  0
  -34.9121  -12.3754   23.9928 H   0  0  0  0  0  0
  -26.0025  -23.2024   22.4668 H   0  0  0  0  0  0
  -26.5171  -21.8798   23.5092 H   0  0  0  0  0  0
  -25.6970  -21.5380   21.9784 H   0  0  0  0  0  0
  -31.9629  -26.3668   21.8414 H   0  0  0  0  0  0
  -32.0472  -24.6505   21.4501 H   0  0  0  0  0  0
  -31.0130  -25.2002   22.7638 H   0  0  0  0  0  0
  -29.4250  -24.8409   19.0133 H   0  0  0  0  0  0
  -31.0301  -24.3393   19.3844 H   0  0  0  0  0  0
  -29.1366  -15.4782   25.6072 H   0  0  0  0  0  0
  -28.7346  -14.9404   23.9954 H   0  0  0  0  0  0
  -29.5799  -14.7373   22.1926 H   0  0  0  0  0  0
  -30.3412  -17.3901   24.1572 H   0  0  0  0  0  0
  1 25  1  0  0  0
  1 30  2  0  0  0
  1 92  1  0  0  0
  2  3  1  0  0  0
  2 25  1  0  0  0
  2 97  1  0  0  0
  2 98  1  0  0  0
  3  4  1  0  0  0
  3 99  1  0  0  0
  3100  1  0  0  0
  4  5  1  0  0  0
  4101  1  0  0  0
  4102  1  0  0  0
  5  6  1  0  0  0
  5 26  1  0  0  0
  5103  1  0  0  0
  6 25  1  0  0  0
  6104  1  0  0  0
  6105  1  0  0  0
  7  8  2  0  0  0
  7 26  1  0  0  0
  7 29  1  0  0  0
  8  9  1  0  0  0
  8 22  1  0  0  0
  9 10  1  0  0  0
  9 27  2  0  0  0
 10 11  2  0  0  0
 10 15  1  0  0  0
 11 12  1  0  0  0
 11106  1  0  0  0
 12 13  2  0  0  0
 12107  1  0  0  0
 13 14  1  0  0  0
 13 31  1  0  0  0
 14 15  2  0  0  0
 14108  1  0  0  0
 15109  1  0  0  0
 16 17  2  0  0  0
 16 21  1  0  0  0
 16 31  1  0  0  0
 17 18  1  0  0  0
 17110  1  0  0  0
 18 19  2  0  0  0
 18111  1  0  0  0
 19 20  1  0  0  0
 19 24  1  0  0  0
 20 21  2  0  0  0
 20112  1  0  0  0
 21 23  1  0  0  0
 22 28  1  0  0  0
 22 32  2  0  0  0
 26 27  1  0  0  0
 28113  1  0  0  0
 28114  1  0  0  0
 29115  1  0  0  0
 29116  1  0  0  0
 33 34  1  0  0  0
 33 66  1  0  0  0
 33 70  2  0  0  0
 34 36  1  0  0  0
 34 59  1  0  0  0
 34117  1  0  0  0
 35 44  2  0  0  0
 35 45  1  0  0  0
 35 68  1  0  0  0
 36 56  1  0  0  0
 36118  1  0  0  0
 37 39  1  0  0  0
 37 47  1  0  0  0
 37 66  1  0  0  0
 37119  1  0  0  0
 38 43  2  0  0  0
 38 46  1  0  0  0
 38 47  1  0  0  0
 39 64  1  0  0  0
 39 67  2  0  0  0
 40 52  1  0  0  0
 40 53  2  0  0  0
 40 58  1  0  0  0
 41120  1  0  0  0
 41121  1  0  0  0
 41122  1  0  0  0
 41 48  1  0  0  0
 42 43  1  0  0  0
 42 66  1  0  0  0
 42123  1  0  0  0
 42124  1  0  0  0
 43 44  1  0  0  0
 44125  1  0  0  0
 45 46  2  0  0  0
 45126  1  0  0  0
 46127  1  0  0  0
 47128  1  0  0  0
 47129  1  0  0  0
 48 56  1  0  0  0
 48 65  1  0  0  0
 48130  1  0  0  0
 49 50  1  0  0  0
 49 53  1  0  0  0
 49 64  1  0  0  0
 49131  1  0  0  0
 50 51  1  0  0  0
 50132  1  0  0  0
 50133  1  0  0  0
 51 52  1  0  0  0
 51134  1  0  0  0
 51135  1  0  0  0
 52136  1  0  0  0
 52137  1  0  0  0
 53 54  1  0  0  0
 54 55  2  0  0  0
 54138  1  0  0  0
 55 57  1  0  0  0
 55139  1  0  0  0
 56 69  2  0  0  0
 57 58  2  0  0  0
 57140  1  0  0  0
 58141  1  0  0  0
 59 60  1  0  0  0
 59 61  1  0  0  0
 59 62  1  0  0  0
 60142  1  0  0  0
 60143  1  0  0  0
 60144  1  0  0  0
 61145  1  0  0  0
 61146  1  0  0  0
 61147  1  0  0  0
 62148  1  0  0  0
 62149  1  0  0  0
 62150  1  0  0  0
 63 65  1  0  0  0
 63151  1  0  0  0
 63152  1  0  0  0
 63153  1  0  0  0
 64154  1  0  0  0
 65155  1  0  0  0
 68 86  1  0  0  0
 71 72  2  0  0  0
 71 77  1  0  0  0
 71156  1  0  0  0
 72 78  1  0  0  0
 72157  1  0  0  0
 73 74  2  0  0  0
 73 79  1  0  0  0
 73158  1  0  0  0
 74 80  1  0  0  0
 74159  1  0  0  0
 75 78  2  0  0  0
 75 81  1  0  0  0
 75160  1  0  0  0
 76 79  2  0  0  0
 76 82  1  0  0  0
 76161  1  0  0  0
 77 81  2  0  0  0
 77 83  1  0  0  0
 78 90  1  0  0  0
 79 87  1  0  0  0
 80 82  2  0  0  0
 80 91  1  0  0  0
 81 88  1  0  0  0
 82 92  1  0  0  0
 83 84  2  0  0  0
 83162  1  0  0  0
 84 85  1  0  0  0
 84163  1  0  0  0
 85 93  1  0  0  0
 85 95  2  0  0  0
 86 94  1  0  0  0
 86 96  2  0  0  0
 87164  1  0  0  0
 87165  1  0  0  0
 87166  1  0  0  0
 88167  1  0  0  0
 88168  1  0  0  0
 88169  1  0  0  0
 89 94  1  0  0  0
 89170  1  0  0  0
 89171  1  0  0  0
 89172  1  0  0  0
 90 94  1  0  0  0
 90173  1  0  0  0
 90174  1  0  0  0
 91 93  1  0  0  0
 91175  1  0  0  0
 91176  1  0  0  0
 92177  1  0  0  0
 93178  1  0  0  0
M  ISO  4   1 100  68 101  86 101  92 100
M  END
> <chiral flag>
0

> <version>
0

> <s_m_source_file>
/data/baiqing/PycharmProjects/Reinvent-master-3.2/result/LINK_invent/BTK/process_docking_weight1_custom_product_contain_oxygen_bond_distance_aromatic_linkinvent_7_9_3/rearranged_h_0050.sdf

> <i_m_source_file_index>
37

> <r_mmod_Potential_Energy-OPLS-2005>
-112.059967041016

> <r_mmod_Stretch_Energy-OPLS-2005>
36.8015365600586

> <r_mmod_Bend_Energy-OPLS-2005>
103.538726806641

> <r_mmod_Torsional_Energy-OPLS-2005>
249.343063354492

> <r_mmod_Improper_Torsional_Energy-OPLS-2005>
6.94705200195312

> <r_mmod_Van_der_Waal_Energy-OPLS-2005>
186.518142700195

> <r_mmod_Electrostatic_Energy-OPLS-2005>
-467.888031005859

> <r_mmod_Solvation_Energy-OPLS-2005>
-235.301803588867

> <b_mmod_Minimization_Converged-OPLS-2005>
0

> <r_mmod_RMS_Derivative-OPLS-2005>
2.36901593208313

$$$$
37
                    3D
 Structure written by MMmdl.
160168  0  0  1  0            999 V2000
  -30.6856  -14.4940   20.5436 C   0  0  0  0  0  0
  -30.4189  -12.3087   19.4260 C   0  0  0  0  0  0
  -29.4946  -12.5115   18.2075 C   0  0  0  0  0  0
  -28.0124  -12.3772   18.6122 C   0  0  0  0  0  0
  -27.6587  -13.2049   19.8767 C   0  0  2  0  0  0
  -28.7058  -12.9962   20.9960 C   0  0  0  0  0  0
  -25.2567  -13.8128   20.5701 C   0  0  0  0  0  0
  -24.1821  -13.0410   20.9200 C   0  0  0  0  0  0
  -24.6373  -11.6879   20.8761 C   0  0  0  0  0  0
  -23.9040  -10.4276   21.0389 C   0  0  0  0  0  0
  -24.3599   -9.4208   21.9172 C   0  0  0  0  0  0
  -23.6286   -8.2243   22.0749 C   0  0  0  0  0  0
  -22.4282   -8.0270   21.3536 C   0  0  0  0  0  0
  -21.9905   -9.0237   20.4644 C   0  0  0  0  0  0
  -22.7209  -10.2125   20.3041 C   0  0  0  0  0  0
  -21.6854   -6.0734   22.5278 C   0  0  0  0  0  0
  -21.4017   -6.5644   23.8214 C   0  0  0  0  0  0
  -21.3661   -5.6789   24.9172 C   0  0  0  0  0  0
  -21.6042   -4.3049   24.7217 C   0  0  0  0  0  0
  -21.8817   -3.8147   23.4339 C   0  0  0  0  0  0
  -21.9198   -4.6963   22.3396 C   0  0  0  0  0  0
  -22.7846  -13.5238   21.1823 C   0  0  0  0  0  0
  -22.1651   -4.2154   21.0971 F   0  0  0  0  0  0
  -21.5643   -3.4536   25.7724 F   0  0  0  0  0  0
  -30.0312  -13.3052   20.4357 N   0  0  0  0  0  0
  -26.3012  -12.9302   20.3396 N   0  0  0  0  0  0
  -25.9317  -11.6467   20.5801 N   0  0  0  0  0  0
  -22.0440  -12.8269   22.0378 N   0  0  0  0  0  0
  -25.4266  -15.1841   20.4086 N   0  0  0  0  0  0
  -31.8356  -14.6585   20.1237 O   0  0  0  0  0  0
  -21.6648   -6.8871   21.4239 O   0  0  0  0  0  0
  -22.3561  -14.5548   20.6647 O   0  0  0  0  0  0
  -24.6201  -31.8667   23.2118 C   0  0  0  0  0  0
  -25.9080  -32.4808   23.8416 C   0  0  1  0  0  0
  -27.2119  -27.3845   20.0715 C   0  0  0  0  0  0
  -25.5916  -33.8610   24.2315 N   0  0  0  0  0  0
  -23.4065  -30.4986   21.5548 C   0  0  2  0  0  0
  -24.8429  -28.9698   20.1109 C   0  0  0  0  0  0
  -22.7427  -29.4669   22.4960 C   0  0  0  0  0  0
  -18.0267  -28.1375   22.8493 C   0  0  0  0  0  0
  -24.1465  -36.7305   23.2643 C   0  0  0  0  0  0
  -25.9460  -30.8123   21.3790 C   0  0  0  0  0  0
  -26.0120  -29.4500   20.7122 C   0  0  0  0  0  0
  -27.1945  -28.6649   20.6932 C   0  0  0  0  0  0
  -26.0095  -26.9369   19.4704 C   0  0  0  0  0  0
  -24.8398  -27.7149   19.4896 C   0  0  0  0  0  0
  -23.6147  -29.8477   20.1637 C   0  0  0  0  0  0
  -25.4096  -36.3096   24.0330 C   0  0  1  0  0  0
  -20.5862  -28.3672   23.1281 C   0  0  2  0  0  0
  -20.6746  -26.9400   22.5393 C   0  0  0  0  0  0
  -19.5723  -26.6378   21.5193 C   0  0  0  0  0  0
  -18.1913  -26.7914   22.1623 C   0  0  0  0  0  0
  -19.1526  -28.8837   23.2886 C   0  0  0  0  0  0
  -18.9456  -30.1435   23.8909 C   0  0  0  0  0  0
  -17.6457  -30.6577   24.0569 C   0  0  0  0  0  0
  -25.9038  -34.9469   23.5114 C   0  0  0  0  0  0
  -16.5345  -29.9086   23.6325 C   0  0  0  0  0  0
  -16.7251  -28.6498   23.0355 C   0  0  0  0  0  0
  -26.4486  -31.6624   25.0785 C   0  0  0  0  0  0
  -25.3743  -31.3762   26.1534 C   0  0  0  0  0  0
  -27.0351  -30.3056   24.6249 C   0  0  0  0  0  0
  -27.6034  -32.4394   25.7550 C   0  0  0  0  0  0
  -27.5564  -37.1807   24.8460 C   0  0  0  0  0  0
  -21.4148  -29.3052   22.3702 N   0  0  0  0  0  0
  -26.4261  -37.3799   23.9412 N   0  0  0  0  0  0
  -24.6758  -31.0744   22.1040 N   0  0  0  0  0  0
  -23.4181  -28.8176   23.2993 O   0  0  0  0  0  0
  -28.3727  -26.6129   20.1055 O   0  0  0  0  0  0
  -26.5611  -34.8916   22.4680 O   0  0  0  0  0  0
  -23.5383  -32.1448   23.7485 O   0  0  0  0  0  0
  -31.8116  -18.6438   21.8681 C   0  0  0  0  0  0
  -30.8790  -19.6449   21.5530 C   0  0  0  0  0  0
  -31.5076  -17.2943   21.6302 C   0  0  0  0  0  0
  -29.6478  -19.3336   20.9315 C   0  0  0  0  0  0
  -29.3555  -17.9500   20.6539 C   0  0  0  0  0  0
  -30.2718  -16.9242   21.0523 C   0  0  0  0  0  0
  -28.6738  -20.4791   20.6830 C   0  0  0  0  0  0
  -28.0911  -17.5520   19.8916 C   0  0  0  0  0  0
  -30.1286  -24.6128   21.1126 C   0  0  0  0  0  0
  -28.4304  -22.9286   20.1446 C   0  0  0  0  0  0
  -28.5101  -25.4206   19.2795 C   0  0  0  0  0  0
  -29.3008  -24.2069   19.8836 C   0  0  1  0  0  0
  -29.9246  -15.5328   20.9590 N   0  0  0  0  0  0
  -29.2006  -21.6838   20.3702 N   0  0  0  0  0  0
  -27.4560  -20.3108   20.7830 O   0  0  0  0  0  0
  -31.4642  -12.4039   19.1286 H   0  0  0  0  0  0
  -30.3109  -11.2995   19.8264 H   0  0  0  0  0  0
  -29.7376  -11.7982   17.4201 H   0  0  0  0  0  0
  -29.6679  -13.5010   17.7842 H   0  0  0  0  0  0
  -27.8025  -11.3217   18.7831 H   0  0  0  0  0  0
  -27.3711  -12.6817   17.7818 H   0  0  0  0  0  0
  -27.6934  -14.2512   19.5788 H   0  0  0  0  0  0
  -28.6906  -11.9626   21.3434 H   0  0  0  0  0  0
  -28.4734  -13.6068   21.8706 H   0  0  0  0  0  0
  -25.2711   -9.5724   22.4775 H   0  0  0  0  0  0
  -24.0007   -7.4645   22.7468 H   0  0  0  0  0  0
  -21.0846   -8.8723   19.8952 H   0  0  0  0  0  0
  -22.3617  -10.9666   19.6187 H   0  0  0  0  0  0
  -21.1999   -7.6143   23.9715 H   0  0  0  0  0  0
  -21.1496   -6.0517   25.9075 H   0  0  0  0  0  0
  -22.0605   -2.7614   23.2826 H   0  0  0  0  0  0
  -22.4033  -11.9952   22.4823 H   0  0  0  0  0  0
  -21.1054  -13.1318   22.2507 H   0  0  0  0  0  0
  -24.6545  -15.8343   20.5007 H   0  0  0  0  0  0
  -26.2734  -15.6210   20.0731 H   0  0  0  0  0  0
  -26.7150  -32.5477   23.1167 H   0  0  0  0  0  0
  -25.0043  -33.9783   25.0443 H   0  0  0  0  0  0
  -22.6980  -31.3193   21.4235 H   0  0  0  0  0  0
  -23.3724  -35.9640   23.3304 H   0  0  0  0  0  0
  -24.3549  -36.8934   22.2059 H   0  0  0  0  0  0
  -23.7215  -37.6501   23.6674 H   0  0  0  0  0  0
  -26.0846  -31.5841   20.6211 H   0  0  0  0  0  0
  -26.8224  -30.8427   22.0129 H   0  0  0  0  0  0
  -28.0927  -29.0347   21.1678 H   0  0  0  0  0  0
  -25.8992  -25.9850   18.9826 H   0  0  0  0  0  0
  -23.9402  -27.3405   19.0206 H   0  0  0  0  0  0
  -23.7325  -30.6325   19.4155 H   0  0  0  0  0  0
  -22.7336  -29.2832   19.8579 H   0  0  0  0  0  0
  -25.1273  -36.1951   25.0825 H   0  0  0  0  0  0
  -20.9963  -28.3225   24.1395 H   0  0  0  0  0  0
  -20.5606  -26.2294   23.3597 H   0  0  0  0  0  0
  -21.6618  -26.7411   22.1203 H   0  0  0  0  0  0
  -19.6874  -25.6290   21.1225 H   0  0  0  0  0  0
  -19.6637  -27.3186   20.6723 H   0  0  0  0  0  0
  -17.4167  -26.6640   21.4044 H   0  0  0  0  0  0
  -18.0331  -26.0053   22.9023 H   0  0  0  0  0  0
  -19.7941  -30.7238   24.2284 H   0  0  0  0  0  0
  -17.5025  -31.6261   24.5167 H   0  0  0  0  0  0
  -15.5353  -30.3007   23.7632 H   0  0  0  0  0  0
  -15.8648  -28.0817   22.7085 H   0  0  0  0  0  0
  -24.5852  -30.7183   25.7873 H   0  0  0  0  0  0
  -24.9014  -32.2937   26.5051 H   0  0  0  0  0  0
  -25.8073  -30.8865   27.0261 H   0  0  0  0  0  0
  -26.2944  -29.6807   24.1242 H   0  0  0  0  0  0
  -27.4012  -29.7321   25.4774 H   0  0  0  0  0  0
  -27.8825  -30.4354   23.9512 H   0  0  0  0  0  0
  -27.2602  -33.3668   26.2146 H   0  0  0  0  0  0
  -28.3819  -32.7009   25.0375 H   0  0  0  0  0  0
  -28.0732  -31.8533   26.5458 H   0  0  0  0  0  0
  -28.2576  -38.0110   24.7521 H   0  0  0  0  0  0
  -28.1052  -36.2645   24.6246 H   0  0  0  0  0  0
  -27.2290  -37.1424   25.8862 H   0  0  0  0  0  0
  -20.9296  -29.8844   21.7001 H   0  0  0  0  0  0
  -26.0140  -38.2860   24.1435 H   0  0  0  0  0  0
  -32.7541  -18.9139   22.3241 H   0  0  0  0  0  0
  -31.1200  -20.6673   21.8148 H   0  0  0  0  0  0
  -32.2307  -16.5461   21.9209 H   0  0  0  0  0  0
  -27.2103  -17.5927   20.5333 H   0  0  0  0  0  0
  -28.1584  -16.5518   19.4669 H   0  0  0  0  0  0
  -27.9343  -18.2211   19.0442 H   0  0  0  0  0  0
  -30.7620  -23.7962   21.4576 H   0  0  0  0  0  0
  -29.4822  -24.9086   21.9395 H   0  0  0  0  0  0
  -30.7787  -25.4582   20.8838 H   0  0  0  0  0  0
  -27.7629  -22.7528   19.2988 H   0  0  0  0  0  0
  -27.7855  -23.1007   21.0071 H   0  0  0  0  0  0
  -27.5879  -25.0130   18.8860 H   0  0  0  0  0  0
  -29.0427  -25.7601   18.3917 H   0  0  0  0  0  0
  -30.0136  -23.9186   19.1087 H   0  0  0  0  0  0
  -28.9632  -15.2989   21.1561 H   0  0  0  0  0  0
  -30.2076  -21.7306   20.2937 H   0  0  0  0  0  0
  1 25  1  0  0  0
  1 30  2  0  0  0
  1 83  1  0  0  0
  2  3  1  0  0  0
  2 25  1  0  0  0
  2 86  1  0  0  0
  2 87  1  0  0  0
  3  4  1  0  0  0
  3 88  1  0  0  0
  3 89  1  0  0  0
  4  5  1  0  0  0
  4 90  1  0  0  0
  4 91  1  0  0  0
  5  6  1  0  0  0
  5 26  1  0  0  0
  5 92  1  0  0  0
  6 25  1  0  0  0
  6 93  1  0  0  0
  6 94  1  0  0  0
  7  8  2  0  0  0
  7 26  1  0  0  0
  7 29  1  0  0  0
  8  9  1  0  0  0
  8 22  1  0  0  0
  9 10  1  0  0  0
  9 27  2  0  0  0
 10 11  2  0  0  0
 10 15  1  0  0  0
 11 12  1  0  0  0
 11 95  1  0  0  0
 12 13  2  0  0  0
 12 96  1  0  0  0
 13 14  1  0  0  0
 13 31  1  0  0  0
 14 15  2  0  0  0
 14 97  1  0  0  0
 15 98  1  0  0  0
 16 17  2  0  0  0
 16 21  1  0  0  0
 16 31  1  0  0  0
 17 18  1  0  0  0
 17 99  1  0  0  0
 18 19  2  0  0  0
 18100  1  0  0  0
 19 20  1  0  0  0
 19 24  1  0  0  0
 20 21  2  0  0  0
 20101  1  0  0  0
 21 23  1  0  0  0
 22 28  1  0  0  0
 22 32  2  0  0  0
 26 27  1  0  0  0
 28102  1  0  0  0
 28103  1  0  0  0
 29104  1  0  0  0
 29105  1  0  0  0
 33 34  1  0  0  0
 33 66  1  0  0  0
 33 70  2  0  0  0
 34 36  1  0  0  0
 34 59  1  0  0  0
 34106  1  0  0  0
 35 44  2  0  0  0
 35 45  1  0  0  0
 35 68  1  0  0  0
 36 56  1  0  0  0
 36107  1  0  0  0
 37 39  1  0  0  0
 37 47  1  0  0  0
 37 66  1  0  0  0
 37108  1  0  0  0
 38 43  2  0  0  0
 38 46  1  0  0  0
 38 47  1  0  0  0
 39 64  1  0  0  0
 39 67  2  0  0  0
 40 52  1  0  0  0
 40 53  2  0  0  0
 40 58  1  0  0  0
 41109  1  0  0  0
 41110  1  0  0  0
 41111  1  0  0  0
 41 48  1  0  0  0
 42 43  1  0  0  0
 42 66  1  0  0  0
 42112  1  0  0  0
 42113  1  0  0  0
 43 44  1  0  0  0
 44114  1  0  0  0
 45 46  2  0  0  0
 45115  1  0  0  0
 46116  1  0  0  0
 47117  1  0  0  0
 47118  1  0  0  0
 48 56  1  0  0  0
 48 65  1  0  0  0
 48119  1  0  0  0
 49 50  1  0  0  0
 49 53  1  0  0  0
 49 64  1  0  0  0
 49120  1  0  0  0
 50 51  1  0  0  0
 50121  1  0  0  0
 50122  1  0  0  0
 51 52  1  0  0  0
 51123  1  0  0  0
 51124  1  0  0  0
 52125  1  0  0  0
 52126  1  0  0  0
 53 54  1  0  0  0
 54 55  2  0  0  0
 54127  1  0  0  0
 55 57  1  0  0  0
 55128  1  0  0  0
 56 69  2  0  0  0
 57 58  2  0  0  0
 57129  1  0  0  0
 58130  1  0  0  0
 59 60  1  0  0  0
 59 61  1  0  0  0
 59 62  1  0  0  0
 60131  1  0  0  0
 60132  1  0  0  0
 60133  1  0  0  0
 61134  1  0  0  0
 61135  1  0  0  0
 61136  1  0  0  0
 62137  1  0  0  0
 62138  1  0  0  0
 62139  1  0  0  0
 63 65  1  0  0  0
 63140  1  0  0  0
 63141  1  0  0  0
 63142  1  0  0  0
 64143  1  0  0  0
 65144  1  0  0  0
 68 81  1  0  0  0
 71 72  2  0  0  0
 71 73  1  0  0  0
 71145  1  0  0  0
 72 74  1  0  0  0
 72146  1  0  0  0
 73 76  2  0  0  0
 73147  1  0  0  0
 74 75  2  0  0  0
 74 77  1  0  0  0
 75 76  1  0  0  0
 75 78  1  0  0  0
 76 83  1  0  0  0
 77 84  1  0  0  0
 77 85  2  0  0  0
 78148  1  0  0  0
 78149  1  0  0  0
 78150  1  0  0  0
 79151  1  0  0  0
 79152  1  0  0  0
 79153  1  0  0  0
 79 82  1  0  0  0
 80 82  1  0  0  0
 80 84  1  0  0  0
 80154  1  0  0  0
 80155  1  0  0  0
 81 82  1  0  0  0
 81156  1  0  0  0
 81157  1  0  0  0
 82158  1  0  0  0
 83159  1  0  0  0
 84160  1  0  0  0
M  ISO  4   1 100  68 101  81 101  83 100
M  END
> <chiral flag>
0

> <version>
0

> <s_m_source_file>
/data/baiqing/PycharmProjects/Reinvent-master-3.2/result/LINK_invent/BTK/process_docking_weight1_custom_product_contain_oxygen_bond_distance_aromatic_linkinvent_7_9_3/rearranged_h_0050.sdf

> <i_m_source_file_index>
38

> <r_mmod_Potential_Energy-OPLS-2005>
-49.476921081543

> <r_mmod_Stretch_Energy-OPLS-2005>
51.6982688903809

> <r_mmod_Bend_Energy-OPLS-2005>
117.102928161621

> <r_mmod_Torsional_Energy-OPLS-2005>
252.348205566406

> <r_mmod_Improper_Torsional_Energy-OPLS-2005>
4.90133762359619

> <r_mmod_Van_der_Waal_Energy-OPLS-2005>
163.471145629883

> <r_mmod_Electrostatic_Energy-OPLS-2005>
-435.793701171875

> <r_mmod_Solvation_Energy-OPLS-2005>
-223.413589477539

> <b_mmod_Minimization_Converged-OPLS-2005>
0

> <r_mmod_RMS_Derivative-OPLS-2005>
3.5014750957489

$$$$
38
                    3D
 Structure written by MMmdl.
158166  0  0  1  0            999 V2000
  -30.6638  -14.6292   20.4718 C   0  0  0  0  0  0
  -30.4242  -12.3652   19.4536 C   0  0  0  0  0  0
  -29.5050  -12.4698   18.2204 C   0  0  0  0  0  0
  -28.0234  -12.3393   18.6323 C   0  0  0  0  0  0
  -27.6442  -13.2291   19.8501 C   0  0  2  0  0  0
  -28.6982  -13.1344   20.9744 C   0  0  0  0  0  0
  -25.2553  -13.8180   20.5696 C   0  0  0  0  0  0
  -24.1833  -13.0463   20.9157 C   0  0  0  0  0  0
  -24.6419  -11.6928   20.8725 C   0  0  0  0  0  0
  -23.9097  -10.4296   21.0401 C   0  0  0  0  0  0
  -24.3633   -9.4190   21.9189 C   0  0  0  0  0  0
  -23.6297   -8.2220   22.0764 C   0  0  0  0  0  0
  -22.4273   -8.0281   21.3564 C   0  0  0  0  0  0
  -21.9914   -9.0246   20.4654 C   0  0  0  0  0  0
  -22.7254  -10.2132   20.3059 C   0  0  0  0  0  0
  -21.6871   -6.0726   22.5269 C   0  0  0  0  0  0
  -21.4018   -6.5642   23.8194 C   0  0  0  0  0  0
  -21.3663   -5.6798   24.9163 C   0  0  0  0  0  0
  -21.6047   -4.3060   24.7218 C   0  0  0  0  0  0
  -21.8819   -3.8144   23.4348 C   0  0  0  0  0  0
  -21.9175   -4.6946   22.3396 C   0  0  0  0  0  0
  -22.7853  -13.5239   21.1860 C   0  0  0  0  0  0
  -22.1666   -4.2154   21.0970 F   0  0  0  0  0  0
  -21.5622   -3.4541   25.7728 F   0  0  0  0  0  0
  -30.0032  -13.4344   20.3722 N   0  0  0  0  0  0
  -26.2985  -12.9412   20.3302 N   0  0  0  0  0  0
  -25.9355  -11.6561   20.5759 N   0  0  0  0  0  0
  -22.0524  -12.8210   22.0408 N   0  0  0  0  0  0
  -25.4191  -15.1923   20.4157 N   0  0  0  0  0  0
  -31.8688  -14.7260   20.2221 O   0  0  0  0  0  0
  -21.6662   -6.8886   21.4243 O   0  0  0  0  0  0
  -22.3491  -14.5526   20.6723 O   0  0  0  0  0  0
  -24.6226  -31.8587   23.1958 C   0  0  0  0  0  0
  -25.9089  -32.4767   23.8316 C   0  0  1  0  0  0
  -27.2534  -27.3130   20.1160 C   0  0  0  0  0  0
  -25.5897  -33.8565   24.2252 N   0  0  0  0  0  0
  -23.4216  -30.4732   21.5379 C   0  0  2  0  0  0
  -24.8740  -28.9120   20.1225 C   0  0  0  0  0  0
  -22.7466  -29.4636   22.4963 C   0  0  0  0  0  0
  -18.0360  -28.1247   22.8508 C   0  0  0  0  0  0
  -24.1484  -36.7249   23.2651 C   0  0  0  0  0  0
  -25.9609  -30.7802   21.3742 C   0  0  0  0  0  0
  -26.0361  -29.4013   20.7261 C   0  0  0  0  0  0
  -27.2240  -28.6108   20.7166 C   0  0  0  0  0  0
  -26.0610  -26.8655   19.5071 C   0  0  0  0  0  0
  -24.8919  -27.6520   19.5015 C   0  0  0  0  0  0
  -23.6408  -29.7878   20.1631 C   0  0  0  0  0  0
  -25.4108  -36.3047   24.0327 C   0  0  1  0  0  0
  -20.5927  -28.3594   23.1298 C   0  0  2  0  0  0
  -20.6891  -26.9321   22.5386 C   0  0  0  0  0  0
  -19.5834  -26.6201   21.5253 C   0  0  0  0  0  0
  -18.2035  -26.7781   22.1631 C   0  0  0  0  0  0
  -19.1577  -28.8766   23.2898 C   0  0  0  0  0  0
  -18.9450  -30.1378   23.8931 C   0  0  0  0  0  0
  -17.6441  -30.6503   24.0510 C   0  0  0  0  0  0
  -25.9040  -34.9417   23.5078 C   0  0  0  0  0  0
  -16.5367  -29.8947   23.6237 C   0  0  0  0  0  0
  -16.7351  -28.6340   23.0321 C   0  0  0  0  0  0
  -26.4511  -31.6579   25.0679 C   0  0  0  0  0  0
  -25.3768  -31.3702   26.1408 C   0  0  0  0  0  0
  -27.0374  -30.2995   24.6155 C   0  0  0  0  0  0
  -27.6049  -32.4353   25.7461 C   0  0  0  0  0  0
  -27.5575  -37.1771   24.8486 C   0  0  0  0  0  0
  -21.4198  -29.3016   22.3686 N   0  0  0  0  0  0
  -26.4300  -37.3748   23.9414 N   0  0  0  0  0  0
  -24.6866  -31.0586   22.0927 N   0  0  0  0  0  0
  -23.4154  -28.8225   23.3118 O   0  0  0  0  0  0
  -28.4172  -26.5293   20.1473 O   0  0  0  0  0  0
  -26.5643  -34.8907   22.4681 O   0  0  0  0  0  0
  -23.5403  -32.1404   23.7287 O   0  0  0  0  0  0
  -30.0305  -17.1310   23.9582 C   0  0  0  0  0  0
  -29.1657  -18.2217   23.8519 C   0  0  0  0  0  0
  -30.3579  -16.4055   22.8083 C   0  0  0  0  0  0
  -29.2560  -18.1139   21.3784 C   0  0  0  0  0  0
  -28.7542  -18.6833   22.5874 C   0  0  0  0  0  0
  -29.9059  -16.8109   21.5282 C   0  0  0  0  0  0
  -29.2125  -18.8624   20.0401 C   0  0  0  0  0  0
  -28.8828  -20.1080   19.5053 C   0  0  0  0  0  0
  -28.2342  -21.3591   20.0174 C   0  0  0  0  0  0
  -27.6025  -19.6492   22.6196 C   0  0  0  0  0  0
  -28.4607  -23.8882   20.4165 C   0  0  0  0  0  0
  -28.5560  -25.1950   19.5123 C   0  0  0  0  0  0
  -29.8946  -15.7642   20.5237 N   0  0  0  0  0  0
  -28.8883  -22.5526   19.8395 N   0  0  0  0  0  0
  -27.0821  -21.4055   20.4441 O   0  0  0  0  0  0
  -31.4733  -12.4444   19.1646 H   0  0  0  0  0  0
  -30.3212  -11.3860   19.9293 H   0  0  0  0  0  0
  -29.7576  -11.7114   17.4750 H   0  0  0  0  0  0
  -29.6673  -13.4294   17.7331 H   0  0  0  0  0  0
  -27.8393  -11.2911   18.8737 H   0  0  0  0  0  0
  -27.3792  -12.5741   17.7872 H   0  0  0  0  0  0
  -27.6420  -14.2574   19.4860 H   0  0  0  0  0  0
  -28.6992  -12.1424   21.4270 H   0  0  0  0  0  0
  -28.4727  -13.8399   21.7804 H   0  0  0  0  0  0
  -25.2796   -9.5677   22.4765 H   0  0  0  0  0  0
  -24.0008   -7.4628   22.7514 H   0  0  0  0  0  0
  -21.0828   -8.8775   19.8979 H   0  0  0  0  0  0
  -22.3713  -10.9672   19.6155 H   0  0  0  0  0  0
  -21.2054   -7.6167   23.9704 H   0  0  0  0  0  0
  -21.1493   -6.0541   25.9074 H   0  0  0  0  0  0
  -22.0599   -2.7612   23.2836 H   0  0  0  0  0  0
  -22.4171  -11.9856   22.4763 H   0  0  0  0  0  0
  -21.1174  -13.1239   22.2741 H   0  0  0  0  0  0
  -24.6514  -15.8445   20.5410 H   0  0  0  0  0  0
  -26.2799  -15.6442   20.1345 H   0  0  0  0  0  0
  -26.7164  -32.5453   23.1078 H   0  0  0  0  0  0
  -24.9974  -33.9733   25.0328 H   0  0  0  0  0  0
  -22.7210  -31.2908   21.3824 H   0  0  0  0  0  0
  -23.3735  -35.9604   23.3349 H   0  0  0  0  0  0
  -24.3557  -36.8850   22.2070 H   0  0  0  0  0  0
  -23.7246  -37.6472   23.6660 H   0  0  0  0  0  0
  -26.0958  -31.5378   20.6014 H   0  0  0  0  0  0
  -26.8371  -30.8344   22.0054 H   0  0  0  0  0  0
  -28.1220  -28.9853   21.1899 H   0  0  0  0  0  0
  -26.0024  -25.8959   19.0343 H   0  0  0  0  0  0
  -24.0029  -27.2698   19.0214 H   0  0  0  0  0  0
  -23.7548  -30.5446   19.3863 H   0  0  0  0  0  0
  -22.7665  -29.1981   19.8796 H   0  0  0  0  0  0
  -25.1288  -36.1883   25.0818 H   0  0  0  0  0  0
  -20.9981  -28.3138   24.1432 H   0  0  0  0  0  0
  -20.5955  -26.2149   23.3550 H   0  0  0  0  0  0
  -21.6778  -26.7503   22.1111 H   0  0  0  0  0  0
  -19.7041  -25.6063   21.1336 H   0  0  0  0  0  0
  -19.6774  -27.2960   20.6730 H   0  0  0  0  0  0
  -17.4279  -26.6582   21.4098 H   0  0  0  0  0  0
  -18.0418  -25.9937   22.9055 H   0  0  0  0  0  0
  -19.7882  -30.7232   24.2341 H   0  0  0  0  0  0
  -17.4925  -31.6213   24.4989 H   0  0  0  0  0  0
  -15.5331  -30.2800   23.7502 H   0  0  0  0  0  0
  -15.8825  -28.0536   22.7047 H   0  0  0  0  0  0
  -24.5904  -30.7109   25.7746 H   0  0  0  0  0  0
  -24.8985  -32.2870   26.4886 H   0  0  0  0  0  0
  -25.8082  -30.8852   27.0153 H   0  0  0  0  0  0
  -26.2971  -29.6728   24.1185 H   0  0  0  0  0  0
  -27.4096  -29.7288   25.4681 H   0  0  0  0  0  0
  -27.8837  -30.4269   23.9378 H   0  0  0  0  0  0
  -27.2614  -33.3630   26.2051 H   0  0  0  0  0  0
  -28.3842  -32.6959   25.0272 H   0  0  0  0  0  0
  -28.0729  -31.8462   26.5369 H   0  0  0  0  0  0
  -28.2576  -38.0067   24.7474 H   0  0  0  0  0  0
  -28.1063  -36.2590   24.6363 H   0  0  0  0  0  0
  -27.2289  -37.1486   25.8889 H   0  0  0  0  0  0
  -20.9322  -29.8608   21.6820 H   0  0  0  0  0  0
  -26.0164  -38.2822   24.1420 H   0  0  0  0  0  0
  -30.3482  -16.7658   24.9252 H   0  0  0  0  0  0
  -28.7822  -18.6819   24.7501 H   0  0  0  0  0  0
  -30.8934  -15.4831   22.9584 H   0  0  0  0  0  0
  -29.6214  -18.2143   19.2719 H   0  0  0  0  0  0
  -29.1093  -20.1699   18.4498 H   0  0  0  0  0  0
  -27.9176  -20.6914   22.6868 H   0  0  0  0  0  0
  -26.9436  -19.4471   23.4662 H   0  0  0  0  0  0
  -26.9803  -19.4500   21.7531 H   0  0  0  0  0  0
  -27.4515  -23.8105   20.8163 H   0  0  0  0  0  0
  -29.0970  -24.0611   21.2895 H   0  0  0  0  0  0
  -27.9222  -25.1072   18.6307 H   0  0  0  0  0  0
  -29.5665  -25.2011   19.1095 H   0  0  0  0  0  0
  -28.9872  -15.6601   20.0909 H   0  0  0  0  0  0
  -29.7834  -22.5308   19.3708 H   0  0  0  0  0  0
  1 25  1  0  0  0
  1 30  2  0  0  0
  1 83  1  0  0  0
  2  3  1  0  0  0
  2 25  1  0  0  0
  2 86  1  0  0  0
  2 87  1  0  0  0
  3  4  1  0  0  0
  3 88  1  0  0  0
  3 89  1  0  0  0
  4  5  1  0  0  0
  4 90  1  0  0  0
  4 91  1  0  0  0
  5  6  1  0  0  0
  5 26  1  0  0  0
  5 92  1  0  0  0
  6 25  1  0  0  0
  6 93  1  0  0  0
  6 94  1  0  0  0
  7  8  2  0  0  0
  7 26  1  0  0  0
  7 29  1  0  0  0
  8  9  1  0  0  0
  8 22  1  0  0  0
  9 10  1  0  0  0
  9 27  2  0  0  0
 10 11  2  0  0  0
 10 15  1  0  0  0
 11 12  1  0  0  0
 11 95  1  0  0  0
 12 13  2  0  0  0
 12 96  1  0  0  0
 13 14  1  0  0  0
 13 31  1  0  0  0
 14 15  2  0  0  0
 14 97  1  0  0  0
 15 98  1  0  0  0
 16 17  2  0  0  0
 16 21  1  0  0  0
 16 31  1  0  0  0
 17 18  1  0  0  0
 17 99  1  0  0  0
 18 19  2  0  0  0
 18100  1  0  0  0
 19 20  1  0  0  0
 19 24  1  0  0  0
 20 21  2  0  0  0
 20101  1  0  0  0
 21 23  1  0  0  0
 22 28  1  0  0  0
 22 32  2  0  0  0
 26 27  1  0  0  0
 28102  1  0  0  0
 28103  1  0  0  0
 29104  1  0  0  0
 29105  1  0  0  0
 33 34  1  0  0  0
 33 66  1  0  0  0
 33 70  2  0  0  0
 34 36  1  0  0  0
 34 59  1  0  0  0
 34106  1  0  0  0
 35 44  2  0  0  0
 35 45  1  0  0  0
 35 68  1  0  0  0
 36 56  1  0  0  0
 36107  1  0  0  0
 37 39  1  0  0  0
 37 47  1  0  0  0
 37 66  1  0  0  0
 37108  1  0  0  0
 38 43  2  0  0  0
 38 46  1  0  0  0
 38 47  1  0  0  0
 39 64  1  0  0  0
 39 67  2  0  0  0
 40 52  1  0  0  0
 40 53  2  0  0  0
 40 58  1  0  0  0
 41109  1  0  0  0
 41110  1  0  0  0
 41111  1  0  0  0
 41 48  1  0  0  0
 42 43  1  0  0  0
 42 66  1  0  0  0
 42112  1  0  0  0
 42113  1  0  0  0
 43 44  1  0  0  0
 44114  1  0  0  0
 45 46  2  0  0  0
 45115  1  0  0  0
 46116  1  0  0  0
 47117  1  0  0  0
 47118  1  0  0  0
 48 56  1  0  0  0
 48 65  1  0  0  0
 48119  1  0  0  0
 49 50  1  0  0  0
 49 53  1  0  0  0
 49 64  1  0  0  0
 49120  1  0  0  0
 50 51  1  0  0  0
 50121  1  0  0  0
 50122  1  0  0  0
 51 52  1  0  0  0
 51123  1  0  0  0
 51124  1  0  0  0
 52125  1  0  0  0
 52126  1  0  0  0
 53 54  1  0  0  0
 54 55  2  0  0  0
 54127  1  0  0  0
 55 57  1  0  0  0
 55128  1  0  0  0
 56 69  2  0  0  0
 57 58  2  0  0  0
 57129  1  0  0  0
 58130  1  0  0  0
 59 60  1  0  0  0
 59 61  1  0  0  0
 59 62  1  0  0  0
 60131  1  0  0  0
 60132  1  0  0  0
 60133  1  0  0  0
 61134  1  0  0  0
 61135  1  0  0  0
 61136  1  0  0  0
 62137  1  0  0  0
 62138  1  0  0  0
 62139  1  0  0  0
 63 65  1  0  0  0
 63140  1  0  0  0
 63141  1  0  0  0
 63142  1  0  0  0
 64143  1  0  0  0
 65144  1  0  0  0
 68 82  1  0  0  0
 71 72  2  0  0  0
 71 73  1  0  0  0
 71145  1  0  0  0
 72 75  1  0  0  0
 72146  1  0  0  0
 73 76  2  0  0  0
 73147  1  0  0  0
 74 75  2  0  0  0
 74 76  1  0  0  0
 74 77  1  0  0  0
 75 80  1  0  0  0
 76 83  1  0  0  0
 77 78  2  0  0  0
 77148  1  0  0  0
 78 79  1  0  0  0
 78149  1  0  0  0
 79 84  1  0  0  0
 79 85  2  0  0  0
 80150  1  0  0  0
 80151  1  0  0  0
 80152  1  0  0  0
 81 82  1  0  0  0
 81 84  1  0  0  0
 81153  1  0  0  0
 81154  1  0  0  0
 82155  1  0  0  0
 82156  1  0  0  0
 83157  1  0  0  0
 84158  1  0  0  0
M  ISO  4   1 100  68 101  82 101  83 100
M  END
> <chiral flag>
0

> <version>
0

> <s_m_source_file>
/data/baiqing/PycharmProjects/Reinvent-master-3.2/result/LINK_invent/BTK/process_docking_weight1_custom_product_contain_oxygen_bond_distance_aromatic_linkinvent_7_9_3/rearranged_h_0050.sdf

> <i_m_source_file_index>
39

> <r_mmod_Potential_Energy-OPLS-2005>
147.327743530273

> <r_mmod_Stretch_Energy-OPLS-2005>
94.8673858642578

> <r_mmod_Bend_Energy-OPLS-2005>
211.832061767578

> <r_mmod_Torsional_Energy-OPLS-2005>
319.870422363281

> <r_mmod_Improper_Torsional_Energy-OPLS-2005>
15.4607639312744

> <r_mmod_Van_der_Waal_Energy-OPLS-2005>
157.503143310547

> <r_mmod_Electrostatic_Energy-OPLS-2005>
-470.665649414062

> <r_mmod_Solvation_Energy-OPLS-2005>
-232.773666381836

> <b_mmod_Minimization_Converged-OPLS-2005>
0

> <r_mmod_RMS_Derivative-OPLS-2005>
9.00208377838135

$$$$
39
                    3D
 Structure written by MMmdl.
185195  0  0  1  0            999 V2000
  -30.6566  -14.5410   20.3117 C   0  0  0  0  0  0
  -30.4172  -12.2884   19.3936 C   0  0  0  0  0  0
  -29.4859  -12.4610   18.1757 C   0  0  0  0  0  0
  -28.0024  -12.3635   18.5950 C   0  0  0  0  0  0
  -27.6507  -13.1996   19.8606 C   0  0  2  0  0  0
  -28.7310  -13.0583   20.9619 C   0  0  0  0  0  0
  -25.2597  -13.8004   20.5971 C   0  0  0  0  0  0
  -24.1823  -13.0290   20.9234 C   0  0  0  0  0  0
  -24.6396  -11.6788   20.8725 C   0  0  0  0  0  0
  -23.9034  -10.4225   21.0409 C   0  0  0  0  0  0
  -24.3578   -9.4215   21.9241 C   0  0  0  0  0  0
  -23.6307   -8.2236   22.0806 C   0  0  0  0  0  0
  -22.4326   -8.0231   21.3536 C   0  0  0  0  0  0
  -21.9907   -9.0188   20.4696 C   0  0  0  0  0  0
  -22.7166  -10.2101   20.3074 C   0  0  0  0  0  0
  -21.6862   -6.0722   22.5292 C   0  0  0  0  0  0
  -21.4059   -6.5706   23.8193 C   0  0  0  0  0  0
  -21.3660   -5.6873   24.9170 C   0  0  0  0  0  0
  -21.6038   -4.3125   24.7225 C   0  0  0  0  0  0
  -21.8796   -3.8163   23.4371 C   0  0  0  0  0  0
  -21.9176   -4.6960   22.3405 C   0  0  0  0  0  0
  -22.7857  -13.5119   21.1829 C   0  0  0  0  0  0
  -22.1607   -4.2145   21.0990 F   0  0  0  0  0  0
  -21.5648   -3.4626   25.7748 F   0  0  0  0  0  0
  -30.0428  -13.3300   20.3517 N   0  0  0  0  0  0
  -26.3022  -12.9203   20.3458 N   0  0  0  0  0  0
  -25.9323  -11.6354   20.5736 N   0  0  0  0  0  0
  -22.0528  -12.8121   22.0400 N   0  0  0  0  0  0
  -25.4261  -15.1744   20.4927 N   0  0  0  0  0  0
  -31.8773  -14.6702   20.2481 O   0  0  0  0  0  0
  -21.6733   -6.8800   21.4206 O   0  0  0  0  0  0
  -22.3519  -14.5365   20.6590 O   0  0  0  0  0  0
  -24.6134  -31.8685   23.2099 C   0  0  0  0  0  0
  -25.9033  -32.4826   23.8392 C   0  0  1  0  0  0
  -27.2640  -27.4540   20.1100 C   0  0  0  0  0  0
  -25.5874  -33.8630   24.2319 N   0  0  0  0  0  0
  -23.4024  -30.4852   21.5485 C   0  0  2  0  0  0
  -24.8564  -28.9391   20.1345 C   0  0  0  0  0  0
  -22.7402  -29.4644   22.5003 C   0  0  0  0  0  0
  -18.0264  -28.1356   22.8492 C   0  0  0  0  0  0
  -24.1476  -36.7319   23.2642 C   0  0  0  0  0  0
  -25.9290  -30.8351   21.3658 C   0  0  0  0  0  0
  -26.0126  -29.4627   20.7300 C   0  0  0  0  0  0
  -27.2187  -28.7300   20.7155 C   0  0  0  0  0  0
  -26.0940  -26.9313   19.5254 C   0  0  0  0  0  0
  -24.8911  -27.6668   19.5342 C   0  0  0  0  0  0
  -23.6167  -29.8046   20.1690 C   0  0  0  0  0  0
  -25.4103  -36.3117   24.0336 C   0  0  1  0  0  0
  -20.5864  -28.3643   23.1314 C   0  0  2  0  0  0
  -20.6744  -26.9370   22.5414 C   0  0  0  0  0  0
  -19.5734  -26.6367   21.5205 C   0  0  0  0  0  0
  -18.1914  -26.7898   22.1615 C   0  0  0  0  0  0
  -19.1513  -28.8813   23.2905 C   0  0  0  0  0  0
  -18.9443  -30.1427   23.8917 C   0  0  0  0  0  0
  -17.6446  -30.6571   24.0561 C   0  0  0  0  0  0
  -25.9026  -34.9484   23.5130 C   0  0  0  0  0  0
  -16.5344  -29.9077   23.6320 C   0  0  0  0  0  0
  -16.7253  -28.6486   23.0356 C   0  0  0  0  0  0
  -26.4469  -31.6591   25.0712 C   0  0  0  0  0  0
  -25.3747  -31.3698   26.1463 C   0  0  0  0  0  0
  -27.0308  -30.3030   24.6094 C   0  0  0  0  0  0
  -27.6029  -32.4315   25.7495 C   0  0  0  0  0  0
  -27.5571  -37.1812   24.8457 C   0  0  0  0  0  0
  -21.4134  -29.3030   22.3743 N   0  0  0  0  0  0
  -26.4283  -37.3798   23.9409 N   0  0  0  0  0  0
  -24.6648  -31.0781   22.0997 N   0  0  0  0  0  0
  -23.4174  -28.8207   23.3050 O   0  0  0  0  0  0
  -28.4578  -26.7981   19.9234 O   0  0  0  0  0  0
  -26.5604  -34.8936   22.4698 O   0  0  0  0  0  0
  -23.5326  -32.1426   23.7489 O   0  0  0  0  0  0
  -32.2493  -21.5497   18.6271 C   0  0  0  0  0  0
  -31.5058  -22.6610   19.0966 C   0  0  0  0  0  0
  -27.9662  -18.6471   19.4301 C   0  0  0  0  0  0
  -29.9663  -19.1063   20.7100 C   0  0  0  0  0  0
  -32.8214  -22.6648   21.1091 C   0  0  0  0  0  0
  -33.3296  -21.0172   19.3665 C   0  0  0  0  0  0
  -28.7245  -19.5303   20.2160 C   0  0  0  0  0  0
  -28.4234  -17.3313   19.1889 C   0  0  0  0  0  0
  -33.6318  -21.6227   20.6102 C   0  0  0  0  0  0
  -30.4584  -17.8056   20.4395 C   0  0  0  0  0  0
  -31.7727  -23.2562   20.3610 C   0  0  0  0  0  0
  -29.6147  -16.8463   19.8028 C   0  0  0  0  0  0
  -31.5256  -25.1681   21.9579 C   0  0  0  0  0  0
  -32.7970  -25.5734   22.1231 C   0  0  0  0  0  0
  -32.4630  -18.0610   19.5743 C   0  0  0  0  0  0
  -30.4323  -25.6578   22.8826 C   0  0  0  0  0  0
  -29.4918  -26.5633   22.0956 C   0  0  0  0  0  0
  -29.9198  -24.9068   20.1076 C   0  0  0  0  0  0
  -28.9037  -25.8294   20.8744 C   0  0  2  0  0  0
  -28.2904  -20.9717   20.4181 C   0  0  0  0  0  0
  -27.6539  -16.5134   18.1584 C   0  0  0  0  0  0
  -34.8360  -21.2245   21.4427 C   0  0  0  0  0  0
  -34.1354  -19.8256   18.8086 C   0  0  0  0  0  0
  -33.9187  -18.4616   19.5237 C   0  0  0  0  0  0
  -31.8300  -17.6441   20.6060 N   0  0  0  0  0  0
  -31.0670  -24.3863   20.8891 N   0  0  0  0  0  0
  -29.8513  -15.4338   19.6971 N   0  0  0  0  0  0
  -31.4632  -12.3547   19.0893 H   0  0  0  0  0  0
  -30.2864  -11.3010   19.8357 H   0  0  0  0  0  0
  -29.7098  -11.6937   17.4308 H   0  0  0  0  0  0
  -29.6729  -13.4211   17.6883 H   0  0  0  0  0  0
  -27.7810  -11.3117   18.7707 H   0  0  0  0  0  0
  -27.3693  -12.6675   17.7622 H   0  0  0  0  0  0
  -27.6323  -14.2368   19.5545 H   0  0  0  0  0  0
  -28.7340  -12.0502   21.3750 H   0  0  0  0  0  0
  -28.5363  -13.7443   21.7882 H   0  0  0  0  0  0
  -25.2732   -9.5779   22.4814 H   0  0  0  0  0  0
  -24.0029   -7.4671   22.7563 H   0  0  0  0  0  0
  -21.0812   -8.8633   19.9050 H   0  0  0  0  0  0
  -22.3569  -10.9600   19.6157 H   0  0  0  0  0  0
  -21.2137   -7.6238   23.9680 H   0  0  0  0  0  0
  -21.1475   -6.0667   25.9065 H   0  0  0  0  0  0
  -22.0588   -2.7644   23.2888 H   0  0  0  0  0  0
  -22.4099  -11.9714   22.4736 H   0  0  0  0  0  0
  -21.1105  -13.1048   22.2467 H   0  0  0  0  0  0
  -24.6741  -15.8102   20.7379 H   0  0  0  0  0  0
  -26.3201  -15.6317   20.3923 H   0  0  0  0  0  0
  -26.7111  -32.5551   23.1166 H   0  0  0  0  0  0
  -24.9991  -33.9786   25.0432 H   0  0  0  0  0  0
  -22.6921  -31.3013   21.3991 H   0  0  0  0  0  0
  -23.3736  -35.9642   23.3303 H   0  0  0  0  0  0
  -24.3558  -36.8944   22.2047 H   0  0  0  0  0  0
  -23.7212  -37.6525   23.6657 H   0  0  0  0  0  0
  -26.0400  -31.5929   20.5885 H   0  0  0  0  0  0
  -26.8173  -30.8951   21.9828 H   0  0  0  0  0  0
  -28.1193  -29.1531   21.1407 H   0  0  0  0  0  0
  -26.1303  -25.9688   19.0359 H   0  0  0  0  0  0
  -24.0077  -27.2530   19.0657 H   0  0  0  0  0  0
  -23.7320  -30.5721   19.4025 H   0  0  0  0  0  0
  -22.7450  -29.2185   19.8725 H   0  0  0  0  0  0
  -25.1278  -36.1982   25.0825 H   0  0  0  0  0  0
  -20.9946  -28.3190   24.1439 H   0  0  0  0  0  0
  -20.5616  -26.2253   23.3610 H   0  0  0  0  0  0
  -21.6618  -26.7394   22.1225 H   0  0  0  0  0  0
  -19.6888  -25.6285   21.1228 H   0  0  0  0  0  0
  -19.6673  -27.3191   20.6761 H   0  0  0  0  0  0
  -17.4179  -26.6656   21.4023 H   0  0  0  0  0  0
  -18.0316  -26.0030   22.9002 H   0  0  0  0  0  0
  -19.7934  -30.7227   24.2285 H   0  0  0  0  0  0
  -17.5017  -31.6253   24.5151 H   0  0  0  0  0  0
  -15.5351  -30.2990   23.7621 H   0  0  0  0  0  0
  -15.8660  -28.0812   22.7073 H   0  0  0  0  0  0
  -24.5898  -30.7077   25.7785 H   0  0  0  0  0  0
  -24.8979  -32.2870   26.4942 H   0  0  0  0  0  0
  -25.8106  -30.8830   27.0198 H   0  0  0  0  0  0
  -26.2862  -29.6793   24.1143 H   0  0  0  0  0  0
  -27.4059  -29.7256   25.4552 H   0  0  0  0  0  0
  -27.8697  -30.4325   23.9254 H   0  0  0  0  0  0
  -27.2626  -33.3595   26.2104 H   0  0  0  0  0  0
  -28.3851  -32.6917   25.0348 H   0  0  0  0  0  0
  -28.0694  -31.8429   26.5406 H   0  0  0  0  0  0
  -28.2591  -38.0115   24.7531 H   0  0  0  0  0  0
  -28.1080  -36.2649   24.6259 H   0  0  0  0  0  0
  -27.2300  -37.1437   25.8867 H   0  0  0  0  0  0
  -20.9289  -29.8760   21.6976 H   0  0  0  0  0  0
  -26.0181  -38.2870   24.1437 H   0  0  0  0  0  0
  -31.9890  -21.1103   17.6737 H   0  0  0  0  0  0
  -30.7304  -23.0390   18.4485 H   0  0  0  0  0  0
  -27.0473  -19.0020   18.9750 H   0  0  0  0  0  0
  -30.5982  -19.8337   21.2046 H   0  0  0  0  0  0
  -33.0459  -23.0332   22.0983 H   0  0  0  0  0  0
  -33.0625  -26.2246   22.9441 H   0  0  0  0  0  0
  -33.5850  -25.2953   21.4370 H   0  0  0  0  0  0
  -31.9601  -18.2422   18.6173 H   0  0  0  0  0  0
  -30.8573  -26.1908   23.7373 H   0  0  0  0  0  0
  -29.8874  -24.8058   23.2874 H   0  0  0  0  0  0
  -30.0510  -27.4429   21.7749 H   0  0  0  0  0  0
  -28.6976  -26.9260   22.7464 H   0  0  0  0  0  0
  -30.3421  -25.4663   19.2706 H   0  0  0  0  0  0
  -29.3426  -24.0916   19.6692 H   0  0  0  0  0  0
  -28.0674  -25.2192   21.2152 H   0  0  0  0  0  0
  -27.2406  -21.0204   20.7080 H   0  0  0  0  0  0
  -28.4315  -21.5372   19.4959 H   0  0  0  0  0  0
  -28.8782  -21.4681   21.1917 H   0  0  0  0  0  0
  -27.4296  -17.1257   17.2844 H   0  0  0  0  0  0
  -26.7045  -16.1617   18.5459 H   0  0  0  0  0  0
  -28.2111  -15.6619   17.7721 H   0  0  0  0  0  0
  -35.5789  -20.6580   20.8866 H   0  0  0  0  0  0
  -34.5301  -20.6465   22.3119 H   0  0  0  0  0  0
  -35.3311  -22.1292   21.7966 H   0  0  0  0  0  0
  -35.2007  -20.0591   18.8170 H   0  0  0  0  0  0
  -33.9058  -19.7080   17.7512 H   0  0  0  0  0  0
  -34.4630  -17.6861   18.9842 H   0  0  0  0  0  0
  -34.3194  -18.4887   20.5339 H   0  0  0  0  0  0
  -29.0624  -14.9508   19.2983 H   0  0  0  0  0  0
  1 25  1  0  0  0
  1 30  2  0  0  0
  1 97  1  0  0  0
  2  3  1  0  0  0
  2 25  1  0  0  0
  2 98  1  0  0  0
  2 99  1  0  0  0
  3  4  1  0  0  0
  3100  1  0  0  0
  3101  1  0  0  0
  4  5  1  0  0  0
  4102  1  0  0  0
  4103  1  0  0  0
  5  6  1  0  0  0
  5 26  1  0  0  0
  5104  1  0  0  0
  6 25  1  0  0  0
  6105  1  0  0  0
  6106  1  0  0  0
  7  8  2  0  0  0
  7 26  1  0  0  0
  7 29  1  0  0  0
  8  9  1  0  0  0
  8 22  1  0  0  0
  9 10  1  0  0  0
  9 27  2  0  0  0
 10 11  2  0  0  0
 10 15  1  0  0  0
 11 12  1  0  0  0
 11107  1  0  0  0
 12 13  2  0  0  0
 12108  1  0  0  0
 13 14  1  0  0  0
 13 31  1  0  0  0
 14 15  2  0  0  0
 14109  1  0  0  0
 15110  1  0  0  0
 16 17  2  0  0  0
 16 21  1  0  0  0
 16 31  1  0  0  0
 17 18  1  0  0  0
 17111  1  0  0  0
 18 19  2  0  0  0
 18112  1  0  0  0
 19 20  1  0  0  0
 19 24  1  0  0  0
 20 21  2  0  0  0
 20113  1  0  0  0
 21 23  1  0  0  0
 22 28  1  0  0  0
 22 32  2  0  0  0
 26 27  1  0  0  0
 28114  1  0  0  0
 28115  1  0  0  0
 29116  1  0  0  0
 29117  1  0  0  0
 33 34  1  0  0  0
 33 66  1  0  0  0
 33 70  2  0  0  0
 34 36  1  0  0  0
 34 59  1  0  0  0
 34118  1  0  0  0
 35 44  2  0  0  0
 35 45  1  0  0  0
 35 68  1  0  0  0
 36 56  1  0  0  0
 36119  1  0  0  0
 37 39  1  0  0  0
 37 47  1  0  0  0
 37 66  1  0  0  0
 37120  1  0  0  0
 38 43  2  0  0  0
 38 46  1  0  0  0
 38 47  1  0  0  0
 39 64  1  0  0  0
 39 67  2  0  0  0
 40 52  1  0  0  0
 40 53  2  0  0  0
 40 58  1  0  0  0
 41121  1  0  0  0
 41122  1  0  0  0
 41123  1  0  0  0
 41 48  1  0  0  0
 42 43  1  0  0  0
 42 66  1  0  0  0
 42124  1  0  0  0
 42125  1  0  0  0
 43 44  1  0  0  0
 44126  1  0  0  0
 45 46  2  0  0  0
 45127  1  0  0  0
 46128  1  0  0  0
 47129  1  0  0  0
 47130  1  0  0  0
 48 56  1  0  0  0
 48 65  1  0  0  0
 48131  1  0  0  0
 49 50  1  0  0  0
 49 53  1  0  0  0
 49 64  1  0  0  0
 49132  1  0  0  0
 50 51  1  0  0  0
 50133  1  0  0  0
 50134  1  0  0  0
 51 52  1  0  0  0
 51135  1  0  0  0
 51136  1  0  0  0
 52137  1  0  0  0
 52138  1  0  0  0
 53 54  1  0  0  0
 54 55  2  0  0  0
 54139  1  0  0  0
 55 57  1  0  0  0
 55140  1  0  0  0
 56 69  2  0  0  0
 57 58  2  0  0  0
 57141  1  0  0  0
 58142  1  0  0  0
 59 60  1  0  0  0
 59 61  1  0  0  0
 59 62  1  0  0  0
 60143  1  0  0  0
 60144  1  0  0  0
 60145  1  0  0  0
 61146  1  0  0  0
 61147  1  0  0  0
 61148  1  0  0  0
 62149  1  0  0  0
 62150  1  0  0  0
 62151  1  0  0  0
 63 65  1  0  0  0
 63152  1  0  0  0
 63153  1  0  0  0
 63154  1  0  0  0
 64155  1  0  0  0
 65156  1  0  0  0
 68 89  1  0  0  0
 71 72  2  0  0  0
 71 76  1  0  0  0
 71157  1  0  0  0
 72 81  1  0  0  0
 72158  1  0  0  0
 73 77  2  0  0  0
 73 78  1  0  0  0
 73159  1  0  0  0
 74 77  1  0  0  0
 74 80  2  0  0  0
 74160  1  0  0  0
 75 79  1  0  0  0
 75 81  2  0  0  0
 75161  1  0  0  0
 76 79  2  0  0  0
 76 93  1  0  0  0
 77 90  1  0  0  0
 78 82  2  0  0  0
 78 91  1  0  0  0
 79 92  1  0  0  0
 80 82  1  0  0  0
 80 95  1  0  0  0
 81 96  1  0  0  0
 82 97  1  0  0  0
 83 84  2  0  0  0
 83 86  1  0  0  0
 83 96  1  0  0  0
 84162  1  0  0  0
 84163  1  0  0  0
 85 94  1  0  0  0
 85 95  2  0  0  0
 85164  1  0  0  0
 86 87  1  0  0  0
 86165  1  0  0  0
 86166  1  0  0  0
 87 89  1  0  0  0
 87167  1  0  0  0
 87168  1  0  0  0
 88 89  1  0  0  0
 88 96  1  0  0  0
 88169  1  0  0  0
 88170  1  0  0  0
 89171  1  0  0  0
 90172  1  0  0  0
 90173  1  0  0  0
 90174  1  0  0  0
 91175  1  0  0  0
 91176  1  0  0  0
 91177  1  0  0  0
 92178  1  0  0  0
 92179  1  0  0  0
 92180  1  0  0  0
 93 94  1  0  0  0
 93181  1  0  0  0
 93182  1  0  0  0
 94183  1  0  0  0
 94184  1  0  0  0
 97185  1  0  0  0
M  ISO  4   1 100  68 101  89 101  97 100
M  END
> <chiral flag>
0

> <version>
0

> <s_m_source_file>
/data/baiqing/PycharmProjects/Reinvent-master-3.2/result/LINK_invent/BTK/process_docking_weight1_custom_product_contain_oxygen_bond_distance_aromatic_linkinvent_7_9_3/rearranged_h_0050.sdf

> <i_m_source_file_index>
40

> <r_mmod_Potential_Energy-OPLS-2005>
104.723320007324

> <r_mmod_Stretch_Energy-OPLS-2005>
50.4183197021484

> <r_mmod_Bend_Energy-OPLS-2005>
149.201965332031

> <r_mmod_Torsional_Energy-OPLS-2005>
370.697082519531

> <r_mmod_Improper_Torsional_Energy-OPLS-2005>
29.3229198455811

> <r_mmod_Van_der_Waal_Energy-OPLS-2005>
175.585708618164

> <r_mmod_Electrostatic_Energy-OPLS-2005>
-490.315582275391

> <r_mmod_Solvation_Energy-OPLS-2005>
-215.481887817383

> <b_mmod_Minimization_Converged-OPLS-2005>
0

> <r_mmod_RMS_Derivative-OPLS-2005>
6.49946403503418

$$$$
40
                    3D
 Structure written by MMmdl.
161169  0  0  1  0            999 V2000
  -30.6629  -14.4917   20.4958 C   0  0  0  0  0  0
  -30.4209  -12.3075   19.3874 C   0  0  0  0  0  0
  -29.4751  -12.4794   18.1810 C   0  0  0  0  0  0
  -28.0020  -12.3451   18.6113 C   0  0  0  0  0  0
  -27.6564  -13.1993   19.8592 C   0  0  2  0  0  0
  -28.7048  -12.9977   20.9762 C   0  0  0  0  0  0
  -25.2599  -13.8160   20.5653 C   0  0  0  0  0  0
  -24.1851  -13.0468   20.9201 C   0  0  0  0  0  0
  -24.6390  -11.6925   20.8748 C   0  0  0  0  0  0
  -23.9080  -10.4305   21.0420 C   0  0  0  0  0  0
  -24.3653   -9.4203   21.9176 C   0  0  0  0  0  0
  -23.6316   -8.2248   22.0744 C   0  0  0  0  0  0
  -22.4280   -8.0294   21.3550 C   0  0  0  0  0  0
  -21.9936   -9.0271   20.4649 C   0  0  0  0  0  0
  -22.7275  -10.2142   20.3057 C   0  0  0  0  0  0
  -21.6844   -6.0738   22.5285 C   0  0  0  0  0  0
  -21.3995   -6.5641   23.8220 C   0  0  0  0  0  0
  -21.3654   -5.6799   24.9188 C   0  0  0  0  0  0
  -21.6059   -4.3064   24.7235 C   0  0  0  0  0  0
  -21.8820   -3.8150   23.4356 C   0  0  0  0  0  0
  -21.9190   -4.6965   22.3412 C   0  0  0  0  0  0
  -22.7877  -13.5234   21.1902 C   0  0  0  0  0  0
  -22.1655   -4.2154   21.0986 F   0  0  0  0  0  0
  -21.5644   -3.4546   25.7743 F   0  0  0  0  0  0
  -30.0265  -13.2952   20.4039 N   0  0  0  0  0  0
  -26.3001  -12.9312   20.3329 N   0  0  0  0  0  0
  -25.9308  -11.6482   20.5790 N   0  0  0  0  0  0
  -22.0543  -12.8176   22.0445 N   0  0  0  0  0  0
  -25.4376  -15.1896   20.3975 N   0  0  0  0  0  0
  -31.8370  -14.6476   20.1624 O   0  0  0  0  0  0
  -21.6640   -6.8893   21.4248 O   0  0  0  0  0  0
  -22.3579  -14.5555   20.6781 O   0  0  0  0  0  0
  -24.6134  -31.8683   23.2121 C   0  0  0  0  0  0
  -25.9032  -32.4823   23.8413 C   0  0  1  0  0  0
  -27.2331  -27.4555   20.0898 C   0  0  0  0  0  0
  -25.5889  -33.8630   24.2330 N   0  0  0  0  0  0
  -23.4005  -30.4949   21.5522 C   0  0  2  0  0  0
  -24.8472  -28.9608   20.1180 C   0  0  0  0  0  0
  -22.7397  -29.4673   22.4984 C   0  0  0  0  0  0
  -18.0270  -28.1366   22.8485 C   0  0  0  0  0  0
  -24.1479  -36.7333   23.2641 C   0  0  0  0  0  0
  -25.9287  -30.8426   21.3611 C   0  0  0  0  0  0
  -26.0067  -29.4780   20.7078 C   0  0  0  0  0  0
  -27.2071  -28.7334   20.6908 C   0  0  0  0  0  0
  -26.0572  -26.9418   19.5088 C   0  0  0  0  0  0
  -24.8623  -27.6862   19.5229 C   0  0  0  0  0  0
  -23.6120  -29.8321   20.1641 C   0  0  0  0  0  0
  -25.4095  -36.3118   24.0346 C   0  0  1  0  0  0
  -20.5855  -28.3661   23.1316 C   0  0  2  0  0  0
  -20.6774  -26.9398   22.5412 C   0  0  0  0  0  0
  -19.5763  -26.6377   21.5211 C   0  0  0  0  0  0
  -18.1933  -26.7905   22.1622 C   0  0  0  0  0  0
  -19.1520  -28.8835   23.2889 C   0  0  0  0  0  0
  -18.9458  -30.1445   23.8901 C   0  0  0  0  0  0
  -17.6462  -30.6575   24.0569 C   0  0  0  0  0  0
  -25.9035  -34.9484   23.5128 C   0  0  0  0  0  0
  -16.5357  -29.9084   23.6309 C   0  0  0  0  0  0
  -16.7259  -28.6504   23.0327 C   0  0  0  0  0  0
  -26.4472  -31.6595   25.0731 C   0  0  0  0  0  0
  -25.3751  -31.3714   26.1496 C   0  0  0  0  0  0
  -27.0301  -30.3041   24.6064 C   0  0  0  0  0  0
  -27.6022  -32.4343   25.7481 C   0  0  0  0  0  0
  -27.5566  -37.1804   24.8466 C   0  0  0  0  0  0
  -21.4133  -29.3030   22.3724 N   0  0  0  0  0  0
  -26.4275  -37.3800   23.9415 N   0  0  0  0  0  0
  -24.6659  -31.0815   22.1006 N   0  0  0  0  0  0
  -23.4183  -28.8224   23.3021 O   0  0  0  0  0  0
  -28.3788  -26.6976   20.0846 O   0  0  0  0  0  0
  -26.5610  -34.8944   22.4695 O   0  0  0  0  0  0
  -23.5341  -32.1431   23.7522 O   0  0  0  0  0  0
  -30.4797  -20.0930   18.4535 C   0  0  0  0  0  0
  -31.4685  -19.6286   17.5683 C   0  0  0  0  0  0
  -31.4087  -17.4625   18.6600 C   0  0  0  0  0  0
  -29.9453  -19.2557   19.4592 C   0  0  0  0  0  0
  -30.4344  -17.9169   19.5887 C   0  0  0  0  0  0
  -31.9288  -18.3076   17.6628 C   0  0  0  0  0  0
  -28.4321  -24.2286   20.3686 C   0  0  0  0  0  0
  -27.4586  -23.2826   20.3134 C   0  0  0  0  0  0
  -27.7436  -21.9723   19.7236 C   0  0  0  0  0  0
  -26.0369  -23.4759   20.8292 C   0  0  0  0  0  0
  -28.8222  -19.7874   20.3651 C   0  0  0  0  0  0
  -29.9740  -17.0055   20.7533 C   0  0  0  0  0  0
  -28.3520  -25.6110   21.0195 C   0  0  0  0  0  0
  -28.6274  -21.2489   20.4331 N   0  0  0  0  0  0
  -29.8353  -15.5275   20.7675 N   0  0  0  0  0  0
  -27.1667  -21.5223   18.7323 O   0  0  0  0  0  0
  -33.1413  -17.7319   16.5762 Cl  0  0  0  0  0  0
  -31.4543  -12.4349   19.0612 H   0  0  0  0  0  0
  -30.3498  -11.2928   19.7847 H   0  0  0  0  0  0
  -29.7014  -11.7339   17.4172 H   0  0  0  0  0  0
  -29.6323  -13.4514   17.7093 H   0  0  0  0  0  0
  -27.8235  -11.2895   18.8266 H   0  0  0  0  0  0
  -27.3386  -12.6054   17.7848 H   0  0  0  0  0  0
  -27.6925  -14.2423   19.5408 H   0  0  0  0  0  0
  -28.4880  -13.6277   21.8402 H   0  0  0  0  0  0
  -28.6899  -11.9703   21.3474 H   0  0  0  0  0  0
  -25.2804   -9.5656   22.4752 H   0  0  0  0  0  0
  -24.0024   -7.4629   22.7443 H   0  0  0  0  0  0
  -21.0881   -8.8808   19.8948 H   0  0  0  0  0  0
  -22.3756  -10.9693   19.6174 H   0  0  0  0  0  0
  -21.1957   -7.6147   23.9727 H   0  0  0  0  0  0
  -21.1484   -6.0523   25.9097 H   0  0  0  0  0  0
  -22.0602   -2.7607   23.2854 H   0  0  0  0  0  0
  -22.4169  -11.9774   22.4729 H   0  0  0  0  0  0
  -21.1184  -13.1181   22.2753 H   0  0  0  0  0  0
  -24.6747  -15.8483   20.5076 H   0  0  0  0  0  0
  -26.2705  -15.6165   20.0159 H   0  0  0  0  0  0
  -26.7101  -32.5538   23.1176 H   0  0  0  0  0  0
  -24.9985  -33.9796   25.0434 H   0  0  0  0  0  0
  -22.6893  -31.3112   21.4134 H   0  0  0  0  0  0
  -23.3721  -35.9682   23.3311 H   0  0  0  0  0  0
  -24.3566  -36.8932   22.2049 H   0  0  0  0  0  0
  -23.7268  -37.6557   23.6654 H   0  0  0  0  0  0
  -26.0405  -31.6113   20.5930 H   0  0  0  0  0  0
  -26.8170  -30.8948   21.9769 H   0  0  0  0  0  0
  -28.1045  -29.1316   21.1428 H   0  0  0  0  0  0
  -26.0699  -25.9633   19.0517 H   0  0  0  0  0  0
  -23.9673  -27.2713   19.0850 H   0  0  0  0  0  0
  -23.7371  -30.6149   19.4144 H   0  0  0  0  0  0
  -22.7312  -29.2666   19.8550 H   0  0  0  0  0  0
  -25.1271  -36.1967   25.0842 H   0  0  0  0  0  0
  -20.9952  -28.3226   24.1433 H   0  0  0  0  0  0
  -20.5687  -26.2274   23.3601 H   0  0  0  0  0  0
  -21.6638  -26.7432   22.1221 H   0  0  0  0  0  0
  -19.6934  -25.6302   21.1232 H   0  0  0  0  0  0
  -19.6712  -27.3194   20.6744 H   0  0  0  0  0  0
  -17.4211  -26.6648   21.4011 H   0  0  0  0  0  0
  -18.0327  -26.0051   22.9022 H   0  0  0  0  0  0
  -19.7947  -30.7246   24.2265 H   0  0  0  0  0  0
  -17.5028  -31.6254   24.5169 H   0  0  0  0  0  0
  -15.5362  -30.2994   23.7636 H   0  0  0  0  0  0
  -15.8654  -28.0843   22.6996 H   0  0  0  0  0  0
  -24.5903  -30.7065   25.7871 H   0  0  0  0  0  0
  -24.8975  -32.2890   26.4951 H   0  0  0  0  0  0
  -25.8129  -30.8898   27.0245 H   0  0  0  0  0  0
  -26.2858  -29.6823   24.1074 H   0  0  0  0  0  0
  -27.4055  -29.7237   25.4497 H   0  0  0  0  0  0
  -27.8693  -30.4367   23.9227 H   0  0  0  0  0  0
  -27.2584  -33.3612   26.2077 H   0  0  0  0  0  0
  -28.3798  -32.6961   25.0299 H   0  0  0  0  0  0
  -28.0710  -31.8466   26.5372 H   0  0  0  0  0  0
  -28.2604  -38.0084   24.7488 H   0  0  0  0  0  0
  -28.1040  -36.2609   24.6307 H   0  0  0  0  0  0
  -27.2282  -37.1486   25.8873 H   0  0  0  0  0  0
  -20.9289  -29.8740   21.6938 H   0  0  0  0  0  0
  -26.0158  -38.2877   24.1404 H   0  0  0  0  0  0
  -30.1384  -21.1106   18.3487 H   0  0  0  0  0  0
  -31.8717  -20.2856   16.8085 H   0  0  0  0  0  0
  -31.7948  -16.4615   18.7074 H   0  0  0  0  0  0
  -29.3931  -24.0087   19.9248 H   0  0  0  0  0  0
  -25.8432  -22.7904   21.6547 H   0  0  0  0  0  0
  -25.3129  -23.2571   20.0427 H   0  0  0  0  0  0
  -25.8253  -24.4865   21.1683 H   0  0  0  0  0  0
  -29.0107  -19.4527   21.3844 H   0  0  0  0  0  0
  -27.8923  -19.3012   20.0598 H   0  0  0  0  0  0
  -31.0412  -16.9015   20.9560 H   0  0  0  0  0  0
  -29.2783  -16.7772   19.9438 H   0  0  0  0  0  0
  -29.2298  -25.7162   21.6549 H   0  0  0  0  0  0
  -27.5100  -25.6878   21.7092 H   0  0  0  0  0  0
  -29.0196  -21.7092   21.2426 H   0  0  0  0  0  0
  -28.9006  -15.2173   20.9778 H   0  0  0  0  0  0
  1 25  1  0  0  0
  1 30  2  0  0  0
  1 85  1  0  0  0
  2  3  1  0  0  0
  2 25  1  0  0  0
  2 88  1  0  0  0
  2 89  1  0  0  0
  3  4  1  0  0  0
  3 90  1  0  0  0
  3 91  1  0  0  0
  4  5  1  0  0  0
  4 92  1  0  0  0
  4 93  1  0  0  0
  5  6  1  0  0  0
  5 26  1  0  0  0
  5 94  1  0  0  0
  6 25  1  0  0  0
  6 95  1  0  0  0
  6 96  1  0  0  0
  7  8  2  0  0  0
  7 26  1  0  0  0
  7 29  1  0  0  0
  8  9  1  0  0  0
  8 22  1  0  0  0
  9 10  1  0  0  0
  9 27  2  0  0  0
 10 11  2  0  0  0
 10 15  1  0  0  0
 11 12  1  0  0  0
 11 97  1  0  0  0
 12 13  2  0  0  0
 12 98  1  0  0  0
 13 14  1  0  0  0
 13 31  1  0  0  0
 14 15  2  0  0  0
 14 99  1  0  0  0
 15100  1  0  0  0
 16 17  2  0  0  0
 16 21  1  0  0  0
 16 31  1  0  0  0
 17 18  1  0  0  0
 17101  1  0  0  0
 18 19  2  0  0  0
 18102  1  0  0  0
 19 20  1  0  0  0
 19 24  1  0  0  0
 20 21  2  0  0  0
 20103  1  0  0  0
 21 23  1  0  0  0
 22 28  1  0  0  0
 22 32  2  0  0  0
 26 27  1  0  0  0
 28104  1  0  0  0
 28105  1  0  0  0
 29106  1  0  0  0
 29107  1  0  0  0
 33 34  1  0  0  0
 33 66  1  0  0  0
 33 70  2  0  0  0
 34 36  1  0  0  0
 34 59  1  0  0  0
 34108  1  0  0  0
 35 44  2  0  0  0
 35 45  1  0  0  0
 35 68  1  0  0  0
 36 56  1  0  0  0
 36109  1  0  0  0
 37 39  1  0  0  0
 37 47  1  0  0  0
 37 66  1  0  0  0
 37110  1  0  0  0
 38 43  2  0  0  0
 38 46  1  0  0  0
 38 47  1  0  0  0
 39 64  1  0  0  0
 39 67  2  0  0  0
 40 52  1  0  0  0
 40 53  2  0  0  0
 40 58  1  0  0  0
 41111  1  0  0  0
 41112  1  0  0  0
 41113  1  0  0  0
 41 48  1  0  0  0
 42 43  1  0  0  0
 42 66  1  0  0  0
 42114  1  0  0  0
 42115  1  0  0  0
 43 44  1  0  0  0
 44116  1  0  0  0
 45 46  2  0  0  0
 45117  1  0  0  0
 46118  1  0  0  0
 47119  1  0  0  0
 47120  1  0  0  0
 48 56  1  0  0  0
 48 65  1  0  0  0
 48121  1  0  0  0
 49 50  1  0  0  0
 49 53  1  0  0  0
 49 64  1  0  0  0
 49122  1  0  0  0
 50 51  1  0  0  0
 50123  1  0  0  0
 50124  1  0  0  0
 51 52  1  0  0  0
 51125  1  0  0  0
 51126  1  0  0  0
 52127  1  0  0  0
 52128  1  0  0  0
 53 54  1  0  0  0
 54 55  2  0  0  0
 54129  1  0  0  0
 55 57  1  0  0  0
 55130  1  0  0  0
 56 69  2  0  0  0
 57 58  2  0  0  0
 57131  1  0  0  0
 58132  1  0  0  0
 59 60  1  0  0  0
 59 61  1  0  0  0
 59 62  1  0  0  0
 60133  1  0  0  0
 60134  1  0  0  0
 60135  1  0  0  0
 61136  1  0  0  0
 61137  1  0  0  0
 61138  1  0  0  0
 62139  1  0  0  0
 62140  1  0  0  0
 62141  1  0  0  0
 63 65  1  0  0  0
 63142  1  0  0  0
 63143  1  0  0  0
 63144  1  0  0  0
 64145  1  0  0  0
 65146  1  0  0  0
 68 83  1  0  0  0
 71 72  2  0  0  0
 71 74  1  0  0  0
 71147  1  0  0  0
 72 76  1  0  0  0
 72148  1  0  0  0
 73 75  1  0  0  0
 73 76  2  0  0  0
 73149  1  0  0  0
 74 75  2  0  0  0
 74 81  1  0  0  0
 75 82  1  0  0  0
 76 87  1  0  0  0
 77 78  2  0  0  0
 77 83  1  0  0  0
 77150  1  0  0  0
 78 79  1  0  0  0
 78 80  1  0  0  0
 79 84  1  0  0  0
 79 86  2  0  0  0
 80151  1  0  0  0
 80152  1  0  0  0
 80153  1  0  0  0
 81 84  1  0  0  0
 81154  1  0  0  0
 81155  1  0  0  0
 82 85  1  0  0  0
 82156  1  0  0  0
 82157  1  0  0  0
 83158  1  0  0  0
 83159  1  0  0  0
 84160  1  0  0  0
 85161  1  0  0  0
M  ISO  4   1 100  68 101  83 101  85 100
M  END
> <chiral flag>
0

> <version>
0

> <s_m_source_file>
/data/baiqing/PycharmProjects/Reinvent-master-3.2/result/LINK_invent/BTK/process_docking_weight1_custom_product_contain_oxygen_bond_distance_aromatic_linkinvent_7_9_3/rearranged_h_0050.sdf

> <i_m_source_file_index>
41

> <r_mmod_Potential_Energy-OPLS-2005>
37.9098510742188

> <r_mmod_Stretch_Energy-OPLS-2005>
41.7245025634766

> <r_mmod_Bend_Energy-OPLS-2005>
316.892456054688

> <r_mmod_Torsional_Energy-OPLS-2005>
236.420028686523

> <r_mmod_Improper_Torsional_Energy-OPLS-2005>
6.76744174957275

> <r_mmod_Van_der_Waal_Energy-OPLS-2005>
159.560501098633

> <r_mmod_Electrostatic_Energy-OPLS-2005>
-503.492492675781

> <r_mmod_Solvation_Energy-OPLS-2005>
-236.562408447266

> <b_mmod_Minimization_Converged-OPLS-2005>
0

> <r_mmod_RMS_Derivative-OPLS-2005>
5.02806186676025

$$$$
41
                    3D
 Structure written by MMmdl.
154162  0  0  1  0            999 V2000
  -30.6632  -14.5512   20.5418 C   0  0  0  0  0  0
  -30.4357  -12.3450   19.4350 C   0  0  0  0  0  0
  -29.5027  -12.4882   18.2134 C   0  0  0  0  0  0
  -28.0241  -12.3366   18.6282 C   0  0  0  0  0  0
  -27.6546  -13.2048   19.8600 C   0  0  2  0  0  0
  -28.6996  -13.0342   20.9866 C   0  0  0  0  0  0
  -25.2572  -13.8154   20.5672 C   0  0  0  0  0  0
  -24.1824  -13.0438   20.9189 C   0  0  0  0  0  0
  -24.6369  -11.6898   20.8723 C   0  0  0  0  0  0
  -23.9028  -10.4289   21.0388 C   0  0  0  0  0  0
  -24.3581   -9.4216   21.9176 C   0  0  0  0  0  0
  -23.6275   -8.2242   22.0743 C   0  0  0  0  0  0
  -22.4260   -8.0264   21.3533 C   0  0  0  0  0  0
  -21.9880   -9.0236   20.4642 C   0  0  0  0  0  0
  -22.7190  -10.2132   20.3051 C   0  0  0  0  0  0
  -21.6856   -6.0715   22.5275 C   0  0  0  0  0  0
  -21.4012   -6.5622   23.8205 C   0  0  0  0  0  0
  -21.3663   -5.6775   24.9170 C   0  0  0  0  0  0
  -21.6041   -4.3043   24.7223 C   0  0  0  0  0  0
  -21.8824   -3.8130   23.4340 C   0  0  0  0  0  0
  -21.9190   -4.6942   22.3395 C   0  0  0  0  0  0
  -22.7852  -13.5243   21.1838 C   0  0  0  0  0  0
  -22.1663   -4.2122   21.0977 F   0  0  0  0  0  0
  -21.5637   -3.4532   25.7741 F   0  0  0  0  0  0
  -30.0209  -13.3536   20.4234 N   0  0  0  0  0  0
  -26.2984  -12.9310   20.3290 N   0  0  0  0  0  0
  -25.9293  -11.6475   20.5735 N   0  0  0  0  0  0
  -22.0469  -12.8269   22.0399 N   0  0  0  0  0  0
  -25.4294  -15.1874   20.4094 N   0  0  0  0  0  0
  -31.8300  -14.7141   20.1746 O   0  0  0  0  0  0
  -21.6627   -6.8857   21.4238 O   0  0  0  0  0  0
  -22.3545  -14.5543   20.6660 O   0  0  0  0  0  0
  -24.6183  -31.8652   23.2067 C   0  0  0  0  0  0
  -25.9059  -32.4809   23.8383 C   0  0  1  0  0  0
  -27.2301  -27.3942   20.1104 C   0  0  0  0  0  0
  -25.5900  -33.8605   24.2309 N   0  0  0  0  0  0
  -23.4081  -30.4877   21.5479 C   0  0  2  0  0  0
  -24.8555  -28.9451   20.1182 C   0  0  0  0  0  0
  -22.7428  -29.4649   22.4977 C   0  0  0  0  0  0
  -18.0276  -28.1370   22.8495 C   0  0  0  0  0  0
  -24.1485  -36.7309   23.2636 C   0  0  0  0  0  0
  -25.9410  -30.8174   21.3672 C   0  0  0  0  0  0
  -26.0179  -29.4477   20.7181 C   0  0  0  0  0  0
  -27.2108  -28.6803   20.7095 C   0  0  0  0  0  0
  -26.0541  -26.9191   19.4964 C   0  0  0  0  0  0
  -24.8707  -27.6825   19.5013 C   0  0  0  0  0  0
  -23.6192  -29.8168   20.1651 C   0  0  0  0  0  0
  -25.4101  -36.3101   24.0343 C   0  0  1  0  0  0
  -20.5871  -28.3669   23.1301 C   0  0  2  0  0  0
  -20.6767  -26.9400   22.5409 C   0  0  0  0  0  0
  -19.5749  -26.6380   21.5203 C   0  0  0  0  0  0
  -18.1926  -26.7922   22.1613 C   0  0  0  0  0  0
  -19.1525  -28.8834   23.2897 C   0  0  0  0  0  0
  -18.9453  -30.1439   23.8910 C   0  0  0  0  0  0
  -17.6454  -30.6581   24.0556 C   0  0  0  0  0  0
  -25.9037  -34.9467   23.5124 C   0  0  0  0  0  0
  -16.5346  -29.9081   23.6319 C   0  0  0  0  0  0
  -16.7262  -28.6489   23.0357 C   0  0  0  0  0  0
  -26.4476  -31.6602   25.0726 C   0  0  0  0  0  0
  -25.3734  -31.3724   26.1470 C   0  0  0  0  0  0
  -27.0318  -30.3041   24.6127 C   0  0  0  0  0  0
  -27.6060  -32.4327   25.7464 C   0  0  0  0  0  0
  -27.5598  -37.1773   24.8442 C   0  0  0  0  0  0
  -21.4149  -29.3035   22.3706 N   0  0  0  0  0  0
  -26.4276  -37.3800   23.9441 N   0  0  0  0  0  0
  -24.6739  -31.0728   22.0982 N   0  0  0  0  0  0
  -23.4179  -28.8200   23.3036 O   0  0  0  0  0  0
  -28.3753  -26.6181   20.0640 O   0  0  0  0  0  0
  -26.5605  -34.8928   22.4687 O   0  0  0  0  0  0
  -23.5362  -32.1411   23.7446 O   0  0  0  0  0  0
  -31.4328  -18.6884   22.3437 C   0  0  0  0  0  0
  -30.7631  -19.7176   21.6494 C   0  0  0  0  0  0
  -31.1702  -17.3317   22.0561 C   0  0  0  0  0  0
  -29.5338  -18.0294   20.3932 C   0  0  0  0  0  0
  -29.8180  -19.4056   20.6500 C   0  0  0  0  0  0
  -30.2122  -16.9799   21.0798 C   0  0  0  0  0  0
  -28.9054  -23.0309   20.1310 C   0  0  0  0  0  0
  -29.2001  -20.5322   19.7908 C   0  0  0  0  0  0
  -27.9045  -24.1140   20.6241 C   0  0  0  0  0  0
  -28.4618  -25.5293   21.0183 C   0  0  0  0  0  0
  -29.8633  -15.6012   20.8598 N   0  0  0  0  0  0
  -28.6824  -21.7390   20.4812 N   0  0  0  0  0  0
  -29.8291  -23.3516   19.3810 O   0  0  0  0  0  0
  -31.4772  -12.4645   19.1313 H   0  0  0  0  0  0
  -30.3616  -11.3445   19.8643 H   0  0  0  0  0  0
  -29.7591  -11.7416   17.4605 H   0  0  0  0  0  0
  -29.6566  -13.4618   17.7438 H   0  0  0  0  0  0
  -27.8567  -11.2845   18.8599 H   0  0  0  0  0  0
  -27.3684  -12.5694   17.7881 H   0  0  0  0  0  0
  -27.6818  -14.2409   19.5249 H   0  0  0  0  0  0
  -28.6936  -12.0090   21.3612 H   0  0  0  0  0  0
  -28.4538  -13.6636   21.8433 H   0  0  0  0  0  0
  -25.2724   -9.5718   22.4748 H   0  0  0  0  0  0
  -23.9987   -7.4642   22.7475 H   0  0  0  0  0  0
  -21.0801   -8.8752   19.8963 H   0  0  0  0  0  0
  -22.3629  -10.9664   19.6161 H   0  0  0  0  0  0
  -21.2007   -7.6131   23.9705 H   0  0  0  0  0  0
  -21.1484   -6.0504   25.9073 H   0  0  0  0  0  0
  -22.0600   -2.7588   23.2846 H   0  0  0  0  0  0
  -22.4050  -11.9947   22.4846 H   0  0  0  0  0  0
  -21.1094  -13.1342   22.2567 H   0  0  0  0  0  0
  -24.6608  -15.8406   20.5200 H   0  0  0  0  0  0
  -26.2728  -15.6285   20.0666 H   0  0  0  0  0  0
  -26.7126  -32.5510   23.1139 H   0  0  0  0  0  0
  -25.0049  -33.9758   25.0455 H   0  0  0  0  0  0
  -22.6988  -31.3057   21.4059 H   0  0  0  0  0  0
  -23.3765  -35.9616   23.3238 H   0  0  0  0  0  0
  -24.3601  -36.8984   22.2063 H   0  0  0  0  0  0
  -23.7196  -37.6480   23.6687 H   0  0  0  0  0  0
  -26.0605  -31.5805   20.5971 H   0  0  0  0  0  0
  -26.8258  -30.8700   21.9897 H   0  0  0  0  0  0
  -28.1103  -29.0689   21.1661 H   0  0  0  0  0  0
  -26.0527  -25.9597   19.0013 H   0  0  0  0  0  0
  -23.9806  -27.2955   19.0234 H   0  0  0  0  0  0
  -23.7274  -30.5877   19.4019 H   0  0  0  0  0  0
  -22.7434  -29.2364   19.8718 H   0  0  0  0  0  0
  -25.1262  -36.1949   25.0832 H   0  0  0  0  0  0
  -20.9965  -28.3237   24.1421 H   0  0  0  0  0  0
  -20.5655  -26.2278   23.3602 H   0  0  0  0  0  0
  -21.6641  -26.7433   22.1209 H   0  0  0  0  0  0
  -19.6911  -25.6291   21.1235 H   0  0  0  0  0  0
  -19.6695  -27.3186   20.6735 H   0  0  0  0  0  0
  -17.4199  -26.6672   21.4010 H   0  0  0  0  0  0
  -18.0330  -26.0054   22.8998 H   0  0  0  0  0  0
  -19.7928  -30.7245   24.2294 H   0  0  0  0  0  0
  -17.5009  -31.6268   24.5150 H   0  0  0  0  0  0
  -15.5346  -30.2985   23.7636 H   0  0  0  0  0  0
  -15.8664  -28.0803   22.7082 H   0  0  0  0  0  0
  -24.5882  -30.7104   25.7797 H   0  0  0  0  0  0
  -24.8955  -32.2890   26.4939 H   0  0  0  0  0  0
  -25.8073  -30.8859   27.0215 H   0  0  0  0  0  0
  -26.2870  -29.6777   24.1200 H   0  0  0  0  0  0
  -27.4102  -29.7304   25.4599 H   0  0  0  0  0  0
  -27.8700  -30.4358   23.9279 H   0  0  0  0  0  0
  -27.2695  -33.3622   26.2061 H   0  0  0  0  0  0
  -28.3839  -32.6891   25.0264 H   0  0  0  0  0  0
  -28.0761  -31.8441   26.5348 H   0  0  0  0  0  0
  -28.2534  -38.0155   24.7628 H   0  0  0  0  0  0
  -28.1180  -36.2698   24.6077 H   0  0  0  0  0  0
  -27.2352  -37.1189   25.8847 H   0  0  0  0  0  0
  -20.9319  -29.8746   21.6915 H   0  0  0  0  0  0
  -26.0161  -38.2860   24.1515 H   0  0  0  0  0  0
  -32.1620  -18.9431   23.1011 H   0  0  0  0  0  0
  -31.0023  -20.7519   21.8651 H   0  0  0  0  0  0
  -31.6955  -16.5650   22.6092 H   0  0  0  0  0  0
  -28.8014  -17.7763   19.6402 H   0  0  0  0  0  0
  -28.3794  -20.1190   19.2031 H   0  0  0  0  0  0
  -29.9575  -20.8220   19.0607 H   0  0  0  0  0  0
  -27.4040  -23.7024   21.5009 H   0  0  0  0  0  0
  -27.1228  -24.2122   19.8735 H   0  0  0  0  0  0
  -29.5137  -25.4288   21.2889 H   0  0  0  0  0  0
  -27.9734  -25.8446   21.9419 H   0  0  0  0  0  0
  -28.8819  -15.3798   20.9223 H   0  0  0  0  0  0
  -27.9251  -21.5722   21.1302 H   0  0  0  0  0  0
  1 25  1  0  0  0
  1 30  2  0  0  0
  1 81  1  0  0  0
  2  3  1  0  0  0
  2 25  1  0  0  0
  2 84  1  0  0  0
  2 85  1  0  0  0
  3  4  1  0  0  0
  3 86  1  0  0  0
  3 87  1  0  0  0
  4  5  1  0  0  0
  4 88  1  0  0  0
  4 89  1  0  0  0
  5  6  1  0  0  0
  5 26  1  0  0  0
  5 90  1  0  0  0
  6 25  1  0  0  0
  6 91  1  0  0  0
  6 92  1  0  0  0
  7  8  2  0  0  0
  7 26  1  0  0  0
  7 29  1  0  0  0
  8  9  1  0  0  0
  8 22  1  0  0  0
  9 10  1  0  0  0
  9 27  2  0  0  0
 10 11  2  0  0  0
 10 15  1  0  0  0
 11 12  1  0  0  0
 11 93  1  0  0  0
 12 13  2  0  0  0
 12 94  1  0  0  0
 13 14  1  0  0  0
 13 31  1  0  0  0
 14 15  2  0  0  0
 14 95  1  0  0  0
 15 96  1  0  0  0
 16 17  2  0  0  0
 16 21  1  0  0  0
 16 31  1  0  0  0
 17 18  1  0  0  0
 17 97  1  0  0  0
 18 19  2  0  0  0
 18 98  1  0  0  0
 19 20  1  0  0  0
 19 24  1  0  0  0
 20 21  2  0  0  0
 20 99  1  0  0  0
 21 23  1  0  0  0
 22 28  1  0  0  0
 22 32  2  0  0  0
 26 27  1  0  0  0
 28100  1  0  0  0
 28101  1  0  0  0
 29102  1  0  0  0
 29103  1  0  0  0
 33 34  1  0  0  0
 33 66  1  0  0  0
 33 70  2  0  0  0
 34 36  1  0  0  0
 34 59  1  0  0  0
 34104  1  0  0  0
 35 44  2  0  0  0
 35 45  1  0  0  0
 35 68  1  0  0  0
 36 56  1  0  0  0
 36105  1  0  0  0
 37 39  1  0  0  0
 37 47  1  0  0  0
 37 66  1  0  0  0
 37106  1  0  0  0
 38 43  2  0  0  0
 38 46  1  0  0  0
 38 47  1  0  0  0
 39 64  1  0  0  0
 39 67  2  0  0  0
 40 52  1  0  0  0
 40 53  2  0  0  0
 40 58  1  0  0  0
 41107  1  0  0  0
 41108  1  0  0  0
 41109  1  0  0  0
 41 48  1  0  0  0
 42 43  1  0  0  0
 42 66  1  0  0  0
 42110  1  0  0  0
 42111  1  0  0  0
 43 44  1  0  0  0
 44112  1  0  0  0
 45 46  2  0  0  0
 45113  1  0  0  0
 46114  1  0  0  0
 47115  1  0  0  0
 47116  1  0  0  0
 48 56  1  0  0  0
 48 65  1  0  0  0
 48117  1  0  0  0
 49 50  1  0  0  0
 49 53  1  0  0  0
 49 64  1  0  0  0
 49118  1  0  0  0
 50 51  1  0  0  0
 50119  1  0  0  0
 50120  1  0  0  0
 51 52  1  0  0  0
 51121  1  0  0  0
 51122  1  0  0  0
 52123  1  0  0  0
 52124  1  0  0  0
 53 54  1  0  0  0
 54 55  2  0  0  0
 54125  1  0  0  0
 55 57  1  0  0  0
 55126  1  0  0  0
 56 69  2  0  0  0
 57 58  2  0  0  0
 57127  1  0  0  0
 58128  1  0  0  0
 59 60  1  0  0  0
 59 61  1  0  0  0
 59 62  1  0  0  0
 60129  1  0  0  0
 60130  1  0  0  0
 60131  1  0  0  0
 61132  1  0  0  0
 61133  1  0  0  0
 61134  1  0  0  0
 62135  1  0  0  0
 62136  1  0  0  0
 62137  1  0  0  0
 63 65  1  0  0  0
 63138  1  0  0  0
 63139  1  0  0  0
 63140  1  0  0  0
 64141  1  0  0  0
 65142  1  0  0  0
 68 80  1  0  0  0
 71 72  2  0  0  0
 71 73  1  0  0  0
 71143  1  0  0  0
 72 75  1  0  0  0
 72144  1  0  0  0
 73 76  2  0  0  0
 73145  1  0  0  0
 74 75  2  0  0  0
 74 76  1  0  0  0
 74146  1  0  0  0
 75 78  1  0  0  0
 76 81  1  0  0  0
 77 79  1  0  0  0
 77 82  1  0  0  0
 77 83  2  0  0  0
 78 82  1  0  0  0
 78147  1  0  0  0
 78148  1  0  0  0
 79 80  1  0  0  0
 79149  1  0  0  0
 79150  1  0  0  0
 80151  1  0  0  0
 80152  1  0  0  0
 81153  1  0  0  0
 82154  1  0  0  0
M  ISO  4   1 100  68 101  80 101  81 100
M  END
> <chiral flag>
0

> <version>
0

> <s_m_source_file>
/data/baiqing/PycharmProjects/Reinvent-master-3.2/result/LINK_invent/BTK/process_docking_weight1_custom_product_contain_oxygen_bond_distance_aromatic_linkinvent_7_9_3/rearranged_h_0050.sdf

> <i_m_source_file_index>
42

> <r_mmod_Potential_Energy-OPLS-2005>
-92.7453842163086

> <r_mmod_Stretch_Energy-OPLS-2005>
48.0562591552734

> <r_mmod_Bend_Energy-OPLS-2005>
107.80362701416

> <r_mmod_Torsional_Energy-OPLS-2005>
253.35368347168

> <r_mmod_Improper_Torsional_Energy-OPLS-2005>
6.87163639068604

> <r_mmod_Van_der_Waal_Energy-OPLS-2005>
140.314483642578

> <r_mmod_Electrostatic_Energy-OPLS-2005>
-425.889587402344

> <r_mmod_Solvation_Energy-OPLS-2005>
-247.014984130859

> <b_mmod_Minimization_Converged-OPLS-2005>
0

> <r_mmod_RMS_Derivative-OPLS-2005>
1.8361736536026

$$$$
42
                    3D
 Structure written by MMmdl.
164173  0  0  1  0            999 V2000
  -30.6306  -14.5523   20.5666 C   0  0  0  0  0  0
  -30.4454  -12.3531   19.4272 C   0  0  0  0  0  0
  -29.5068  -12.5183   18.2108 C   0  0  0  0  0  0
  -28.0271  -12.3640   18.6201 C   0  0  0  0  0  0
  -27.6634  -13.2016   19.8746 C   0  0  2  0  0  0
  -28.7058  -12.9771   20.9930 C   0  0  0  0  0  0
  -25.2610  -13.8138   20.5654 C   0  0  0  0  0  0
  -24.1855  -13.0433   20.9177 C   0  0  0  0  0  0
  -24.6393  -11.6891   20.8726 C   0  0  0  0  0  0
  -23.9048  -10.4287   21.0400 C   0  0  0  0  0  0
  -24.3601   -9.4211   21.9182 C   0  0  0  0  0  0
  -23.6280   -8.2248   22.0752 C   0  0  0  0  0  0
  -22.4263   -8.0279   21.3536 C   0  0  0  0  0  0
  -21.9888   -9.0255   20.4645 C   0  0  0  0  0  0
  -22.7214  -10.2136   20.3052 C   0  0  0  0  0  0
  -21.6854   -6.0725   22.5275 C   0  0  0  0  0  0
  -21.4021   -6.5630   23.8207 C   0  0  0  0  0  0
  -21.3659   -5.6786   24.9169 C   0  0  0  0  0  0
  -21.6048   -4.3052   24.7223 C   0  0  0  0  0  0
  -21.8821   -3.8135   23.4351 C   0  0  0  0  0  0
  -21.9193   -4.6948   22.3401 C   0  0  0  0  0  0
  -22.7886  -13.5252   21.1848 C   0  0  0  0  0  0
  -22.1663   -4.2130   21.0977 F   0  0  0  0  0  0
  -21.5621   -3.4539   25.7745 F   0  0  0  0  0  0
  -30.0322  -13.3295   20.4490 N   0  0  0  0  0  0
  -26.3032  -12.9290   20.3337 N   0  0  0  0  0  0
  -25.9319  -11.6462   20.5745 N   0  0  0  0  0  0
  -22.0512  -12.8252   22.0401 N   0  0  0  0  0  0
  -25.4354  -15.1848   20.4031 N   0  0  0  0  0  0
  -31.7560  -14.7900   20.1149 O   0  0  0  0  0  0
  -21.6632   -6.8873   21.4237 O   0  0  0  0  0  0
  -22.3576  -14.5553   20.6686 O   0  0  0  0  0  0
  -24.6182  -31.8650   23.2089 C   0  0  0  0  0  0
  -25.9066  -32.4802   23.8386 C   0  0  1  0  0  0
  -27.2382  -27.3895   20.1147 C   0  0  0  0  0  0
  -25.5915  -33.8602   24.2316 N   0  0  0  0  0  0
  -23.4090  -30.4867   21.5511 C   0  0  2  0  0  0
  -24.8578  -28.9426   20.1250 C   0  0  0  0  0  0
  -22.7431  -29.4637   22.4995 C   0  0  0  0  0  0
  -18.0276  -28.1376   22.8494 C   0  0  0  0  0  0
  -24.1485  -36.7298   23.2639 C   0  0  0  0  0  0
  -25.9427  -30.8139   21.3728 C   0  0  0  0  0  0
  -26.0199  -29.4419   20.7272 C   0  0  0  0  0  0
  -27.2131  -28.6744   20.7179 C   0  0  0  0  0  0
  -26.0613  -26.9243   19.4908 C   0  0  0  0  0  0
  -24.8744  -27.6820   19.5051 C   0  0  0  0  0  0
  -23.6225  -29.8167   20.1681 C   0  0  0  0  0  0
  -25.4106  -36.3093   24.0338 C   0  0  1  0  0  0
  -20.5870  -28.3663   23.1317 C   0  0  2  0  0  0
  -20.6771  -26.9399   22.5418 C   0  0  0  0  0  0
  -19.5746  -26.6383   21.5219 C   0  0  0  0  0  0
  -18.1924  -26.7922   22.1629 C   0  0  0  0  0  0
  -19.1527  -28.8839   23.2900 C   0  0  0  0  0  0
  -18.9452  -30.1444   23.8908 C   0  0  0  0  0  0
  -17.6455  -30.6577   24.0570 C   0  0  0  0  0  0
  -25.9040  -34.9462   23.5125 C   0  0  0  0  0  0
  -16.5346  -29.9080   23.6327 C   0  0  0  0  0  0
  -16.7266  -28.6499   23.0345 C   0  0  0  0  0  0
  -26.4491  -31.6584   25.0718 C   0  0  0  0  0  0
  -25.3751  -31.3718   26.1464 C   0  0  0  0  0  0
  -27.0315  -30.3008   24.6122 C   0  0  0  0  0  0
  -27.6061  -32.4312   25.7479 C   0  0  0  0  0  0
  -27.5576  -37.1803   24.8465 C   0  0  0  0  0  0
  -21.4158  -29.3022   22.3720 N   0  0  0  0  0  0
  -26.4287  -37.3778   23.9406 N   0  0  0  0  0  0
  -24.6746  -31.0710   22.1017 N   0  0  0  0  0  0
  -23.4180  -28.8185   23.3060 O   0  0  0  0  0  0
  -28.4103  -26.6526   20.0061 O   0  0  0  0  0  0
  -26.5609  -34.8922   22.4688 O   0  0  0  0  0  0
  -23.5364  -32.1435   23.7454 O   0  0  0  0  0  0
  -30.6852  -19.2221   21.0277 C   0  0  0  0  0  0
  -30.8505  -17.8171   20.8493 C   0  0  0  0  0  0
  -28.5346  -17.5082   21.4526 C   0  0  0  0  0  0
  -29.4556  -19.7961   21.4581 C   0  0  0  0  0  0
  -28.3540  -18.9061   21.6135 C   0  0  0  0  0  0
  -29.7764  -16.9318   21.1074 C   0  0  0  0  0  0
  -27.7769  -23.0292   21.3815 C   0  0  0  0  0  0
  -27.4477  -24.3881   20.7189 C   0  0  0  0  0  0
  -29.7749  -24.6606   20.0481 C   0  0  0  0  0  0
  -30.1213  -23.2616   20.6534 C   0  0  0  0  0  0
  -28.6125  -25.4095   20.7444 C   0  0  1  0  0  0
  -28.9901  -25.8473   22.1754 C   0  0  0  0  0  0
  -29.4329  -21.2605   22.0069 C   0  0  0  0  0  0
  -26.9720  -19.4003   22.0210 C   0  0  0  0  0  0
  -29.0019  -22.4557   21.2031 N   0  0  0  0  0  0
  -29.8211  -15.4903   21.1175 N   0  0  0  0  0  0
  -26.8938  -22.5169   22.0726 O   0  0  0  0  0  0
  -26.9502  -19.7315   23.3121 F   0  0  0  0  0  0
  -26.0232  -18.4886   21.7990 F   0  0  0  0  0  0
  -31.4864  -12.4887   19.1267 H   0  0  0  0  0  0
  -30.3786  -11.3402   19.8275 H   0  0  0  0  0  0
  -29.7569  -11.7887   17.4396 H   0  0  0  0  0  0
  -29.6619  -13.5015   17.7618 H   0  0  0  0  0  0
  -27.8465  -11.3063   18.8180 H   0  0  0  0  0  0
  -27.3769  -12.6324   17.7871 H   0  0  0  0  0  0
  -27.7041  -14.2499   19.5773 H   0  0  0  0  0  0
  -28.7040  -11.9322   21.3061 H   0  0  0  0  0  0
  -28.4479  -13.5413   21.8909 H   0  0  0  0  0  0
  -25.2754   -9.5690   22.4758 H   0  0  0  0  0  0
  -23.9984   -7.4642   22.7476 H   0  0  0  0  0  0
  -21.0810   -8.8784   19.8960 H   0  0  0  0  0  0
  -22.3676  -10.9678   19.6162 H   0  0  0  0  0  0
  -21.2024   -7.6146   23.9708 H   0  0  0  0  0  0
  -21.1472   -6.0517   25.9072 H   0  0  0  0  0  0
  -22.0598   -2.7591   23.2862 H   0  0  0  0  0  0
  -22.4111  -11.9907   22.4797 H   0  0  0  0  0  0
  -21.1137  -13.1301   22.2603 H   0  0  0  0  0  0
  -24.6682  -15.8398   20.5059 H   0  0  0  0  0  0
  -26.2729  -15.6123   20.0314 H   0  0  0  0  0  0
  -26.7133  -32.5513   23.1144 H   0  0  0  0  0  0
  -25.0077  -33.9753   25.0471 H   0  0  0  0  0  0
  -22.6994  -31.3043   21.4095 H   0  0  0  0  0  0
  -23.3732  -35.9647   23.3324 H   0  0  0  0  0  0
  -24.3571  -36.8884   22.2046 H   0  0  0  0  0  0
  -23.7258  -37.6520   23.6636 H   0  0  0  0  0  0
  -26.0630  -31.5743   20.6001 H   0  0  0  0  0  0
  -26.8281  -30.8691   21.9944 H   0  0  0  0  0  0
  -28.1152  -29.0648   21.1684 H   0  0  0  0  0  0
  -26.0610  -25.9804   18.9678 H   0  0  0  0  0  0
  -23.9865  -27.2960   19.0240 H   0  0  0  0  0  0
  -23.7402  -30.5919   19.4102 H   0  0  0  0  0  0
  -22.7445  -29.2420   19.8674 H   0  0  0  0  0  0
  -25.1279  -36.1957   25.0830 H   0  0  0  0  0  0
  -20.9957  -28.3230   24.1442 H   0  0  0  0  0  0
  -20.5688  -26.2268   23.3602 H   0  0  0  0  0  0
  -21.6640  -26.7448   22.1202 H   0  0  0  0  0  0
  -19.6909  -25.6302   21.1225 H   0  0  0  0  0  0
  -19.6676  -27.3214   20.6767 H   0  0  0  0  0  0
  -17.4193  -26.6671   21.4031 H   0  0  0  0  0  0
  -18.0319  -26.0060   22.9020 H   0  0  0  0  0  0
  -19.7925  -30.7265   24.2275 H   0  0  0  0  0  0
  -17.5004  -31.6256   24.5172 H   0  0  0  0  0  0
  -15.5349  -30.2989   23.7640 H   0  0  0  0  0  0
  -15.8664  -28.0828   22.7050 H   0  0  0  0  0  0
  -24.5912  -30.7078   25.7804 H   0  0  0  0  0  0
  -24.8969  -32.2892   26.4909 H   0  0  0  0  0  0
  -25.8100  -30.8883   27.0220 H   0  0  0  0  0  0
  -26.2864  -29.6770   24.1170 H   0  0  0  0  0  0
  -27.4054  -29.7247   25.4596 H   0  0  0  0  0  0
  -27.8719  -30.4293   23.9296 H   0  0  0  0  0  0
  -27.2670  -33.3600   26.2080 H   0  0  0  0  0  0
  -28.3861  -32.6892   25.0303 H   0  0  0  0  0  0
  -28.0743  -31.8427   26.5379 H   0  0  0  0  0  0
  -28.2607  -38.0086   24.7488 H   0  0  0  0  0  0
  -28.1057  -36.2619   24.6311 H   0  0  0  0  0  0
  -27.2293  -37.1475   25.8868 H   0  0  0  0  0  0
  -20.9328  -29.8743   21.6935 H   0  0  0  0  0  0
  -26.0174  -38.2855   24.1399 H   0  0  0  0  0  0
  -31.5515  -19.8580   20.9083 H   0  0  0  0  0  0
  -31.8229  -17.4309   20.5758 H   0  0  0  0  0  0
  -27.6985  -16.8508   21.6435 H   0  0  0  0  0  0
  -26.5711  -24.8095   21.2116 H   0  0  0  0  0  0
  -27.1579  -24.1717   19.6910 H   0  0  0  0  0  0
  -29.5136  -24.5204   18.9979 H   0  0  0  0  0  0
  -30.6707  -25.2833   20.0353 H   0  0  0  0  0  0
  -30.8341  -23.4377   21.4609 H   0  0  0  0  0  0
  -30.6519  -22.6635   19.9111 H   0  0  0  0  0  0
  -29.2619  -25.0045   22.8104 H   0  0  0  0  0  0
  -28.1625  -26.3651   22.6611 H   0  0  0  0  0  0
  -29.8392  -26.5317   22.1641 H   0  0  0  0  0  0
  -30.4457  -21.4523   22.3616 H   0  0  0  0  0  0
  -28.8745  -21.2452   22.9432 H   0  0  0  0  0  0
  -26.6819  -20.2548   21.4178 H   0  0  0  0  0  0
  -28.9746  -15.0657   21.4628 H   0  0  0  0  0  0
  1 25  1  0  0  0
  1 30  2  0  0  0
  1 86  1  0  0  0
  2  3  1  0  0  0
  2 25  1  0  0  0
  2 90  1  0  0  0
  2 91  1  0  0  0
  3  4  1  0  0  0
  3 92  1  0  0  0
  3 93  1  0  0  0
  4  5  1  0  0  0
  4 94  1  0  0  0
  4 95  1  0  0  0
  5  6  1  0  0  0
  5 26  1  0  0  0
  5 96  1  0  0  0
  6 25  1  0  0  0
  6 97  1  0  0  0
  6 98  1  0  0  0
  7  8  2  0  0  0
  7 26  1  0  0  0
  7 29  1  0  0  0
  8  9  1  0  0  0
  8 22  1  0  0  0
  9 10  1  0  0  0
  9 27  2  0  0  0
 10 11  2  0  0  0
 10 15  1  0  0  0
 11 12  1  0  0  0
 11 99  1  0  0  0
 12 13  2  0  0  0
 12100  1  0  0  0
 13 14  1  0  0  0
 13 31  1  0  0  0
 14 15  2  0  0  0
 14101  1  0  0  0
 15102  1  0  0  0
 16 17  2  0  0  0
 16 21  1  0  0  0
 16 31  1  0  0  0
 17 18  1  0  0  0
 17103  1  0  0  0
 18 19  2  0  0  0
 18104  1  0  0  0
 19 20  1  0  0  0
 19 24  1  0  0  0
 20 21  2  0  0  0
 20105  1  0  0  0
 21 23  1  0  0  0
 22 28  1  0  0  0
 22 32  2  0  0  0
 26 27  1  0  0  0
 28106  1  0  0  0
 28107  1  0  0  0
 29108  1  0  0  0
 29109  1  0  0  0
 33 34  1  0  0  0
 33 66  1  0  0  0
 33 70  2  0  0  0
 34 36  1  0  0  0
 34 59  1  0  0  0
 34110  1  0  0  0
 35 44  2  0  0  0
 35 45  1  0  0  0
 35 68  1  0  0  0
 36 56  1  0  0  0
 36111  1  0  0  0
 37 39  1  0  0  0
 37 47  1  0  0  0
 37 66  1  0  0  0
 37112  1  0  0  0
 38 43  2  0  0  0
 38 46  1  0  0  0
 38 47  1  0  0  0
 39 64  1  0  0  0
 39 67  2  0  0  0
 40 52  1  0  0  0
 40 53  2  0  0  0
 40 58  1  0  0  0
 41113  1  0  0  0
 41114  1  0  0  0
 41115  1  0  0  0
 41 48  1  0  0  0
 42 43  1  0  0  0
 42 66  1  0  0  0
 42116  1  0  0  0
 42117  1  0  0  0
 43 44  1  0  0  0
 44118  1  0  0  0
 45 46  2  0  0  0
 45119  1  0  0  0
 46120  1  0  0  0
 47121  1  0  0  0
 47122  1  0  0  0
 48 56  1  0  0  0
 48 65  1  0  0  0
 48123  1  0  0  0
 49 50  1  0  0  0
 49 53  1  0  0  0
 49 64  1  0  0  0
 49124  1  0  0  0
 50 51  1  0  0  0
 50125  1  0  0  0
 50126  1  0  0  0
 51 52  1  0  0  0
 51127  1  0  0  0
 51128  1  0  0  0
 52129  1  0  0  0
 52130  1  0  0  0
 53 54  1  0  0  0
 54 55  2  0  0  0
 54131  1  0  0  0
 55 57  1  0  0  0
 55132  1  0  0  0
 56 69  2  0  0  0
 57 58  2  0  0  0
 57133  1  0  0  0
 58134  1  0  0  0
 59 60  1  0  0  0
 59 61  1  0  0  0
 59 62  1  0  0  0
 60135  1  0  0  0
 60136  1  0  0  0
 60137  1  0  0  0
 61138  1  0  0  0
 61139  1  0  0  0
 61140  1  0  0  0
 62141  1  0  0  0
 62142  1  0  0  0
 62143  1  0  0  0
 63 65  1  0  0  0
 63144  1  0  0  0
 63145  1  0  0  0
 63146  1  0  0  0
 64147  1  0  0  0
 65148  1  0  0  0
 68 81  1  0  0  0
 71 72  2  0  0  0
 71 74  1  0  0  0
 71149  1  0  0  0
 72 76  1  0  0  0
 72150  1  0  0  0
 73 75  1  0  0  0
 73 76  2  0  0  0
 73151  1  0  0  0
 74 75  2  0  0  0
 74 83  1  0  0  0
 75 84  1  0  0  0
 76 86  1  0  0  0
 77 78  1  0  0  0
 77 85  1  0  0  0
 77 87  2  0  0  0
 78 81  1  0  0  0
 78152  1  0  0  0
 78153  1  0  0  0
 79 80  1  0  0  0
 79 81  1  0  0  0
 79154  1  0  0  0
 79155  1  0  0  0
 80 85  1  0  0  0
 80156  1  0  0  0
 80157  1  0  0  0
 81 82  1  0  0  0
 82158  1  0  0  0
 82159  1  0  0  0
 82160  1  0  0  0
 83 85  1  0  0  0
 83161  1  0  0  0
 83162  1  0  0  0
 84 88  1  0  0  0
 84 89  1  0  0  0
 84163  1  0  0  0
 86164  1  0  0  0
M  ISO  4   1 100  68 101  81 101  86 100
M  END
> <chiral flag>
0

> <version>
0

> <s_m_source_file>
/data/baiqing/PycharmProjects/Reinvent-master-3.2/result/LINK_invent/BTK/process_docking_weight1_custom_product_contain_oxygen_bond_distance_aromatic_linkinvent_7_9_3/rearranged_h_0050.sdf

> <i_m_source_file_index>
43

> <r_mmod_Potential_Energy-OPLS-2005>
51.0878868103027

> <r_mmod_Stretch_Energy-OPLS-2005>
58.969108581543

> <r_mmod_Bend_Energy-OPLS-2005>
158.175308227539

> <r_mmod_Torsional_Energy-OPLS-2005>
261.448486328125

> <r_mmod_Improper_Torsional_Energy-OPLS-2005>
7.44866514205933

> <r_mmod_Van_der_Waal_Energy-OPLS-2005>
157.763977050781

> <r_mmod_Electrostatic_Energy-OPLS-2005>
-401.299957275391

> <r_mmod_Solvation_Energy-OPLS-2005>
-212.85090637207

> <b_mmod_Minimization_Converged-OPLS-2005>
0

> <r_mmod_RMS_Derivative-OPLS-2005>
1.52831983566284

$$$$
43
                    3D
 Structure written by MMmdl.
152160  0  0  1  0            999 V2000
  -30.5275  -14.8705   20.5102 C   0  0  0  0  0  0
  -30.4547  -12.5479   19.4779 C   0  0  0  0  0  0
  -29.5234  -12.5641   18.2429 C   0  0  0  0  0  0
  -28.0527  -12.3441   18.6522 C   0  0  0  0  0  0
  -27.6469  -13.2280   19.8596 C   0  0  2  0  0  0
  -28.6963  -13.1390   20.9919 C   0  0  0  0  0  0
  -25.2536  -13.8164   20.5683 C   0  0  0  0  0  0
  -24.1809  -13.0420   20.9160 C   0  0  0  0  0  0
  -24.6407  -11.6902   20.8715 C   0  0  0  0  0  0
  -23.9077  -10.4286   21.0391 C   0  0  0  0  0  0
  -24.3632   -9.4208   21.9173 C   0  0  0  0  0  0
  -23.6303   -8.2250   22.0759 C   0  0  0  0  0  0
  -22.4283   -8.0285   21.3547 C   0  0  0  0  0  0
  -21.9919   -9.0259   20.4645 C   0  0  0  0  0  0
  -22.7248  -10.2136   20.3041 C   0  0  0  0  0  0
  -21.6863   -6.0745   22.5297 C   0  0  0  0  0  0
  -21.4023   -6.5652   23.8223 C   0  0  0  0  0  0
  -21.3648   -5.6804   24.9187 C   0  0  0  0  0  0
  -21.6043   -4.3070   24.7237 C   0  0  0  0  0  0
  -21.8823   -3.8153   23.4364 C   0  0  0  0  0  0
  -21.9195   -4.6971   22.3419 C   0  0  0  0  0  0
  -22.7833  -13.5216   21.1818 C   0  0  0  0  0  0
  -22.1654   -4.2155   21.0999 F   0  0  0  0  0  0
  -21.5616   -3.4546   25.7744 F   0  0  0  0  0  0
  -29.9785  -13.5899   20.4294 N   0  0  0  0  0  0
  -26.2974  -12.9364   20.3311 N   0  0  0  0  0  0
  -25.9341  -11.6508   20.5715 N   0  0  0  0  0  0
  -22.0484  -12.8222   22.0394 N   0  0  0  0  0  0
  -25.4246  -15.1886   20.4162 N   0  0  0  0  0  0
  -31.6773  -15.0067   20.0692 O   0  0  0  0  0  0
  -21.6640   -6.8890   21.4252 O   0  0  0  0  0  0
  -22.3514  -14.5513   20.6650 O   0  0  0  0  0  0
  -24.6388  -31.8464   23.1922 C   0  0  0  0  0  0
  -25.9173  -32.4713   23.8296 C   0  0  1  0  0  0
  -27.2201  -27.1738   20.1390 C   0  0  0  0  0  0
  -25.5933  -33.8519   24.2199 N   0  0  0  0  0  0
  -23.4417  -30.4674   21.5371 C   0  0  2  0  0  0
  -24.8916  -28.9040   20.1094 C   0  0  0  0  0  0
  -22.7546  -29.4554   22.4872 C   0  0  0  0  0  0
  -18.0302  -28.1395   22.8487 C   0  0  0  0  0  0
  -24.1488  -36.7262   23.2640 C   0  0  0  0  0  0
  -25.9954  -30.7291   21.3903 C   0  0  0  0  0  0
  -26.0674  -29.3459   20.7290 C   0  0  0  0  0  0
  -27.2316  -28.4945   20.7320 C   0  0  0  0  0  0
  -26.0206  -26.8333   19.4693 C   0  0  0  0  0  0
  -24.8786  -27.6589   19.4667 C   0  0  0  0  0  0
  -23.6666  -29.8000   20.1553 C   0  0  0  0  0  0
  -25.4130  -36.3039   24.0306 C   0  0  1  0  0  0
  -20.5912  -28.3716   23.1250 C   0  0  2  0  0  0
  -20.6787  -26.9421   22.5413 C   0  0  0  0  0  0
  -19.5765  -26.6386   21.5214 C   0  0  0  0  0  0
  -18.1944  -26.7944   22.1613 C   0  0  0  0  0  0
  -19.1557  -28.8870   23.2866 C   0  0  0  0  0  0
  -18.9473  -30.1468   23.8895 C   0  0  0  0  0  0
  -17.6475  -30.6599   24.0559 C   0  0  0  0  0  0
  -25.9073  -34.9412   23.5062 C   0  0  0  0  0  0
  -16.5363  -29.9093   23.6332 C   0  0  0  0  0  0
  -16.7285  -28.6500   23.0373 C   0  0  0  0  0  0
  -26.4512  -31.6588   25.0733 C   0  0  0  0  0  0
  -25.3694  -31.3756   26.1422 C   0  0  0  0  0  0
  -27.0397  -30.2990   24.6320 C   0  0  0  0  0  0
  -27.6036  -32.4373   25.7521 C   0  0  0  0  0  0
  -27.5582  -37.1786   24.8461 C   0  0  0  0  0  0
  -21.4243  -29.3038   22.3613 N   0  0  0  0  0  0
  -26.4292  -37.3751   23.9410 N   0  0  0  0  0  0
  -24.7114  -31.0344   22.0952 N   0  0  0  0  0  0
  -23.4196  -28.8089   23.3009 O   0  0  0  0  0  0
  -28.2756  -26.2024   20.2336 O   0  0  0  0  0  0
  -26.5666  -34.8894   22.4646 O   0  0  0  0  0  0
  -23.5511  -32.1333   23.7158 O   0  0  0  0  0  0
  -30.1476  -18.8323   21.5648 C   0  0  0  0  0  0
  -29.8666  -20.2423   21.3583 C   0  0  0  0  0  0
  -28.7770  -19.6829   19.3378 C   0  0  0  0  0  0
  -29.7415  -17.7603   20.6878 C   0  0  0  0  0  0
  -29.0515  -18.2736   19.5384 C   0  0  0  0  0  0
  -29.1377  -20.7434   20.2351 C   0  0  0  0  0  0
  -28.8814  -23.4626   20.4565 C   0  0  0  0  0  0
  -28.5067  -17.2992   18.5087 C   0  0  0  0  0  0
  -28.0092  -24.7264   19.8762 C   0  0  0  0  0  0
  -29.7438  -16.1797   21.1566 C   0  0  0  0  0  0
  -28.6775  -22.1637   19.9538 N   0  0  0  0  0  0
  -29.7086  -23.6702   21.3486 O   0  0  0  0  0  0
  -30.1067  -16.1953   22.4403 F   0  0  0  0  0  0
  -28.4382  -15.9208   21.1540 F   0  0  0  0  0  0
  -31.4868  -12.7167   19.1691 H   0  0  0  0  0  0
  -30.4474  -11.5628   19.9471 H   0  0  0  0  0  0
  -29.8311  -11.8049   17.5235 H   0  0  0  0  0  0
  -29.6217  -13.5246   17.7354 H   0  0  0  0  0  0
  -27.9330  -11.2911   18.9083 H   0  0  0  0  0  0
  -27.3901  -12.5246   17.8039 H   0  0  0  0  0  0
  -27.6395  -14.2507   19.4828 H   0  0  0  0  0  0
  -28.7769  -12.1126   21.3532 H   0  0  0  0  0  0
  -28.4056  -13.7196   21.8659 H   0  0  0  0  0  0
  -25.2780   -9.5690   22.4739 H   0  0  0  0  0  0
  -24.0007   -7.4661   22.7502 H   0  0  0  0  0  0
  -21.0845   -8.8787   19.8973 H   0  0  0  0  0  0
  -22.3698  -10.9675   19.6149 H   0  0  0  0  0  0
  -21.2020   -7.6161   23.9720 H   0  0  0  0  0  0
  -21.1452   -6.0538   25.9087 H   0  0  0  0  0  0
  -22.0603   -2.7610   23.2867 H   0  0  0  0  0  0
  -22.4095  -11.9889   22.4795 H   0  0  0  0  0  0
  -21.1089  -13.1227   22.2571 H   0  0  0  0  0  0
  -24.6668  -15.8490   20.5512 H   0  0  0  0  0  0
  -26.3052  -15.6349   20.1956 H   0  0  0  0  0  0
  -26.7227  -32.5320   23.1018 H   0  0  0  0  0  0
  -25.0046  -33.9651   25.0317 H   0  0  0  0  0  0
  -22.7419  -31.2920   21.3863 H   0  0  0  0  0  0
  -23.3761  -35.9581   23.3284 H   0  0  0  0  0  0
  -24.3567  -36.8926   22.2059 H   0  0  0  0  0  0
  -23.7231  -37.6440   23.6702 H   0  0  0  0  0  0
  -26.1506  -31.4855   20.6201 H   0  0  0  0  0  0
  -26.8653  -30.7732   22.0340 H   0  0  0  0  0  0
  -28.1249  -28.8241   21.2438 H   0  0  0  0  0  0
  -25.9185  -25.8895   18.9543 H   0  0  0  0  0  0
  -23.9811  -27.3186   18.9680 H   0  0  0  0  0  0
  -23.7983  -30.5746   19.3988 H   0  0  0  0  0  0
  -22.7822  -29.2384   19.8493 H   0  0  0  0  0  0
  -25.1316  -36.1868   25.0797 H   0  0  0  0  0  0
  -21.0025  -28.3310   24.1367 H   0  0  0  0  0  0
  -20.5676  -26.2328   23.3630 H   0  0  0  0  0  0
  -21.6655  -26.7433   22.1218 H   0  0  0  0  0  0
  -19.6927  -25.6291   21.1259 H   0  0  0  0  0  0
  -19.6717  -27.3177   20.6729 H   0  0  0  0  0  0
  -17.4234  -26.6719   21.3993 H   0  0  0  0  0  0
  -18.0319  -26.0076   22.8993 H   0  0  0  0  0  0
  -19.7953  -30.7274   24.2272 H   0  0  0  0  0  0
  -17.5035  -31.6279   24.5168 H   0  0  0  0  0  0
  -15.5357  -30.2990   23.7661 H   0  0  0  0  0  0
  -15.8691  -28.0792   22.7123 H   0  0  0  0  0  0
  -24.5919  -30.7050   25.7741 H   0  0  0  0  0  0
  -24.8818  -32.2921   26.4749 H   0  0  0  0  0  0
  -25.7983  -30.9010   27.0255 H   0  0  0  0  0  0
  -26.3022  -29.6718   24.1301 H   0  0  0  0  0  0
  -27.3977  -29.7292   25.4904 H   0  0  0  0  0  0
  -27.8941  -30.4228   23.9665 H   0  0  0  0  0  0
  -27.2610  -33.3675   26.2068 H   0  0  0  0  0  0
  -28.3858  -32.6948   25.0367 H   0  0  0  0  0  0
  -28.0706  -31.8542   26.5469 H   0  0  0  0  0  0
  -28.2576  -38.0099   24.7535 H   0  0  0  0  0  0
  -28.1095  -36.2635   24.6265 H   0  0  0  0  0  0
  -27.2298  -37.1419   25.8857 H   0  0  0  0  0  0
  -20.9448  -29.8722   21.6773 H   0  0  0  0  0  0
  -26.0157  -38.2806   24.1449 H   0  0  0  0  0  0
  -30.6413  -18.5704   22.4902 H   0  0  0  0  0  0
  -30.1819  -20.9415   22.1212 H   0  0  0  0  0  0
  -28.2171  -19.9538   18.4539 H   0  0  0  0  0  0
  -28.3731  -17.7800   17.5391 H   0  0  0  0  0  0
  -27.5389  -16.9115   18.8285 H   0  0  0  0  0  0
  -29.1827  -16.4574   18.3596 H   0  0  0  0  0  0
  -26.9926  -24.4798   20.1780 H   0  0  0  0  0  0
  -28.0296  -24.6541   18.7882 H   0  0  0  0  0  0
  -28.0191  -22.1994   19.1872 H   0  0  0  0  0  0
  1 25  1  0  0  0
  1 30  2  0  0  0
  1 80  1  0  0  0
  2  3  1  0  0  0
  2 25  1  0  0  0
  2 85  1  0  0  0
  2 86  1  0  0  0
  3  4  1  0  0  0
  3 87  1  0  0  0
  3 88  1  0  0  0
  4  5  1  0  0  0
  4 89  1  0  0  0
  4 90  1  0  0  0
  5  6  1  0  0  0
  5 26  1  0  0  0
  5 91  1  0  0  0
  6 25  1  0  0  0
  6 92  1  0  0  0
  6 93  1  0  0  0
  7  8  2  0  0  0
  7 26  1  0  0  0
  7 29  1  0  0  0
  8  9  1  0  0  0
  8 22  1  0  0  0
  9 10  1  0  0  0
  9 27  2  0  0  0
 10 11  2  0  0  0
 10 15  1  0  0  0
 11 12  1  0  0  0
 11 94  1  0  0  0
 12 13  2  0  0  0
 12 95  1  0  0  0
 13 14  1  0  0  0
 13 31  1  0  0  0
 14 15  2  0  0  0
 14 96  1  0  0  0
 15 97  1  0  0  0
 16 17  2  0  0  0
 16 21  1  0  0  0
 16 31  1  0  0  0
 17 18  1  0  0  0
 17 98  1  0  0  0
 18 19  2  0  0  0
 18 99  1  0  0  0
 19 20  1  0  0  0
 19 24  1  0  0  0
 20 21  2  0  0  0
 20100  1  0  0  0
 21 23  1  0  0  0
 22 28  1  0  0  0
 22 32  2  0  0  0
 26 27  1  0  0  0
 28101  1  0  0  0
 28102  1  0  0  0
 29103  1  0  0  0
 29104  1  0  0  0
 33 34  1  0  0  0
 33 66  1  0  0  0
 33 70  2  0  0  0
 34 36  1  0  0  0
 34 59  1  0  0  0
 34105  1  0  0  0
 35 44  2  0  0  0
 35 45  1  0  0  0
 35 68  1  0  0  0
 36 56  1  0  0  0
 36106  1  0  0  0
 37 39  1  0  0  0
 37 47  1  0  0  0
 37 66  1  0  0  0
 37107  1  0  0  0
 38 43  2  0  0  0
 38 46  1  0  0  0
 38 47  1  0  0  0
 39 64  1  0  0  0
 39 67  2  0  0  0
 40 52  1  0  0  0
 40 53  2  0  0  0
 40 58  1  0  0  0
 41108  1  0  0  0
 41109  1  0  0  0
 41110  1  0  0  0
 41 48  1  0  0  0
 42 43  1  0  0  0
 42 66  1  0  0  0
 42111  1  0  0  0
 42112  1  0  0  0
 43 44  1  0  0  0
 44113  1  0  0  0
 45 46  2  0  0  0
 45114  1  0  0  0
 46115  1  0  0  0
 47116  1  0  0  0
 47117  1  0  0  0
 48 56  1  0  0  0
 48 65  1  0  0  0
 48118  1  0  0  0
 49 50  1  0  0  0
 49 53  1  0  0  0
 49 64  1  0  0  0
 49119  1  0  0  0
 50 51  1  0  0  0
 50120  1  0  0  0
 50121  1  0  0  0
 51 52  1  0  0  0
 51122  1  0  0  0
 51123  1  0  0  0
 52124  1  0  0  0
 52125  1  0  0  0
 53 54  1  0  0  0
 54 55  2  0  0  0
 54126  1  0  0  0
 55 57  1  0  0  0
 55127  1  0  0  0
 56 69  2  0  0  0
 57 58  2  0  0  0
 57128  1  0  0  0
 58129  1  0  0  0
 59 60  1  0  0  0
 59 61  1  0  0  0
 59 62  1  0  0  0
 60130  1  0  0  0
 60131  1  0  0  0
 60132  1  0  0  0
 61133  1  0  0  0
 61134  1  0  0  0
 61135  1  0  0  0
 62136  1  0  0  0
 62137  1  0  0  0
 62138  1  0  0  0
 63 65  1  0  0  0
 63139  1  0  0  0
 63140  1  0  0  0
 63141  1  0  0  0
 64142  1  0  0  0
 65143  1  0  0  0
 68 79  1  0  0  0
 71 72  2  0  0  0
 71 74  1  0  0  0
 71144  1  0  0  0
 72 76  1  0  0  0
 72145  1  0  0  0
 73 75  1  0  0  0
 73 76  2  0  0  0
 73146  1  0  0  0
 74 75  2  0  0  0
 74 80  1  0  0  0
 75 78  1  0  0  0
 76 81  1  0  0  0
 77 79  1  0  0  0
 77 81  1  0  0  0
 77 82  2  0  0  0
 78147  1  0  0  0
 78148  1  0  0  0
 78149  1  0  0  0
 79150  1  0  0  0
 79151  1  0  0  0
 80 83  1  0  0  0
 80 84  1  0  0  0
 81152  1  0  0  0
M  ISO  4   1 100  68 101  79 101  80 100
M  END
> <chiral flag>
0

> <version>
0

> <s_m_source_file>
/data/baiqing/PycharmProjects/Reinvent-master-3.2/result/LINK_invent/BTK/process_docking_weight1_custom_product_contain_oxygen_bond_distance_aromatic_linkinvent_7_9_3/rearranged_h_0050.sdf

> <i_m_source_file_index>
44

> <r_mmod_Potential_Energy-OPLS-2005>
500.117004394531

> <r_mmod_Stretch_Energy-OPLS-2005>
201.410507202148

> <r_mmod_Bend_Energy-OPLS-2005>
251.8154296875

> <r_mmod_Torsional_Energy-OPLS-2005>
187.668640136719

> <r_mmod_Improper_Torsional_Energy-OPLS-2005>
4.75227117538452

> <r_mmod_Van_der_Waal_Energy-OPLS-2005>
137.184173583984

> <r_mmod_Electrostatic_Energy-OPLS-2005>
-203.91618347168

> <r_mmod_Solvation_Energy-OPLS-2005>
-226.493621826172

> <b_mmod_Minimization_Converged-OPLS-2005>
0

> <r_mmod_RMS_Derivative-OPLS-2005>
1.83122682571411

$$$$
44
                    3D
 Structure written by MMmdl.
167176  0  0  1  0            999 V2000
  -30.6572  -14.6241   20.4915 C   0  0  0  0  0  0
  -30.4306  -12.3829   19.4507 C   0  0  0  0  0  0
  -29.5043  -12.4963   18.2217 C   0  0  0  0  0  0
  -28.0275  -12.3371   18.6378 C   0  0  0  0  0  0
  -27.6483  -13.2211   19.8572 C   0  0  2  0  0  0
  -28.6961  -13.1043   20.9859 C   0  0  0  0  0  0
  -25.2526  -13.8184   20.5681 C   0  0  0  0  0  0
  -24.1809  -13.0439   20.9204 C   0  0  0  0  0  0
  -24.6396  -11.6917   20.8752 C   0  0  0  0  0  0
  -23.9078  -10.4297   21.0407 C   0  0  0  0  0  0
  -24.3628   -9.4217   21.9190 C   0  0  0  0  0  0
  -23.6301   -8.2256   22.0764 C   0  0  0  0  0  0
  -22.4283   -8.0291   21.3555 C   0  0  0  0  0  0
  -21.9922   -9.0261   20.4657 C   0  0  0  0  0  0
  -22.7249  -10.2136   20.3057 C   0  0  0  0  0  0
  -21.6858   -6.0749   22.5280 C   0  0  0  0  0  0
  -21.4018   -6.5650   23.8214 C   0  0  0  0  0  0
  -21.3660   -5.6799   24.9176 C   0  0  0  0  0  0
  -21.6037   -4.3063   24.7224 C   0  0  0  0  0  0
  -21.8819   -3.8159   23.4347 C   0  0  0  0  0  0
  -21.9191   -4.6973   22.3403 C   0  0  0  0  0  0
  -22.7823  -13.5218   21.1857 C   0  0  0  0  0  0
  -22.1657   -4.2162   21.0980 F   0  0  0  0  0  0
  -21.5633   -3.4545   25.7735 F   0  0  0  0  0  0
  -30.0088  -13.4231   20.4060 N   0  0  0  0  0  0
  -26.2962  -12.9375   20.3313 N   0  0  0  0  0  0
  -25.9321  -11.6529   20.5766 N   0  0  0  0  0  0
  -22.0472  -12.8206   22.0415 N   0  0  0  0  0  0
  -25.4187  -15.1911   20.4052 N   0  0  0  0  0  0
  -31.8446  -14.7348   20.1726 O   0  0  0  0  0  0
  -21.6651   -6.8888   21.4244 O   0  0  0  0  0  0
  -22.3496  -14.5520   20.6693 O   0  0  0  0  0  0
  -24.6244  -31.8633   23.2059 C   0  0  0  0  0  0
  -25.9113  -32.4785   23.8371 C   0  0  1  0  0  0
  -27.2184  -27.3463   20.1003 C   0  0  0  0  0  0
  -25.5942  -33.8587   24.2306 N   0  0  0  0  0  0
  -23.4135  -30.4897   21.5496 C   0  0  2  0  0  0
  -24.8547  -28.9482   20.1133 C   0  0  0  0  0  0
  -22.7454  -29.4653   22.4971 C   0  0  0  0  0  0
  -18.0283  -28.1389   22.8502 C   0  0  0  0  0  0
  -24.1488  -36.7296   23.2639 C   0  0  0  0  0  0
  -25.9525  -30.8022   21.3709 C   0  0  0  0  0  0
  -26.0241  -29.4320   20.7121 C   0  0  0  0  0  0
  -27.2076  -28.6420   20.6965 C   0  0  0  0  0  0
  -26.0188  -26.9025   19.4958 C   0  0  0  0  0  0
  -24.8519  -27.6878   19.5003 C   0  0  0  0  0  0
  -23.6234  -29.8277   20.1636 C   0  0  0  0  0  0
  -25.4109  -36.3087   24.0335 C   0  0  1  0  0  0
  -20.5883  -28.3693   23.1311 C   0  0  2  0  0  0
  -20.6779  -26.9421   22.5426 C   0  0  0  0  0  0
  -19.5748  -26.6395   21.5230 C   0  0  0  0  0  0
  -18.1926  -26.7937   22.1633 C   0  0  0  0  0  0
  -19.1533  -28.8856   23.2904 C   0  0  0  0  0  0
  -18.9452  -30.1460   23.8920 C   0  0  0  0  0  0
  -17.6449  -30.6591   24.0570 C   0  0  0  0  0  0
  -25.9051  -34.9455   23.5118 C   0  0  0  0  0  0
  -16.5344  -29.9090   23.6331 C   0  0  0  0  0  0
  -16.7266  -28.6506   23.0358 C   0  0  0  0  0  0
  -26.4508  -31.6581   25.0730 C   0  0  0  0  0  0
  -25.3745  -31.3702   26.1456 C   0  0  0  0  0  0
  -27.0359  -30.3013   24.6172 C   0  0  0  0  0  0
  -27.6078  -32.4306   25.7492 C   0  0  0  0  0  0
  -27.5579  -37.1801   24.8463 C   0  0  0  0  0  0
  -21.4173  -29.3053   22.3708 N   0  0  0  0  0  0
  -26.4289  -37.3780   23.9410 N   0  0  0  0  0  0
  -24.6823  -31.0677   22.0991 N   0  0  0  0  0  0
  -23.4197  -28.8194   23.3031 O   0  0  0  0  0  0
  -28.3687  -26.5497   20.1244 O   0  0  0  0  0  0
  -26.5612  -34.8918   22.4678 O   0  0  0  0  0  0
  -23.5425  -32.1420   23.7417 O   0  0  0  0  0  0
  -29.4210  -18.2072   20.3971 C   0  0  0  0  0  0
  -31.4112  -17.4848   21.5535 C   0  0  0  0  0  0
  -29.7244  -19.6011   20.5980 C   0  0  0  0  0  0
  -31.7483  -18.8343   21.8142 C   0  0  0  0  0  0
  -30.9258  -19.9008   21.3212 C   0  0  0  0  0  0
  -30.2472  -17.1312   20.8489 C   0  0  0  0  0  0
  -29.6527  -22.9691   19.1768 C   0  0  0  0  0  0
  -30.3632  -22.4265   18.1706 C   0  0  0  0  0  0
  -29.6882  -24.4749   19.5563 C   0  0  0  0  0  0
  -27.5634  -24.2662   20.9118 C   0  0  0  0  0  0
  -28.1865  -22.8621   21.2265 C   0  0  0  0  0  0
  -28.2974  -25.1084   19.8260 C   0  0  1  0  0  0
  -31.3482  -21.3391   21.5963 C   0  0  0  0  0  0
  -28.6640  -20.6236   20.0102 C   0  0  0  0  0  0
  -33.0069  -19.0936   22.6562 C   0  0  0  0  0  0
  -29.8721  -15.7302   20.6860 N   0  0  0  0  0  0
  -28.6699  -22.1563   20.0037 N   0  3  2  0  0  0
  -33.5337  -17.9661   23.1381 F   0  0  0  0  0  0
  -33.9459  -19.6857   21.9179 F   0  0  0  0  0  0
  -32.7202  -19.8640   23.7072 F   0  0  0  0  0  0
  -31.4741  -12.4918   19.1501 H   0  0  0  0  0  0
  -30.3510  -11.3955   19.9091 H   0  0  0  0  0  0
  -29.7668  -11.7396   17.4814 H   0  0  0  0  0  0
  -29.6493  -13.4627   17.7363 H   0  0  0  0  0  0
  -27.8702  -11.2855   18.8816 H   0  0  0  0  0  0
  -27.3707  -12.5548   17.7954 H   0  0  0  0  0  0
  -27.6564  -14.2511   19.5006 H   0  0  0  0  0  0
  -28.7033  -12.0949   21.4000 H   0  0  0  0  0  0
  -28.4518  -13.7693   21.8160 H   0  0  0  0  0  0
  -25.2775   -9.5690   22.4765 H   0  0  0  0  0  0
  -24.0013   -7.4643   22.7477 H   0  0  0  0  0  0
  -21.0865   -8.8771   19.8955 H   0  0  0  0  0  0
  -22.3713  -10.9674   19.6156 H   0  0  0  0  0  0
  -21.2015   -7.6159   23.9719 H   0  0  0  0  0  0
  -21.1476   -6.0538   25.9077 H   0  0  0  0  0  0
  -22.0597   -2.7622   23.2845 H   0  0  0  0  0  0
  -22.4100  -11.9869   22.4805 H   0  0  0  0  0  0
  -21.1080  -13.1205   22.2606 H   0  0  0  0  0  0
  -24.6428  -15.8371   20.5029 H   0  0  0  0  0  0
  -26.2549  -15.6328   20.0469 H   0  0  0  0  0  0
  -26.7183  -32.5465   23.1124 H   0  0  0  0  0  0
  -25.0088  -33.9729   25.0452 H   0  0  0  0  0  0
  -22.7065  -31.3104   21.4119 H   0  0  0  0  0  0
  -23.3750  -35.9627   23.3287 H   0  0  0  0  0  0
  -24.3588  -36.8928   22.2056 H   0  0  0  0  0  0
  -23.7236  -37.6493   23.6669 H   0  0  0  0  0  0
  -26.0820  -31.5674   20.6040 H   0  0  0  0  0  0
  -26.8345  -30.8491   21.9979 H   0  0  0  0  0  0
  -28.1077  -29.0135   21.1658 H   0  0  0  0  0  0
  -25.9417  -25.9408   19.0162 H   0  0  0  0  0  0
  -23.9517  -27.3107   19.0348 H   0  0  0  0  0  0
  -23.7408  -30.6056   19.4082 H   0  0  0  0  0  0
  -22.7421  -29.2583   19.8628 H   0  0  0  0  0  0
  -25.1286  -36.1938   25.0828 H   0  0  0  0  0  0
  -20.9977  -28.3261   24.1429 H   0  0  0  0  0  0
  -20.5711  -26.2292   23.3621 H   0  0  0  0  0  0
  -21.6645  -26.7475   22.1197 H   0  0  0  0  0  0
  -19.6908  -25.6310   21.1253 H   0  0  0  0  0  0
  -19.6681  -27.3218   20.6773 H   0  0  0  0  0  0
  -17.4203  -26.6714   21.4024 H   0  0  0  0  0  0
  -18.0297  -26.0073   22.9018 H   0  0  0  0  0  0
  -19.7921  -30.7281   24.2300 H   0  0  0  0  0  0
  -17.4994  -31.6272   24.5170 H   0  0  0  0  0  0
  -15.5345  -30.2992   23.7645 H   0  0  0  0  0  0
  -15.8670  -28.0827   22.7068 H   0  0  0  0  0  0
  -24.5923  -30.7055   25.7769 H   0  0  0  0  0  0
  -24.8940  -32.2866   26.4896 H   0  0  0  0  0  0
  -25.8074  -30.8858   27.0220 H   0  0  0  0  0  0
  -26.2936  -29.6733   24.1232 H   0  0  0  0  0  0
  -27.4108  -29.7290   25.4669 H   0  0  0  0  0  0
  -27.8777  -30.4302   23.9364 H   0  0  0  0  0  0
  -27.2708  -33.3610   26.2070 H   0  0  0  0  0  0
  -28.3887  -32.6851   25.0313 H   0  0  0  0  0  0
  -28.0749  -31.8425   26.5402 H   0  0  0  0  0  0
  -28.2592  -38.0103   24.7521 H   0  0  0  0  0  0
  -28.1084  -36.2639   24.6274 H   0  0  0  0  0  0
  -27.2306  -37.1424   25.8869 H   0  0  0  0  0  0
  -20.9346  -29.8757   21.6910 H   0  0  0  0  0  0
  -26.0170  -38.2856   24.1410 H   0  0  0  0  0  0
  -28.5121  -17.9559   19.8675 H   0  0  0  0  0  0
  -32.0474  -16.6994   21.9332 H   0  0  0  0  0  0
  -31.0325  -23.0369   17.5813 H   0  0  0  0  0  0
  -30.3027  -21.3805   17.9097 H   0  0  0  0  0  0
  -30.1666  -25.0249   18.7454 H   0  0  0  0  0  0
  -30.3354  -24.6073   20.4237 H   0  0  0  0  0  0
  -27.5209  -24.8326   21.8421 H   0  0  0  0  0  0
  -26.5237  -24.1394   20.6086 H   0  0  0  0  0  0
  -27.4527  -22.2543   21.7558 H   0  0  0  0  0  0
  -29.0116  -23.0027   21.9189 H   0  0  0  0  0  0
  -27.7780  -24.9836   18.8762 H   0  0  0  0  0  0
  -31.3529  -21.9254   20.6875 H   0  0  0  0  0  0
  -32.3622  -21.4451   21.9707 H   0  0  0  0  0  0
  -30.7043  -21.7936   22.3442 H   0  0  0  0  0  0
  -27.7173  -20.3395   20.4709 H   0  0  0  0  0  0
  -28.5327  -20.3334   18.9673 H   0  0  0  0  0  0
  -28.8831  -15.5369   20.7048 H   0  0  0  0  0  0
  -27.8220  -22.2378   19.4613 H   0  0  0  0  0  0
  1 25  1  0  0  0
  1 30  2  0  0  0
  1 86  1  0  0  0
  2  3  1  0  0  0
  2 25  1  0  0  0
  2 91  1  0  0  0
  2 92  1  0  0  0
  3  4  1  0  0  0
  3 93  1  0  0  0
  3 94  1  0  0  0
  4  5  1  0  0  0
  4 95  1  0  0  0
  4 96  1  0  0  0
  5  6  1  0  0  0
  5 26  1  0  0  0
  5 97  1  0  0  0
  6 25  1  0  0  0
  6 98  1  0  0  0
  6 99  1  0  0  0
  7  8  2  0  0  0
  7 26  1  0  0  0
  7 29  1  0  0  0
  8  9  1  0  0  0
  8 22  1  0  0  0
  9 10  1  0  0  0
  9 27  2  0  0  0
 10 11  2  0  0  0
 10 15  1  0  0  0
 11 12  1  0  0  0
 11100  1  0  0  0
 12 13  2  0  0  0
 12101  1  0  0  0
 13 14  1  0  0  0
 13 31  1  0  0  0
 14 15  2  0  0  0
 14102  1  0  0  0
 15103  1  0  0  0
 16 17  2  0  0  0
 16 21  1  0  0  0
 16 31  1  0  0  0
 17 18  1  0  0  0
 17104  1  0  0  0
 18 19  2  0  0  0
 18105  1  0  0  0
 19 20  1  0  0  0
 19 24  1  0  0  0
 20 21  2  0  0  0
 20106  1  0  0  0
 21 23  1  0  0  0
 22 28  1  0  0  0
 22 32  2  0  0  0
 26 27  1  0  0  0
 28107  1  0  0  0
 28108  1  0  0  0
 29109  1  0  0  0
 29110  1  0  0  0
 33 34  1  0  0  0
 33 66  1  0  0  0
 33 70  2  0  0  0
 34 36  1  0  0  0
 34 59  1  0  0  0
 34111  1  0  0  0
 35 44  2  0  0  0
 35 45  1  0  0  0
 35 68  1  0  0  0
 36 56  1  0  0  0
 36112  1  0  0  0
 37 39  1  0  0  0
 37 47  1  0  0  0
 37 66  1  0  0  0
 37113  1  0  0  0
 38 43  2  0  0  0
 38 46  1  0  0  0
 38 47  1  0  0  0
 39 64  1  0  0  0
 39 67  2  0  0  0
 40 52  1  0  0  0
 40 53  2  0  0  0
 40 58  1  0  0  0
 41114  1  0  0  0
 41115  1  0  0  0
 41116  1  0  0  0
 41 48  1  0  0  0
 42 43  1  0  0  0
 42 66  1  0  0  0
 42117  1  0  0  0
 42118  1  0  0  0
 43 44  1  0  0  0
 44119  1  0  0  0
 45 46  2  0  0  0
 45120  1  0  0  0
 46121  1  0  0  0
 47122  1  0  0  0
 47123  1  0  0  0
 48 56  1  0  0  0
 48 65  1  0  0  0
 48124  1  0  0  0
 49 50  1  0  0  0
 49 53  1  0  0  0
 49 64  1  0  0  0
 49125  1  0  0  0
 50 51  1  0  0  0
 50126  1  0  0  0
 50127  1  0  0  0
 51 52  1  0  0  0
 51128  1  0  0  0
 51129  1  0  0  0
 52130  1  0  0  0
 52131  1  0  0  0
 53 54  1  0  0  0
 54 55  2  0  0  0
 54132  1  0  0  0
 55 57  1  0  0  0
 55133  1  0  0  0
 56 69  2  0  0  0
 57 58  2  0  0  0
 57134  1  0  0  0
 58135  1  0  0  0
 59 60  1  0  0  0
 59 61  1  0  0  0
 59 62  1  0  0  0
 60136  1  0  0  0
 60137  1  0  0  0
 60138  1  0  0  0
 61139  1  0  0  0
 61140  1  0  0  0
 61141  1  0  0  0
 62142  1  0  0  0
 62143  1  0  0  0
 62144  1  0  0  0
 63 65  1  0  0  0
 63145  1  0  0  0
 63146  1  0  0  0
 63147  1  0  0  0
 64148  1  0  0  0
 65149  1  0  0  0
 68 82  1  0  0  0
 71 73  2  0  0  0
 71 76  1  0  0  0
 71150  1  0  0  0
 72 74  1  0  0  0
 72 76  2  0  0  0
 72151  1  0  0  0
 73 75  1  0  0  0
 73 84  1  0  0  0
 74 75  2  0  0  0
 74 85  1  0  0  0
 75 83  1  0  0  0
 76 86  1  0  0  0
 77 78  2  0  0  0
 77 79  1  0  0  0
 77 87  1  0  0  0
 78152  1  0  0  0
 78153  1  0  0  0
 79 82  1  0  0  0
 79154  1  0  0  0
 79155  1  0  0  0
 80 81  1  0  0  0
 80 82  1  0  0  0
 80156  1  0  0  0
 80157  1  0  0  0
 81 87  1  0  0  0
 81158  1  0  0  0
 81159  1  0  0  0
 82160  1  0  0  0
 83161  1  0  0  0
 83162  1  0  0  0
 83163  1  0  0  0
 84164  1  0  0  0
 84165  1  0  0  0
 84 87  1  0  0  0
 85 88  1  0  0  0
 85 89  1  0  0  0
 85 90  1  0  0  0
 86166  1  0  0  0
 87167  1  0  0  0
M  CHG  1  87   1
M  ISO  4   1 100  68 101  82 101  86 100
M  END
> <chiral flag>
0

> <version>
0

> <s_m_source_file>
/data/baiqing/PycharmProjects/Reinvent-master-3.2/result/LINK_invent/BTK/process_docking_weight1_custom_product_contain_oxygen_bond_distance_aromatic_linkinvent_7_9_3/rearranged_h_0050.sdf

> <i_m_source_file_index>
45

> <r_mmod_Potential_Energy-OPLS-2005>
59.2261085510254

> <r_mmod_Stretch_Energy-OPLS-2005>
81.4661483764648

> <r_mmod_Bend_Energy-OPLS-2005>
197.548889160156

> <r_mmod_Torsional_Energy-OPLS-2005>
246.313568115234

> <r_mmod_Improper_Torsional_Energy-OPLS-2005>
6.30255460739136

> <r_mmod_Van_der_Waal_Energy-OPLS-2005>
165.437377929688

> <r_mmod_Electrostatic_Energy-OPLS-2005>
-209.243545532227

> <r_mmod_Solvation_Energy-OPLS-2005>
-470.021087646484

> <b_mmod_Minimization_Converged-OPLS-2005>
0

> <r_mmod_RMS_Derivative-OPLS-2005>
1.57570374011993

$$$$
45
                    3D
 Structure written by MMmdl.
160168  0  0  1  0            999 V2000
  -30.7272  -14.4472   20.5481 C   0  0  0  0  0  0
  -30.4035  -12.2796   19.4025 C   0  0  0  0  0  0
  -29.4648  -12.4194   18.1873 C   0  0  0  0  0  0
  -27.9860  -12.3437   18.6102 C   0  0  0  0  0  0
  -27.6478  -13.1962   19.8640 C   0  0  2  0  0  0
  -28.7002  -13.0137   20.9784 C   0  0  0  0  0  0
  -25.2563  -13.8184   20.5774 C   0  0  0  0  0  0
  -24.1800  -13.0451   20.9260 C   0  0  0  0  0  0
  -24.6354  -11.6935   20.8811 C   0  0  0  0  0  0
  -23.9049  -10.4289   21.0442 C   0  0  0  0  0  0
  -24.3567   -9.4224   21.9279 C   0  0  0  0  0  0
  -23.6277   -8.2252   22.0844 C   0  0  0  0  0  0
  -22.4305   -8.0257   21.3572 C   0  0  0  0  0  0
  -21.9959   -9.0207   20.4634 C   0  0  0  0  0  0
  -22.7245  -10.2116   20.3079 C   0  0  0  0  0  0
  -21.6871   -6.0755   22.5321 C   0  0  0  0  0  0
  -21.4014   -6.5671   23.8239 C   0  0  0  0  0  0
  -21.3647   -5.6816   24.9215 C   0  0  0  0  0  0
  -21.6037   -4.3082   24.7243 C   0  0  0  0  0  0
  -21.8811   -3.8161   23.4359 C   0  0  0  0  0  0
  -21.9201   -4.6983   22.3422 C   0  0  0  0  0  0
  -22.7792  -13.5245   21.1834 C   0  0  0  0  0  0
  -22.1645   -4.2160   21.0987 F   0  0  0  0  0  0
  -21.5611   -3.4570   25.7751 F   0  0  0  0  0  0
  -30.0207  -13.2948   20.3930 N   0  0  0  0  0  0
  -26.2966  -12.9301   20.3426 N   0  0  0  0  0  0
  -25.9279  -11.6491   20.5880 N   0  0  0  0  0  0
  -22.0398  -12.8200   22.0355 N   0  0  0  0  0  0
  -25.4342  -15.1886   20.4140 N   0  0  0  0  0  0
  -31.8802  -14.5921   20.1408 O   0  0  0  0  0  0
  -21.6652   -6.8874   21.4286 O   0  0  0  0  0  0
  -22.3504  -14.5541   20.6637 O   0  0  0  0  0  0
  -24.6149  -31.8726   23.2101 C   0  0  0  0  0  0
  -25.9066  -32.4825   23.8417 C   0  0  1  0  0  0
  -27.2474  -27.4595   20.0731 C   0  0  0  0  0  0
  -25.5931  -33.8626   24.2346 N   0  0  0  0  0  0
  -23.3987  -30.4906   21.5569 C   0  0  2  0  0  0
  -24.8383  -28.9440   20.1271 C   0  0  0  0  0  0
  -22.7428  -29.4681   22.5091 C   0  0  0  0  0  0
  -18.0285  -28.1400   22.8503 C   0  0  0  0  0  0
  -24.1474  -36.7286   23.2651 C   0  0  0  0  0  0
  -25.9268  -30.8314   21.3650 C   0  0  0  0  0  0
  -25.9975  -29.4696   20.7103 C   0  0  0  0  0  0
  -27.1982  -28.7325   20.6809 C   0  0  0  0  0  0
  -26.0599  -26.9231   19.5218 C   0  0  0  0  0  0
  -24.8622  -27.6659   19.5373 C   0  0  0  0  0  0
  -23.5982  -29.8098   20.1761 C   0  0  0  0  0  0
  -25.4116  -36.3136   24.0353 C   0  0  1  0  0  0
  -20.5860  -28.3693   23.1327 C   0  0  2  0  0  0
  -20.6781  -26.9443   22.5407 C   0  0  0  0  0  0
  -19.5755  -26.6415   21.5212 C   0  0  0  0  0  0
  -18.1930  -26.7955   22.1618 C   0  0  0  0  0  0
  -19.1532  -28.8879   23.2888 C   0  0  0  0  0  0
  -18.9449  -30.1487   23.8887 C   0  0  0  0  0  0
  -17.6446  -30.6600   24.0573 C   0  0  0  0  0  0
  -25.9054  -34.9490   23.5144 C   0  0  0  0  0  0
  -16.5340  -29.9088   23.6340 C   0  0  0  0  0  0
  -16.7270  -28.6504   23.0362 C   0  0  0  0  0  0
  -26.4481  -31.6625   25.0765 C   0  0  0  0  0  0
  -25.3693  -31.3695   26.1457 C   0  0  0  0  0  0
  -27.0365  -30.3094   24.6162 C   0  0  0  0  0  0
  -27.6088  -32.4371   25.7455 C   0  0  0  0  0  0
  -27.5578  -37.1794   24.8495 C   0  0  0  0  0  0
  -21.4174  -29.3030   22.3764 N   0  0  0  0  0  0
  -26.4318  -37.3813   23.9414 N   0  0  0  0  0  0
  -24.6646  -31.0824   22.1007 N   0  0  0  0  0  0
  -23.4199  -28.8312   23.3209 O   0  0  0  0  0  0
  -28.4723  -26.8294   20.0451 O   0  0  0  0  0  0
  -26.5626  -34.8919   22.4708 O   0  0  0  0  0  0
  -23.5355  -32.1522   23.7478 O   0  0  0  0  0  0
  -28.0272  -18.3417   18.4811 C   0  0  0  0  0  0
  -29.1760  -16.2213   18.7572 C   0  0  0  0  0  0
  -28.2340  -18.6461   19.8418 C   0  0  0  0  0  0
  -28.9179  -17.7103   20.6855 C   0  0  0  0  0  0
  -29.3780  -16.4735   20.1395 C   0  0  0  0  0  0
  -28.5010  -17.1365   17.9398 C   0  0  0  0  0  0
  -28.0200  -23.3071   20.1986 C   0  0  0  0  0  0
  -28.7323  -24.4433   20.2689 C   0  0  0  0  0  0
  -27.6903  -19.9305   20.3056 C   0  0  0  0  0  0
  -29.1229  -17.9933   22.1754 C   0  0  0  0  0  0
  -28.1045  -22.2358   21.2774 C   0  0  0  0  0  0
  -28.6792  -25.6193   19.3163 C   0  0  0  0  0  0
  -26.3756  -20.1440   20.2807 N   0  0  0  0  0  0
  -30.0417  -15.5169   20.9806 N   0  0  0  0  0  0
  -28.4924  -20.9238   20.7265 N   0  3  0  0  0  0
  -28.3147  -16.8555   16.6267 F   0  0  0  0  0  0
  -31.4447  -12.3638   19.0847 H   0  0  0  0  0  0
  -30.3032  -11.2829   19.8316 H   0  0  0  0  0  0
  -29.6664  -11.6186   17.4728 H   0  0  0  0  0  0
  -29.6594  -13.3380   17.6383 H   0  0  0  0  0  0
  -27.7536  -11.2952   18.8133 H   0  0  0  0  0  0
  -27.3423  -12.6288   17.7747 H   0  0  0  0  0  0
  -27.6722  -14.2345   19.5535 H   0  0  0  0  0  0
  -28.6733  -11.9985   21.3730 H   0  0  0  0  0  0
  -28.4786  -13.6641   21.8271 H   0  0  0  0  0  0
  -25.2653   -9.5759   22.4942 H   0  0  0  0  0  0
  -23.9916   -7.4671   22.7624 H   0  0  0  0  0  0
  -21.0936   -8.8671   19.8880 H   0  0  0  0  0  0
  -22.3650  -10.9658   19.6205 H   0  0  0  0  0  0
  -21.2007   -7.6178   23.9758 H   0  0  0  0  0  0
  -21.1486   -6.0559   25.9119 H   0  0  0  0  0  0
  -22.0593   -2.7633   23.2887 H   0  0  0  0  0  0
  -22.3981  -11.9823   22.4681 H   0  0  0  0  0  0
  -21.0896  -13.1015   22.2322 H   0  0  0  0  0  0
  -24.6870  -15.8617   20.5394 H   0  0  0  0  0  0
  -26.3014  -15.6091   20.1169 H   0  0  0  0  0  0
  -26.7135  -32.5482   23.1183 H   0  0  0  0  0  0
  -25.0136  -33.9794   25.0526 H   0  0  0  0  0  0
  -22.6850  -31.3061   21.4204 H   0  0  0  0  0  0
  -23.3754  -35.9595   23.3372 H   0  0  0  0  0  0
  -24.3578  -36.8831   22.2052 H   0  0  0  0  0  0
  -23.7146  -37.6480   23.6615 H   0  0  0  0  0  0
  -26.0633  -31.6007   20.6034 H   0  0  0  0  0  0
  -26.8081  -30.8671   21.9948 H   0  0  0  0  0  0
  -28.1012  -29.1496   21.1048 H   0  0  0  0  0  0
  -26.0322  -25.9373   19.0807 H   0  0  0  0  0  0
  -23.9661  -27.2479   19.1003 H   0  0  0  0  0  0
  -23.6881  -30.5778   19.4083 H   0  0  0  0  0  0
  -22.7229  -29.2227   19.8913 H   0  0  0  0  0  0
  -25.1252  -36.2060   25.0844 H   0  0  0  0  0  0
  -20.9924  -28.3253   24.1461 H   0  0  0  0  0  0
  -20.5754  -26.2306   23.3595 H   0  0  0  0  0  0
  -21.6634  -26.7540   22.1141 H   0  0  0  0  0  0
  -19.6923  -25.6330   21.1240 H   0  0  0  0  0  0
  -19.6666  -27.3219   20.6735 H   0  0  0  0  0  0
  -17.4205  -26.6746   21.3999 H   0  0  0  0  0  0
  -18.0309  -26.0072   22.8992 H   0  0  0  0  0  0
  -19.7916  -30.7332   24.2223 H   0  0  0  0  0  0
  -17.4983  -31.6266   24.5207 H   0  0  0  0  0  0
  -15.5333  -30.2978   23.7674 H   0  0  0  0  0  0
  -15.8669  -28.0808   22.7088 H   0  0  0  0  0  0
  -24.5826  -30.7155   25.7675 H   0  0  0  0  0  0
  -24.8916  -32.2827   26.5014 H   0  0  0  0  0  0
  -25.7952  -30.8698   27.0158 H   0  0  0  0  0  0
  -26.2936  -29.6798   24.1258 H   0  0  0  0  0  0
  -27.4216  -29.7388   25.4620 H   0  0  0  0  0  0
  -27.8722  -30.4466   23.9296 H   0  0  0  0  0  0
  -27.2753  -33.3639   26.2122 H   0  0  0  0  0  0
  -28.3765  -32.7012   25.0172 H   0  0  0  0  0  0
  -28.0939  -31.8490   26.5241 H   0  0  0  0  0  0
  -28.2663  -38.0038   24.7528 H   0  0  0  0  0  0
  -28.1009  -36.2570   24.6356 H   0  0  0  0  0  0
  -27.2308  -37.1475   25.8912 H   0  0  0  0  0  0
  -20.9470  -29.8586   21.6751 H   0  0  0  0  0  0
  -26.0233  -38.2917   24.1375 H   0  0  0  0  0  0
  -27.5200  -19.0424   17.8316 H   0  0  0  0  0  0
  -29.5399  -15.3256   18.2917 H   0  0  0  0  0  0
  -27.3336  -23.1413   19.3751 H   0  0  0  0  0  0
  -29.4146  -24.5697   21.0963 H   0  0  0  0  0  0
  -29.3382  -19.0401   22.3892 H   0  0  0  0  0  0
  -29.9564  -17.4347   22.6014 H   0  0  0  0  0  0
  -28.2275  -17.7143   22.7301 H   0  0  0  0  0  0
  -27.1484  -22.1886   21.8044 H   0  0  0  0  0  0
  -28.8392  -22.5379   22.0267 H   0  0  0  0  0  0
  -27.9876  -25.4609   18.4899 H   0  0  0  0  0  0
  -29.6650  -25.7121   18.8589 H   0  0  0  0  0  0
  -25.7559  -19.4101   19.9810 H   0  0  0  0  0  0
  -25.9673  -21.0046   20.6035 H   0  0  0  0  0  0
  -30.5119  -15.9625   21.7547 H   0  0  0  0  0  0
  -29.4897  -20.7505   20.6628 H   0  0  0  0  0  0
  1 25  1  0  0  0
  1 30  2  0  0  0
  1 84  1  0  0  0
  2  3  1  0  0  0
  2 25  1  0  0  0
  2 87  1  0  0  0
  2 88  1  0  0  0
  3  4  1  0  0  0
  3 89  1  0  0  0
  3 90  1  0  0  0
  4  5  1  0  0  0
  4 91  1  0  0  0
  4 92  1  0  0  0
  5  6  1  0  0  0
  5 26  1  0  0  0
  5 93  1  0  0  0
  6 25  1  0  0  0
  6 94  1  0  0  0
  6 95  1  0  0  0
  7  8  2  0  0  0
  7 26  1  0  0  0
  7 29  1  0  0  0
  8  9  1  0  0  0
  8 22  1  0  0  0
  9 10  1  0  0  0
  9 27  2  0  0  0
 10 11  2  0  0  0
 10 15  1  0  0  0
 11 12  1  0  0  0
 11 96  1  0  0  0
 12 13  2  0  0  0
 12 97  1  0  0  0
 13 14  1  0  0  0
 13 31  1  0  0  0
 14 15  2  0  0  0
 14 98  1  0  0  0
 15 99  1  0  0  0
 16 17  2  0  0  0
 16 21  1  0  0  0
 16 31  1  0  0  0
 17 18  1  0  0  0
 17100  1  0  0  0
 18 19  2  0  0  0
 18101  1  0  0  0
 19 20  1  0  0  0
 19 24  1  0  0  0
 20 21  2  0  0  0
 20102  1  0  0  0
 21 23  1  0  0  0
 22 28  1  0  0  0
 22 32  2  0  0  0
 26 27  1  0  0  0
 28103  1  0  0  0
 28104  1  0  0  0
 29105  1  0  0  0
 29106  1  0  0  0
 33 34  1  0  0  0
 33 66  1  0  0  0
 33 70  2  0  0  0
 34 36  1  0  0  0
 34 59  1  0  0  0
 34107  1  0  0  0
 35 44  2  0  0  0
 35 45  1  0  0  0
 35 68  1  0  0  0
 36 56  1  0  0  0
 36108  1  0  0  0
 37 39  1  0  0  0
 37 47  1  0  0  0
 37 66  1  0  0  0
 37109  1  0  0  0
 38 43  2  0  0  0
 38 46  1  0  0  0
 38 47  1  0  0  0
 39 64  1  0  0  0
 39 67  2  0  0  0
 40 52  1  0  0  0
 40 53  2  0  0  0
 40 58  1  0  0  0
 41110  1  0  0  0
 41111  1  0  0  0
 41112  1  0  0  0
 41 48  1  0  0  0
 42 43  1  0  0  0
 42 66  1  0  0  0
 42113  1  0  0  0
 42114  1  0  0  0
 43 44  1  0  0  0
 44115  1  0  0  0
 45 46  2  0  0  0
 45116  1  0  0  0
 46117  1  0  0  0
 47118  1  0  0  0
 47119  1  0  0  0
 48 56  1  0  0  0
 48 65  1  0  0  0
 48120  1  0  0  0
 49 50  1  0  0  0
 49 53  1  0  0  0
 49 64  1  0  0  0
 49121  1  0  0  0
 50 51  1  0  0  0
 50122  1  0  0  0
 50123  1  0  0  0
 51 52  1  0  0  0
 51124  1  0  0  0
 51125  1  0  0  0
 52126  1  0  0  0
 52127  1  0  0  0
 53 54  1  0  0  0
 54 55  2  0  0  0
 54128  1  0  0  0
 55 57  1  0  0  0
 55129  1  0  0  0
 56 69  2  0  0  0
 57 58  2  0  0  0
 57130  1  0  0  0
 58131  1  0  0  0
 59 60  1  0  0  0
 59 61  1  0  0  0
 59 62  1  0  0  0
 60132  1  0  0  0
 60133  1  0  0  0
 60134  1  0  0  0
 61135  1  0  0  0
 61136  1  0  0  0
 61137  1  0  0  0
 62138  1  0  0  0
 62139  1  0  0  0
 62140  1  0  0  0
 63 65  1  0  0  0
 63141  1  0  0  0
 63142  1  0  0  0
 63143  1  0  0  0
 64144  1  0  0  0
 65145  1  0  0  0
 68 82  1  0  0  0
 71 73  2  0  0  0
 71 76  1  0  0  0
 71146  1  0  0  0
 72 75  1  0  0  0
 72 76  2  0  0  0
 72147  1  0  0  0
 73 74  1  0  0  0
 73 79  1  0  0  0
 74 75  2  0  0  0
 74 80  1  0  0  0
 75 84  1  0  0  0
 76 86  1  0  0  0
 77 78  2  0  0  0
 77 81  1  0  0  0
 77148  1  0  0  0
 78 82  1  0  0  0
 78149  1  0  0  0
 79 83  1  0  0  0
 79 85  2  0  0  0
 80150  1  0  0  0
 80151  1  0  0  0
 80152  1  0  0  0
 81 85  1  0  0  0
 81153  1  0  0  0
 81154  1  0  0  0
 82155  1  0  0  0
 82156  1  0  0  0
 83157  1  0  0  0
 83158  1  0  0  0
 84159  1  0  0  0
 85160  1  0  0  0
M  CHG  1  85   1
M  ISO  4   1 100  68 101  82 101  84 100
M  END
> <chiral flag>
0

> <version>
0

> <s_m_source_file>
/data/baiqing/PycharmProjects/Reinvent-master-3.2/result/LINK_invent/BTK/process_docking_weight1_custom_product_contain_oxygen_bond_distance_aromatic_linkinvent_7_9_3/rearranged_h_0050.sdf

> <i_m_source_file_index>
46

> <r_mmod_Potential_Energy-OPLS-2005>
-268.050842285156

> <r_mmod_Stretch_Energy-OPLS-2005>
37.4667320251465

> <r_mmod_Bend_Energy-OPLS-2005>
114.494911193848

> <r_mmod_Torsional_Energy-OPLS-2005>
254.338394165039

> <r_mmod_Improper_Torsional_Energy-OPLS-2005>
8.08320045471191

> <r_mmod_Van_der_Waal_Energy-OPLS-2005>
156.319915771484

> <r_mmod_Electrostatic_Energy-OPLS-2005>
-436.258972167969

> <r_mmod_Solvation_Energy-OPLS-2005>
-419.160614013672

> <b_mmod_Minimization_Converged-OPLS-2005>
0

> <r_mmod_RMS_Derivative-OPLS-2005>
6.34176921844482

$$$$
46
                    3D
 Structure written by MMmdl.
166174  0  0  1  0            999 V2000
  -30.6650  -14.4743   20.5876 C   0  0  0  0  0  0
  -30.4288  -12.3084   19.4333 C   0  0  0  0  0  0
  -29.5036  -12.5190   18.2149 C   0  0  0  0  0  0
  -28.0212  -12.3759   18.6165 C   0  0  0  0  0  0
  -27.6624  -13.2021   19.8823 C   0  0  2  0  0  0
  -28.6983  -12.9590   21.0054 C   0  0  0  0  0  0
  -25.2602  -13.8148   20.5673 C   0  0  0  0  0  0
  -24.1844  -13.0444   20.9162 C   0  0  0  0  0  0
  -24.6384  -11.6902   20.8716 C   0  0  0  0  0  0
  -23.9038  -10.4298   21.0395 C   0  0  0  0  0  0
  -24.3593   -9.4208   21.9180 C   0  0  0  0  0  0
  -23.6286   -8.2231   22.0752 C   0  0  0  0  0  0
  -22.4269   -8.0276   21.3544 C   0  0  0  0  0  0
  -21.9894   -9.0247   20.4639 C   0  0  0  0  0  0
  -22.7207  -10.2132   20.3051 C   0  0  0  0  0  0
  -21.6852   -6.0733   22.5285 C   0  0  0  0  0  0
  -21.4007   -6.5637   23.8215 C   0  0  0  0  0  0
  -21.3666   -5.6793   24.9174 C   0  0  0  0  0  0
  -21.6043   -4.3053   24.7227 C   0  0  0  0  0  0
  -21.8826   -3.8140   23.4348 C   0  0  0  0  0  0
  -21.9185   -4.6956   22.3401 C   0  0  0  0  0  0
  -22.7859  -13.5230   21.1831 C   0  0  0  0  0  0
  -22.1664   -4.2144   21.0977 F   0  0  0  0  0  0
  -21.5625   -3.4541   25.7738 F   0  0  0  0  0  0
  -30.0357  -13.2727   20.4733 N   0  0  0  0  0  0
  -26.3033  -12.9295   20.3360 N   0  0  0  0  0  0
  -25.9302  -11.6467   20.5735 N   0  0  0  0  0  0
  -22.0499  -12.8252   22.0397 N   0  0  0  0  0  0
  -25.4364  -15.1872   20.4130 N   0  0  0  0  0  0
  -31.7592  -14.7139   20.0679 O   0  0  0  0  0  0
  -21.6629   -6.8878   21.4250 O   0  0  0  0  0  0
  -22.3556  -14.5551   20.6678 O   0  0  0  0  0  0
  -24.6139  -31.8693   23.2091 C   0  0  0  0  0  0
  -25.9018  -32.4842   23.8410 C   0  0  1  0  0  0
  -27.2056  -27.4331   20.1271 C   0  0  0  0  0  0
  -25.5859  -33.8634   24.2332 N   0  0  0  0  0  0
  -23.4008  -30.4949   21.5487 C   0  0  2  0  0  0
  -24.8458  -28.9676   20.1065 C   0  0  0  0  0  0
  -22.7378  -29.4671   22.4941 C   0  0  0  0  0  0
  -18.0307  -28.1323   22.8530 C   0  0  0  0  0  0
  -24.1477  -36.7327   23.2638 C   0  0  0  0  0  0
  -25.9270  -30.8384   21.3608 C   0  0  0  0  0  0
  -26.0019  -29.4727   20.7164 C   0  0  0  0  0  0
  -27.1900  -28.7101   20.7298 C   0  0  0  0  0  0
  -26.0593  -26.9643   19.4621 C   0  0  0  0  0  0
  -24.8666  -27.7080   19.4809 C   0  0  0  0  0  0
  -23.6061  -29.8304   20.1624 C   0  0  0  0  0  0
  -25.4096  -36.3131   24.0350 C   0  0  1  0  0  0
  -20.5884  -28.3648   23.1333 C   0  0  2  0  0  0
  -20.6801  -26.9375   22.5461 C   0  0  0  0  0  0
  -19.5817  -26.6410   21.5211 C   0  0  0  0  0  0
  -18.1992  -26.7881   22.1649 C   0  0  0  0  0  0
  -19.1540  -28.8811   23.2919 C   0  0  0  0  0  0
  -18.9450  -30.1444   23.8882 C   0  0  0  0  0  0
  -17.6443  -30.6573   24.0502 C   0  0  0  0  0  0
  -25.9023  -34.9482   23.5133 C   0  0  0  0  0  0
  -16.5343  -29.9035   23.6285 C   0  0  0  0  0  0
  -16.7286  -28.6420   23.0373 C   0  0  0  0  0  0
  -26.4443  -31.6616   25.0725 C   0  0  0  0  0  0
  -25.3706  -31.3713   26.1481 C   0  0  0  0  0  0
  -27.0259  -30.3065   24.6058 C   0  0  0  0  0  0
  -27.6034  -32.4311   25.7490 C   0  0  0  0  0  0
  -27.5578  -37.1817   24.8464 C   0  0  0  0  0  0
  -21.4093  -29.3038   22.3707 N   0  0  0  0  0  0
  -26.4297  -37.3802   23.9407 N   0  0  0  0  0  0
  -24.6665  -31.0784   22.1004 N   0  0  0  0  0  0
  -23.4174  -28.8189   23.2955 O   0  0  0  0  0  0
  -28.2906  -26.5982   20.1925 O   0  0  0  0  0  0
  -26.5587  -34.8946   22.4697 O   0  0  0  0  0  0
  -23.5322  -32.1443   23.7464 O   0  0  0  0  0  0
  -28.4521  -17.8026   18.7489 C   0  0  0  0  0  0
  -29.1368  -16.6911   19.2671 C   0  0  0  0  0  0
  -29.1441  -17.7496   21.4521 C   0  0  0  0  0  0
  -28.0867  -18.8929   19.5672 C   0  0  0  0  0  0
  -28.4821  -18.9002   20.9396 C   0  0  0  0  0  0
  -29.4588  -16.6313   20.6403 C   0  0  0  0  0  0
  -28.2882  -22.4752   21.3023 C   0  0  0  0  0  0
  -27.2472  -19.9839   18.9178 C   0  0  0  0  0  0
  -28.2073  -24.5280   23.4512 C   0  0  0  0  0  0
  -26.2039  -25.4950   22.4602 C   0  0  0  0  0  0
  -28.2081  -20.0364   21.9510 C   0  0  0  0  0  0
  -27.4153  -23.7375   21.1018 C   0  0  0  0  0  0
  -28.5655  -26.0562   21.4994 C   0  0  0  0  0  0
  -27.6073  -24.9492   22.0880 C   0  0  0  0  0  0
  -29.9674  -15.4319   21.2317 N   0  0  0  0  0  0
  -27.6385  -21.3137   21.4991 N   0  0  0  0  0  0
  -29.5162  -22.5558   21.2917 O   0  0  0  0  0  0
  -31.4754  -12.4176   19.1409 H   0  0  0  0  0  0
  -30.3342  -11.2908   19.8130 H   0  0  0  0  0  0
  -29.7499  -11.8081   17.4251 H   0  0  0  0  0  0
  -29.6750  -13.5115   17.7951 H   0  0  0  0  0  0
  -27.8291  -11.3178   18.7980 H   0  0  0  0  0  0
  -27.3758  -12.6647   17.7845 H   0  0  0  0  0  0
  -27.7106  -14.2528   19.5975 H   0  0  0  0  0  0
  -28.6683  -11.9151   21.3243 H   0  0  0  0  0  0
  -28.4457  -13.5357   21.8948 H   0  0  0  0  0  0
  -25.2751   -9.5687   22.4742 H   0  0  0  0  0  0
  -23.9994   -7.4636   22.7478 H   0  0  0  0  0  0
  -21.0809   -8.8763   19.8956 H   0  0  0  0  0  0
  -22.3678  -10.9655   19.6154 H   0  0  0  0  0  0
  -21.2009   -7.6147   23.9722 H   0  0  0  0  0  0
  -21.1481   -6.0517   25.9082 H   0  0  0  0  0  0
  -22.0597   -2.7610   23.2846 H   0  0  0  0  0  0
  -22.4096  -11.9888   22.4759 H   0  0  0  0  0  0
  -21.1123  -13.1303   22.2605 H   0  0  0  0  0  0
  -24.6772  -15.8482   20.5324 H   0  0  0  0  0  0
  -26.3003  -15.6267   20.1220 H   0  0  0  0  0  0
  -26.7078  -32.5578   23.1183 H   0  0  0  0  0  0
  -25.0036  -33.9802   25.0502 H   0  0  0  0  0  0
  -22.6936  -31.3144   21.4147 H   0  0  0  0  0  0
  -23.3743  -35.9659   23.3303 H   0  0  0  0  0  0
  -24.3574  -36.8918   22.2050 H   0  0  0  0  0  0
  -23.7239  -37.6538   23.6637 H   0  0  0  0  0  0
  -26.0296  -31.5978   20.5832 H   0  0  0  0  0  0
  -26.8250  -30.9024   21.9649 H   0  0  0  0  0  0
  -28.0790  -29.0785   21.2202 H   0  0  0  0  0  0
  -26.0714  -25.9879   18.9992 H   0  0  0  0  0  0
  -23.9751  -27.3016   19.0252 H   0  0  0  0  0  0
  -23.7154  -30.6128   19.4126 H   0  0  0  0  0  0
  -22.7310  -29.2498   19.8614 H   0  0  0  0  0  0
  -25.1270  -36.2001   25.0850 H   0  0  0  0  0  0
  -21.0026  -28.3247   24.1433 H   0  0  0  0  0  0
  -20.5556  -26.2248   23.3646 H   0  0  0  0  0  0
  -21.6692  -26.7345   22.1342 H   0  0  0  0  0  0
  -19.6969  -25.6353   21.1165 H   0  0  0  0  0  0
  -19.6754  -27.3271   20.6780 H   0  0  0  0  0  0
  -17.4241  -26.6595   21.4082 H   0  0  0  0  0  0
  -18.0473  -26.0012   22.9040 H   0  0  0  0  0  0
  -19.7910  -30.7300   24.2205 H   0  0  0  0  0  0
  -17.4970  -31.6310   24.4997 H   0  0  0  0  0  0
  -15.5326  -30.2932   23.7567 H   0  0  0  0  0  0
  -15.8708  -28.0714   22.7100 H   0  0  0  0  0  0
  -24.5903  -30.7026   25.7812 H   0  0  0  0  0  0
  -24.8900  -32.2876   26.4919 H   0  0  0  0  0  0
  -25.8092  -30.8909   27.0241 H   0  0  0  0  0  0
  -26.2790  -29.6856   24.1098 H   0  0  0  0  0  0
  -27.4018  -29.7257   25.4485 H   0  0  0  0  0  0
  -27.8627  -30.4386   23.9198 H   0  0  0  0  0  0
  -27.2666  -33.3603   26.2103 H   0  0  0  0  0  0
  -28.3851  -32.6873   25.0319 H   0  0  0  0  0  0
  -28.0698  -31.8413   26.5384 H   0  0  0  0  0  0
  -28.2607  -38.0103   24.7507 H   0  0  0  0  0  0
  -28.1066  -36.2634   24.6300 H   0  0  0  0  0  0
  -27.2296  -37.1484   25.8870 H   0  0  0  0  0  0
  -20.9167  -29.8837   21.7057 H   0  0  0  0  0  0
  -26.0184  -38.2882   24.1420 H   0  0  0  0  0  0
  -28.1763  -17.7953   17.7027 H   0  0  0  0  0  0
  -29.3504  -15.8656   18.6020 H   0  0  0  0  0  0
  -29.3949  -17.7214   22.5037 H   0  0  0  0  0  0
  -26.9200  -19.6891   17.9208 H   0  0  0  0  0  0
  -27.8128  -20.9090   18.8154 H   0  0  0  0  0  0
  -26.3416  -20.1718   19.4958 H   0  0  0  0  0  0
  -27.6489  -23.7096   23.9057 H   0  0  0  0  0  0
  -28.2001  -25.3542   24.1641 H   0  0  0  0  0  0
  -29.2443  -24.2088   23.3538 H   0  0  0  0  0  0
  -25.5679  -25.6630   21.5966 H   0  0  0  0  0  0
  -26.2588  -26.4288   23.0216 H   0  0  0  0  0  0
  -25.6545  -24.7833   23.0824 H   0  0  0  0  0  0
  -29.1281  -20.2353   22.5048 H   0  0  0  0  0  0
  -27.5143  -19.6353   22.6900 H   0  0  0  0  0  0
  -26.3735  -23.4161   21.1222 H   0  0  0  0  0  0
  -27.5630  -24.0862   20.0785 H   0  0  0  0  0  0
  -28.6583  -26.8748   22.2156 H   0  0  0  0  0  0
  -29.5707  -25.6376   21.4340 H   0  0  0  0  0  0
  -29.3722  -15.0674   21.9610 H   0  0  0  0  0  0
  -26.6293  -21.3531   21.4588 H   0  0  0  0  0  0
  1 25  1  0  0  0
  1 30  2  0  0  0
  1 85  1  0  0  0
  2  3  1  0  0  0
  2 25  1  0  0  0
  2 88  1  0  0  0
  2 89  1  0  0  0
  3  4  1  0  0  0
  3 90  1  0  0  0
  3 91  1  0  0  0
  4  5  1  0  0  0
  4 92  1  0  0  0
  4 93  1  0  0  0
  5  6  1  0  0  0
  5 26  1  0  0  0
  5 94  1  0  0  0
  6 25  1  0  0  0
  6 95  1  0  0  0
  6 96  1  0  0  0
  7  8  2  0  0  0
  7 26  1  0  0  0
  7 29  1  0  0  0
  8  9  1  0  0  0
  8 22  1  0  0  0
  9 10  1  0  0  0
  9 27  2  0  0  0
 10 11  2  0  0  0
 10 15  1  0  0  0
 11 12  1  0  0  0
 11 97  1  0  0  0
 12 13  2  0  0  0
 12 98  1  0  0  0
 13 14  1  0  0  0
 13 31  1  0  0  0
 14 15  2  0  0  0
 14 99  1  0  0  0
 15100  1  0  0  0
 16 17  2  0  0  0
 16 21  1  0  0  0
 16 31  1  0  0  0
 17 18  1  0  0  0
 17101  1  0  0  0
 18 19  2  0  0  0
 18102  1  0  0  0
 19 20  1  0  0  0
 19 24  1  0  0  0
 20 21  2  0  0  0
 20103  1  0  0  0
 21 23  1  0  0  0
 22 28  1  0  0  0
 22 32  2  0  0  0
 26 27  1  0  0  0
 28104  1  0  0  0
 28105  1  0  0  0
 29106  1  0  0  0
 29107  1  0  0  0
 33 34  1  0  0  0
 33 66  1  0  0  0
 33 70  2  0  0  0
 34 36  1  0  0  0
 34 59  1  0  0  0
 34108  1  0  0  0
 35 44  2  0  0  0
 35 45  1  0  0  0
 35 68  1  0  0  0
 36 56  1  0  0  0
 36109  1  0  0  0
 37 39  1  0  0  0
 37 47  1  0  0  0
 37 66  1  0  0  0
 37110  1  0  0  0
 38 43  2  0  0  0
 38 46  1  0  0  0
 38 47  1  0  0  0
 39 64  1  0  0  0
 39 67  2  0  0  0
 40 52  1  0  0  0
 40 53  2  0  0  0
 40 58  1  0  0  0
 41111  1  0  0  0
 41112  1  0  0  0
 41113  1  0  0  0
 41 48  1  0  0  0
 42 43  1  0  0  0
 42 66  1  0  0  0
 42114  1  0  0  0
 42115  1  0  0  0
 43 44  1  0  0  0
 44116  1  0  0  0
 45 46  2  0  0  0
 45117  1  0  0  0
 46118  1  0  0  0
 47119  1  0  0  0
 47120  1  0  0  0
 48 56  1  0  0  0
 48 65  1  0  0  0
 48121  1  0  0  0
 49 50  1  0  0  0
 49 53  1  0  0  0
 49 64  1  0  0  0
 49122  1  0  0  0
 50 51  1  0  0  0
 50123  1  0  0  0
 50124  1  0  0  0
 51 52  1  0  0  0
 51125  1  0  0  0
 51126  1  0  0  0
 52127  1  0  0  0
 52128  1  0  0  0
 53 54  1  0  0  0
 54 55  2  0  0  0
 54129  1  0  0  0
 55 57  1  0  0  0
 55130  1  0  0  0
 56 69  2  0  0  0
 57 58  2  0  0  0
 57131  1  0  0  0
 58132  1  0  0  0
 59 60  1  0  0  0
 59 61  1  0  0  0
 59 62  1  0  0  0
 60133  1  0  0  0
 60134  1  0  0  0
 60135  1  0  0  0
 61136  1  0  0  0
 61137  1  0  0  0
 61138  1  0  0  0
 62139  1  0  0  0
 62140  1  0  0  0
 62141  1  0  0  0
 63 65  1  0  0  0
 63142  1  0  0  0
 63143  1  0  0  0
 63144  1  0  0  0
 64145  1  0  0  0
 65146  1  0  0  0
 68 83  1  0  0  0
 71 72  2  0  0  0
 71 74  1  0  0  0
 71147  1  0  0  0
 72 76  1  0  0  0
 72148  1  0  0  0
 73 75  1  0  0  0
 73 76  2  0  0  0
 73149  1  0  0  0
 74 75  2  0  0  0
 74 78  1  0  0  0
 75 81  1  0  0  0
 76 85  1  0  0  0
 77 82  1  0  0  0
 77 86  1  0  0  0
 77 87  2  0  0  0
 78150  1  0  0  0
 78151  1  0  0  0
 78152  1  0  0  0
 79153  1  0  0  0
 79154  1  0  0  0
 79155  1  0  0  0
 79 84  1  0  0  0
 80 84  1  0  0  0
 80156  1  0  0  0
 80157  1  0  0  0
 80158  1  0  0  0
 81 86  1  0  0  0
 81159  1  0  0  0
 81160  1  0  0  0
 82 84  1  0  0  0
 82161  1  0  0  0
 82162  1  0  0  0
 83 84  1  0  0  0
 83163  1  0  0  0
 83164  1  0  0  0
 85165  1  0  0  0
 86166  1  0  0  0
M  ISO  4   1 100  68 101  83 101  85 100
M  END
> <chiral flag>
0

> <version>
0

> <s_m_source_file>
/data/baiqing/PycharmProjects/Reinvent-master-3.2/result/LINK_invent/BTK/process_docking_weight1_custom_product_contain_oxygen_bond_distance_aromatic_linkinvent_7_9_3/rearranged_h_0050.sdf

> <i_m_source_file_index>
47

> <r_mmod_Potential_Energy-OPLS-2005>
-53.1582832336426

> <r_mmod_Stretch_Energy-OPLS-2005>
44.869686126709

> <r_mmod_Bend_Energy-OPLS-2005>
128.018310546875

> <r_mmod_Torsional_Energy-OPLS-2005>
262.317535400391

> <r_mmod_Improper_Torsional_Energy-OPLS-2005>
6.20111989974976

> <r_mmod_Van_der_Waal_Energy-OPLS-2005>
150.228973388672

> <r_mmod_Electrostatic_Energy-OPLS-2005>
-429.842071533203

> <r_mmod_Solvation_Energy-OPLS-2005>
-232.904586791992

> <b_mmod_Minimization_Converged-OPLS-2005>
0

> <r_mmod_RMS_Derivative-OPLS-2005>
4.24758338928223

$$$$
47
                    3D
 Structure written by MMmdl.
154162  0  0  1  0            999 V2000
  -30.7249  -14.4759   20.5726 C   0  0  0  0  0  0
  -30.4145  -12.3115   19.4256 C   0  0  0  0  0  0
  -29.4911  -12.4991   18.2062 C   0  0  0  0  0  0
  -28.0132  -12.3622   18.6199 C   0  0  0  0  0  0
  -27.6577  -13.2118   19.8695 C   0  0  2  0  0  0
  -28.7011  -13.0209   20.9936 C   0  0  0  0  0  0
  -25.2574  -13.8174   20.5682 C   0  0  0  0  0  0
  -24.1835  -13.0443   20.9185 C   0  0  0  0  0  0
  -24.6395  -11.6910   20.8736 C   0  0  0  0  0  0
  -23.9064  -10.4294   21.0409 C   0  0  0  0  0  0
  -24.3616   -9.4209   21.9188 C   0  0  0  0  0  0
  -23.6290   -8.2244   22.0755 C   0  0  0  0  0  0
  -22.4273   -8.0285   21.3545 C   0  0  0  0  0  0
  -21.9914   -9.0257   20.4644 C   0  0  0  0  0  0
  -22.7239  -10.2137   20.3055 C   0  0  0  0  0  0
  -21.6851   -6.0739   22.5279 C   0  0  0  0  0  0
  -21.4012   -6.5642   23.8213 C   0  0  0  0  0  0
  -21.3658   -5.6794   24.9175 C   0  0  0  0  0  0
  -21.6044   -4.3058   24.7225 C   0  0  0  0  0  0
  -21.8820   -3.8151   23.4346 C   0  0  0  0  0  0
  -21.9192   -4.6967   22.3402 C   0  0  0  0  0  0
  -22.7860  -13.5236   21.1854 C   0  0  0  0  0  0
  -22.1662   -4.2152   21.0979 F   0  0  0  0  0  0
  -21.5629   -3.4542   25.7737 F   0  0  0  0  0  0
  -30.0280  -13.3148   20.4309 N   0  0  0  0  0  0
  -26.3007  -12.9352   20.3352 N   0  0  0  0  0  0
  -25.9321  -11.6507   20.5765 N   0  0  0  0  0  0
  -22.0507  -12.8218   22.0405 N   0  0  0  0  0  0
  -25.4294  -15.1894   20.4081 N   0  0  0  0  0  0
  -31.8599  -14.6200   20.1097 O   0  0  0  0  0  0
  -21.6638   -6.8881   21.4241 O   0  0  0  0  0  0
  -22.3544  -14.5547   20.6708 O   0  0  0  0  0  0
  -24.6175  -31.8680   23.2113 C   0  0  0  0  0  0
  -25.9064  -32.4821   23.8408 C   0  0  1  0  0  0
  -27.2230  -27.4091   20.0931 C   0  0  0  0  0  0
  -25.5913  -33.8621   24.2336 N   0  0  0  0  0  0
  -23.4052  -30.4949   21.5532 C   0  0  2  0  0  0
  -24.8485  -28.9664   20.1110 C   0  0  0  0  0  0
  -22.7424  -29.4664   22.4984 C   0  0  0  0  0  0
  -18.0275  -28.1380   22.8497 C   0  0  0  0  0  0
  -24.1487  -36.7309   23.2641 C   0  0  0  0  0  0
  -25.9393  -30.8250   21.3705 C   0  0  0  0  0  0
  -26.0133  -29.4610   20.7110 C   0  0  0  0  0  0
  -27.2031  -28.6908   20.6988 C   0  0  0  0  0  0
  -26.0372  -26.9509   19.4672 C   0  0  0  0  0  0
  -24.8574  -27.7120   19.4846 C   0  0  0  0  0  0
  -23.6127  -29.8351   20.1657 C   0  0  0  0  0  0
  -25.4109  -36.3112   24.0339 C   0  0  1  0  0  0
  -20.5870  -28.3676   23.1310 C   0  0  2  0  0  0
  -20.6766  -26.9410   22.5414 C   0  0  0  0  0  0
  -19.5738  -26.6385   21.5215 C   0  0  0  0  0  0
  -18.1919  -26.7927   22.1626 C   0  0  0  0  0  0
  -19.1527  -28.8845   23.2898 C   0  0  0  0  0  0
  -18.9452  -30.1452   23.8905 C   0  0  0  0  0  0
  -17.6455  -30.6589   24.0564 C   0  0  0  0  0  0
  -25.9038  -34.9476   23.5132 C   0  0  0  0  0  0
  -16.5345  -29.9089   23.6330 C   0  0  0  0  0  0
  -16.7263  -28.6504   23.0355 C   0  0  0  0  0  0
  -26.4481  -31.6598   25.0740 C   0  0  0  0  0  0
  -25.3737  -31.3685   26.1473 C   0  0  0  0  0  0
  -27.0334  -30.3048   24.6131 C   0  0  0  0  0  0
  -27.6052  -32.4324   25.7505 C   0  0  0  0  0  0
  -27.5582  -37.1808   24.8468 C   0  0  0  0  0  0
  -21.4151  -29.3041   22.3718 N   0  0  0  0  0  0
  -26.4298  -37.3797   23.9409 N   0  0  0  0  0  0
  -24.6726  -31.0766   22.1027 N   0  0  0  0  0  0
  -23.4190  -28.8195   23.3023 O   0  0  0  0  0  0
  -28.3698  -26.6268   20.1398 O   0  0  0  0  0  0
  -26.5596  -34.8927   22.4690 O   0  0  0  0  0  0
  -23.5360  -32.1444   23.7492 O   0  0  0  0  0  0
  -32.3618  -18.2138   22.3260 C   0  0  0  0  0  0
  -31.6787  -19.3798   21.9369 C   0  0  0  0  0  0
  -31.8242  -16.9463   22.0475 C   0  0  0  0  0  0
  -29.8919  -18.0102   21.0063 C   0  0  0  0  0  0
  -30.4306  -19.3036   21.2693 C   0  0  0  0  0  0
  -30.5904  -16.8247   21.3706 C   0  0  0  0  0  0
  -29.9674  -21.7907   20.9767 C   0  0  0  0  0  0
  -28.9618  -22.7790   20.3497 C   0  0  0  0  0  0
  -29.2974  -24.2959   20.5163 C   0  0  0  0  0  0
  -28.1820  -25.2051   19.9495 C   0  0  0  0  0  0
  -29.6984  -20.4679   20.8360 N   0  0  0  0  0  0
  -30.0502  -15.5250   21.0947 N   0  0  0  0  0  0
  -30.9474  -22.2404   21.5735 O   0  0  0  0  0  0
  -31.4601  -12.3951   19.1240 H   0  0  0  0  0  0
  -30.3055  -11.3077   19.8391 H   0  0  0  0  0  0
  -29.7316  -11.7660   17.4350 H   0  0  0  0  0  0
  -29.6607  -13.4807   17.7602 H   0  0  0  0  0  0
  -27.8242  -11.3075   18.8235 H   0  0  0  0  0  0
  -27.3627  -12.6302   17.7866 H   0  0  0  0  0  0
  -27.6938  -14.2556   19.5566 H   0  0  0  0  0  0
  -28.6796  -11.9950   21.3645 H   0  0  0  0  0  0
  -28.4660  -13.6492   21.8540 H   0  0  0  0  0  0
  -25.2761   -9.5687   22.4761 H   0  0  0  0  0  0
  -24.0002   -7.4638   22.7476 H   0  0  0  0  0  0
  -21.0849   -8.8774   19.8947 H   0  0  0  0  0  0
  -22.3701  -10.9676   19.6161 H   0  0  0  0  0  0
  -21.2005   -7.6151   23.9716 H   0  0  0  0  0  0
  -21.1479   -6.0526   25.9077 H   0  0  0  0  0  0
  -22.0601   -2.7614   23.2844 H   0  0  0  0  0  0
  -22.4124  -11.9861   22.4760 H   0  0  0  0  0  0
  -21.1129  -13.1243   22.2632 H   0  0  0  0  0  0
  -24.6633  -15.8459   20.5134 H   0  0  0  0  0  0
  -26.2799  -15.6257   20.0751 H   0  0  0  0  0  0
  -26.7130  -32.5527   23.1167 H   0  0  0  0  0  0
  -25.0075  -33.9782   25.0487 H   0  0  0  0  0  0
  -22.6944  -31.3130   21.4179 H   0  0  0  0  0  0
  -23.3758  -35.9633   23.3305 H   0  0  0  0  0  0
  -24.3574  -36.8926   22.2053 H   0  0  0  0  0  0
  -23.7230  -37.6510   23.6655 H   0  0  0  0  0  0
  -26.0600  -31.5943   20.6063 H   0  0  0  0  0  0
  -26.8241  -30.8712   21.9935 H   0  0  0  0  0  0
  -28.0986  -29.0652   21.1752 H   0  0  0  0  0  0
  -25.9925  -25.9991   18.9587 H   0  0  0  0  0  0
  -23.9649  -27.3288   19.0090 H   0  0  0  0  0  0
  -23.7214  -30.6138   19.4097 H   0  0  0  0  0  0
  -22.7348  -29.2583   19.8690 H   0  0  0  0  0  0
  -25.1284  -36.1980   25.0833 H   0  0  0  0  0  0
  -20.9961  -28.3245   24.1430 H   0  0  0  0  0  0
  -20.5684  -26.2279   23.3602 H   0  0  0  0  0  0
  -21.6634  -26.7459   22.1197 H   0  0  0  0  0  0
  -19.6900  -25.6299   21.1235 H   0  0  0  0  0  0
  -19.6675  -27.3198   20.6749 H   0  0  0  0  0  0
  -17.4193  -26.6696   21.4021 H   0  0  0  0  0  0
  -18.0304  -26.0064   22.9015 H   0  0  0  0  0  0
  -19.7930  -30.7267   24.2272 H   0  0  0  0  0  0
  -17.5013  -31.6269   24.5168 H   0  0  0  0  0  0
  -15.5345  -30.2993   23.7650 H   0  0  0  0  0  0
  -15.8665  -28.0822   22.7066 H   0  0  0  0  0  0
  -24.5923  -30.7027   25.7791 H   0  0  0  0  0  0
  -24.8910  -32.2829   26.4934 H   0  0  0  0  0  0
  -25.8086  -30.8839   27.0225 H   0  0  0  0  0  0
  -26.2896  -29.6789   24.1192 H   0  0  0  0  0  0
  -27.4118  -29.7302   25.4596 H   0  0  0  0  0  0
  -27.8719  -30.4377   23.9290 H   0  0  0  0  0  0
  -27.2672  -33.3617   26.2105 H   0  0  0  0  0  0
  -28.3848  -32.6898   25.0322 H   0  0  0  0  0  0
  -28.0738  -31.8438   26.5402 H   0  0  0  0  0  0
  -28.2601  -38.0107   24.7534 H   0  0  0  0  0  0
  -28.1082  -36.2640   24.6284 H   0  0  0  0  0  0
  -27.2295  -37.1449   25.8870 H   0  0  0  0  0  0
  -20.9308  -29.8772   21.6950 H   0  0  0  0  0  0
  -26.0191  -38.2877   24.1413 H   0  0  0  0  0  0
  -33.3101  -18.2927   22.8387 H   0  0  0  0  0  0
  -32.1516  -20.3206   22.1691 H   0  0  0  0  0  0
  -32.3733  -16.0678   22.3580 H   0  0  0  0  0  0
  -28.9424  -17.9244   20.4971 H   0  0  0  0  0  0
  -27.9860  -22.5773   20.7934 H   0  0  0  0  0  0
  -28.8721  -22.5442   19.2886 H   0  0  0  0  0  0
  -30.2427  -24.5241   20.0228 H   0  0  0  0  0  0
  -29.4366  -24.5237   21.5737 H   0  0  0  0  0  0
  -27.2592  -24.8875   20.4387 H   0  0  0  0  0  0
  -28.0679  -25.0057   18.8828 H   0  0  0  0  0  0
  -28.8428  -20.2730   20.3335 H   0  0  0  0  0  0
  -29.0649  -15.3863   21.2601 H   0  0  0  0  0  0
  1 25  1  0  0  0
  1 30  2  0  0  0
  1 82  1  0  0  0
  2  3  1  0  0  0
  2 25  1  0  0  0
  2 84  1  0  0  0
  2 85  1  0  0  0
  3  4  1  0  0  0
  3 86  1  0  0  0
  3 87  1  0  0  0
  4  5  1  0  0  0
  4 88  1  0  0  0
  4 89  1  0  0  0
  5  6  1  0  0  0
  5 26  1  0  0  0
  5 90  1  0  0  0
  6 25  1  0  0  0
  6 91  1  0  0  0
  6 92  1  0  0  0
  7  8  2  0  0  0
  7 26  1  0  0  0
  7 29  1  0  0  0
  8  9  1  0  0  0
  8 22  1  0  0  0
  9 10  1  0  0  0
  9 27  2  0  0  0
 10 11  2  0  0  0
 10 15  1  0  0  0
 11 12  1  0  0  0
 11 93  1  0  0  0
 12 13  2  0  0  0
 12 94  1  0  0  0
 13 14  1  0  0  0
 13 31  1  0  0  0
 14 15  2  0  0  0
 14 95  1  0  0  0
 15 96  1  0  0  0
 16 17  2  0  0  0
 16 21  1  0  0  0
 16 31  1  0  0  0
 17 18  1  0  0  0
 17 97  1  0  0  0
 18 19  2  0  0  0
 18 98  1  0  0  0
 19 20  1  0  0  0
 19 24  1  0  0  0
 20 21  2  0  0  0
 20 99  1  0  0  0
 21 23  1  0  0  0
 22 28  1  0  0  0
 22 32  2  0  0  0
 26 27  1  0  0  0
 28100  1  0  0  0
 28101  1  0  0  0
 29102  1  0  0  0
 29103  1  0  0  0
 33 34  1  0  0  0
 33 66  1  0  0  0
 33 70  2  0  0  0
 34 36  1  0  0  0
 34 59  1  0  0  0
 34104  1  0  0  0
 35 44  2  0  0  0
 35 45  1  0  0  0
 35 68  1  0  0  0
 36 56  1  0  0  0
 36105  1  0  0  0
 37 39  1  0  0  0
 37 47  1  0  0  0
 37 66  1  0  0  0
 37106  1  0  0  0
 38 43  2  0  0  0
 38 46  1  0  0  0
 38 47  1  0  0  0
 39 64  1  0  0  0
 39 67  2  0  0  0
 40 52  1  0  0  0
 40 53  2  0  0  0
 40 58  1  0  0  0
 41107  1  0  0  0
 41108  1  0  0  0
 41109  1  0  0  0
 41 48  1  0  0  0
 42 43  1  0  0  0
 42 66  1  0  0  0
 42110  1  0  0  0
 42111  1  0  0  0
 43 44  1  0  0  0
 44112  1  0  0  0
 45 46  2  0  0  0
 45113  1  0  0  0
 46114  1  0  0  0
 47115  1  0  0  0
 47116  1  0  0  0
 48 56  1  0  0  0
 48 65  1  0  0  0
 48117  1  0  0  0
 49 50  1  0  0  0
 49 53  1  0  0  0
 49 64  1  0  0  0
 49118  1  0  0  0
 50 51  1  0  0  0
 50119  1  0  0  0
 50120  1  0  0  0
 51 52  1  0  0  0
 51121  1  0  0  0
 51122  1  0  0  0
 52123  1  0  0  0
 52124  1  0  0  0
 53 54  1  0  0  0
 54 55  2  0  0  0
 54125  1  0  0  0
 55 57  1  0  0  0
 55126  1  0  0  0
 56 69  2  0  0  0
 57 58  2  0  0  0
 57127  1  0  0  0
 58128  1  0  0  0
 59 60  1  0  0  0
 59 61  1  0  0  0
 59 62  1  0  0  0
 60129  1  0  0  0
 60130  1  0  0  0
 60131  1  0  0  0
 61132  1  0  0  0
 61133  1  0  0  0
 61134  1  0  0  0
 62135  1  0  0  0
 62136  1  0  0  0
 62137  1  0  0  0
 63 65  1  0  0  0
 63138  1  0  0  0
 63139  1  0  0  0
 63140  1  0  0  0
 64141  1  0  0  0
 65142  1  0  0  0
 68 80  1  0  0  0
 71 72  2  0  0  0
 71 73  1  0  0  0
 71143  1  0  0  0
 72 75  1  0  0  0
 72144  1  0  0  0
 73 76  2  0  0  0
 73145  1  0  0  0
 74 75  2  0  0  0
 74 76  1  0  0  0
 74146  1  0  0  0
 75 81  1  0  0  0
 76 82  1  0  0  0
 77 78  1  0  0  0
 77 81  1  0  0  0
 77 83  2  0  0  0
 78 79  1  0  0  0
 78147  1  0  0  0
 78148  1  0  0  0
 79 80  1  0  0  0
 79149  1  0  0  0
 79150  1  0  0  0
 80151  1  0  0  0
 80152  1  0  0  0
 81153  1  0  0  0
 82154  1  0  0  0
M  ISO  4   1 100  68 101  80 101  82 100
M  END
> <chiral flag>
0

> <version>
0

> <s_m_source_file>
/data/baiqing/PycharmProjects/Reinvent-master-3.2/result/LINK_invent/BTK/process_docking_weight1_custom_product_contain_oxygen_bond_distance_aromatic_linkinvent_7_9_3/rearranged_h_0050.sdf

> <i_m_source_file_index>
48

> <r_mmod_Potential_Energy-OPLS-2005>
-82.9036636352539

> <r_mmod_Stretch_Energy-OPLS-2005>
43.5146064758301

> <r_mmod_Bend_Energy-OPLS-2005>
102.434417724609

> <r_mmod_Torsional_Energy-OPLS-2005>
222.946380615234

> <r_mmod_Improper_Torsional_Energy-OPLS-2005>
3.56133818626404

> <r_mmod_Van_der_Waal_Energy-OPLS-2005>
167.015167236328

> <r_mmod_Electrostatic_Energy-OPLS-2005>
-401.277069091797

> <r_mmod_Solvation_Energy-OPLS-2005>
-238.666366577148

> <b_mmod_Minimization_Converged-OPLS-2005>
0

> <r_mmod_RMS_Derivative-OPLS-2005>
0.538797676563263

$$$$
48
                    3D
 Structure written by MMmdl.
161170  0  0  1  0            999 V2000
  -30.5187  -14.8081   20.5017 C   0  0  0  0  0  0
  -30.4682  -12.5131   19.4484 C   0  0  0  0  0  0
  -29.5200  -12.5256   18.2240 C   0  0  0  0  0  0
  -28.0431  -12.3322   18.6389 C   0  0  0  0  0  0
  -27.6449  -13.2148   19.8499 C   0  0  2  0  0  0
  -28.7009  -13.0931   20.9690 C   0  0  0  0  0  0
  -25.2494  -13.8139   20.5573 C   0  0  0  0  0  0
  -24.1797  -13.0417   20.9181 C   0  0  0  0  0  0
  -24.6385  -11.6896   20.8759 C   0  0  0  0  0  0
  -23.9057  -10.4285   21.0426 C   0  0  0  0  0  0
  -24.3609   -9.4202   21.9202 C   0  0  0  0  0  0
  -23.6282   -8.2237   22.0768 C   0  0  0  0  0  0
  -22.4266   -8.0283   21.3552 C   0  0  0  0  0  0
  -21.9898   -9.0259   20.4655 C   0  0  0  0  0  0
  -22.7233  -10.2137   20.3069 C   0  0  0  0  0  0
  -21.6847   -6.0730   22.5276 C   0  0  0  0  0  0
  -21.4015   -6.5633   23.8212 C   0  0  0  0  0  0
  -21.3660   -5.6785   24.9173 C   0  0  0  0  0  0
  -21.6042   -4.3049   24.7225 C   0  0  0  0  0  0
  -21.8818   -3.8140   23.4346 C   0  0  0  0  0  0
  -21.9190   -4.6957   22.3400 C   0  0  0  0  0  0
  -22.7826  -13.5226   21.1839 C   0  0  0  0  0  0
  -22.1656   -4.2141   21.0978 F   0  0  0  0  0  0
  -21.5628   -3.4535   25.7738 F   0  0  0  0  0  0
  -29.9817  -13.5371   20.4004 N   0  0  0  0  0  0
  -26.2944  -12.9321   20.3256 N   0  0  0  0  0  0
  -25.9316  -11.6493   20.5770 N   0  0  0  0  0  0
  -22.0452  -12.8260   22.0411 N   0  0  0  0  0  0
  -25.4087  -15.1851   20.3794 N   0  0  0  0  0  0
  -31.7153  -14.9893   20.2510 O   0  0  0  0  0  0
  -21.6633   -6.8879   21.4242 O   0  0  0  0  0  0
  -22.3527  -14.5530   20.6672 O   0  0  0  0  0  0
  -24.6320  -31.8531   23.1948 C   0  0  0  0  0  0
  -25.9133  -32.4746   23.8309 C   0  0  1  0  0  0
  -27.2315  -27.2295   20.1713 C   0  0  0  0  0  0
  -25.5912  -33.8544   24.2228 N   0  0  0  0  0  0
  -23.4314  -30.4692   21.5396 C   0  0  2  0  0  0
  -24.8812  -28.8916   20.1359 C   0  0  0  0  0  0
  -22.7497  -29.4587   22.4939 C   0  0  0  0  0  0
  -18.0286  -28.1391   22.8481 C   0  0  0  0  0  0
  -24.1482  -36.7282   23.2644 C   0  0  0  0  0  0
  -25.9774  -30.7554   21.3788 C   0  0  0  0  0  0
  -26.0520  -29.3654   20.7433 C   0  0  0  0  0  0
  -27.2322  -28.5504   20.7405 C   0  0  0  0  0  0
  -26.0365  -26.8155   19.5513 C   0  0  0  0  0  0
  -24.8778  -27.6227   19.5309 C   0  0  0  0  0  0
  -23.6552  -29.7877   20.1634 C   0  0  0  0  0  0
  -25.4111  -36.3060   24.0325 C   0  0  1  0  0  0
  -20.5887  -28.3696   23.1277 C   0  0  2  0  0  0
  -20.6769  -26.9413   22.5415 C   0  0  0  0  0  0
  -19.5746  -26.6382   21.5215 C   0  0  0  0  0  0
  -18.1928  -26.7932   22.1626 C   0  0  0  0  0  0
  -19.1539  -28.8861   23.2869 C   0  0  0  0  0  0
  -18.9463  -30.1463   23.8886 C   0  0  0  0  0  0
  -17.6461  -30.6591   24.0559 C   0  0  0  0  0  0
  -25.9054  -34.9436   23.5084 C   0  0  0  0  0  0
  -16.5351  -29.9087   23.6333 C   0  0  0  0  0  0
  -16.7271  -28.6506   23.0352 C   0  0  0  0  0  0
  -26.4490  -31.6587   25.0714 C   0  0  0  0  0  0
  -25.3703  -31.3756   26.1430 C   0  0  0  0  0  0
  -27.0347  -30.2998   24.6230 C   0  0  0  0  0  0
  -27.6027  -32.4349   25.7493 C   0  0  0  0  0  0
  -27.5574  -37.1792   24.8463 C   0  0  0  0  0  0
  -21.4205  -29.3038   22.3669 N   0  0  0  0  0  0
  -26.4282  -37.3762   23.9411 N   0  0  0  0  0  0
  -24.6996  -31.0461   22.0942 N   0  0  0  0  0  0
  -23.4180  -28.8145   23.3065 O   0  0  0  0  0  0
  -28.3765  -26.4278   19.9694 O   0  0  0  0  0  0
  -26.5643  -34.8916   22.4663 O   0  0  0  0  0  0
  -23.5462  -32.1368   23.7224 O   0  0  0  0  0  0
  -28.2269  -19.7527   21.9641 C   0  0  0  0  0  0
  -27.8364  -18.5271   22.5209 C   0  0  0  0  0  0
  -29.8039  -18.5334   20.5469 C   0  0  0  0  0  0
  -29.2528  -19.8224   21.0091 C   0  0  0  0  0  0
  -28.4114  -17.3039   22.1205 C   0  0  0  0  0  0
  -29.3774  -17.2284   21.0770 C   0  0  0  0  0  0
  -29.9553  -22.9005   18.9791 C   0  0  0  0  0  0
  -30.3023  -24.3916   18.8178 C   0  0  0  0  0  0
  -30.2838  -25.1374   20.1722 C   0  0  0  0  0  0
  -28.3259  -23.6407   20.6303 C   0  0  0  0  0  0
  -28.8482  -25.1983   20.7072 C   0  0  2  0  0  0
  -27.9366  -16.0664   22.8610 C   0  0  0  0  0  0
  -29.8503  -21.2979   20.8093 C   0  0  0  0  0  0
  -29.2522  -22.5299   20.0750 N   0  0  0  0  0  0
  -29.5757  -15.8391   20.5336 N   0  0  0  0  0  0
  -30.4492  -22.0888   18.1907 O   0  0  0  0  0  0
  -31.4935  -12.7135   19.1314 H   0  0  0  0  0  0
  -30.4869  -11.5294   19.9192 H   0  0  0  0  0  0
  -29.8138  -11.7515   17.5139 H   0  0  0  0  0  0
  -29.6233  -13.4755   17.6965 H   0  0  0  0  0  0
  -27.9054  -11.2812   18.8949 H   0  0  0  0  0  0
  -27.3842  -12.5288   17.7920 H   0  0  0  0  0  0
  -27.6426  -14.2415   19.4872 H   0  0  0  0  0  0
  -28.7700  -12.0598   21.3122 H   0  0  0  0  0  0
  -28.4333  -13.6626   21.8519 H   0  0  0  0  0  0
  -25.2756   -9.5677   22.4781 H   0  0  0  0  0  0
  -23.9986   -7.4626   22.7489 H   0  0  0  0  0  0
  -21.0829   -8.8790   19.8963 H   0  0  0  0  0  0
  -22.3699  -10.9682   19.6176 H   0  0  0  0  0  0
  -21.2017   -7.6142   23.9715 H   0  0  0  0  0  0
  -21.1476   -6.0514   25.9076 H   0  0  0  0  0  0
  -22.0598   -2.7604   23.2845 H   0  0  0  0  0  0
  -22.4047  -11.9931   22.4834 H   0  0  0  0  0  0
  -21.1078  -13.1334   22.2602 H   0  0  0  0  0  0
  -24.6279  -15.8252   20.4741 H   0  0  0  0  0  0
  -26.2334  -15.6303   20.0004 H   0  0  0  0  0  0
  -26.7200  -32.5392   23.1051 H   0  0  0  0  0  0
  -25.0007  -33.9668   25.0338 H   0  0  0  0  0  0
  -22.7290  -31.2908   21.3839 H   0  0  0  0  0  0
  -23.3741  -35.9617   23.3305 H   0  0  0  0  0  0
  -24.3570  -36.8913   22.2059 H   0  0  0  0  0  0
  -23.7243  -37.6481   23.6680 H   0  0  0  0  0  0
  -26.1128  -31.5039   20.5969 H   0  0  0  0  0  0
  -26.8560  -30.8169   22.0096 H   0  0  0  0  0  0
  -28.1463  -28.9316   21.1735 H   0  0  0  0  0  0
  -26.0082  -25.8546   19.0575 H   0  0  0  0  0  0
  -23.9840  -27.2548   19.0454 H   0  0  0  0  0  0
  -23.7882  -30.5550   19.4000 H   0  0  0  0  0  0
  -22.7733  -29.2217   19.8589 H   0  0  0  0  0  0
  -25.1295  -36.1898   25.0818 H   0  0  0  0  0  0
  -20.9969  -28.3274   24.1402 H   0  0  0  0  0  0
  -20.5665  -26.2305   23.3620 H   0  0  0  0  0  0
  -21.6639  -26.7433   22.1216 H   0  0  0  0  0  0
  -19.6905  -25.6290   21.1254 H   0  0  0  0  0  0
  -19.6688  -27.3183   20.6739 H   0  0  0  0  0  0
  -17.4196  -26.6675   21.4031 H   0  0  0  0  0  0
  -18.0325  -26.0079   22.9029 H   0  0  0  0  0  0
  -19.7940  -30.7280   24.2252 H   0  0  0  0  0  0
  -17.5018  -31.6272   24.5164 H   0  0  0  0  0  0
  -15.5353  -30.2986   23.7666 H   0  0  0  0  0  0
  -15.8672  -28.0823   22.7074 H   0  0  0  0  0  0
  -24.5849  -30.7145   25.7753 H   0  0  0  0  0  0
  -24.8927  -32.2936   26.4861 H   0  0  0  0  0  0
  -25.7995  -30.8911   27.0208 H   0  0  0  0  0  0
  -26.2947  -29.6740   24.1226 H   0  0  0  0  0  0
  -27.3982  -29.7271   25.4774 H   0  0  0  0  0  0
  -27.8841  -30.4263   23.9513 H   0  0  0  0  0  0
  -27.2606  -33.3641   26.2063 H   0  0  0  0  0  0
  -28.3833  -32.6933   25.0328 H   0  0  0  0  0  0
  -28.0704  -31.8493   26.5417 H   0  0  0  0  0  0
  -28.2587  -38.0092   24.7505 H   0  0  0  0  0  0
  -28.1072  -36.2621   24.6286 H   0  0  0  0  0  0
  -27.2298  -37.1445   25.8868 H   0  0  0  0  0  0
  -20.9407  -29.8734   21.6841 H   0  0  0  0  0  0
  -26.0157  -38.2834   24.1411 H   0  0  0  0  0  0
  -27.7940  -20.6626   22.3578 H   0  0  0  0  0  0
  -27.0852  -18.5385   23.2983 H   0  0  0  0  0  0
  -30.5681  -18.5506   19.7824 H   0  0  0  0  0  0
  -29.6071  -24.8485   18.1128 H   0  0  0  0  0  0
  -31.2961  -24.4716   18.3771 H   0  0  0  0  0  0
  -30.7113  -26.1364   20.0732 H   0  0  0  0  0  0
  -30.9236  -24.6168   20.8871 H   0  0  0  0  0  0
  -27.4059  -23.6190   20.0455 H   0  0  0  0  0  0
  -28.0267  -23.3326   21.6323 H   0  0  0  0  0  0
  -28.8844  -25.4841   21.7598 H   0  0  0  0  0  0
  -28.7845  -15.4535   23.1673 H   0  0  0  0  0  0
  -27.2641  -15.4809   22.2408 H   0  0  0  0  0  0
  -27.3915  -16.3258   23.7687 H   0  0  0  0  0  0
  -30.8768  -21.1316   20.4746 H   0  0  0  0  0  0
  -30.0061  -21.6664   21.8243 H   0  0  0  0  0  0
  -28.6835  -15.3745   20.4893 H   0  0  0  0  0  0
  1 25  1  0  0  0
  1 30  2  0  0  0
  1 85  1  0  0  0
  2  3  1  0  0  0
  2 25  1  0  0  0
  2 87  1  0  0  0
  2 88  1  0  0  0
  3  4  1  0  0  0
  3 89  1  0  0  0
  3 90  1  0  0  0
  4  5  1  0  0  0
  4 91  1  0  0  0
  4 92  1  0  0  0
  5  6  1  0  0  0
  5 26  1  0  0  0
  5 93  1  0  0  0
  6 25  1  0  0  0
  6 94  1  0  0  0
  6 95  1  0  0  0
  7  8  2  0  0  0
  7 26  1  0  0  0
  7 29  1  0  0  0
  8  9  1  0  0  0
  8 22  1  0  0  0
  9 10  1  0  0  0
  9 27  2  0  0  0
 10 11  2  0  0  0
 10 15  1  0  0  0
 11 12  1  0  0  0
 11 96  1  0  0  0
 12 13  2  0  0  0
 12 97  1  0  0  0
 13 14  1  0  0  0
 13 31  1  0  0  0
 14 15  2  0  0  0
 14 98  1  0  0  0
 15 99  1  0  0  0
 16 17  2  0  0  0
 16 21  1  0  0  0
 16 31  1  0  0  0
 17 18  1  0  0  0
 17100  1  0  0  0
 18 19  2  0  0  0
 18101  1  0  0  0
 19 20  1  0  0  0
 19 24  1  0  0  0
 20 21  2  0  0  0
 20102  1  0  0  0
 21 23  1  0  0  0
 22 28  1  0  0  0
 22 32  2  0  0  0
 26 27  1  0  0  0
 28103  1  0  0  0
 28104  1  0  0  0
 29105  1  0  0  0
 29106  1  0  0  0
 33 34  1  0  0  0
 33 66  1  0  0  0
 33 70  2  0  0  0
 34 36  1  0  0  0
 34 59  1  0  0  0
 34107  1  0  0  0
 35 44  2  0  0  0
 35 45  1  0  0  0
 35 68  1  0  0  0
 36 56  1  0  0  0
 36108  1  0  0  0
 37 39  1  0  0  0
 37 47  1  0  0  0
 37 66  1  0  0  0
 37109  1  0  0  0
 38 43  2  0  0  0
 38 46  1  0  0  0
 38 47  1  0  0  0
 39 64  1  0  0  0
 39 67  2  0  0  0
 40 52  1  0  0  0
 40 53  2  0  0  0
 40 58  1  0  0  0
 41110  1  0  0  0
 41111  1  0  0  0
 41112  1  0  0  0
 41 48  1  0  0  0
 42 43  1  0  0  0
 42 66  1  0  0  0
 42113  1  0  0  0
 42114  1  0  0  0
 43 44  1  0  0  0
 44115  1  0  0  0
 45 46  2  0  0  0
 45116  1  0  0  0
 46117  1  0  0  0
 47118  1  0  0  0
 47119  1  0  0  0
 48 56  1  0  0  0
 48 65  1  0  0  0
 48120  1  0  0  0
 49 50  1  0  0  0
 49 53  1  0  0  0
 49 64  1  0  0  0
 49121  1  0  0  0
 50 51  1  0  0  0
 50122  1  0  0  0
 50123  1  0  0  0
 51 52  1  0  0  0
 51124  1  0  0  0
 51125  1  0  0  0
 52126  1  0  0  0
 52127  1  0  0  0
 53 54  1  0  0  0
 54 55  2  0  0  0
 54128  1  0  0  0
 55 57  1  0  0  0
 55129  1  0  0  0
 56 69  2  0  0  0
 57 58  2  0  0  0
 57130  1  0  0  0
 58131  1  0  0  0
 59 60  1  0  0  0
 59 61  1  0  0  0
 59 62  1  0  0  0
 60132  1  0  0  0
 60133  1  0  0  0
 60134  1  0  0  0
 61135  1  0  0  0
 61136  1  0  0  0
 61137  1  0  0  0
 62138  1  0  0  0
 62139  1  0  0  0
 62140  1  0  0  0
 63 65  1  0  0  0
 63141  1  0  0  0
 63142  1  0  0  0
 63143  1  0  0  0
 64144  1  0  0  0
 65145  1  0  0  0
 68 81  1  0  0  0
 71 72  2  0  0  0
 71 74  1  0  0  0
 71146  1  0  0  0
 72 75  1  0  0  0
 72147  1  0  0  0
 73 74  2  0  0  0
 73 76  1  0  0  0
 73148  1  0  0  0
 74 83  1  0  0  0
 75 76  2  0  0  0
 75 82  1  0  0  0
 76 85  1  0  0  0
 77 78  1  0  0  0
 77 84  1  0  0  0
 77 86  2  0  0  0
 78 79  1  0  0  0
 78149  1  0  0  0
 78150  1  0  0  0
 79 81  1  0  0  0
 79151  1  0  0  0
 79152  1  0  0  0
 80 81  1  0  0  0
 80 84  1  0  0  0
 80153  1  0  0  0
 80154  1  0  0  0
 81155  1  0  0  0
 82156  1  0  0  0
 82157  1  0  0  0
 82158  1  0  0  0
 83 84  1  0  0  0
 83159  1  0  0  0
 83160  1  0  0  0
 85161  1  0  0  0
M  ISO  4   1 100  68 101  81 101  85 100
M  END
> <chiral flag>
0

> <version>
0

> <s_m_source_file>
/data/baiqing/PycharmProjects/Reinvent-master-3.2/result/LINK_invent/BTK/process_docking_weight1_custom_product_contain_oxygen_bond_distance_aromatic_linkinvent_7_9_3/rearranged_h_0050.sdf

> <i_m_source_file_index>
49

> <r_mmod_Potential_Energy-OPLS-2005>
417.866912841797

> <r_mmod_Stretch_Energy-OPLS-2005>
162.329010009766

> <r_mmod_Bend_Energy-OPLS-2005>
305.733459472656

> <r_mmod_Torsional_Energy-OPLS-2005>
344.638854980469

> <r_mmod_Improper_Torsional_Energy-OPLS-2005>
19.7785167694092

> <r_mmod_Van_der_Waal_Energy-OPLS-2005>
141.592376708984

> <r_mmod_Electrostatic_Energy-OPLS-2005>
-429.920349121094

> <r_mmod_Solvation_Energy-OPLS-2005>
-229.796783447266

> <b_mmod_Minimization_Converged-OPLS-2005>
0

> <r_mmod_RMS_Derivative-OPLS-2005>
1.23713862895966

$$$$
49
                    3D
 Structure written by MMmdl.
158166  0  0  1  0            999 V2000
  -29.4786  -15.5390   20.7584 C   0  0  0  0  0  0
  -30.3131  -13.1525   19.6982 C   0  0  0  0  0  0
  -29.5355  -12.7147   18.4087 C   0  0  0  0  0  0
  -28.0936  -12.2826   18.7381 C   0  0  0  0  0  0
  -27.5177  -13.2050   19.8309 C   0  0  2  0  0  0
  -28.4102  -13.2790   21.0628 C   0  0  0  0  0  0
  -25.1886  -13.7935   20.5393 C   0  0  0  0  0  0
  -24.1342  -13.0253   20.9234 C   0  0  0  0  0  0
  -24.5960  -11.6738   20.8773 C   0  0  0  0  0  0
  -23.8774  -10.4170   21.0499 C   0  0  0  0  0  0
  -24.3454   -9.4128   21.9238 C   0  0  0  0  0  0
  -23.6200   -8.2135   22.0767 C   0  0  0  0  0  0
  -22.4186   -8.0172   21.3548 C   0  0  0  0  0  0
  -21.9759   -9.0112   20.4654 C   0  0  0  0  0  0
  -22.7009  -10.2015   20.3095 C   0  0  0  0  0  0
  -21.6813   -6.0673   22.5291 C   0  0  0  0  0  0
  -21.3983   -6.5602   23.8216 C   0  0  0  0  0  0
  -21.3649   -5.6770   24.9189 C   0  0  0  0  0  0
  -21.6044   -4.3032   24.7247 C   0  0  0  0  0  0
  -21.8823   -3.8109   23.4374 C   0  0  0  0  0  0
  -21.9182   -4.6913   22.3423 C   0  0  0  0  0  0
  -22.7475  -13.5143   21.1989 C   0  0  0  0  0  0
  -22.1658   -4.2105   21.0999 F   0  0  0  0  0  0
  -21.5636   -3.4524   25.7765 F   0  0  0  0  0  0
  -29.4736  -14.1010   20.5833 N   0  0  0  0  0  0
  -26.1987  -12.8984   20.2649 N   0  0  0  0  0  0
  -25.8747  -11.6217   20.5469 N   0  0  0  0  0  0
  -22.0160  -12.8175   22.0588 N   0  0  0  0  0  0
  -25.3647  -15.1621   20.3665 N   0  0  0  0  0  0
  -30.6666  -15.8659   20.4544 O   0  0  0  0  0  0
  -21.6577   -6.8772   21.4238 O   0  0  0  0  0  0
  -22.3250  -14.5495   20.6852 O   0  0  0  0  0  0
  -24.6573  -31.9455   23.2330 C   0  0  0  0  0  0
  -25.9519  -32.5094   23.8654 C   0  0  1  0  0  0
  -26.0544  -27.2234   20.3871 C   0  0  0  0  0  0
  -25.6404  -33.8852   24.2612 N   0  0  0  0  0  0
  -23.4453  -30.6148   21.5961 C   0  0  2  0  0  0
  -24.8191  -29.3648   19.7904 C   0  0  0  0  0  0
  -23.0982  -29.4905   22.6145 C   0  0  0  0  0  0
  -18.6605  -27.6401   22.4194 C   0  0  0  0  0  0
  -24.1519  -36.7359   23.2598 C   0  0  0  0  0  0
  -25.9799  -30.8390   21.4284 C   0  0  0  0  0  0
  -25.8971  -29.5388   20.6615 C   0  0  0  0  0  0
  -26.7051  -28.4084   20.8671 C   0  0  0  0  0  0
  -25.8106  -27.2575   19.0461 C   0  0  0  0  0  0
  -24.8837  -28.2958   18.8415 C   0  0  0  0  0  0
  -23.6090  -30.2307   20.0786 C   0  0  0  0  0  0
  -25.4141  -36.3221   24.0331 C   0  0  1  0  0  0
  -21.5473  -27.9830   23.7144 C   0  0  2  0  0  0
  -22.6934  -26.2224   22.7777 C   0  0  0  0  0  0
  -21.0188  -25.1520   20.9189 C   0  0  0  0  0  0
  -19.0120  -26.1768   21.1798 C   0  0  0  0  0  0
  -19.7124  -28.3658   23.3999 C   0  0  0  0  0  0
  -19.2393  -29.6169   23.9928 C   0  0  0  0  0  0
  -17.9233  -30.1498   23.9427 C   0  0  0  0  0  0
  -25.9160  -34.9616   23.5170 C   0  0  0  0  0  0
  -16.9355  -29.4020   23.2918 C   0  0  0  0  0  0
  -17.3064  -28.2138   22.5692 C   0  0  0  0  0  0
  -26.4624  -31.6686   25.0969 C   0  0  0  0  0  0
  -25.3735  -31.3808   26.1565 C   0  0  0  0  0  0
  -27.0441  -30.3091   24.6450 C   0  0  0  0  0  0
  -27.6179  -32.4296   25.7850 C   0  0  0  0  0  0
  -27.5603  -37.1896   24.8466 C   0  0  0  0  0  0
  -21.8803  -29.2783   23.0312 N   0  0  0  0  0  0
  -26.4312  -37.3906   23.9417 N   0  0  0  0  0  0
  -24.7093  -31.2030   22.0994 N   0  0  0  0  0  0
  -23.9647  -28.8347   23.1720 O   0  0  0  0  0  0
  -24.7239  -26.9594   20.9494 O   0  0  0  0  0  0
  -26.5509  -34.9005   22.4607 O   0  0  0  0  0  0
  -23.5778  -32.2117   23.7830 O   0  0  0  0  0  0
  -24.7527  -19.1188   22.3005 C   0  0  0  0  0  0
  -26.2667  -20.5477   21.7047 C   0  0  0  0  0  0
  -25.7537  -17.9649   21.9892 C   0  0  0  0  0  0
  -27.2710  -19.3873   21.3842 C   0  0  0  0  0  0
  -24.8295  -20.6239   22.2076 C   0  0  0  0  0  0
  -27.1830  -17.8769   21.4787 C   0  0  0  0  0  0
  -20.5129  -25.9140   22.9632 C   0  0  0  0  0  0
  -21.1250  -27.2459   21.5823 C   0  0  0  0  0  0
  -21.1922  -24.2120   23.3755 C   0  0  0  0  0  0
  -21.3768  -22.0650   22.0889 C   0  0  0  0  0  0
  -23.7370  -22.1203   22.8311 C   0  0  0  0  0  0
  -22.9006  -27.2238   20.5847 C   0  0  0  0  0  0
  -28.1775  -16.4101   21.1655 N   0  0  0  0  0  0
  -22.1993  -23.1328   22.6757 N   0  0  0  0  0  0
  -20.8297  -23.8093   24.4825 O   0  0  0  0  0  0
  -31.2421  -13.6433   19.4050 H   0  0  0  0  0  0
  -30.6226  -12.2764   20.2712 H   0  0  0  0  0  0
  -30.0683  -11.9211   17.8837 H   0  0  0  0  0  0
  -29.4978  -13.5630   17.7237 H   0  0  0  0  0  0
  -28.1099  -11.2538   19.1003 H   0  0  0  0  0  0
  -27.4683  -12.2908   17.8446 H   0  0  0  0  0  0
  -27.4455  -14.1814   19.3492 H   0  0  0  0  0  0
  -28.7266  -12.2946   21.4127 H   0  0  0  0  0  0
  -27.9093  -13.7609   21.9050 H   0  0  0  0  0  0
  -25.2603   -9.5656   22.4794 H   0  0  0  0  0  0
  -23.9943   -7.4519   22.7461 H   0  0  0  0  0  0
  -21.0699   -8.8586   19.8957 H   0  0  0  0  0  0
  -22.3454  -10.9558   19.6215 H   0  0  0  0  0  0
  -21.1960   -7.6110   23.9705 H   0  0  0  0  0  0
  -21.1475   -6.0507   25.9089 H   0  0  0  0  0  0
  -22.0618   -2.7572   23.2887 H   0  0  0  0  0  0
  -22.3760  -11.9808   22.4936 H   0  0  0  0  0  0
  -21.0821  -13.1266   22.2883 H   0  0  0  0  0  0
  -24.5440  -15.7564   20.4019 H   0  0  0  0  0  0
  -26.0811  -15.5398   19.7602 H   0  0  0  0  0  0
  -26.7617  -32.5579   23.1400 H   0  0  0  0  0  0
  -25.0744  -34.0032   25.0886 H   0  0  0  0  0  0
  -22.6487  -31.3607   21.6377 H   0  0  0  0  0  0
  -23.3807  -35.9666   23.3271 H   0  0  0  0  0  0
  -24.3634  -36.8951   22.2013 H   0  0  0  0  0  0
  -23.7230  -37.6561   23.6579 H   0  0  0  0  0  0
  -26.2448  -31.6359   20.7323 H   0  0  0  0  0  0
  -26.8222  -30.7323   22.0997 H   0  0  0  0  0  0
  -27.4319  -28.3862   21.6667 H   0  0  0  0  0  0
  -25.6657  -26.3560   18.4672 H   0  0  0  0  0  0
  -24.1510  -28.2076   18.0508 H   0  0  0  0  0  0
  -23.7940  -31.1584   19.5357 H   0  0  0  0  0  0
  -22.6713  -29.9001   19.6419 H   0  0  0  0  0  0
  -25.1287  -36.2109   25.0818 H   0  0  0  0  0  0
  -21.7704  -28.0669   24.7792 H   0  0  0  0  0  0
  -22.9761  -25.6556   23.6667 H   0  0  0  0  0  0
  -23.7484  -26.3212   22.6574 H   0  0  0  0  0  0
  -20.8923  -24.0851   20.8268 H   0  0  0  0  0  0
  -21.2708  -25.3289   19.8760 H   0  0  0  0  0  0
  -18.6983  -26.5294   20.1967 H   0  0  0  0  0  0
  -18.2826  -25.4017   21.4207 H   0  0  0  0  0  0
  -19.9513  -30.1820   24.5799 H   0  0  0  0  0  0
  -17.6769  -31.0720   24.4519 H   0  0  0  0  0  0
  -15.9106  -29.7463   23.2821 H   0  0  0  0  0  0
  -16.5166  -27.7287   22.0123 H   0  0  0  0  0  0
  -24.5938  -30.7189   25.7778 H   0  0  0  0  0  0
  -24.8915  -32.2972   26.4981 H   0  0  0  0  0  0
  -25.7953  -30.8938   27.0366 H   0  0  0  0  0  0
  -26.3073  -29.6921   24.1317 H   0  0  0  0  0  0
  -27.3912  -29.7273   25.4999 H   0  0  0  0  0  0
  -27.9060  -30.4346   23.9892 H   0  0  0  0  0  0
  -27.2825  -33.3576   26.2494 H   0  0  0  0  0  0
  -28.4050  -32.6866   25.0747 H   0  0  0  0  0  0
  -28.0766  -31.8330   26.5747 H   0  0  0  0  0  0
  -28.2605  -38.0211   24.7556 H   0  0  0  0  0  0
  -28.1124  -36.2751   24.6246 H   0  0  0  0  0  0
  -27.2326  -37.1485   25.8869 H   0  0  0  0  0  0
  -21.1138  -29.8444   22.6954 H   0  0  0  0  0  0
  -26.0200  -38.2977   24.1448 H   0  0  0  0  0  0
  -23.8111  -18.7669   22.6986 H   0  0  0  0  0  0
  -26.7055  -21.5249   21.5571 H   0  0  0  0  0  0
  -25.3280  -16.9972   22.2076 H   0  0  0  0  0  0
  -28.2317  -19.7379   21.0343 H   0  0  0  0  0  0
  -19.6478  -25.9808   23.6071 H   0  0  0  0  0  0
  -20.6180  -28.1389   21.2372 H   0  0  0  0  0  0
  -20.3136  -22.3050   22.0198 H   0  0  0  0  0  0
  -21.4427  -21.1548   22.6866 H   0  0  0  0  0  0
  -21.7263  -21.8305   21.0829 H   0  0  0  0  0  0
  -24.4775  -22.9191   22.7874 H   0  0  0  0  0  0
  -23.6909  -21.8830   23.8938 H   0  0  0  0  0  0
  -22.6864  -27.9283   19.8076 H   0  0  0  0  0  0
  -22.9000  -26.3794   19.9114 H   0  0  0  0  0  0
  -27.5268  -15.6536   21.3310 H   0  0  0  0  0  0
  1 25  1  0  0  0
  1 30  2  0  0  0
  1 83  1  0  0  0
  2  3  1  0  0  0
  2 25  1  0  0  0
  2 86  1  0  0  0
  2 87  1  0  0  0
  3  4  1  0  0  0
  3 88  1  0  0  0
  3 89  1  0  0  0
  4  5  1  0  0  0
  4 90  1  0  0  0
  4 91  1  0  0  0
  5  6  1  0  0  0
  5 26  1  0  0  0
  5 92  1  0  0  0
  6 25  1  0  0  0
  6 93  1  0  0  0
  6 94  1  0  0  0
  7  8  2  0  0  0
  7 26  1  0  0  0
  7 29  1  0  0  0
  8  9  1  0  0  0
  8 22  1  0  0  0
  9 10  1  0  0  0
  9 27  2  0  0  0
 10 11  2  0  0  0
 10 15  1  0  0  0
 11 12  1  0  0  0
 11 95  1  0  0  0
 12 13  2  0  0  0
 12 96  1  0  0  0
 13 14  1  0  0  0
 13 31  1  0  0  0
 14 15  2  0  0  0
 14 97  1  0  0  0
 15 98  1  0  0  0
 16 17  2  0  0  0
 16 21  1  0  0  0
 16 31  1  0  0  0
 17 18  1  0  0  0
 17 99  1  0  0  0
 18 19  2  0  0  0
 18100  1  0  0  0
 19 20  1  0  0  0
 19 24  1  0  0  0
 20 21  2  0  0  0
 20101  1  0  0  0
 21 23  1  0  0  0
 22 28  1  0  0  0
 22 32  2  0  0  0
 26 27  1  0  0  0
 28102  1  0  0  0
 28103  1  0  0  0
 29104  1  0  0  0
 29105  1  0  0  0
 33 34  1  0  0  0
 33 66  1  0  0  0
 33 70  2  0  0  0
 34 36  1  0  0  0
 34 59  1  0  0  0
 34106  1  0  0  0
 35 44  2  0  0  0
 35 45  1  0  0  0
 35 68  1  0  0  0
 36 56  1  0  0  0
 36107  1  0  0  0
 37 39  1  0  0  0
 37 47  1  0  0  0
 37 66  1  0  0  0
 37108  1  0  0  0
 38 43  2  0  0  0
 38 46  1  0  0  0
 38 47  1  0  0  0
 39 64  1  0  0  0
 39 67  2  0  0  0
 40 52  1  0  0  0
 40 53  2  0  0  0
 40 58  1  0  0  0
 41109  1  0  0  0
 41110  1  0  0  0
 41111  1  0  0  0
 41 48  1  0  0  0
 42 43  1  0  0  0
 42 66  1  0  0  0
 42112  1  0  0  0
 42113  1  0  0  0
 43 44  1  0  0  0
 44114  1  0  0  0
 45 46  2  0  0  0
 45115  1  0  0  0
 46116  1  0  0  0
 47117  1  0  0  0
 47118  1  0  0  0
 48 56  1  0  0  0
 48 65  1  0  0  0
 48119  1  0  0  0
 49 50  1  0  0  0
 49 53  1  0  0  0
 49 64  1  0  0  0
 49120  1  0  0  0
 50 51  1  0  0  0
 50121  1  0  0  0
 50122  1  0  0  0
 51 52  1  0  0  0
 51123  1  0  0  0
 51124  1  0  0  0
 52125  1  0  0  0
 52126  1  0  0  0
 53 54  1  0  0  0
 54 55  2  0  0  0
 54127  1  0  0  0
 55 57  1  0  0  0
 55128  1  0  0  0
 56 69  2  0  0  0
 57 58  2  0  0  0
 57129  1  0  0  0
 58130  1  0  0  0
 59 60  1  0  0  0
 59 61  1  0  0  0
 59 62  1  0  0  0
 60131  1  0  0  0
 60132  1  0  0  0
 60133  1  0  0  0
 61134  1  0  0  0
 61135  1  0  0  0
 61136  1  0  0  0
 62137  1  0  0  0
 62138  1  0  0  0
 62139  1  0  0  0
 63 65  1  0  0  0
 63140  1  0  0  0
 63141  1  0  0  0
 63142  1  0  0  0
 64143  1  0  0  0
 65144  1  0  0  0
 68 82  1  0  0  0
 71 73  2  0  0  0
 71 75  1  0  0  0
 71145  1  0  0  0
 72 74  1  0  0  0
 72 75  2  0  0  0
 72146  1  0  0  0
 73 76  1  0  0  0
 73147  1  0  0  0
 74 76  2  0  0  0
 74148  1  0  0  0
 75 81  1  0  0  0
 76 83  1  0  0  0
 77 78  2  0  0  0
 77 79  1  0  0  0
 77149  1  0  0  0
 78 82  1  0  0  0
 78150  1  0  0  0
 79 84  1  0  0  0
 79 85  2  0  0  0
 80 84  1  0  0  0
 80151  1  0  0  0
 80152  1  0  0  0
 80153  1  0  0  0
 81 84  1  0  0  0
 81154  1  0  0  0
 81155  1  0  0  0
 82156  1  0  0  0
 82157  1  0  0  0
 83158  1  0  0  0
M  ISO  4   1 100  68 101  82 101  83 100
M  END
> <chiral flag>
0

> <version>
0

> <s_m_source_file>
/data/baiqing/PycharmProjects/Reinvent-master-3.2/result/LINK_invent/BTK/process_docking_weight1_custom_product_contain_oxygen_bond_distance_aromatic_linkinvent_7_9_3/rearranged_h_0050.sdf

> <i_m_source_file_index>
50

> <r_mmod_Potential_Energy-OPLS-2005>
15195.68359375

> <r_mmod_Stretch_Energy-OPLS-2005>
6853.99365234375

> <r_mmod_Bend_Energy-OPLS-2005>
1445.35974121094

> <r_mmod_Torsional_Energy-OPLS-2005>
582.89306640625

> <r_mmod_Improper_Torsional_Energy-OPLS-2005>
48.2217597961426

> <r_mmod_Van_der_Waal_Energy-OPLS-2005>
2489.58813476562

> <r_mmod_Electrostatic_Energy-OPLS-2005>
-413.232025146484

> <r_mmod_Solvation_Energy-OPLS-2005>
-213.609924316406

> <b_mmod_Minimization_Converged-OPLS-2005>
0

> <r_mmod_RMS_Derivative-OPLS-2005>
1.18364644050598

$$$$
50
                    3D
 Structure written by MMmdl.
154162  0  0  1  0            999 V2000
  -30.5905  -14.7238   20.4238 C   0  0  0  0  0  0
  -30.4386  -12.4145   19.4921 C   0  0  0  0  0  0
  -29.5193  -12.4254   18.2505 C   0  0  0  0  0  0
  -28.0315  -12.3246   18.6444 C   0  0  0  0  0  0
  -27.6439  -13.2246   19.8490 C   0  0  2  0  0  0
  -28.6829  -13.1377   20.9857 C   0  0  0  0  0  0
  -25.2521  -13.8167   20.5704 C   0  0  0  0  0  0
  -24.1795  -13.0427   20.9222 C   0  0  0  0  0  0
  -24.6380  -11.6902   20.8759 C   0  0  0  0  0  0
  -23.9054  -10.4275   21.0417 C   0  0  0  0  0  0
  -24.3604   -9.4174   21.9183 C   0  0  0  0  0  0
  -23.6272   -8.2212   22.0720 C   0  0  0  0  0  0
  -22.4246   -8.0278   21.3519 C   0  0  0  0  0  0
  -21.9901   -9.0258   20.4611 C   0  0  0  0  0  0
  -22.7243  -10.2135   20.3042 C   0  0  0  0  0  0
  -21.6835   -6.0745   22.5290 C   0  0  0  0  0  0
  -21.4026   -6.5637   23.8238 C   0  0  0  0  0  0
  -21.3651   -5.6763   24.9188 C   0  0  0  0  0  0
  -21.6021   -4.3031   24.7225 C   0  0  0  0  0  0
  -21.8811   -3.8141   23.4337 C   0  0  0  0  0  0
  -21.9184   -4.6970   22.3399 C   0  0  0  0  0  0
  -22.7813  -13.5219   21.1898 C   0  0  0  0  0  0
  -22.1655   -4.2169   21.0980 F   0  0  0  0  0  0
  -21.5614   -3.4504   25.7733 F   0  0  0  0  0  0
  -29.9891  -13.4858   20.4123 N   0  0  0  0  0  0
  -26.2930  -12.9364   20.3247 N   0  0  0  0  0  0
  -25.9300  -11.6517   20.5720 N   0  0  0  0  0  0
  -22.0422  -12.8213   22.0438 N   0  0  0  0  0  0
  -25.4268  -15.1895   20.4204 N   0  0  0  0  0  0
  -31.7745  -14.8338   20.0878 O   0  0  0  0  0  0
  -21.6589   -6.8897   21.4251 O   0  0  0  0  0  0
  -22.3506  -14.5530   20.6759 O   0  0  0  0  0  0
  -24.6321  -31.8551   23.1988 C   0  0  0  0  0  0
  -25.9145  -32.4747   23.8334 C   0  0  1  0  0  0
  -27.2235  -27.2514   20.1214 C   0  0  0  0  0  0
  -25.5928  -33.8551   24.2259 N   0  0  0  0  0  0
  -23.4308  -30.4805   21.5406 C   0  0  2  0  0  0
  -24.8802  -28.9303   20.1054 C   0  0  0  0  0  0
  -22.7511  -29.4619   22.4871 C   0  0  0  0  0  0
  -18.0297  -28.1429   22.8466 C   0  0  0  0  0  0
  -24.1486  -36.7280   23.2643 C   0  0  0  0  0  0
  -25.9796  -30.7623   21.3856 C   0  0  0  0  0  0
  -26.0509  -29.3850   20.7245 C   0  0  0  0  0  0
  -27.2215  -28.5565   20.7279 C   0  0  0  0  0  0
  -26.0323  -26.8823   19.4525 C   0  0  0  0  0  0
  -24.8770  -27.6865   19.4590 C   0  0  0  0  0  0
  -23.6514  -29.8181   20.1550 C   0  0  0  0  0  0
  -25.4113  -36.3065   24.0332 C   0  0  1  0  0  0
  -20.5904  -28.3741   23.1242 C   0  0  2  0  0  0
  -20.6786  -26.9446   22.5411 C   0  0  0  0  0  0
  -19.5764  -26.6402   21.5213 C   0  0  0  0  0  0
  -18.1943  -26.7966   22.1617 C   0  0  0  0  0  0
  -19.1550  -28.8898   23.2854 C   0  0  0  0  0  0
  -18.9477  -30.1495   23.8875 C   0  0  0  0  0  0
  -17.6474  -30.6614   24.0575 C   0  0  0  0  0  0
  -25.9055  -34.9432   23.5099 C   0  0  0  0  0  0
  -16.5362  -29.9114   23.6340 C   0  0  0  0  0  0
  -16.7286  -28.6546   23.0330 C   0  0  0  0  0  0
  -26.4499  -31.6573   25.0730 C   0  0  0  0  0  0
  -25.3708  -31.3781   26.1452 C   0  0  0  0  0  0
  -27.0329  -30.2963   24.6269 C   0  0  0  0  0  0
  -27.6082  -32.4297   25.7467 C   0  0  0  0  0  0
  -27.5584  -37.1784   24.8458 C   0  0  0  0  0  0
  -21.4212  -29.3075   22.3616 N   0  0  0  0  0  0
  -26.4287  -37.3765   23.9411 N   0  0  0  0  0  0
  -24.7000  -31.0508   22.0972 N   0  0  0  0  0  0
  -23.4199  -28.8141   23.2970 O   0  0  0  0  0  0
  -28.3069  -26.3349   20.2018 O   0  0  0  0  0  0
  -26.5633  -34.8913   22.4671 O   0  0  0  0  0  0
  -23.5467  -32.1378   23.7263 O   0  0  0  0  0  0
  -29.7611  -19.7835   18.7076 C   0  0  0  0  0  0
  -29.9163  -18.5920   17.9746 C   0  0  0  0  0  0
  -29.6256  -18.4412   20.7301 C   0  0  0  0  0  0
  -29.5747  -19.7559   20.1009 C   0  0  0  0  0  0
  -29.9082  -17.3183   18.5904 C   0  0  0  0  0  0
  -29.8253  -17.1914   20.0089 C   0  0  0  0  0  0
  -28.9995  -23.7383   20.5133 C   0  0  0  0  0  0
  -29.9076  -16.1116   17.6669 C   0  0  0  0  0  0
  -29.3971  -21.1412   20.8685 C   0  0  0  0  0  0
  -28.0776  -24.8780   19.8549 C   0  0  0  0  0  0
  -29.8034  -15.8449   20.6479 N   0  0  0  0  0  0
  -28.8437  -22.3958   20.1836 N   0  0  0  0  0  0
  -29.8300  -24.0731   21.3611 O   0  0  0  0  0  0
  -31.4765  -12.5442   19.1789 H   0  0  0  0  0  0
  -30.4004  -11.4427   19.9872 H   0  0  0  0  0  0
  -29.7782  -11.5887   17.6002 H   0  0  0  0  0  0
  -29.6949  -13.3202   17.6595 H   0  0  0  0  0  0
  -27.8319  -11.2796   18.8862 H   0  0  0  0  0  0
  -27.4025  -12.5597   17.7860 H   0  0  0  0  0  0
  -27.6482  -14.2498   19.4798 H   0  0  0  0  0  0
  -28.7051  -12.1315   21.4079 H   0  0  0  0  0  0
  -28.4181  -13.8072   21.8051 H   0  0  0  0  0  0
  -25.2754   -9.5632   22.4753 H   0  0  0  0  0  0
  -23.9973   -7.4567   22.7404 H   0  0  0  0  0  0
  -21.0844   -8.8790   19.8890 H   0  0  0  0  0  0
  -22.3721  -10.9681   19.6137 H   0  0  0  0  0  0
  -21.2049   -7.6142   23.9779 H   0  0  0  0  0  0
  -21.1472   -6.0473   25.9103 H   0  0  0  0  0  0
  -22.0605   -2.7606   23.2810 H   0  0  0  0  0  0
  -22.4009  -11.9906   22.4908 H   0  0  0  0  0  0
  -21.1033  -13.1258   22.2596 H   0  0  0  0  0  0
  -24.6732  -15.8500   20.5725 H   0  0  0  0  0  0
  -26.2825  -15.6309   20.1103 H   0  0  0  0  0  0
  -26.7209  -32.5398   23.1075 H   0  0  0  0  0  0
  -25.0042  -33.9683   25.0380 H   0  0  0  0  0  0
  -22.7290  -31.3048   21.3944 H   0  0  0  0  0  0
  -23.3750  -35.9608   23.3292 H   0  0  0  0  0  0
  -24.3582  -36.8918   22.2061 H   0  0  0  0  0  0
  -23.7234  -37.6475   23.6678 H   0  0  0  0  0  0
  -26.1272  -31.5239   20.6186 H   0  0  0  0  0  0
  -26.8531  -30.8061   22.0247 H   0  0  0  0  0  0
  -28.1119  -28.8962   21.2380 H   0  0  0  0  0  0
  -25.9548  -25.9475   18.9189 H   0  0  0  0  0  0
  -23.9853  -27.3398   18.9550 H   0  0  0  0  0  0
  -23.7783  -30.5974   19.4026 H   0  0  0  0  0  0
  -22.7696  -29.2549   19.8460 H   0  0  0  0  0  0
  -25.1292  -36.1910   25.0824 H   0  0  0  0  0  0
  -21.0009  -28.3354   24.1358 H   0  0  0  0  0  0
  -20.5679  -26.2364   23.3637 H   0  0  0  0  0  0
  -21.6659  -26.7466   22.1216 H   0  0  0  0  0  0
  -19.6926  -25.6299   21.1280 H   0  0  0  0  0  0
  -19.6715  -27.3185   20.6721 H   0  0  0  0  0  0
  -17.4214  -26.6699   21.4023 H   0  0  0  0  0  0
  -18.0343  -26.0132   22.9036 H   0  0  0  0  0  0
  -19.7952  -30.7323   24.2226 H   0  0  0  0  0  0
  -17.5033  -31.6282   24.5196 H   0  0  0  0  0  0
  -15.5368  -30.3012   23.7685 H   0  0  0  0  0  0
  -15.8687  -28.0883   22.7020 H   0  0  0  0  0  0
  -24.5857  -30.7157   25.7789 H   0  0  0  0  0  0
  -24.8928  -32.2979   26.4834 H   0  0  0  0  0  0
  -25.7995  -30.8977   27.0255 H   0  0  0  0  0  0
  -26.2926  -29.6703   24.1275 H   0  0  0  0  0  0
  -27.3940  -29.7247   25.4830 H   0  0  0  0  0  0
  -27.8843  -30.4186   23.9570 H   0  0  0  0  0  0
  -27.2729  -33.3608   26.2041 H   0  0  0  0  0  0
  -28.3872  -32.6827   25.0263 H   0  0  0  0  0  0
  -28.0769  -31.8415   26.5366 H   0  0  0  0  0  0
  -28.2604  -38.0078   24.7496 H   0  0  0  0  0  0
  -28.1073  -36.2610   24.6275 H   0  0  0  0  0  0
  -27.2315  -37.1435   25.8866 H   0  0  0  0  0  0
  -20.9400  -29.8808   21.6823 H   0  0  0  0  0  0
  -26.0167  -38.2837   24.1417 H   0  0  0  0  0  0
  -29.7833  -20.7285   18.1827 H   0  0  0  0  0  0
  -30.0215  -18.6702   16.9008 H   0  0  0  0  0  0
  -29.5089  -18.3882   21.8041 H   0  0  0  0  0  0
  -29.7413  -16.3992   16.6292 H   0  0  0  0  0  0
  -29.0946  -15.4393   17.9390 H   0  0  0  0  0  0
  -30.8521  -15.5709   17.7071 H   0  0  0  0  0  0
  -30.3748  -21.3841   21.2870 H   0  0  0  0  0  0
  -28.7555  -20.9407   21.7277 H   0  0  0  0  0  0
  -27.0701  -24.5888   20.1526 H   0  0  0  0  0  0
  -28.1289  -24.7716   18.7702 H   0  0  0  0  0  0
  -28.9677  -15.6512   21.1798 H   0  0  0  0  0  0
  -28.1552  -22.2120   19.4668 H   0  0  0  0  0  0
  1 25  1  0  0  0
  1 30  2  0  0  0
  1 81  1  0  0  0
  2  3  1  0  0  0
  2 25  1  0  0  0
  2 84  1  0  0  0
  2 85  1  0  0  0
  3  4  1  0  0  0
  3 86  1  0  0  0
  3 87  1  0  0  0
  4  5  1  0  0  0
  4 88  1  0  0  0
  4 89  1  0  0  0
  5  6  1  0  0  0
  5 26  1  0  0  0
  5 90  1  0  0  0
  6 25  1  0  0  0
  6 91  1  0  0  0
  6 92  1  0  0  0
  7  8  2  0  0  0
  7 26  1  0  0  0
  7 29  1  0  0  0
  8  9  1  0  0  0
  8 22  1  0  0  0
  9 10  1  0  0  0
  9 27  2  0  0  0
 10 11  2  0  0  0
 10 15  1  0  0  0
 11 12  1  0  0  0
 11 93  1  0  0  0
 12 13  2  0  0  0
 12 94  1  0  0  0
 13 14  1  0  0  0
 13 31  1  0  0  0
 14 15  2  0  0  0
 14 95  1  0  0  0
 15 96  1  0  0  0
 16 17  2  0  0  0
 16 21  1  0  0  0
 16 31  1  0  0  0
 17 18  1  0  0  0
 17 97  1  0  0  0
 18 19  2  0  0  0
 18 98  1  0  0  0
 19 20  1  0  0  0
 19 24  1  0  0  0
 20 21  2  0  0  0
 20 99  1  0  0  0
 21 23  1  0  0  0
 22 28  1  0  0  0
 22 32  2  0  0  0
 26 27  1  0  0  0
 28100  1  0  0  0
 28101  1  0  0  0
 29102  1  0  0  0
 29103  1  0  0  0
 33 34  1  0  0  0
 33 66  1  0  0  0
 33 70  2  0  0  0
 34 36  1  0  0  0
 34 59  1  0  0  0
 34104  1  0  0  0
 35 44  2  0  0  0
 35 45  1  0  0  0
 35 68  1  0  0  0
 36 56  1  0  0  0
 36105  1  0  0  0
 37 39  1  0  0  0
 37 47  1  0  0  0
 37 66  1  0  0  0
 37106  1  0  0  0
 38 43  2  0  0  0
 38 46  1  0  0  0
 38 47  1  0  0  0
 39 64  1  0  0  0
 39 67  2  0  0  0
 40 52  1  0  0  0
 40 53  2  0  0  0
 40 58  1  0  0  0
 41107  1  0  0  0
 41108  1  0  0  0
 41109  1  0  0  0
 41 48  1  0  0  0
 42 43  1  0  0  0
 42 66  1  0  0  0
 42110  1  0  0  0
 42111  1  0  0  0
 43 44  1  0  0  0
 44112  1  0  0  0
 45 46  2  0  0  0
 45113  1  0  0  0
 46114  1  0  0  0
 47115  1  0  0  0
 47116  1  0  0  0
 48 56  1  0  0  0
 48 65  1  0  0  0
 48117  1  0  0  0
 49 50  1  0  0  0
 49 53  1  0  0  0
 49 64  1  0  0  0
 49118  1  0  0  0
 50 51  1  0  0  0
 50119  1  0  0  0
 50120  1  0  0  0
 51 52  1  0  0  0
 51121  1  0  0  0
 51122  1  0  0  0
 52123  1  0  0  0
 52124  1  0  0  0
 53 54  1  0  0  0
 54 55  2  0  0  0
 54125  1  0  0  0
 55 57  1  0  0  0
 55126  1  0  0  0
 56 69  2  0  0  0
 57 58  2  0  0  0
 57127  1  0  0  0
 58128  1  0  0  0
 59 60  1  0  0  0
 59 61  1  0  0  0
 59 62  1  0  0  0
 60129  1  0  0  0
 60130  1  0  0  0
 60131  1  0  0  0
 61132  1  0  0  0
 61133  1  0  0  0
 61134  1  0  0  0
 62135  1  0  0  0
 62136  1  0  0  0
 62137  1  0  0  0
 63 65  1  0  0  0
 63138  1  0  0  0
 63139  1  0  0  0
 63140  1  0  0  0
 64141  1  0  0  0
 65142  1  0  0  0
 68 80  1  0  0  0
 71 72  2  0  0  0
 71 74  1  0  0  0
 71143  1  0  0  0
 72 75  1  0  0  0
 72144  1  0  0  0
 73 74  2  0  0  0
 73 76  1  0  0  0
 73145  1  0  0  0
 74 79  1  0  0  0
 75 76  2  0  0  0
 75 78  1  0  0  0
 76 81  1  0  0  0
 77 80  1  0  0  0
 77 82  1  0  0  0
 77 83  2  0  0  0
 78146  1  0  0  0
 78147  1  0  0  0
 78148  1  0  0  0
 79 82  1  0  0  0
 79149  1  0  0  0
 79150  1  0  0  0
 80151  1  0  0  0
 80152  1  0  0  0
 81153  1  0  0  0
 82154  1  0  0  0
M  ISO  4   1 100  68 101  80 101  81 100
M  END
> <chiral flag>
0

> <version>
0

> <s_m_source_file>
/data/baiqing/PycharmProjects/Reinvent-master-3.2/result/LINK_invent/BTK/process_docking_weight1_custom_product_contain_oxygen_bond_distance_aromatic_linkinvent_7_9_3/rearranged_h_0050.sdf

> <i_m_source_file_index>
51

> <r_mmod_Potential_Energy-OPLS-2005>
82.4742660522461

> <r_mmod_Stretch_Energy-OPLS-2005>
127.186416625977

> <r_mmod_Bend_Energy-OPLS-2005>
155.467315673828

> <r_mmod_Torsional_Energy-OPLS-2005>
240.650726318359

> <r_mmod_Improper_Torsional_Energy-OPLS-2005>
5.33831644058228

> <r_mmod_Van_der_Waal_Energy-OPLS-2005>
140.646057128906

> <r_mmod_Electrostatic_Energy-OPLS-2005>
-420.516448974609

> <r_mmod_Solvation_Energy-OPLS-2005>
-253.785736083984

> <b_mmod_Minimization_Converged-OPLS-2005>
0

> <r_mmod_RMS_Derivative-OPLS-2005>
2.67704463005066

$$$$
51
                    3D
 Structure written by MMmdl.
158167  0  0  1  0            999 V2000
  -30.6487  -14.6108   20.4639 C   0  0  0  0  0  0
  -30.4282  -12.3580   19.4676 C   0  0  0  0  0  0
  -29.5119  -12.4983   18.2305 C   0  0  0  0  0  0
  -28.0276  -12.3682   18.6282 C   0  0  0  0  0  0
  -27.6548  -13.2245   19.8691 C   0  0  2  0  0  0
  -28.6986  -13.0805   21.0036 C   0  0  0  0  0  0
  -25.2584  -13.8230   20.5713 C   0  0  0  0  0  0
  -24.1842  -13.0482   20.9158 C   0  0  0  0  0  0
  -24.6393  -11.6947   20.8716 C   0  0  0  0  0  0
  -23.9071  -10.4318   21.0408 C   0  0  0  0  0  0
  -24.3634   -9.4258   21.9204 C   0  0  0  0  0  0
  -23.6296   -8.2287   22.0776 C   0  0  0  0  0  0
  -22.4280   -8.0293   21.3567 C   0  0  0  0  0  0
  -21.9916   -9.0263   20.4686 C   0  0  0  0  0  0
  -22.7245  -10.2133   20.3079 C   0  0  0  0  0  0
  -21.6862   -6.0736   22.5276 C   0  0  0  0  0  0
  -21.4015   -6.5647   23.8207 C   0  0  0  0  0  0
  -21.3664   -5.6812   24.9172 C   0  0  0  0  0  0
  -21.6058   -4.3076   24.7244 C   0  0  0  0  0  0
  -21.8833   -3.8160   23.4369 C   0  0  0  0  0  0
  -21.9195   -4.6967   22.3426 C   0  0  0  0  0  0
  -22.7854  -13.5256   21.1817 C   0  0  0  0  0  0
  -22.1668   -4.2160   21.0995 F   0  0  0  0  0  0
  -21.5634   -3.4553   25.7748 F   0  0  0  0  0  0
  -30.0194  -13.3948   20.4383 N   0  0  0  0  0  0
  -26.3004  -12.9412   20.3347 N   0  0  0  0  0  0
  -25.9328  -11.6563   20.5782 N   0  0  0  0  0  0
  -22.0535  -12.8212   22.0374 N   0  0  0  0  0  0
  -25.4361  -15.1967   20.4135 N   0  0  0  0  0  0
  -31.8127  -14.7329   20.0783 O   0  0  0  0  0  0
  -21.6679   -6.8862   21.4227 O   0  0  0  0  0  0
  -22.3543  -14.5542   20.6652 O   0  0  0  0  0  0
  -24.6198  -31.8665   23.2102 C   0  0  0  0  0  0
  -25.9054  -32.4823   23.8427 C   0  0  1  0  0  0
  -27.2212  -27.3528   20.1185 C   0  0  0  0  0  0
  -25.5886  -33.8631   24.2359 N   0  0  0  0  0  0
  -23.4154  -30.4910   21.5524 C   0  0  2  0  0  0
  -24.8638  -28.9546   20.1166 C   0  0  0  0  0  0
  -22.7477  -29.4640   22.4975 C   0  0  0  0  0  0
  -18.0282  -28.1391   22.8471 C   0  0  0  0  0  0
  -24.1486  -36.7300   23.2647 C   0  0  0  0  0  0
  -25.9555  -30.8066   21.3816 C   0  0  0  0  0  0
  -26.0314  -29.4370   20.7226 C   0  0  0  0  0  0
  -27.2154  -28.6460   20.7169 C   0  0  0  0  0  0
  -26.0425  -26.9339   19.4661 C   0  0  0  0  0  0
  -24.8701  -27.7066   19.4799 C   0  0  0  0  0  0
  -23.6304  -29.8292   20.1681 C   0  0  0  0  0  0
  -25.4117  -36.3130   24.0359 C   0  0  1  0  0  0
  -20.5883  -28.3676   23.1290 C   0  0  2  0  0  0
  -20.6765  -26.9405   22.5404 C   0  0  0  0  0  0
  -19.5742  -26.6374   21.5212 C   0  0  0  0  0  0
  -18.1925  -26.7935   22.1621 C   0  0  0  0  0  0
  -19.1535  -28.8857   23.2873 C   0  0  0  0  0  0
  -18.9461  -30.1465   23.8875 C   0  0  0  0  0  0
  -17.6457  -30.6589   24.0562 C   0  0  0  0  0  0
  -25.9039  -34.9483   23.5159 C   0  0  0  0  0  0
  -16.5348  -29.9080   23.6326 C   0  0  0  0  0  0
  -16.7266  -28.6503   23.0336 C   0  0  0  0  0  0
  -26.4448  -31.6609   25.0771 C   0  0  0  0  0  0
  -25.3703  -31.3656   26.1509 C   0  0  0  0  0  0
  -27.0280  -30.3057   24.6152 C   0  0  0  0  0  0
  -27.6045  -32.4322   25.7501 C   0  0  0  0  0  0
  -27.5602  -37.1803   24.8471 C   0  0  0  0  0  0
  -21.4193  -29.3034   22.3704 N   0  0  0  0  0  0
  -26.4303  -37.3821   23.9414 N   0  0  0  0  0  0
  -24.6822  -31.0703   22.1044 N   0  0  0  0  0  0
  -23.4218  -28.8191   23.3049 O   0  0  0  0  0  0
  -28.3375  -26.5141   20.1462 O   0  0  0  0  0  0
  -26.5618  -34.8921   22.4726 O   0  0  0  0  0  0
  -23.5361  -32.1449   23.7426 O   0  0  0  0  0  0
  -30.3269  -17.1952   18.8220 C   0  0  0  0  0  0
  -30.3662  -18.4674   18.2157 C   0  0  0  0  0  0
  -29.5787  -18.2425   20.8777 C   0  0  0  0  0  0
  -29.6205  -19.5583   20.2839 C   0  0  0  0  0  0
  -29.9536  -17.0444   20.1776 C   0  0  0  0  0  0
  -30.0378  -19.6392   18.9245 C   0  0  0  0  0  0
  -27.8079  -22.5768   20.1529 C   0  0  0  0  0  0
  -27.6595  -24.0398   19.6499 C   0  0  0  0  0  0
  -29.4566  -24.6158   21.3531 C   0  0  0  0  0  0
  -30.0307  -23.2538   20.8189 C   0  0  0  0  0  0
  -28.1621  -25.1336   20.6518 C   0  0  1  0  0  0
  -29.2796  -20.8076   21.1783 C   0  0  0  0  0  0
  -29.0116  -22.1902   20.6372 N   0  0  0  0  0  0
  -29.8885  -15.7098   20.7744 N   0  0  0  0  0  0
  -26.8404  -21.8111   20.0880 O   0  0  0  0  0  0
  -30.2008  -21.1294   18.0632 Cl  0  0  0  0  0  0
  -31.4763  -12.4471   19.1785 H   0  0  0  0  0  0
  -30.3329  -11.3649   19.9082 H   0  0  0  0  0  0
  -29.7621  -11.7416   17.4857 H   0  0  0  0  0  0
  -29.6814  -13.4665   17.7556 H   0  0  0  0  0  0
  -27.8328  -11.3139   18.8268 H   0  0  0  0  0  0
  -27.3942  -12.6442   17.7828 H   0  0  0  0  0  0
  -27.6746  -14.2622   19.5322 H   0  0  0  0  0  0
  -28.6977  -12.0681   21.4094 H   0  0  0  0  0  0
  -28.4578  -13.7345   21.8429 H   0  0  0  0  0  0
  -25.2802   -9.5743   22.4752 H   0  0  0  0  0  0
  -24.0044   -7.4709   22.7497 H   0  0  0  0  0  0
  -21.0871   -8.8774   19.8967 H   0  0  0  0  0  0
  -22.3734  -10.9660   19.6182 H   0  0  0  0  0  0
  -21.1974   -7.6153   23.9692 H   0  0  0  0  0  0
  -21.1474   -6.0566   25.9073 H   0  0  0  0  0  0
  -22.0582   -2.7621   23.2890 H   0  0  0  0  0  0
  -22.4133  -11.9819   22.4679 H   0  0  0  0  0  0
  -21.1165  -13.1206   22.2618 H   0  0  0  0  0  0
  -24.6831  -15.8646   20.5397 H   0  0  0  0  0  0
  -26.2978  -15.6314   20.1076 H   0  0  0  0  0  0
  -26.7129  -32.5507   23.1201 H   0  0  0  0  0  0
  -25.0002  -33.9808   25.0471 H   0  0  0  0  0  0
  -22.7058  -31.3085   21.4111 H   0  0  0  0  0  0
  -23.3787  -35.9591   23.3296 H   0  0  0  0  0  0
  -24.3599  -36.8916   22.2065 H   0  0  0  0  0  0
  -23.7170  -37.6472   23.6653 H   0  0  0  0  0  0
  -26.0901  -31.5752   20.6192 H   0  0  0  0  0  0
  -26.8356  -30.8552   22.0099 H   0  0  0  0  0  0
  -28.1107  -29.0141   21.1984 H   0  0  0  0  0  0
  -26.0056  -26.0162   18.9088 H   0  0  0  0  0  0
  -23.9824  -27.3420   18.9844 H   0  0  0  0  0  0
  -23.7416  -30.6061   19.4113 H   0  0  0  0  0  0
  -22.7538  -29.2537   19.8659 H   0  0  0  0  0  0
  -25.1282  -36.2036   25.0853 H   0  0  0  0  0  0
  -20.9957  -28.3234   24.1419 H   0  0  0  0  0  0
  -20.5671  -26.2282   23.3602 H   0  0  0  0  0  0
  -21.6641  -26.7434   22.1197 H   0  0  0  0  0  0
  -19.6904  -25.6282   21.1247 H   0  0  0  0  0  0
  -19.6699  -27.3179   20.6738 H   0  0  0  0  0  0
  -17.4199  -26.6678   21.4028 H   0  0  0  0  0  0
  -18.0326  -26.0096   22.9021 H   0  0  0  0  0  0
  -19.7943  -30.7299   24.2234 H   0  0  0  0  0  0
  -17.5004  -31.6279   24.5159 H   0  0  0  0  0  0
  -15.5347  -30.2971   23.7671 H   0  0  0  0  0  0
  -15.8668  -28.0831   22.7031 H   0  0  0  0  0  0
  -24.5908  -30.6992   25.7798 H   0  0  0  0  0  0
  -24.8850  -32.2759   26.5028 H   0  0  0  0  0  0
  -25.8067  -30.8763   27.0227 H   0  0  0  0  0  0
  -26.2823  -29.6848   24.1184 H   0  0  0  0  0  0
  -27.4013  -29.7281   25.4608 H   0  0  0  0  0  0
  -27.8679  -30.4394   23.9347 H   0  0  0  0  0  0
  -27.2726  -33.3647   26.2079 H   0  0  0  0  0  0
  -28.3829  -32.6843   25.0288 H   0  0  0  0  0  0
  -28.0740  -31.8440   26.5395 H   0  0  0  0  0  0
  -28.2601  -38.0123   24.7582 H   0  0  0  0  0  0
  -28.1118  -36.2657   24.6230 H   0  0  0  0  0  0
  -27.2320  -37.1373   25.8873 H   0  0  0  0  0  0
  -20.9387  -29.8770   21.6918 H   0  0  0  0  0  0
  -26.0215  -38.2896   24.1430 H   0  0  0  0  0  0
  -30.5799  -16.3359   18.2164 H   0  0  0  0  0  0
  -30.6815  -18.5582   17.1851 H   0  0  0  0  0  0
  -29.2738  -18.1574   21.9122 H   0  0  0  0  0  0
  -26.6034  -24.1623   19.4244 H   0  0  0  0  0  0
  -28.2055  -24.1289   18.7115 H   0  0  0  0  0  0
  -30.2374  -25.3743   21.3239 H   0  0  0  0  0  0
  -29.2336  -24.4937   22.4146 H   0  0  0  0  0  0
  -30.8361  -22.9226   21.4760 H   0  0  0  0  0  0
  -30.5121  -23.4284   19.8539 H   0  0  0  0  0  0
  -27.4052  -25.2130   21.4348 H   0  0  0  0  0  0
  -30.0932  -20.8880   21.8967 H   0  0  0  0  0  0
  -28.4211  -20.5333   21.7913 H   0  0  0  0  0  0
  -29.0600  -15.5166   21.3150 H   0  0  0  0  0  0
  1 25  1  0  0  0
  1 30  2  0  0  0
  1 84  1  0  0  0
  2  3  1  0  0  0
  2 25  1  0  0  0
  2 87  1  0  0  0
  2 88  1  0  0  0
  3  4  1  0  0  0
  3 89  1  0  0  0
  3 90  1  0  0  0
  4  5  1  0  0  0
  4 91  1  0  0  0
  4 92  1  0  0  0
  5  6  1  0  0  0
  5 26  1  0  0  0
  5 93  1  0  0  0
  6 25  1  0  0  0
  6 94  1  0  0  0
  6 95  1  0  0  0
  7  8  2  0  0  0
  7 26  1  0  0  0
  7 29  1  0  0  0
  8  9  1  0  0  0
  8 22  1  0  0  0
  9 10  1  0  0  0
  9 27  2  0  0  0
 10 11  2  0  0  0
 10 15  1  0  0  0
 11 12  1  0  0  0
 11 96  1  0  0  0
 12 13  2  0  0  0
 12 97  1  0  0  0
 13 14  1  0  0  0
 13 31  1  0  0  0
 14 15  2  0  0  0
 14 98  1  0  0  0
 15 99  1  0  0  0
 16 17  2  0  0  0
 16 21  1  0  0  0
 16 31  1  0  0  0
 17 18  1  0  0  0
 17100  1  0  0  0
 18 19  2  0  0  0
 18101  1  0  0  0
 19 20  1  0  0  0
 19 24  1  0  0  0
 20 21  2  0  0  0
 20102  1  0  0  0
 21 23  1  0  0  0
 22 28  1  0  0  0
 22 32  2  0  0  0
 26 27  1  0  0  0
 28103  1  0  0  0
 28104  1  0  0  0
 29105  1  0  0  0
 29106  1  0  0  0
 33 34  1  0  0  0
 33 66  1  0  0  0
 33 70  2  0  0  0
 34 36  1  0  0  0
 34 59  1  0  0  0
 34107  1  0  0  0
 35 44  2  0  0  0
 35 45  1  0  0  0
 35 68  1  0  0  0
 36 56  1  0  0  0
 36108  1  0  0  0
 37 39  1  0  0  0
 37 47  1  0  0  0
 37 66  1  0  0  0
 37109  1  0  0  0
 38 43  2  0  0  0
 38 46  1  0  0  0
 38 47  1  0  0  0
 39 64  1  0  0  0
 39 67  2  0  0  0
 40 52  1  0  0  0
 40 53  2  0  0  0
 40 58  1  0  0  0
 41110  1  0  0  0
 41111  1  0  0  0
 41112  1  0  0  0
 41 48  1  0  0  0
 42 43  1  0  0  0
 42 66  1  0  0  0
 42113  1  0  0  0
 42114  1  0  0  0
 43 44  1  0  0  0
 44115  1  0  0  0
 45 46  2  0  0  0
 45116  1  0  0  0
 46117  1  0  0  0
 47118  1  0  0  0
 47119  1  0  0  0
 48 56  1  0  0  0
 48 65  1  0  0  0
 48120  1  0  0  0
 49 50  1  0  0  0
 49 53  1  0  0  0
 49 64  1  0  0  0
 49121  1  0  0  0
 50 51  1  0  0  0
 50122  1  0  0  0
 50123  1  0  0  0
 51 52  1  0  0  0
 51124  1  0  0  0
 51125  1  0  0  0
 52126  1  0  0  0
 52127  1  0  0  0
 53 54  1  0  0  0
 54 55  2  0  0  0
 54128  1  0  0  0
 55 57  1  0  0  0
 55129  1  0  0  0
 56 69  2  0  0  0
 57 58  2  0  0  0
 57130  1  0  0  0
 58131  1  0  0  0
 59 60  1  0  0  0
 59 61  1  0  0  0
 59 62  1  0  0  0
 60132  1  0  0  0
 60133  1  0  0  0
 60134  1  0  0  0
 61135  1  0  0  0
 61136  1  0  0  0
 61137  1  0  0  0
 62138  1  0  0  0
 62139  1  0  0  0
 62140  1  0  0  0
 63 65  1  0  0  0
 63141  1  0  0  0
 63142  1  0  0  0
 63143  1  0  0  0
 64144  1  0  0  0
 65145  1  0  0  0
 68 81  1  0  0  0
 71 72  2  0  0  0
 71 75  1  0  0  0
 71146  1  0  0  0
 72 76  1  0  0  0
 72147  1  0  0  0
 73 74  1  0  0  0
 73 75  2  0  0  0
 73148  1  0  0  0
 74 76  2  0  0  0
 74 82  1  0  0  0
 75 84  1  0  0  0
 76 86  1  0  0  0
 77 78  1  0  0  0
 77 83  1  0  0  0
 77 85  2  0  0  0
 78 81  1  0  0  0
 78149  1  0  0  0
 78150  1  0  0  0
 79 80  1  0  0  0
 79 81  1  0  0  0
 79151  1  0  0  0
 79152  1  0  0  0
 80 83  1  0  0  0
 80153  1  0  0  0
 80154  1  0  0  0
 81155  1  0  0  0
 82 83  1  0  0  0
 82156  1  0  0  0
 82157  1  0  0  0
 84158  1  0  0  0
M  ISO  4   1 100  68 101  81 101  84 100
M  END
> <chiral flag>
0

> <version>
0

> <s_m_source_file>
/data/baiqing/PycharmProjects/Reinvent-master-3.2/result/LINK_invent/BTK/process_docking_weight1_custom_product_contain_oxygen_bond_distance_aromatic_linkinvent_7_9_3/rearranged_h_0050.sdf

> <i_m_source_file_index>
52

> <r_mmod_Potential_Energy-OPLS-2005>
69.2591934204102

> <r_mmod_Stretch_Energy-OPLS-2005>
77.4534912109375

> <r_mmod_Bend_Energy-OPLS-2005>
133.963134765625

> <r_mmod_Torsional_Energy-OPLS-2005>
276.372467041016

> <r_mmod_Improper_Torsional_Energy-OPLS-2005>
4.76026344299316

> <r_mmod_Van_der_Waal_Energy-OPLS-2005>
159.67204284668

> <r_mmod_Electrostatic_Energy-OPLS-2005>
-396.171264648438

> <r_mmod_Solvation_Energy-OPLS-2005>
-225.700256347656

> <b_mmod_Minimization_Converged-OPLS-2005>
0

> <r_mmod_RMS_Derivative-OPLS-2005>
4.49654722213745

$$$$
52
                    3D
 Structure written by MMmdl.
185195  0  0  1  0            999 V2000
  -30.1830  -14.4826   20.4054 C   0  0  0  0  0  0
  -30.4733  -12.2709   19.3763 C   0  0  0  0  0  0
  -29.5043  -12.2397   18.1595 C   0  0  0  0  0  0
  -28.0459  -11.8468   18.5856 C   0  0  0  0  0  0
  -27.6713  -12.7102   19.7791 C   0  0  2  0  0  0
  -28.6996  -12.6143   20.9354 C   0  0  0  0  0  0
  -25.4732  -14.0659   20.7126 C   0  0  0  0  0  0
  -24.3189  -13.1298   20.9261 C   0  0  0  0  0  0
  -24.6769  -11.7427   20.8827 C   0  0  0  0  0  0
  -23.9176  -10.4663   21.0390 C   0  0  0  0  0  0
  -24.3609   -9.4484   21.9204 C   0  0  0  0  0  0
  -23.6325   -8.2470   22.0780 C   0  0  0  0  0  0
  -22.4357   -8.0431   21.3543 C   0  0  0  0  0  0
  -22.0081   -9.0363   20.4551 C   0  0  0  0  0  0
  -22.7419  -10.2275   20.2903 C   0  0  0  0  0  0
  -21.6916   -6.0813   22.5249 C   0  0  0  0  0  0
  -21.4070   -6.5700   23.8182 C   0  0  0  0  0  0
  -21.3696   -5.6845   24.9148 C   0  0  0  0  0  0
  -21.6042   -4.3093   24.7195 C   0  0  0  0  0  0
  -21.8789   -3.8200   23.4310 C   0  0  0  0  0  0
  -21.9204   -4.7022   22.3384 C   0  0  0  0  0  0
  -22.8046  -13.3347   21.1111 C   0  0  0  0  0  0
  -22.1655   -4.2183   21.0956 F   0  0  0  0  0  0
  -21.5638   -3.4580   25.7719 F   0  0  0  0  0  0
  -29.9135  -13.1629   20.4042 N   0  0  0  0  0  0
  -26.3140  -12.8861   20.3041 N   0  0  0  0  0  0
  -25.9038  -11.6379   20.5595 N   0  0  0  0  0  0
  -22.1964  -12.7492   22.1390 N   0  0  0  0  0  0
  -25.9393  -16.6236   20.8199 N   0  0  0  0  0  0
  -31.3795  -14.8376   20.2899 O   0  0  0  0  0  0
  -21.6727   -6.8989   21.4225 O   0  0  0  0  0  0
  -22.1366  -14.0376   20.3523 O   0  0  0  0  0  0
  -24.6086  -31.8727   23.2155 C   0  0  0  0  0  0
  -25.8993  -32.4856   23.8443 C   0  0  1  0  0  0
  -27.2343  -27.4904   20.0931 C   0  0  0  0  0  0
  -25.5864  -33.8652   24.2374 N   0  0  0  0  0  0
  -23.3923  -30.4977   21.5549 C   0  0  2  0  0  0
  -24.8369  -28.9653   20.1245 C   0  0  0  0  0  0
  -22.7376  -29.4681   22.5031 C   0  0  0  0  0  0
  -18.0261  -28.1370   22.8492 C   0  0  0  0  0  0
  -24.1480  -36.7348   23.2638 C   0  0  0  0  0  0
  -25.9121  -30.8610   21.3516 C   0  0  0  0  0  0
  -25.9930  -29.4935   20.7132 C   0  0  0  0  0  0
  -27.1979  -28.7664   20.6956 C   0  0  0  0  0  0
  -26.0649  -26.9623   19.5134 C   0  0  0  0  0  0
  -24.8634  -27.6934   19.5246 C   0  0  0  0  0  0
  -23.5986  -29.8285   20.1692 C   0  0  0  0  0  0
  -25.4093  -36.3145   24.0354 C   0  0  1  0  0  0
  -20.5846  -28.3639   23.1346 C   0  0  2  0  0  0
  -20.6742  -26.9384   22.5423 C   0  0  0  0  0  0
  -19.5728  -26.6386   21.5206 C   0  0  0  0  0  0
  -18.1910  -26.7917   22.1623 C   0  0  0  0  0  0
  -19.1508  -28.8820   23.2922 C   0  0  0  0  0  0
  -18.9439  -30.1426   23.8936 C   0  0  0  0  0  0
  -17.6442  -30.6574   24.0573 C   0  0  0  0  0  0
  -25.9013  -34.9501   23.5165 C   0  0  0  0  0  0
  -16.5337  -29.9088   23.6310 C   0  0  0  0  0  0
  -16.7252  -28.6505   23.0333 C   0  0  0  0  0  0
  -26.4451  -31.6611   25.0737 C   0  0  0  0  0  0
  -25.3765  -31.3678   26.1527 C   0  0  0  0  0  0
  -27.0258  -30.3078   24.6008 C   0  0  0  0  0  0
  -27.6051  -32.4306   25.7482 C   0  0  0  0  0  0
  -27.5585  -37.1824   24.8461 C   0  0  0  0  0  0
  -21.4111  -29.3028   22.3775 N   0  0  0  0  0  0
  -26.4290  -37.3817   23.9422 N   0  0  0  0  0  0
  -24.6567  -31.0898   22.1013 N   0  0  0  0  0  0
  -23.4182  -28.8217   23.3043 O   0  0  0  0  0  0
  -28.3791  -26.7522   19.9693 O   0  0  0  0  0  0
  -26.5578  -34.8937   22.4728 O   0  0  0  0  0  0
  -23.5294  -32.1438   23.7597 O   0  0  0  0  0  0
  -29.5413  -20.8739   18.0522 C   0  0  0  0  0  0
  -25.2007  -15.3925   22.5897 C   0  0  0  0  0  0
  -30.1275  -22.0814   18.4565 C   0  0  0  0  0  0
  -26.9930  -15.0966   22.1443 C   0  0  0  0  0  0
  -24.4365  -15.6675   19.4252 C   0  0  0  0  0  0
  -28.8778  -20.0636   18.9907 C   0  0  0  0  0  0
  -23.9299  -15.7588   21.2560 C   0  0  0  0  0  0
  -26.2541  -15.3640   18.9716 C   0  0  0  0  0  0
  -28.5976  -20.5647   20.2871 C   0  0  0  0  0  0
  -29.2148  -21.7732   20.7103 C   0  0  0  0  0  0
  -30.0575  -22.4770   19.8062 C   0  0  0  0  0  0
  -27.5812  -15.1714   20.3636 C   0  0  0  0  0  0
  -30.3410  -25.8781   20.8952 C   0  0  0  0  0  0
  -31.9158  -23.4466   21.0475 C   0  0  0  0  0  0
  -28.7428  -18.6504   18.6283 C   0  0  0  0  0  0
  -29.2981  -26.7162   20.9777 C   0  0  0  0  0  0
  -29.2859  -17.6881   19.3935 C   0  0  0  0  0  0
  -31.3880  -25.7495   21.9908 C   0  0  0  0  0  0
  -30.5046  -24.9156   19.7279 C   0  0  0  0  0  0
  -32.5045  -24.7450   21.6197 C   0  0  0  0  0  0
  -22.6444  -16.4688   21.6508 C   0  0  0  0  0  0
  -26.5472  -15.3796   17.4818 C   0  0  0  0  0  0
  -27.6501  -19.7973   21.2045 C   0  0  0  0  0  0
  -29.0246  -22.2966   22.1334 C   0  0  0  0  0  0
  -29.4040  -16.2449   18.9898 C   0  0  0  0  0  0
  -30.8446  -23.5842   20.2255 N   0  0  0  0  0  0
  -29.0713  -15.2880   20.0605 N   0  0  0  0  0  0
  -32.4251  -22.3623   21.3471 O   0  0  0  0  0  0
  -31.4698  -12.5883   19.0644 H   0  0  0  0  0  0
  -30.5943  -11.2639   19.7790 H   0  0  0  0  0  0
  -29.8717  -11.5407   17.4075 H   0  0  0  0  0  0
  -29.5117  -13.2162   17.6663 H   0  0  0  0  0  0
  -28.0120  -10.7953   18.8688 H   0  0  0  0  0  0
  -27.3531  -11.9655   17.7470 H   0  0  0  0  0  0
  -27.8056  -13.4704   19.0376 H   0  0  0  0  0  0
  -28.8405  -11.5726   21.2314 H   0  0  0  0  0  0
  -28.4099  -13.1141   21.8533 H   0  0  0  0  0  0
  -25.2766   -9.5912   22.4763 H   0  0  0  0  0  0
  -24.0072   -7.4870   22.7511 H   0  0  0  0  0  0
  -21.1081   -8.8782   19.8769 H   0  0  0  0  0  0
  -22.3910  -10.9668   19.5838 H   0  0  0  0  0  0
  -21.2073   -7.6207   23.9694 H   0  0  0  0  0  0
  -21.1567   -6.0588   25.9051 H   0  0  0  0  0  0
  -22.0518   -2.7640   23.2803 H   0  0  0  0  0  0
  -22.7241  -12.1937   22.7963 H   0  0  0  0  0  0
  -21.2035  -12.8586   22.2757 H   0  0  0  0  0  0
  -25.1167  -17.2071   20.8529 H   0  0  0  0  0  0
  -26.7022  -17.0112   20.2843 H   0  0  0  0  0  0
  -26.7078  -32.5603   23.1233 H   0  0  0  0  0  0
  -25.0027  -33.9823   25.0527 H   0  0  0  0  0  0
  -22.6778  -31.3124   21.4185 H   0  0  0  0  0  0
  -23.3735  -35.9687   23.3294 H   0  0  0  0  0  0
  -24.3589  -36.8963   22.2053 H   0  0  0  0  0  0
  -23.7227  -37.6557   23.6642 H   0  0  0  0  0  0
  -25.9982  -31.6192   20.5719 H   0  0  0  0  0  0
  -26.8103  -30.9345   21.9527 H   0  0  0  0  0  0
  -28.0925  -29.2010   21.1181 H   0  0  0  0  0  0
  -26.0942  -25.9902   19.0416 H   0  0  0  0  0  0
  -23.9746  -27.2796   19.0687 H   0  0  0  0  0  0
  -23.7099  -30.6033   19.4097 H   0  0  0  0  0  0
  -22.7224  -29.2497   19.8714 H   0  0  0  0  0  0
  -25.1257  -36.2034   25.0847 H   0  0  0  0  0  0
  -20.9936  -28.3185   24.1467 H   0  0  0  0  0  0
  -20.5618  -26.2247   23.3600 H   0  0  0  0  0  0
  -21.6620  -26.7418   22.1233 H   0  0  0  0  0  0
  -19.6886  -25.6305   21.1215 H   0  0  0  0  0  0
  -19.6674  -27.3216   20.6754 H   0  0  0  0  0  0
  -17.4177  -26.6661   21.4030 H   0  0  0  0  0  0
  -18.0322  -26.0056   22.9018 H   0  0  0  0  0  0
  -19.7918  -30.7225   24.2333 H   0  0  0  0  0  0
  -17.5001  -31.6257   24.5177 H   0  0  0  0  0  0
  -15.5338  -30.3006   23.7607 H   0  0  0  0  0  0
  -15.8651  -28.0842   22.7020 H   0  0  0  0  0  0
  -24.5923  -30.7024   25.7899 H   0  0  0  0  0  0
  -24.8972  -32.2817   26.5046 H   0  0  0  0  0  0
  -25.8174  -30.8824   27.0244 H   0  0  0  0  0  0
  -26.2757  -29.6865   24.1098 H   0  0  0  0  0  0
  -27.4127  -29.7273   25.4392 H   0  0  0  0  0  0
  -27.8547  -30.4453   23.9059 H   0  0  0  0  0  0
  -27.2687  -33.3581   26.2127 H   0  0  0  0  0  0
  -28.3820  -32.6902   25.0280 H   0  0  0  0  0  0
  -28.0762  -31.8390   26.5341 H   0  0  0  0  0  0
  -28.2602  -38.0124   24.7522 H   0  0  0  0  0  0
  -28.1085  -36.2661   24.6257 H   0  0  0  0  0  0
  -27.2321  -37.1446   25.8870 H   0  0  0  0  0  0
  -20.9254  -29.8801   21.7055 H   0  0  0  0  0  0
  -26.0194  -38.2903   24.1429 H   0  0  0  0  0  0
  -29.7111  -20.5183   17.0452 H   0  0  0  0  0  0
  -24.9291  -15.4883   23.6303 H   0  0  0  0  0  0
  -30.7113  -22.6507   17.7467 H   0  0  0  0  0  0
  -27.7238  -15.0311   22.9355 H   0  0  0  0  0  0
  -23.7127  -15.8803   18.6495 H   0  0  0  0  0  0
  -28.2496  -18.4082   17.6964 H   0  0  0  0  0  0
  -29.1019  -27.3766   21.8102 H   0  0  0  0  0  0
  -29.7527  -17.9441   20.3335 H   0  0  0  0  0  0
  -30.8882  -25.4150   22.9007 H   0  0  0  0  0  0
  -31.8075  -26.7311   22.2095 H   0  0  0  0  0  0
  -31.3082  -25.2744   19.0829 H   0  0  0  0  0  0
  -29.6111  -24.8773   19.1056 H   0  0  0  0  0  0
  -33.1653  -25.1813   20.8690 H   0  0  0  0  0  0
  -33.1219  -24.5243   22.4902 H   0  0  0  0  0  0
  -22.8806  -17.4635   22.0337 H   0  0  0  0  0  0
  -22.1128  -15.9123   22.4214 H   0  0  0  0  0  0
  -21.9921  -16.5998   20.7846 H   0  0  0  0  0  0
  -25.6282  -15.1472   16.9427 H   0  0  0  0  0  0
  -27.2847  -14.6348   17.1878 H   0  0  0  0  0  0
  -26.8694  -16.3700   17.1624 H   0  0  0  0  0  0
  -27.0535  -19.0818   20.6421 H   0  0  0  0  0  0
  -26.9212  -20.4605   21.6713 H   0  0  0  0  0  0
  -28.1874  -19.2610   21.9863 H   0  0  0  0  0  0
  -28.1112  -21.9548   22.6130 H   0  0  0  0  0  0
  -28.9800  -23.3853   22.1428 H   0  0  0  0  0  0
  -29.8622  -21.9852   22.7570 H   0  0  0  0  0  0
  -30.4281  -16.1570   18.6162 H   0  0  0  0  0  0
  -28.8413  -16.0510   18.0911 H   0  0  0  0  0  0
  1 25  1  0  0  0
  1 30  2  0  0  0
  1 97  1  0  0  0
  2  3  1  0  0  0
  2 25  1  0  0  0
  2 99  1  0  0  0
  2100  1  0  0  0
  3  4  1  0  0  0
  3101  1  0  0  0
  3102  1  0  0  0
  4  5  1  0  0  0
  4103  1  0  0  0
  4104  1  0  0  0
  5  6  1  0  0  0
  5 26  1  0  0  0
  5105  1  0  0  0
  6 25  1  0  0  0
  6106  1  0  0  0
  6107  1  0  0  0
  7  8  2  0  0  0
  7 26  1  0  0  0
  7 29  1  0  0  0
  8  9  1  0  0  0
  8 22  1  0  0  0
  9 10  1  0  0  0
  9 27  2  0  0  0
 10 11  2  0  0  0
 10 15  1  0  0  0
 11 12  1  0  0  0
 11108  1  0  0  0
 12 13  2  0  0  0
 12109  1  0  0  0
 13 14  1  0  0  0
 13 31  1  0  0  0
 14 15  2  0  0  0
 14110  1  0  0  0
 15111  1  0  0  0
 16 17  2  0  0  0
 16 21  1  0  0  0
 16 31  1  0  0  0
 17 18  1  0  0  0
 17112  1  0  0  0
 18 19  2  0  0  0
 18113  1  0  0  0
 19 20  1  0  0  0
 19 24  1  0  0  0
 20 21  2  0  0  0
 20114  1  0  0  0
 21 23  1  0  0  0
 22 28  1  0  0  0
 22 32  2  0  0  0
 26 27  1  0  0  0
 28115  1  0  0  0
 28116  1  0  0  0
 29117  1  0  0  0
 29118  1  0  0  0
 33 34  1  0  0  0
 33 66  1  0  0  0
 33 70  2  0  0  0
 34 36  1  0  0  0
 34 59  1  0  0  0
 34119  1  0  0  0
 35 44  2  0  0  0
 35 45  1  0  0  0
 35 68  1  0  0  0
 36 56  1  0  0  0
 36120  1  0  0  0
 37 39  1  0  0  0
 37 47  1  0  0  0
 37 66  1  0  0  0
 37121  1  0  0  0
 38 43  2  0  0  0
 38 46  1  0  0  0
 38 47  1  0  0  0
 39 64  1  0  0  0
 39 67  2  0  0  0
 40 52  1  0  0  0
 40 53  2  0  0  0
 40 58  1  0  0  0
 41122  1  0  0  0
 41123  1  0  0  0
 41124  1  0  0  0
 41 48  1  0  0  0
 42 43  1  0  0  0
 42 66  1  0  0  0
 42125  1  0  0  0
 42126  1  0  0  0
 43 44  1  0  0  0
 44127  1  0  0  0
 45 46  2  0  0  0
 45128  1  0  0  0
 46129  1  0  0  0
 47130  1  0  0  0
 47131  1  0  0  0
 48 56  1  0  0  0
 48 65  1  0  0  0
 48132  1  0  0  0
 49 50  1  0  0  0
 49 53  1  0  0  0
 49 64  1  0  0  0
 49133  1  0  0  0
 50 51  1  0  0  0
 50134  1  0  0  0
 50135  1  0  0  0
 51 52  1  0  0  0
 51136  1  0  0  0
 51137  1  0  0  0
 52138  1  0  0  0
 52139  1  0  0  0
 53 54  1  0  0  0
 54 55  2  0  0  0
 54140  1  0  0  0
 55 57  1  0  0  0
 55141  1  0  0  0
 56 69  2  0  0  0
 57 58  2  0  0  0
 57142  1  0  0  0
 58143  1  0  0  0
 59 60  1  0  0  0
 59 61  1  0  0  0
 59 62  1  0  0  0
 60144  1  0  0  0
 60145  1  0  0  0
 60146  1  0  0  0
 61147  1  0  0  0
 61148  1  0  0  0
 61149  1  0  0  0
 62150  1  0  0  0
 62151  1  0  0  0
 62152  1  0  0  0
 63 65  1  0  0  0
 63153  1  0  0  0
 63154  1  0  0  0
 63155  1  0  0  0
 64156  1  0  0  0
 65157  1  0  0  0
 68 86  1  0  0  0
 71 73  2  0  0  0
 71 76  1  0  0  0
 71158  1  0  0  0
 72 74  2  0  0  0
 72 77  1  0  0  0
 72159  1  0  0  0
 73 81  1  0  0  0
 73160  1  0  0  0
 74 82  1  0  0  0
 74161  1  0  0  0
 75 77  2  0  0  0
 75 78  1  0  0  0
 75162  1  0  0  0
 76 79  2  0  0  0
 76 85  1  0  0  0
 77 91  1  0  0  0
 78 82  2  0  0  0
 78 92  1  0  0  0
 79 80  1  0  0  0
 79 93  1  0  0  0
 80 81  2  0  0  0
 80 94  1  0  0  0
 81 96  1  0  0  0
 82 97  1  0  0  0
 83 86  2  0  0  0
 83 88  1  0  0  0
 83 89  1  0  0  0
 84 90  1  0  0  0
 84 96  1  0  0  0
 84 98  2  0  0  0
 85 87  2  0  0  0
 85163  1  0  0  0
 86164  1  0  0  0
 87 95  1  0  0  0
 87165  1  0  0  0
 88 90  1  0  0  0
 88166  1  0  0  0
 88167  1  0  0  0
 89 96  1  0  0  0
 89168  1  0  0  0
 89169  1  0  0  0
 90170  1  0  0  0
 90171  1  0  0  0
 91172  1  0  0  0
 91173  1  0  0  0
 91174  1  0  0  0
 92175  1  0  0  0
 92176  1  0  0  0
 92177  1  0  0  0
 93178  1  0  0  0
 93179  1  0  0  0
 93180  1  0  0  0
 94181  1  0  0  0
 94182  1  0  0  0
 94183  1  0  0  0
 95 97  1  0  0  0
 95184  1  0  0  0
 95185  1  0  0  0
M  ISO  4   1 100  68 101  86 101  97 100
M  END
> <chiral flag>
0

> <version>
0

> <s_m_source_file>
/data/baiqing/PycharmProjects/Reinvent-master-3.2/result/LINK_invent/BTK/process_docking_weight1_custom_product_contain_oxygen_bond_distance_aromatic_linkinvent_7_9_3/rearranged_h_0050.sdf

> <i_m_source_file_index>
53

> <r_mmod_Potential_Energy-OPLS-2005>
9289.125

> <r_mmod_Stretch_Energy-OPLS-2005>
5587.66259765625

> <r_mmod_Bend_Energy-OPLS-2005>
314.542541503906

> <r_mmod_Torsional_Energy-OPLS-2005>
454.098724365234

> <r_mmod_Improper_Torsional_Energy-OPLS-2005>
28.0961265563965

> <r_mmod_Van_der_Waal_Energy-OPLS-2005>
2940.900390625

> <r_mmod_Electrostatic_Energy-OPLS-2005>
-316.311828613281

> <r_mmod_Solvation_Energy-OPLS-2005>
-193.074645996094

> <b_mmod_Minimization_Converged-OPLS-2005>
0

> <r_mmod_RMS_Derivative-OPLS-2005>
8.02236366271973

$$$$
53
                    3D
 Structure written by MMmdl.
168177  0  0  1  0            999 V2000
  -30.6012  -14.6472   20.5260 C   0  0  0  0  0  0
  -30.4418  -12.4045   19.4605 C   0  0  0  0  0  0
  -29.5128  -12.5223   18.2322 C   0  0  0  0  0  0
  -28.0349  -12.3541   18.6351 C   0  0  0  0  0  0
  -27.6541  -13.2156   19.8682 C   0  0  2  0  0  0
  -28.6923  -13.0489   20.9988 C   0  0  0  0  0  0
  -25.2545  -13.8162   20.5619 C   0  0  0  0  0  0
  -24.1825  -13.0438   20.9187 C   0  0  0  0  0  0
  -24.6388  -11.6908   20.8742 C   0  0  0  0  0  0
  -23.9055  -10.4294   21.0394 C   0  0  0  0  0  0
  -24.3608   -9.4210   21.9167 C   0  0  0  0  0  0
  -23.6297   -8.2238   22.0736 C   0  0  0  0  0  0
  -22.4282   -8.0273   21.3538 C   0  0  0  0  0  0
  -21.9910   -9.0243   20.4633 C   0  0  0  0  0  0
  -22.7233  -10.2127   20.3047 C   0  0  0  0  0  0
  -21.6863   -6.0732   22.5280 C   0  0  0  0  0  0
  -21.4010   -6.5628   23.8214 C   0  0  0  0  0  0
  -21.3669   -5.6774   24.9174 C   0  0  0  0  0  0
  -21.6049   -4.3036   24.7213 C   0  0  0  0  0  0
  -21.8828   -3.8141   23.4329 C   0  0  0  0  0  0
  -21.9186   -4.6959   22.3396 C   0  0  0  0  0  0
  -22.7845  -13.5220   21.1850 C   0  0  0  0  0  0
  -22.1657   -4.2147   21.0968 F   0  0  0  0  0  0
  -21.5637   -3.4523   25.7728 F   0  0  0  0  0  0
  -30.0106  -13.4104   20.4527 N   0  0  0  0  0  0
  -26.2983  -12.9339   20.3299 N   0  0  0  0  0  0
  -25.9316  -11.6501   20.5752 N   0  0  0  0  0  0
  -22.0471  -12.8244   22.0421 N   0  0  0  0  0  0
  -25.4240  -15.1869   20.3906 N   0  0  0  0  0  0
  -31.7383  -14.8221   20.0838 O   0  0  0  0  0  0
  -21.6642   -6.8880   21.4247 O   0  0  0  0  0  0
  -22.3538  -14.5516   20.6687 O   0  0  0  0  0  0
  -24.6224  -31.8586   23.1968 C   0  0  0  0  0  0
  -25.9073  -32.4768   23.8299 C   0  0  1  0  0  0
  -27.2350  -27.3343   20.1113 C   0  0  0  0  0  0
  -25.5886  -33.8565   24.2240 N   0  0  0  0  0  0
  -23.4147  -30.4768   21.5401 C   0  0  2  0  0  0
  -24.8579  -28.9182   20.1128 C   0  0  0  0  0  0
  -22.7449  -29.4608   22.4942 C   0  0  0  0  0  0
  -18.0285  -28.1373   22.8479 C   0  0  0  0  0  0
  -24.1488  -36.7312   23.2632 C   0  0  0  0  0  0
  -25.9485  -30.7950   21.3572 C   0  0  0  0  0  0
  -26.0213  -29.4191   20.7057 C   0  0  0  0  0  0
  -27.2074  -28.6376   20.6924 C   0  0  0  0  0  0
  -26.0418  -26.8570   19.5268 C   0  0  0  0  0  0
  -24.8679  -27.6419   19.5187 C   0  0  0  0  0  0
  -23.6247  -29.7983   20.1584 C   0  0  0  0  0  0
  -25.4113  -36.3086   24.0324 C   0  0  1  0  0  0
  -20.5877  -28.3672   23.1294 C   0  0  2  0  0  0
  -20.6770  -26.9405   22.5407 C   0  0  0  0  0  0
  -19.5751  -26.6378   21.5199 C   0  0  0  0  0  0
  -18.1931  -26.7916   22.1619 C   0  0  0  0  0  0
  -19.1533  -28.8841   23.2881 C   0  0  0  0  0  0
  -18.9467  -30.1450   23.8890 C   0  0  0  0  0  0
  -17.6465  -30.6576   24.0561 C   0  0  0  0  0  0
  -25.9053  -34.9451   23.5095 C   0  0  0  0  0  0
  -16.5355  -29.9082   23.6312 C   0  0  0  0  0  0
  -16.7274  -28.6502   23.0322 C   0  0  0  0  0  0
  -26.4453  -31.6571   25.0665 C   0  0  0  0  0  0
  -25.3700  -31.3717   26.1409 C   0  0  0  0  0  0
  -27.0271  -30.2996   24.6085 C   0  0  0  0  0  0
  -27.6013  -32.4288   25.7446 C   0  0  0  0  0  0
  -27.5585  -37.1806   24.8455 C   0  0  0  0  0  0
  -21.4165  -29.3028   22.3692 N   0  0  0  0  0  0
  -26.4287  -37.3787   23.9410 N   0  0  0  0  0  0
  -24.6812  -31.0605   22.0902 N   0  0  0  0  0  0
  -23.4183  -28.8165   23.3026 O   0  0  0  0  0  0
  -28.4182  -26.5954   20.1716 O   0  0  0  0  0  0
  -26.5640  -34.8924   22.4675 O   0  0  0  0  0  0
  -23.5398  -32.1382   23.7310 O   0  0  0  0  0  0
  -27.8966  -18.9083   20.8587 C   0  0  0  0  0  0
  -28.2855  -17.5551   21.0555 C   0  0  0  0  0  0
  -30.0910  -19.4277   20.0747 C   0  0  0  0  0  0
  -28.7766  -19.8992   20.3526 C   0  0  0  0  0  0
  -30.5131  -18.0743   20.3205 C   0  0  0  0  0  0
  -29.5914  -17.0749   20.7753 C   0  0  0  0  0  0
  -29.7673  -22.8710   18.7846 C   0  0  0  0  0  0
  -33.2605  -21.9668   19.5916 C   0  0  0  0  0  0
  -31.1000  -22.7021   18.6845 C   0  0  0  0  0  0
  -31.9769  -22.3093   19.7751 C   0  0  0  0  0  0
  -28.8945  -23.5638   17.7386 C   0  0  0  0  0  0
  -28.5684  -25.0265   18.1502 C   0  0  0  0  0  0
  -28.2182  -23.9087   20.4500 C   0  0  0  0  0  0
  -28.6690  -25.2260   19.6810 C   0  0  1  0  0  0
  -31.9844  -17.7653   20.1279 C   0  0  0  0  0  0
  -28.1851  -21.3498   20.0802 C   0  0  0  0  0  0
  -29.8177  -15.6472   21.0554 N   0  0  0  0  0  0
  -28.9940  -22.6439   20.0537 N   0  3  1  0  0  0
  -31.4799  -12.5477   19.1574 H   0  0  0  0  0  0
  -30.3934  -11.4027   19.8890 H   0  0  0  0  0  0
  -29.7861  -11.7751   17.4870 H   0  0  0  0  0  0
  -29.6547  -13.4934   17.7571 H   0  0  0  0  0  0
  -27.8748  -11.2991   18.8607 H   0  0  0  0  0  0
  -27.3830  -12.5845   17.7916 H   0  0  0  0  0  0
  -27.6791  -14.2563   19.5438 H   0  0  0  0  0  0
  -28.7014  -12.0154   21.3489 H   0  0  0  0  0  0
  -28.4249  -13.6514   21.8678 H   0  0  0  0  0  0
  -25.2742   -9.5687   22.4743 H   0  0  0  0  0  0
  -24.0005   -7.4627   22.7454 H   0  0  0  0  0  0
  -21.0838   -8.8767   19.8943 H   0  0  0  0  0  0
  -22.3683  -10.9666   19.6158 H   0  0  0  0  0  0
  -21.2003   -7.6137   23.9724 H   0  0  0  0  0  0
  -21.1487   -6.0496   25.9081 H   0  0  0  0  0  0
  -22.0598   -2.7603   23.2829 H   0  0  0  0  0  0
  -22.4061  -11.9925   22.4865 H   0  0  0  0  0  0
  -21.1083  -13.1303   22.2571 H   0  0  0  0  0  0
  -24.6406  -15.8294   20.4408 H   0  0  0  0  0  0
  -26.2411  -15.5975   19.9590 H   0  0  0  0  0  0
  -26.7131  -32.5436   23.1041 H   0  0  0  0  0  0
  -24.9971  -33.9697   25.0342 H   0  0  0  0  0  0
  -22.7093  -31.2968   21.3920 H   0  0  0  0  0  0
  -23.3739  -35.9653   23.3274 H   0  0  0  0  0  0
  -24.3590  -36.8960   22.2052 H   0  0  0  0  0  0
  -23.7243  -37.6507   23.6678 H   0  0  0  0  0  0
  -26.0658  -31.5534   20.5812 H   0  0  0  0  0  0
  -26.8352  -30.8525   21.9775 H   0  0  0  0  0  0
  -28.1046  -29.0253   21.1539 H   0  0  0  0  0  0
  -25.9879  -25.8657   19.1036 H   0  0  0  0  0  0
  -23.9658  -27.2452   19.0729 H   0  0  0  0  0  0
  -23.7419  -30.5670   19.3931 H   0  0  0  0  0  0
  -22.7441  -29.2242   19.8639 H   0  0  0  0  0  0
  -25.1295  -36.1928   25.0815 H   0  0  0  0  0  0
  -20.9978  -28.3230   24.1410 H   0  0  0  0  0  0
  -20.5654  -26.2286   23.3603 H   0  0  0  0  0  0
  -21.6640  -26.7425   22.1216 H   0  0  0  0  0  0
  -19.6914  -25.6288   21.1228 H   0  0  0  0  0  0
  -19.6677  -27.3183   20.6726 H   0  0  0  0  0  0
  -17.4203  -26.6652   21.4021 H   0  0  0  0  0  0
  -18.0348  -26.0057   22.9021 H   0  0  0  0  0  0
  -19.7945  -30.7265   24.2243 H   0  0  0  0  0  0
  -17.5023  -31.6255   24.5164 H   0  0  0  0  0  0
  -15.5355  -30.2985   23.7629 H   0  0  0  0  0  0
  -15.8681  -28.0833   22.7006 H   0  0  0  0  0  0
  -24.5877  -30.7052   25.7761 H   0  0  0  0  0  0
  -24.8889  -32.2889   26.4819 H   0  0  0  0  0  0
  -25.8040  -30.8922   27.0194 H   0  0  0  0  0  0
  -26.2829  -29.6768   24.1112 H   0  0  0  0  0  0
  -27.3976  -29.7220   25.4561 H   0  0  0  0  0  0
  -27.8689  -30.4270   23.9276 H   0  0  0  0  0  0
  -27.2617  -33.3577   26.2036 H   0  0  0  0  0  0
  -28.3832  -32.6857   25.0288 H   0  0  0  0  0  0
  -28.0671  -31.8404   26.5364 H   0  0  0  0  0  0
  -28.2587  -38.0119   24.7529 H   0  0  0  0  0  0
  -28.1103  -36.2655   24.6249 H   0  0  0  0  0  0
  -27.2319  -37.1415   25.8860 H   0  0  0  0  0  0
  -20.9343  -29.8742   21.6905 H   0  0  0  0  0  0
  -26.0165  -38.2859   24.1419 H   0  0  0  0  0  0
  -26.8724  -19.1761   21.0809 H   0  0  0  0  0  0
  -27.5387  -16.8722   21.4367 H   0  0  0  0  0  0
  -30.8117  -20.1087   19.6611 H   0  0  0  0  0  0
  -33.8864  -21.6911   20.4302 H   0  0  0  0  0  0
  -33.7095  -21.9493   18.6084 H   0  0  0  0  0  0
  -31.5579  -22.9846   17.7462 H   0  0  0  0  0  0
  -31.6078  -22.2967   20.7910 H   0  0  0  0  0  0
  -27.9701  -22.9985   17.6186 H   0  0  0  0  0  0
  -29.3838  -23.5491   16.7639 H   0  0  0  0  0  0
  -27.5897  -25.3007   17.7621 H   0  0  0  0  0  0
  -29.2742  -25.7044   17.6695 H   0  0  0  0  0  0
  -27.1481  -23.7620   20.2990 H   0  0  0  0  0  0
  -28.3582  -24.0478   21.5210 H   0  0  0  0  0  0
  -29.7450  -25.2369   19.8598 H   0  0  0  0  0  0
  -32.5834  -18.6758   20.0956 H   0  0  0  0  0  0
  -32.1497  -17.2208   19.1986 H   0  0  0  0  0  0
  -32.3585  -17.1769   20.9654 H   0  0  0  0  0  0
  -27.4460  -21.4871   20.8691 H   0  0  0  0  0  0
  -27.6010  -21.2985   19.1613 H   0  0  0  0  0  0
  -29.0275  -15.2256   21.5161 H   0  0  0  0  0  0
  -29.6688  -22.5261   20.7937 H   0  0  0  0  0  0
  1 25  1  0  0  0
  1 30  2  0  0  0
  1 87  1  0  0  0
  2  3  1  0  0  0
  2 25  1  0  0  0
  2 89  1  0  0  0
  2 90  1  0  0  0
  3  4  1  0  0  0
  3 91  1  0  0  0
  3 92  1  0  0  0
  4  5  1  0  0  0
  4 93  1  0  0  0
  4 94  1  0  0  0
  5  6  1  0  0  0
  5 26  1  0  0  0
  5 95  1  0  0  0
  6 25  1  0  0  0
  6 96  1  0  0  0
  6 97  1  0  0  0
  7  8  2  0  0  0
  7 26  1  0  0  0
  7 29  1  0  0  0
  8  9  1  0  0  0
  8 22  1  0  0  0
  9 10  1  0  0  0
  9 27  2  0  0  0
 10 11  2  0  0  0
 10 15  1  0  0  0
 11 12  1  0  0  0
 11 98  1  0  0  0
 12 13  2  0  0  0
 12 99  1  0  0  0
 13 14  1  0  0  0
 13 31  1  0  0  0
 14 15  2  0  0  0
 14100  1  0  0  0
 15101  1  0  0  0
 16 17  2  0  0  0
 16 21  1  0  0  0
 16 31  1  0  0  0
 17 18  1  0  0  0
 17102  1  0  0  0
 18 19  2  0  0  0
 18103  1  0  0  0
 19 20  1  0  0  0
 19 24  1  0  0  0
 20 21  2  0  0  0
 20104  1  0  0  0
 21 23  1  0  0  0
 22 28  1  0  0  0
 22 32  2  0  0  0
 26 27  1  0  0  0
 28105  1  0  0  0
 28106  1  0  0  0
 29107  1  0  0  0
 29108  1  0  0  0
 33 34  1  0  0  0
 33 66  1  0  0  0
 33 70  2  0  0  0
 34 36  1  0  0  0
 34 59  1  0  0  0
 34109  1  0  0  0
 35 44  2  0  0  0
 35 45  1  0  0  0
 35 68  1  0  0  0
 36 56  1  0  0  0
 36110  1  0  0  0
 37 39  1  0  0  0
 37 47  1  0  0  0
 37 66  1  0  0  0
 37111  1  0  0  0
 38 43  2  0  0  0
 38 46  1  0  0  0
 38 47  1  0  0  0
 39 64  1  0  0  0
 39 67  2  0  0  0
 40 52  1  0  0  0
 40 53  2  0  0  0
 40 58  1  0  0  0
 41112  1  0  0  0
 41113  1  0  0  0
 41114  1  0  0  0
 41 48  1  0  0  0
 42 43  1  0  0  0
 42 66  1  0  0  0
 42115  1  0  0  0
 42116  1  0  0  0
 43 44  1  0  0  0
 44117  1  0  0  0
 45 46  2  0  0  0
 45118  1  0  0  0
 46119  1  0  0  0
 47120  1  0  0  0
 47121  1  0  0  0
 48 56  1  0  0  0
 48 65  1  0  0  0
 48122  1  0  0  0
 49 50  1  0  0  0
 49 53  1  0  0  0
 49 64  1  0  0  0
 49123  1  0  0  0
 50 51  1  0  0  0
 50124  1  0  0  0
 50125  1  0  0  0
 51 52  1  0  0  0
 51126  1  0  0  0
 51127  1  0  0  0
 52128  1  0  0  0
 52129  1  0  0  0
 53 54  1  0  0  0
 54 55  2  0  0  0
 54130  1  0  0  0
 55 57  1  0  0  0
 55131  1  0  0  0
 56 69  2  0  0  0
 57 58  2  0  0  0
 57132  1  0  0  0
 58133  1  0  0  0
 59 60  1  0  0  0
 59 61  1  0  0  0
 59 62  1  0  0  0
 60134  1  0  0  0
 60135  1  0  0  0
 60136  1  0  0  0
 61137  1  0  0  0
 61138  1  0  0  0
 61139  1  0  0  0
 62140  1  0  0  0
 62141  1  0  0  0
 62142  1  0  0  0
 63 65  1  0  0  0
 63143  1  0  0  0
 63144  1  0  0  0
 63145  1  0  0  0
 64146  1  0  0  0
 65147  1  0  0  0
 68 84  1  0  0  0
 71 72  2  0  0  0
 71 74  1  0  0  0
 71148  1  0  0  0
 72 76  1  0  0  0
 72149  1  0  0  0
 73 74  2  0  0  0
 73 75  1  0  0  0
 73150  1  0  0  0
 74 86  1  0  0  0
 75 76  2  0  0  0
 75 85  1  0  0  0
 76 87  1  0  0  0
 77 79  2  0  0  0
 77 81  1  0  0  0
 77 88  1  0  0  0
 78 80  2  0  0  0
 78151  1  0  0  0
 78152  1  0  0  0
 79 80  1  0  0  0
 79153  1  0  0  0
 80154  1  0  0  0
 81 82  1  0  0  0
 81155  1  0  0  0
 81156  1  0  0  0
 82 84  1  0  0  0
 82157  1  0  0  0
 82158  1  0  0  0
 83 84  1  0  0  0
 83 88  1  0  0  0
 83159  1  0  0  0
 83160  1  0  0  0
 84161  1  0  0  0
 85162  1  0  0  0
 85163  1  0  0  0
 85164  1  0  0  0
 86165  1  0  0  0
 86166  1  0  0  0
 86 88  1  0  0  0
 87167  1  0  0  0
 88168  1  0  0  0
M  CHG  1  88   1
M  ISO  4   1 100  68 101  84 101  87 100
M  END
> <chiral flag>
0

> <version>
0

> <s_m_source_file>
/data/baiqing/PycharmProjects/Reinvent-master-3.2/result/LINK_invent/BTK/process_docking_weight1_custom_product_contain_oxygen_bond_distance_aromatic_linkinvent_7_9_3/rearranged_h_0050.sdf

> <i_m_source_file_index>
54

> <r_mmod_Potential_Energy-OPLS-2005>
51.1850509643555

> <r_mmod_Stretch_Energy-OPLS-2005>
87.6350326538086

> <r_mmod_Bend_Energy-OPLS-2005>
226.085815429688

> <r_mmod_Torsional_Energy-OPLS-2005>
245.075653076172

> <r_mmod_Improper_Torsional_Energy-OPLS-2005>
5.39284563064575

> <r_mmod_Van_der_Waal_Energy-OPLS-2005>
148.02311706543

> <r_mmod_Electrostatic_Energy-OPLS-2005>
-286.091430664062

> <r_mmod_Solvation_Energy-OPLS-2005>
-418.27197265625

> <b_mmod_Minimization_Converged-OPLS-2005>
0

> <r_mmod_RMS_Derivative-OPLS-2005>
2.68364882469177

$$$$
54
                    3D
 Structure written by MMmdl.
158166  0  0  1  0            999 V2000
  -30.7038  -14.4372   20.6005 C   0  0  0  0  0  0
  -30.4205  -12.2855   19.4280 C   0  0  0  0  0  0
  -29.4959  -12.5104   18.2151 C   0  0  0  0  0  0
  -28.0175  -12.3661   18.6225 C   0  0  0  0  0  0
  -27.6645  -13.2007   19.8820 C   0  0  2  0  0  0
  -28.7009  -12.9626   21.0040 C   0  0  0  0  0  0
  -25.2586  -13.8149   20.5646 C   0  0  0  0  0  0
  -24.1830  -13.0441   20.9147 C   0  0  0  0  0  0
  -24.6380  -11.6910   20.8742 C   0  0  0  0  0  0
  -23.9051  -10.4296   21.0409 C   0  0  0  0  0  0
  -24.3604   -9.4211   21.9190 C   0  0  0  0  0  0
  -23.6276   -8.2248   22.0761 C   0  0  0  0  0  0
  -22.4261   -8.0286   21.3544 C   0  0  0  0  0  0
  -21.9891   -9.0267   20.4652 C   0  0  0  0  0  0
  -22.7226  -10.2141   20.3060 C   0  0  0  0  0  0
  -21.6859   -6.0738   22.5279 C   0  0  0  0  0  0
  -21.4036   -6.5638   23.8220 C   0  0  0  0  0  0
  -21.3655   -5.6777   24.9176 C   0  0  0  0  0  0
  -21.6033   -4.3042   24.7218 C   0  0  0  0  0  0
  -21.8822   -3.8145   23.4340 C   0  0  0  0  0  0
  -21.9197   -4.6965   22.3400 C   0  0  0  0  0  0
  -22.7857  -13.5259   21.1784 C   0  0  0  0  0  0
  -22.1651   -4.2154   21.0978 F   0  0  0  0  0  0
  -21.5619   -3.4523   25.7724 F   0  0  0  0  0  0
  -30.0394  -13.2587   20.4633 N   0  0  0  0  0  0
  -26.3032  -12.9309   20.3386 N   0  0  0  0  0  0
  -25.9317  -11.6478   20.5806 N   0  0  0  0  0  0
  -22.0462  -12.8320   22.0362 N   0  0  0  0  0  0
  -25.4306  -15.1865   20.4038 N   0  0  0  0  0  0
  -31.8040  -14.6560   20.0855 O   0  0  0  0  0  0
  -21.6634   -6.8879   21.4241 O   0  0  0  0  0  0
  -22.3566  -14.5558   20.6601 O   0  0  0  0  0  0
  -24.6146  -31.8664   23.2114 C   0  0  0  0  0  0
  -25.9035  -32.4833   23.8416 C   0  0  1  0  0  0
  -27.2400  -27.4430   20.1048 C   0  0  0  0  0  0
  -25.5889  -33.8627   24.2332 N   0  0  0  0  0  0
  -23.4060  -30.4898   21.5479 C   0  0  2  0  0  0
  -24.8563  -28.9535   20.1160 C   0  0  0  0  0  0
  -22.7422  -29.4646   22.4958 C   0  0  0  0  0  0
  -18.0270  -28.1396   22.8508 C   0  0  0  0  0  0
  -24.1480  -36.7332   23.2646 C   0  0  0  0  0  0
  -25.9318  -30.8333   21.3645 C   0  0  0  0  0  0
  -26.0117  -29.4654   20.7206 C   0  0  0  0  0  0
  -27.2092  -28.7151   20.7181 C   0  0  0  0  0  0
  -26.0749  -26.9410   19.4917 C   0  0  0  0  0  0
  -24.8810  -27.6881   19.5008 C   0  0  0  0  0  0
  -23.6191  -29.8221   20.1615 C   0  0  0  0  0  0
  -25.4092  -36.3122   24.0349 C   0  0  1  0  0  0
  -20.5864  -28.3671   23.1312 C   0  0  2  0  0  0
  -20.6754  -26.9405   22.5412 C   0  0  0  0  0  0
  -19.5723  -26.6380   21.5226 C   0  0  0  0  0  0
  -18.1902  -26.7945   22.1635 C   0  0  0  0  0  0
  -19.1526  -28.8846   23.2912 C   0  0  0  0  0  0
  -18.9459  -30.1456   23.8927 C   0  0  0  0  0  0
  -17.6461  -30.6598   24.0590 C   0  0  0  0  0  0
  -25.9018  -34.9487   23.5131 C   0  0  0  0  0  0
  -16.5348  -29.9118   23.6333 C   0  0  0  0  0  0
  -16.7263  -28.6532   23.0349 C   0  0  0  0  0  0
  -26.4461  -31.6632   25.0755 C   0  0  0  0  0  0
  -25.3735  -31.3738   26.1522 C   0  0  0  0  0  0
  -27.0300  -30.3091   24.6116 C   0  0  0  0  0  0
  -27.6041  -32.4358   25.7509 C   0  0  0  0  0  0
  -27.5571  -37.1808   24.8464 C   0  0  0  0  0  0
  -21.4140  -29.3053   22.3735 N   0  0  0  0  0  0
  -26.4280  -37.3797   23.9419 N   0  0  0  0  0  0
  -24.6691  -31.0773   22.1014 N   0  0  0  0  0  0
  -23.4196  -28.8161   23.2985 O   0  0  0  0  0  0
  -28.3859  -26.6852   20.0748 O   0  0  0  0  0  0
  -26.5582  -34.8942   22.4701 O   0  0  0  0  0  0
  -23.5331  -32.1402   23.7510 O   0  0  0  0  0  0
  -30.5592  -16.7648   23.6962 C   0  0  0  0  0  0
  -30.7829  -17.3658   24.9470 C   0  0  0  0  0  0
  -30.8680  -19.5467   23.8745 C   0  0  0  0  0  0
  -30.4927  -17.5431   22.5139 C   0  0  0  0  0  0
  -30.6315  -18.9619   22.6078 C   0  0  0  0  0  0
  -30.9496  -18.7577   25.0361 C   0  0  0  0  0  0
  -29.1386  -23.3408   21.2330 C   0  0  0  0  0  0
  -29.4113  -24.6182   20.8831 C   0  0  0  0  0  0
  -30.0399  -22.2570   20.8592 C   0  0  0  0  0  0
  -30.2917  -16.8493   21.1604 C   0  0  0  0  0  0
  -30.5896  -19.8819   21.3781 C   0  0  0  0  0  0
  -28.5444  -25.8284   21.2090 C   0  0  0  0  0  0
  -29.8626  -21.1411   21.5847 N   0  0  0  0  0  0
  -30.0098  -15.4094   21.2126 N   0  0  0  0  0  0
  -30.8815  -22.3224   19.9584 O   0  0  0  0  0  0
  -31.2659  -19.4927   26.5658 Cl  0  0  0  0  0  0
  -31.4652  -12.3823   19.1305 H   0  0  0  0  0  0
  -30.3162  -11.2661   19.8061 H   0  0  0  0  0  0
  -29.7342  -11.8060   17.4179 H   0  0  0  0  0  0
  -29.6696  -13.5079   17.8083 H   0  0  0  0  0  0
  -27.8274  -11.3097   18.8146 H   0  0  0  0  0  0
  -27.3687  -12.6414   17.7911 H   0  0  0  0  0  0
  -27.7162  -14.2506   19.5944 H   0  0  0  0  0  0
  -28.6655  -11.9251   21.3371 H   0  0  0  0  0  0
  -28.4605  -13.5536   21.8885 H   0  0  0  0  0  0
  -25.2747   -9.5687   22.4770 H   0  0  0  0  0  0
  -23.9973   -7.4646   22.7498 H   0  0  0  0  0  0
  -21.0810   -8.8821   19.8966 H   0  0  0  0  0  0
  -22.3701  -10.9693   19.6176 H   0  0  0  0  0  0
  -21.2055   -7.6147   23.9731 H   0  0  0  0  0  0
  -21.1454   -6.0503   25.9073 H   0  0  0  0  0  0
  -22.0604   -2.7610   23.2843 H   0  0  0  0  0  0
  -22.4035  -12.0002   22.4818 H   0  0  0  0  0  0
  -21.1096  -13.1431   22.2518 H   0  0  0  0  0  0
  -24.6624  -15.8406   20.5041 H   0  0  0  0  0  0
  -26.2912  -15.6291   20.1063 H   0  0  0  0  0  0
  -26.7106  -32.5541   23.1183 H   0  0  0  0  0  0
  -25.0083  -33.9804   25.0506 H   0  0  0  0  0  0
  -22.6967  -31.3056   21.4045 H   0  0  0  0  0  0
  -23.3743  -35.9666   23.3322 H   0  0  0  0  0  0
  -24.3577  -36.8928   22.2058 H   0  0  0  0  0  0
  -23.7221  -37.6539   23.6645 H   0  0  0  0  0  0
  -26.0338  -31.5898   20.5859 H   0  0  0  0  0  0
  -26.8251  -30.8966   21.9741 H   0  0  0  0  0  0
  -28.1023  -29.1055   21.1846 H   0  0  0  0  0  0
  -26.0933  -25.9712   19.0136 H   0  0  0  0  0  0
  -23.9928  -27.2897   19.0301 H   0  0  0  0  0  0
  -23.7374  -30.5989   19.4039 H   0  0  0  0  0  0
  -22.7437  -29.2453   19.8573 H   0  0  0  0  0  0
  -25.1250  -36.1995   25.0834 H   0  0  0  0  0  0
  -20.9948  -28.3232   24.1437 H   0  0  0  0  0  0
  -20.5637  -26.2284   23.3605 H   0  0  0  0  0  0
  -21.6621  -26.7430   22.1207 H   0  0  0  0  0  0
  -19.6877  -25.6287   21.1259 H   0  0  0  0  0  0
  -19.6673  -27.3202   20.6777 H   0  0  0  0  0  0
  -17.4169  -26.6713   21.4045 H   0  0  0  0  0  0
  -18.0295  -26.0080   22.9024 H   0  0  0  0  0  0
  -19.7934  -30.7269   24.2289 H   0  0  0  0  0  0
  -17.5030  -31.6286   24.5193 H   0  0  0  0  0  0
  -15.5358  -30.3051   23.7634 H   0  0  0  0  0  0
  -15.8655  -28.0889   22.7025 H   0  0  0  0  0  0
  -24.5899  -30.7085   25.7887 H   0  0  0  0  0  0
  -24.8949  -32.2895   26.5001 H   0  0  0  0  0  0
  -25.8104  -30.8904   27.0268 H   0  0  0  0  0  0
  -26.2838  -29.6854   24.1185 H   0  0  0  0  0  0
  -27.4107  -29.7326   25.4552 H   0  0  0  0  0  0
  -27.8660  -30.4455   23.9252 H   0  0  0  0  0  0
  -27.2666  -33.3642   26.2123 H   0  0  0  0  0  0
  -28.3832  -32.6939   25.0330 H   0  0  0  0  0  0
  -28.0740  -31.8471   26.5392 H   0  0  0  0  0  0
  -28.2577  -38.0117   24.7520 H   0  0  0  0  0  0
  -28.1055  -36.2640   24.6250 H   0  0  0  0  0  0
  -27.2298  -37.1442   25.8870 H   0  0  0  0  0  0
  -20.9278  -29.8868   21.7057 H   0  0  0  0  0  0
  -26.0177  -38.2866   24.1456 H   0  0  0  0  0  0
  -30.4513  -15.6904   23.6658 H   0  0  0  0  0  0
  -30.8354  -16.7538   25.8367 H   0  0  0  0  0  0
  -31.0103  -20.6152   23.9613 H   0  0  0  0  0  0
  -28.2364  -23.1242   21.7885 H   0  0  0  0  0  0
  -30.3188  -24.8409   20.3392 H   0  0  0  0  0  0
  -31.1600  -17.0610   20.5326 H   0  0  0  0  0  0
  -29.4323  -17.3017   20.6648 H   0  0  0  0  0  0
  -30.1416  -19.3913   20.5156 H   0  0  0  0  0  0
  -31.6245  -20.0924   21.1004 H   0  0  0  0  0  0
  -29.0300  -26.3958   22.0030 H   0  0  0  0  0  0
  -27.5807  -25.4950   21.5995 H   0  0  0  0  0  0
  -29.1572  -21.1499   22.3082 H   0  0  0  0  0  0
  -29.1209  -15.1439   21.6083 H   0  0  0  0  0  0
  1 25  1  0  0  0
  1 30  2  0  0  0
  1 84  1  0  0  0
  2  3  1  0  0  0
  2 25  1  0  0  0
  2 87  1  0  0  0
  2 88  1  0  0  0
  3  4  1  0  0  0
  3 89  1  0  0  0
  3 90  1  0  0  0
  4  5  1  0  0  0
  4 91  1  0  0  0
  4 92  1  0  0  0
  5  6  1  0  0  0
  5 26  1  0  0  0
  5 93  1  0  0  0
  6 25  1  0  0  0
  6 94  1  0  0  0
  6 95  1  0  0  0
  7  8  2  0  0  0
  7 26  1  0  0  0
  7 29  1  0  0  0
  8  9  1  0  0  0
  8 22  1  0  0  0
  9 10  1  0  0  0
  9 27  2  0  0  0
 10 11  2  0  0  0
 10 15  1  0  0  0
 11 12  1  0  0  0
 11 96  1  0  0  0
 12 13  2  0  0  0
 12 97  1  0  0  0
 13 14  1  0  0  0
 13 31  1  0  0  0
 14 15  2  0  0  0
 14 98  1  0  0  0
 15 99  1  0  0  0
 16 17  2  0  0  0
 16 21  1  0  0  0
 16 31  1  0  0  0
 17 18  1  0  0  0
 17100  1  0  0  0
 18 19  2  0  0  0
 18101  1  0  0  0
 19 20  1  0  0  0
 19 24  1  0  0  0
 20 21  2  0  0  0
 20102  1  0  0  0
 21 23  1  0  0  0
 22 28  1  0  0  0
 22 32  2  0  0  0
 26 27  1  0  0  0
 28103  1  0  0  0
 28104  1  0  0  0
 29105  1  0  0  0
 29106  1  0  0  0
 33 34  1  0  0  0
 33 66  1  0  0  0
 33 70  2  0  0  0
 34 36  1  0  0  0
 34 59  1  0  0  0
 34107  1  0  0  0
 35 44  2  0  0  0
 35 45  1  0  0  0
 35 68  1  0  0  0
 36 56  1  0  0  0
 36108  1  0  0  0
 37 39  1  0  0  0
 37 47  1  0  0  0
 37 66  1  0  0  0
 37109  1  0  0  0
 38 43  2  0  0  0
 38 46  1  0  0  0
 38 47  1  0  0  0
 39 64  1  0  0  0
 39 67  2  0  0  0
 40 52  1  0  0  0
 40 53  2  0  0  0
 40 58  1  0  0  0
 41110  1  0  0  0
 41111  1  0  0  0
 41112  1  0  0  0
 41 48  1  0  0  0
 42 43  1  0  0  0
 42 66  1  0  0  0
 42113  1  0  0  0
 42114  1  0  0  0
 43 44  1  0  0  0
 44115  1  0  0  0
 45 46  2  0  0  0
 45116  1  0  0  0
 46117  1  0  0  0
 47118  1  0  0  0
 47119  1  0  0  0
 48 56  1  0  0  0
 48 65  1  0  0  0
 48120  1  0  0  0
 49 50  1  0  0  0
 49 53  1  0  0  0
 49 64  1  0  0  0
 49121  1  0  0  0
 50 51  1  0  0  0
 50122  1  0  0  0
 50123  1  0  0  0
 51 52  1  0  0  0
 51124  1  0  0  0
 51125  1  0  0  0
 52126  1  0  0  0
 52127  1  0  0  0
 53 54  1  0  0  0
 54 55  2  0  0  0
 54128  1  0  0  0
 55 57  1  0  0  0
 55129  1  0  0  0
 56 69  2  0  0  0
 57 58  2  0  0  0
 57130  1  0  0  0
 58131  1  0  0  0
 59 60  1  0  0  0
 59 61  1  0  0  0
 59 62  1  0  0  0
 60132  1  0  0  0
 60133  1  0  0  0
 60134  1  0  0  0
 61135  1  0  0  0
 61136  1  0  0  0
 61137  1  0  0  0
 62138  1  0  0  0
 62139  1  0  0  0
 62140  1  0  0  0
 63 65  1  0  0  0
 63141  1  0  0  0
 63142  1  0  0  0
 63143  1  0  0  0
 64144  1  0  0  0
 65145  1  0  0  0
 68 82  1  0  0  0
 71 72  2  0  0  0
 71 74  1  0  0  0
 71146  1  0  0  0
 72 76  1  0  0  0
 72147  1  0  0  0
 73 75  1  0  0  0
 73 76  2  0  0  0
 73148  1  0  0  0
 74 75  2  0  0  0
 74 80  1  0  0  0
 75 81  1  0  0  0
 76 86  1  0  0  0
 77 78  2  0  0  0
 77 79  1  0  0  0
 77149  1  0  0  0
 78 82  1  0  0  0
 78150  1  0  0  0
 79 83  1  0  0  0
 79 85  2  0  0  0
 80 84  1  0  0  0
 80151  1  0  0  0
 80152  1  0  0  0
 81 83  1  0  0  0
 81153  1  0  0  0
 81154  1  0  0  0
 82155  1  0  0  0
 82156  1  0  0  0
 83157  1  0  0  0
 84158  1  0  0  0
M  ISO  4   1 100  68 101  82 101  84 100
M  END
> <chiral flag>
0

> <version>
0

> <s_m_source_file>
/data/baiqing/PycharmProjects/Reinvent-master-3.2/result/LINK_invent/BTK/process_docking_weight1_custom_product_contain_oxygen_bond_distance_aromatic_linkinvent_7_9_3/rearranged_h_0050.sdf

> <i_m_source_file_index>
55

> <r_mmod_Potential_Energy-OPLS-2005>
-245.56005859375

> <r_mmod_Stretch_Energy-OPLS-2005>
36.3948364257812

> <r_mmod_Bend_Energy-OPLS-2005>
87.2234268188477

> <r_mmod_Torsional_Energy-OPLS-2005>
216.982818603516

> <r_mmod_Improper_Torsional_Energy-OPLS-2005>
3.81675052642822

> <r_mmod_Van_der_Waal_Energy-OPLS-2005>
156.902542114258

> <r_mmod_Electrostatic_Energy-OPLS-2005>
-517.052368164062

> <r_mmod_Solvation_Energy-OPLS-2005>
-239.504455566406

> <b_mmod_Minimization_Converged-OPLS-2005>
0

> <r_mmod_RMS_Derivative-OPLS-2005>
2.68321704864502

$$$$
55
                    3D
 Structure written by MMmdl.
163171  0  0  1  0            999 V2000
  -30.6504  -14.6636   20.3979 C   0  0  0  0  0  0
  -30.4293  -12.3821   19.4508 C   0  0  0  0  0  0
  -29.5019  -12.4014   18.2179 C   0  0  0  0  0  0
  -28.0207  -12.2857   18.6383 C   0  0  0  0  0  0
  -27.6341  -13.1975   19.8350 C   0  0  2  0  0  0
  -28.6916  -13.1598   20.9577 C   0  0  0  0  0  0
  -25.2548  -13.8108   20.5726 C   0  0  0  0  0  0
  -24.1798  -13.0404   20.9211 C   0  0  0  0  0  0
  -24.6351  -11.6872   20.8757 C   0  0  0  0  0  0
  -23.9035  -10.4273   21.0425 C   0  0  0  0  0  0
  -24.3603   -9.4187   21.9184 C   0  0  0  0  0  0
  -23.6291   -8.2216   22.0744 C   0  0  0  0  0  0
  -22.4273   -8.0256   21.3530 C   0  0  0  0  0  0
  -21.9899   -9.0234   20.4641 C   0  0  0  0  0  0
  -22.7221  -10.2119   20.3064 C   0  0  0  0  0  0
  -21.6840   -6.0741   22.5282 C   0  0  0  0  0  0
  -21.4003   -6.5643   23.8217 C   0  0  0  0  0  0
  -21.3653   -5.6787   24.9177 C   0  0  0  0  0  0
  -21.6045   -4.3052   24.7221 C   0  0  0  0  0  0
  -21.8822   -3.8155   23.4340 C   0  0  0  0  0  0
  -21.9188   -4.6975   22.3399 C   0  0  0  0  0  0
  -22.7827  -13.5222   21.1874 C   0  0  0  0  0  0
  -22.1655   -4.2170   21.0970 F   0  0  0  0  0  0
  -21.5636   -3.4535   25.7737 F   0  0  0  0  0  0
  -29.9919  -13.4642   20.3505 N   0  0  0  0  0  0
  -26.2915  -12.9230   20.3313 N   0  0  0  0  0  0
  -25.9267  -11.6414   20.5804 N   0  0  0  0  0  0
  -22.0454  -12.8221   22.0423 N   0  0  0  0  0  0
  -25.4332  -15.1826   20.4171 N   0  0  0  0  0  0
  -31.8763  -14.7042   20.2754 O   0  0  0  0  0  0
  -21.6617   -6.8864   21.4239 O   0  0  0  0  0  0
  -22.3527  -14.5540   20.6733 O   0  0  0  0  0  0
  -24.6220  -31.8605   23.2042 C   0  0  0  0  0  0
  -25.9084  -32.4787   23.8371 C   0  0  1  0  0  0
  -27.2387  -27.3472   20.1374 C   0  0  0  0  0  0
  -25.5906  -33.8588   24.2298 N   0  0  0  0  0  0
  -23.4174  -30.4807   21.5431 C   0  0  2  0  0  0
  -24.8699  -28.9270   20.1280 C   0  0  0  0  0  0
  -22.7457  -29.4629   22.4941 C   0  0  0  0  0  0
  -18.0277  -28.1394   22.8479 C   0  0  0  0  0  0
  -24.1492  -36.7298   23.2639 C   0  0  0  0  0  0
  -25.9539  -30.7998   21.3722 C   0  0  0  0  0  0
  -26.0326  -29.4222   20.7325 C   0  0  0  0  0  0
  -27.2218  -28.6406   20.7316 C   0  0  0  0  0  0
  -26.0591  -26.8881   19.5189 C   0  0  0  0  0  0
  -24.8806  -27.6608   19.5189 C   0  0  0  0  0  0
  -23.6370  -29.8054   20.1625 C   0  0  0  0  0  0
  -25.4113  -36.3086   24.0333 C   0  0  1  0  0  0
  -20.5878  -28.3689   23.1295 C   0  0  2  0  0  0
  -20.6773  -26.9413   22.5414 C   0  0  0  0  0  0
  -19.5749  -26.6391   21.5206 C   0  0  0  0  0  0
  -18.1924  -26.7934   22.1619 C   0  0  0  0  0  0
  -19.1531  -28.8859   23.2886 C   0  0  0  0  0  0
  -18.9451  -30.1459   23.8903 C   0  0  0  0  0  0
  -17.6453  -30.6591   24.0565 C   0  0  0  0  0  0
  -25.9039  -34.9453   23.5111 C   0  0  0  0  0  0
  -16.5344  -29.9089   23.6332 C   0  0  0  0  0  0
  -16.7266  -28.6516   23.0340 C   0  0  0  0  0  0
  -26.4494  -31.6584   25.0725 C   0  0  0  0  0  0
  -25.3755  -31.3710   26.1475 C   0  0  0  0  0  0
  -27.0327  -30.3014   24.6153 C   0  0  0  0  0  0
  -27.6060  -32.4318   25.7486 C   0  0  0  0  0  0
  -27.5577  -37.1807   24.8464 C   0  0  0  0  0  0
  -21.4175  -29.3043   22.3686 N   0  0  0  0  0  0
  -26.4292  -37.3776   23.9404 N   0  0  0  0  0  0
  -24.6826  -31.0645   22.0978 N   0  0  0  0  0  0
  -23.4188  -28.8166   23.3009 O   0  0  0  0  0  0
  -28.3928  -26.5765   20.0331 O   0  0  0  0  0  0
  -26.5599  -34.8911   22.4676 O   0  0  0  0  0  0
  -23.5387  -32.1384   23.7384 O   0  0  0  0  0  0
  -31.3257  -20.6335   19.6380 C   0  0  0  0  0  0
  -32.5217  -20.2291   19.0231 C   0  0  0  0  0  0
  -32.0647  -17.9485   19.6882 C   0  0  0  0  0  0
  -30.4572  -19.7142   20.2796 C   0  0  0  0  0  0
  -30.8458  -18.3097   20.3144 C   0  0  0  0  0  0
  -32.8897  -18.8809   19.0437 C   0  0  0  0  0  0
  -28.5926  -22.7701   20.2721 C   0  0  0  0  0  0
  -29.2555  -22.1101   22.5471 C   0  0  0  0  0  0
  -29.2352  -16.0963   19.0027 C   0  0  0  0  0  0
  -29.1220  -20.3066   20.8224 C   0  0  0  0  0  0
  -30.0870  -17.1293   21.0159 C   0  0  0  0  0  0
  -27.8593  -24.0733   20.7775 C   0  0  0  0  0  0
  -28.6265  -25.4468   20.9355 C   0  0  0  0  0  0
  -29.0099  -21.7846   21.1396 N   0  0  0  0  0  0
  -29.8996  -15.8211   20.2843 N   0  0  0  0  0  0
  -28.6440  -22.5935   19.0519 O   0  0  0  0  0  0
  -34.3495  -18.3667   18.2800 Cl  0  0  0  0  0  0
  -31.4685  -12.4936   19.1396 H   0  0  0  0  0  0
  -30.3674  -11.4203   19.9627 H   0  0  0  0  0  0
  -29.7570  -11.5711   17.5590 H   0  0  0  0  0  0
  -29.6683  -13.2954   17.6202 H   0  0  0  0  0  0
  -27.8438  -11.2428   18.9045 H   0  0  0  0  0  0
  -27.3696  -12.4877   17.7874 H   0  0  0  0  0  0
  -27.5935  -14.2024   19.4347 H   0  0  0  0  0  0
  -28.7160  -12.1834   21.4430 H   0  0  0  0  0  0
  -28.4481  -13.8920   21.7303 H   0  0  0  0  0  0
  -25.2741   -9.5685   22.4761 H   0  0  0  0  0  0
  -24.0011   -7.4605   22.7449 H   0  0  0  0  0  0
  -21.0833   -8.8753   19.8938 H   0  0  0  0  0  0
  -22.3668  -10.9664   19.6180 H   0  0  0  0  0  0
  -21.1983   -7.6145   23.9737 H   0  0  0  0  0  0
  -21.1472   -6.0503   25.9080 H   0  0  0  0  0  0
  -22.0612   -2.7623   23.2825 H   0  0  0  0  0  0
  -22.4071  -11.9881   22.4810 H   0  0  0  0  0  0
  -21.1084  -13.1258   22.2653 H   0  0  0  0  0  0
  -24.6780  -15.8478   20.5431 H   0  0  0  0  0  0
  -26.3033  -15.6189   20.1401 H   0  0  0  0  0  0
  -26.7156  -32.5483   23.1127 H   0  0  0  0  0  0
  -25.0092  -33.9736   25.0468 H   0  0  0  0  0  0
  -22.7104  -31.2987   21.3927 H   0  0  0  0  0  0
  -23.3743  -35.9644   23.3316 H   0  0  0  0  0  0
  -24.3582  -36.8903   22.2050 H   0  0  0  0  0  0
  -23.7261  -37.6516   23.6648 H   0  0  0  0  0  0
  -26.0749  -31.5559   20.5948 H   0  0  0  0  0  0
  -26.8373  -30.8607   21.9954 H   0  0  0  0  0  0
  -28.1243  -29.0244   21.1858 H   0  0  0  0  0  0
  -26.0529  -25.9312   19.0176 H   0  0  0  0  0  0
  -23.9902  -27.2744   19.0422 H   0  0  0  0  0  0
  -23.7621  -30.5746   19.3992 H   0  0  0  0  0  0
  -22.7597  -29.2304   19.8600 H   0  0  0  0  0  0
  -25.1295  -36.1942   25.0825 H   0  0  0  0  0  0
  -20.9968  -28.3259   24.1416 H   0  0  0  0  0  0
  -20.5677  -26.2288   23.3609 H   0  0  0  0  0  0
  -21.6646  -26.7451   22.1205 H   0  0  0  0  0  0
  -19.6916  -25.6298   21.1243 H   0  0  0  0  0  0
  -19.6700  -27.3209   20.6738 H   0  0  0  0  0  0
  -17.4197  -26.6675   21.4016 H   0  0  0  0  0  0
  -18.0332  -26.0084   22.9027 H   0  0  0  0  0  0
  -19.7929  -30.7271   24.2283 H   0  0  0  0  0  0
  -17.5008  -31.6270   24.5166 H   0  0  0  0  0  0
  -15.5349  -30.2990   23.7657 H   0  0  0  0  0  0
  -15.8664  -28.0841   22.7042 H   0  0  0  0  0  0
  -24.5906  -30.7081   25.7817 H   0  0  0  0  0  0
  -24.8977  -32.2876   26.4949 H   0  0  0  0  0  0
  -25.8109  -30.8858   27.0220 H   0  0  0  0  0  0
  -26.2883  -29.6768   24.1209 H   0  0  0  0  0  0
  -27.4065  -29.7268   25.4633 H   0  0  0  0  0  0
  -27.8734  -30.4301   23.9337 H   0  0  0  0  0  0
  -27.2675  -33.3617   26.2071 H   0  0  0  0  0  0
  -28.3866  -32.6882   25.0311 H   0  0  0  0  0  0
  -28.0740  -31.8446   26.5400 H   0  0  0  0  0  0
  -28.2602  -38.0094   24.7487 H   0  0  0  0  0  0
  -28.1059  -36.2620   24.6314 H   0  0  0  0  0  0
  -27.2289  -37.1496   25.8867 H   0  0  0  0  0  0
  -20.9343  -29.8764   21.6903 H   0  0  0  0  0  0
  -26.0173  -38.2853   24.1400 H   0  0  0  0  0  0
  -31.0838  -21.6835   19.5848 H   0  0  0  0  0  0
  -33.1526  -20.9542   18.5293 H   0  0  0  0  0  0
  -32.3998  -16.9269   19.6927 H   0  0  0  0  0  0
  -29.8621  -23.0117   22.6426 H   0  0  0  0  0  0
  -29.7943  -21.3154   23.0616 H   0  0  0  0  0  0
  -28.3196  -22.2697   23.0834 H   0  0  0  0  0  0
  -28.2217  -16.4617   19.1689 H   0  0  0  0  0  0
  -29.1667  -15.2286   18.3533 H   0  0  0  0  0  0
  -29.7631  -16.8535   18.4248 H   0  0  0  0  0  0
  -28.8429  -19.7406   21.7121 H   0  0  0  0  0  0
  -28.3529  -20.0611   20.0884 H   0  0  0  0  0  0
  -29.0957  -17.4772   21.3023 H   0  0  0  0  0  0
  -30.6018  -16.9217   21.9544 H   0  0  0  0  0  0
  -27.3876  -23.8437   21.7321 H   0  0  0  0  0  0
  -27.0101  -24.2266   20.1143 H   0  0  0  0  0  0
  -29.6955  -25.2338   20.8842 H   0  0  0  0  0  0
  -28.4751  -25.8107   21.9526 H   0  0  0  0  0  0
  1 25  1  0  0  0
  1 30  2  0  0  0
  1 85  1  0  0  0
  2  3  1  0  0  0
  2 25  1  0  0  0
  2 88  1  0  0  0
  2 89  1  0  0  0
  3  4  1  0  0  0
  3 90  1  0  0  0
  3 91  1  0  0  0
  4  5  1  0  0  0
  4 92  1  0  0  0
  4 93  1  0  0  0
  5  6  1  0  0  0
  5 26  1  0  0  0
  5 94  1  0  0  0
  6 25  1  0  0  0
  6 95  1  0  0  0
  6 96  1  0  0  0
  7  8  2  0  0  0
  7 26  1  0  0  0
  7 29  1  0  0  0
  8  9  1  0  0  0
  8 22  1  0  0  0
  9 10  1  0  0  0
  9 27  2  0  0  0
 10 11  2  0  0  0
 10 15  1  0  0  0
 11 12  1  0  0  0
 11 97  1  0  0  0
 12 13  2  0  0  0
 12 98  1  0  0  0
 13 14  1  0  0  0
 13 31  1  0  0  0
 14 15  2  0  0  0
 14 99  1  0  0  0
 15100  1  0  0  0
 16 17  2  0  0  0
 16 21  1  0  0  0
 16 31  1  0  0  0
 17 18  1  0  0  0
 17101  1  0  0  0
 18 19  2  0  0  0
 18102  1  0  0  0
 19 20  1  0  0  0
 19 24  1  0  0  0
 20 21  2  0  0  0
 20103  1  0  0  0
 21 23  1  0  0  0
 22 28  1  0  0  0
 22 32  2  0  0  0
 26 27  1  0  0  0
 28104  1  0  0  0
 28105  1  0  0  0
 29106  1  0  0  0
 29107  1  0  0  0
 33 34  1  0  0  0
 33 66  1  0  0  0
 33 70  2  0  0  0
 34 36  1  0  0  0
 34 59  1  0  0  0
 34108  1  0  0  0
 35 44  2  0  0  0
 35 45  1  0  0  0
 35 68  1  0  0  0
 36 56  1  0  0  0
 36109  1  0  0  0
 37 39  1  0  0  0
 37 47  1  0  0  0
 37 66  1  0  0  0
 37110  1  0  0  0
 38 43  2  0  0  0
 38 46  1  0  0  0
 38 47  1  0  0  0
 39 64  1  0  0  0
 39 67  2  0  0  0
 40 52  1  0  0  0
 40 53  2  0  0  0
 40 58  1  0  0  0
 41111  1  0  0  0
 41112  1  0  0  0
 41113  1  0  0  0
 41 48  1  0  0  0
 42 43  1  0  0  0
 42 66  1  0  0  0
 42114  1  0  0  0
 42115  1  0  0  0
 43 44  1  0  0  0
 44116  1  0  0  0
 45 46  2  0  0  0
 45117  1  0  0  0
 46118  1  0  0  0
 47119  1  0  0  0
 47120  1  0  0  0
 48 56  1  0  0  0
 48 65  1  0  0  0
 48121  1  0  0  0
 49 50  1  0  0  0
 49 53  1  0  0  0
 49 64  1  0  0  0
 49122  1  0  0  0
 50 51  1  0  0  0
 50123  1  0  0  0
 50124  1  0  0  0
 51 52  1  0  0  0
 51125  1  0  0  0
 51126  1  0  0  0
 52127  1  0  0  0
 52128  1  0  0  0
 53 54  1  0  0  0
 54 55  2  0  0  0
 54129  1  0  0  0
 55 57  1  0  0  0
 55130  1  0  0  0
 56 69  2  0  0  0
 57 58  2  0  0  0
 57131  1  0  0  0
 58132  1  0  0  0
 59 60  1  0  0  0
 59 61  1  0  0  0
 59 62  1  0  0  0
 60133  1  0  0  0
 60134  1  0  0  0
 60135  1  0  0  0
 61136  1  0  0  0
 61137  1  0  0  0
 61138  1  0  0  0
 62139  1  0  0  0
 62140  1  0  0  0
 62141  1  0  0  0
 63 65  1  0  0  0
 63142  1  0  0  0
 63143  1  0  0  0
 63144  1  0  0  0
 64145  1  0  0  0
 65146  1  0  0  0
 68 83  1  0  0  0
 71 72  2  0  0  0
 71 74  1  0  0  0
 71147  1  0  0  0
 72 76  1  0  0  0
 72148  1  0  0  0
 73 75  1  0  0  0
 73 76  2  0  0  0
 73149  1  0  0  0
 74 75  2  0  0  0
 74 80  1  0  0  0
 75 81  1  0  0  0
 76 87  1  0  0  0
 77 82  1  0  0  0
 77 84  1  0  0  0
 77 86  2  0  0  0
 78 84  1  0  0  0
 78150  1  0  0  0
 78151  1  0  0  0
 78152  1  0  0  0
 79 85  1  0  0  0
 79153  1  0  0  0
 79154  1  0  0  0
 79155  1  0  0  0
 80 84  1  0  0  0
 80156  1  0  0  0
 80157  1  0  0  0
 81 85  1  0  0  0
 81158  1  0  0  0
 81159  1  0  0  0
 82 83  1  0  0  0
 82160  1  0  0  0
 82161  1  0  0  0
 83162  1  0  0  0
 83163  1  0  0  0
M  ISO  4   1 100  68 101  83 101  85 100
M  END
> <chiral flag>
0

> <version>
0

> <s_m_source_file>
/data/baiqing/PycharmProjects/Reinvent-master-3.2/result/LINK_invent/BTK/process_docking_weight1_custom_product_contain_oxygen_bond_distance_aromatic_linkinvent_7_9_3/rearranged_h_0050.sdf

> <i_m_source_file_index>
56

> <r_mmod_Potential_Energy-OPLS-2005>
236.208541870117

> <r_mmod_Stretch_Energy-OPLS-2005>
81.7913284301758

> <r_mmod_Bend_Energy-OPLS-2005>
161.86686706543

> <r_mmod_Torsional_Energy-OPLS-2005>
331.38330078125

> <r_mmod_Improper_Torsional_Energy-OPLS-2005>
11.1019687652588

> <r_mmod_Van_der_Waal_Energy-OPLS-2005>
145.022506713867

> <r_mmod_Electrostatic_Energy-OPLS-2005>
-328.675415039062

> <r_mmod_Solvation_Energy-OPLS-2005>
-223.409423828125

> <b_mmod_Minimization_Converged-OPLS-2005>
0

> <r_mmod_RMS_Derivative-OPLS-2005>
2.76430726051331

$$$$
56
                    3D
 Structure written by MMmdl.
154162  0  0  1  0            999 V2000
  -30.6076  -14.7464   20.4645 C   0  0  0  0  0  0
  -30.4388  -12.4587   19.4579 C   0  0  0  0  0  0
  -29.5078  -12.5011   18.2271 C   0  0  0  0  0  0
  -28.0362  -12.3163   18.6499 C   0  0  0  0  0  0
  -27.6401  -13.2245   19.8436 C   0  0  2  0  0  0
  -28.6902  -13.1677   20.9738 C   0  0  0  0  0  0
  -25.2509  -13.8176   20.5675 C   0  0  0  0  0  0
  -24.1807  -13.0425   20.9208 C   0  0  0  0  0  0
  -24.6393  -11.6901   20.8755 C   0  0  0  0  0  0
  -23.9063  -10.4277   21.0416 C   0  0  0  0  0  0
  -24.3618   -9.4202   21.9191 C   0  0  0  0  0  0
  -23.6293   -8.2245   22.0756 C   0  0  0  0  0  0
  -22.4272   -8.0280   21.3552 C   0  0  0  0  0  0
  -21.9918   -9.0256   20.4656 C   0  0  0  0  0  0
  -22.7248  -10.2133   20.3065 C   0  0  0  0  0  0
  -21.6848   -6.0734   22.5279 C   0  0  0  0  0  0
  -21.4015   -6.5644   23.8211 C   0  0  0  0  0  0
  -21.3664   -5.6798   24.9181 C   0  0  0  0  0  0
  -21.6043   -4.3053   24.7229 C   0  0  0  0  0  0
  -21.8821   -3.8149   23.4347 C   0  0  0  0  0  0
  -21.9188   -4.6965   22.3405 C   0  0  0  0  0  0
  -22.7827  -13.5221   21.1866 C   0  0  0  0  0  0
  -22.1661   -4.2160   21.0974 F   0  0  0  0  0  0
  -21.5630   -3.4536   25.7734 F   0  0  0  0  0  0
  -29.9841  -13.5236   20.3783 N   0  0  0  0  0  0
  -26.2924  -12.9384   20.3282 N   0  0  0  0  0  0
  -25.9322  -11.6526   20.5762 N   0  0  0  0  0  0
  -22.0468  -12.8208   22.0422 N   0  0  0  0  0  0
  -25.4159  -15.1911   20.4087 N   0  0  0  0  0  0
  -31.8146  -14.8405   20.2250 O   0  0  0  0  0  0
  -21.6638   -6.8880   21.4241 O   0  0  0  0  0  0
  -22.3523  -14.5529   20.6707 O   0  0  0  0  0  0
  -24.6329  -31.8559   23.1979 C   0  0  0  0  0  0
  -25.9161  -32.4760   23.8325 C   0  0  1  0  0  0
  -27.2182  -27.2658   20.1300 C   0  0  0  0  0  0
  -25.5947  -33.8556   24.2260 N   0  0  0  0  0  0
  -23.4275  -30.4828   21.5389 C   0  0  2  0  0  0
  -24.8752  -28.9209   20.1116 C   0  0  0  0  0  0
  -22.7501  -29.4657   22.4882 C   0  0  0  0  0  0
  -18.0304  -28.1420   22.8482 C   0  0  0  0  0  0
  -24.1491  -36.7277   23.2642 C   0  0  0  0  0  0
  -25.9743  -30.7681   21.3760 C   0  0  0  0  0  0
  -26.0466  -29.3901   20.7206 C   0  0  0  0  0  0
  -27.2247  -28.5772   20.7129 C   0  0  0  0  0  0
  -26.0264  -26.8548   19.5004 C   0  0  0  0  0  0
  -24.8689  -27.6602   19.4927 C   0  0  0  0  0  0
  -23.6496  -29.8153   20.1549 C   0  0  0  0  0  0
  -25.4111  -36.3077   24.0339 C   0  0  1  0  0  0
  -20.5920  -28.3756   23.1254 C   0  0  2  0  0  0
  -20.6800  -26.9467   22.5397 C   0  0  0  0  0  0
  -19.5766  -26.6407   21.5212 C   0  0  0  0  0  0
  -18.1947  -26.7962   22.1624 C   0  0  0  0  0  0
  -19.1563  -28.8894   23.2871 C   0  0  0  0  0  0
  -18.9484  -30.1484   23.8905 C   0  0  0  0  0  0
  -17.6490  -30.6611   24.0586 C   0  0  0  0  0  0
  -25.9058  -34.9450   23.5103 C   0  0  0  0  0  0
  -16.5385  -29.9126   23.6338 C   0  0  0  0  0  0
  -16.7295  -28.6552   23.0353 C   0  0  0  0  0  0
  -26.4506  -31.6584   25.0714 C   0  0  0  0  0  0
  -25.3727  -31.3742   26.1438 C   0  0  0  0  0  0
  -27.0374  -30.3017   24.6201 C   0  0  0  0  0  0
  -27.6079  -32.4333   25.7471 C   0  0  0  0  0  0
  -27.5574  -37.1799   24.8471 C   0  0  0  0  0  0
  -21.4215  -29.3102   22.3623 N   0  0  0  0  0  0
  -26.4286  -37.3778   23.9419 N   0  0  0  0  0  0
  -24.6973  -31.0546   22.0936 N   0  0  0  0  0  0
  -23.4208  -28.8180   23.2968 O   0  0  0  0  0  0
  -28.3097  -26.3741   20.1275 O   0  0  0  0  0  0
  -26.5632  -34.8932   22.4677 O   0  0  0  0  0  0
  -23.5489  -32.1382   23.7293 O   0  0  0  0  0  0
  -31.1695  -18.8447   22.4240 C   0  0  0  0  0  0
  -30.9737  -17.5376   21.9358 C   0  0  0  0  0  0
  -29.4341  -18.4588   20.3038 C   0  0  0  0  0  0
  -30.5307  -19.9845   21.8701 C   0  0  0  0  0  0
  -29.6486  -19.8342   20.7537 C   0  0  0  0  0  0
  -30.0843  -17.2857   20.8743 C   0  0  0  0  0  0
  -28.4959  -23.6935   19.9444 C   0  0  0  0  0  0
  -28.9924  -21.0890   19.9871 C   0  0  0  0  0  0
  -28.1311  -25.0245   20.7687 C   0  0  0  0  0  0
  -30.8136  -21.3415   22.5212 C   0  0  0  0  0  0
  -29.8000  -15.8774   20.5082 N   0  0  0  0  0  0
  -28.7661  -22.4854   20.5791 N   0  0  0  0  0  0
  -28.4811  -23.7493   18.7138 O   0  0  0  0  0  0
  -29.6861  -21.8381   23.0341 F   0  0  0  0  0  0
  -31.6888  -21.2488   23.5233 F   0  0  0  0  0  0
  -31.3202  -22.1979   21.6340 F   0  0  0  0  0  0
  -31.4773  -12.5958   19.1510 H   0  0  0  0  0  0
  -30.3939  -11.4833   19.9463 H   0  0  0  0  0  0
  -29.7906  -11.7312   17.5076 H   0  0  0  0  0  0
  -29.6218  -13.4575   17.7126 H   0  0  0  0  0  0
  -27.9063  -11.2702   18.9279 H   0  0  0  0  0  0
  -27.3717  -12.4886   17.8046 H   0  0  0  0  0  0
  -27.6290  -14.2419   19.4523 H   0  0  0  0  0  0
  -28.7307  -12.1722   21.4198 H   0  0  0  0  0  0
  -28.4308  -13.8535   21.7801 H   0  0  0  0  0  0
  -25.2764   -9.5678   22.4771 H   0  0  0  0  0  0
  -23.9998   -7.4639   22.7477 H   0  0  0  0  0  0
  -21.0849   -8.8779   19.8962 H   0  0  0  0  0  0
  -22.3706  -10.9673   19.6179 H   0  0  0  0  0  0
  -21.2009   -7.6149   23.9726 H   0  0  0  0  0  0
  -21.1487   -6.0520   25.9084 H   0  0  0  0  0  0
  -22.0592   -2.7610   23.2837 H   0  0  0  0  0  0
  -22.4076  -11.9864   22.4784 H   0  0  0  0  0  0
  -21.1106  -13.1276   22.2655 H   0  0  0  0  0  0
  -24.6359  -15.8315   20.5047 H   0  0  0  0  0  0
  -26.2550  -15.6408   20.0664 H   0  0  0  0  0  0
  -26.7222  -32.5442   23.1055 H   0  0  0  0  0  0
  -25.0097  -33.9687   25.0413 H   0  0  0  0  0  0
  -22.7268  -31.3080   21.3935 H   0  0  0  0  0  0
  -23.3762  -35.9600   23.3305 H   0  0  0  0  0  0
  -24.3559  -36.8903   22.2057 H   0  0  0  0  0  0
  -23.7232  -37.6476   23.6655 H   0  0  0  0  0  0
  -26.1197  -31.5264   20.6068 H   0  0  0  0  0  0
  -26.8487  -30.8146   22.0124 H   0  0  0  0  0  0
  -28.1269  -28.9353   21.1885 H   0  0  0  0  0  0
  -25.9905  -25.8881   19.0182 H   0  0  0  0  0  0
  -23.9704  -27.2979   19.0119 H   0  0  0  0  0  0
  -23.7921  -30.5964   19.4071 H   0  0  0  0  0  0
  -22.7618  -29.2662   19.8377 H   0  0  0  0  0  0
  -25.1292  -36.1911   25.0830 H   0  0  0  0  0  0
  -21.0042  -28.3349   24.1367 H   0  0  0  0  0  0
  -20.5730  -26.2374   23.3611 H   0  0  0  0  0  0
  -21.6659  -26.7497   22.1184 H   0  0  0  0  0  0
  -19.6933  -25.6318   21.1258 H   0  0  0  0  0  0
  -19.6695  -27.3214   20.6743 H   0  0  0  0  0  0
  -17.4222  -26.6737   21.4028 H   0  0  0  0  0  0
  -18.0340  -26.0096   22.9017 H   0  0  0  0  0  0
  -19.7970  -30.7290   24.2294 H   0  0  0  0  0  0
  -17.5062  -31.6285   24.5193 H   0  0  0  0  0  0
  -15.5398  -30.3049   23.7645 H   0  0  0  0  0  0
  -15.8694  -28.0870   22.7077 H   0  0  0  0  0  0
  -24.5893  -30.7105   25.7747 H   0  0  0  0  0  0
  -24.8927  -32.2934   26.4837 H   0  0  0  0  0  0
  -25.8046  -30.8911   27.0226 H   0  0  0  0  0  0
  -26.2960  -29.6734   24.1248 H   0  0  0  0  0  0
  -27.4110  -29.7295   25.4706 H   0  0  0  0  0  0
  -27.8804  -30.4294   23.9406 H   0  0  0  0  0  0
  -27.2689  -33.3643   26.2010 H   0  0  0  0  0  0
  -28.3882  -32.6877   25.0295 H   0  0  0  0  0  0
  -28.0732  -31.8479   26.5414 H   0  0  0  0  0  0
  -28.2611  -38.0080   24.7521 H   0  0  0  0  0  0
  -28.1064  -36.2630   24.6296 H   0  0  0  0  0  0
  -27.2303  -37.1443   25.8877 H   0  0  0  0  0  0
  -20.9406  -29.8801   21.6806 H   0  0  0  0  0  0
  -26.0174  -38.2861   24.1419 H   0  0  0  0  0  0
  -31.8335  -18.9633   23.2663 H   0  0  0  0  0  0
  -31.4880  -16.7212   22.4234 H   0  0  0  0  0  0
  -28.7548  -18.3068   19.4772 H   0  0  0  0  0  0
  -28.0215  -20.7582   19.6207 H   0  0  0  0  0  0
  -29.5938  -21.2284   19.0885 H   0  0  0  0  0  0
  -27.1033  -24.9171   21.1213 H   0  0  0  0  0  0
  -28.7447  -25.0239   21.6676 H   0  0  0  0  0  0
  -28.8276  -15.6768   20.3370 H   0  0  0  0  0  0
  -28.7827  -22.5264   21.5919 H   0  0  0  0  0  0
  1 25  1  0  0  0
  1 30  2  0  0  0
  1 81  1  0  0  0
  2  3  1  0  0  0
  2 25  1  0  0  0
  2 87  1  0  0  0
  2 88  1  0  0  0
  3  4  1  0  0  0
  3 89  1  0  0  0
  3 90  1  0  0  0
  4  5  1  0  0  0
  4 91  1  0  0  0
  4 92  1  0  0  0
  5  6  1  0  0  0
  5 26  1  0  0  0
  5 93  1  0  0  0
  6 25  1  0  0  0
  6 94  1  0  0  0
  6 95  1  0  0  0
  7  8  2  0  0  0
  7 26  1  0  0  0
  7 29  1  0  0  0
  8  9  1  0  0  0
  8 22  1  0  0  0
  9 10  1  0  0  0
  9 27  2  0  0  0
 10 11  2  0  0  0
 10 15  1  0  0  0
 11 12  1  0  0  0
 11 96  1  0  0  0
 12 13  2  0  0  0
 12 97  1  0  0  0
 13 14  1  0  0  0
 13 31  1  0  0  0
 14 15  2  0  0  0
 14 98  1  0  0  0
 15 99  1  0  0  0
 16 17  2  0  0  0
 16 21  1  0  0  0
 16 31  1  0  0  0
 17 18  1  0  0  0
 17100  1  0  0  0
 18 19  2  0  0  0
 18101  1  0  0  0
 19 20  1  0  0  0
 19 24  1  0  0  0
 20 21  2  0  0  0
 20102  1  0  0  0
 21 23  1  0  0  0
 22 28  1  0  0  0
 22 32  2  0  0  0
 26 27  1  0  0  0
 28103  1  0  0  0
 28104  1  0  0  0
 29105  1  0  0  0
 29106  1  0  0  0
 33 34  1  0  0  0
 33 66  1  0  0  0
 33 70  2  0  0  0
 34 36  1  0  0  0
 34 59  1  0  0  0
 34107  1  0  0  0
 35 44  2  0  0  0
 35 45  1  0  0  0
 35 68  1  0  0  0
 36 56  1  0  0  0
 36108  1  0  0  0
 37 39  1  0  0  0
 37 47  1  0  0  0
 37 66  1  0  0  0
 37109  1  0  0  0
 38 43  2  0  0  0
 38 46  1  0  0  0
 38 47  1  0  0  0
 39 64  1  0  0  0
 39 67  2  0  0  0
 40 52  1  0  0  0
 40 53  2  0  0  0
 40 58  1  0  0  0
 41110  1  0  0  0
 41111  1  0  0  0
 41112  1  0  0  0
 41 48  1  0  0  0
 42 43  1  0  0  0
 42 66  1  0  0  0
 42113  1  0  0  0
 42114  1  0  0  0
 43 44  1  0  0  0
 44115  1  0  0  0
 45 46  2  0  0  0
 45116  1  0  0  0
 46117  1  0  0  0
 47118  1  0  0  0
 47119  1  0  0  0
 48 56  1  0  0  0
 48 65  1  0  0  0
 48120  1  0  0  0
 49 50  1  0  0  0
 49 53  1  0  0  0
 49 64  1  0  0  0
 49121  1  0  0  0
 50 51  1  0  0  0
 50122  1  0  0  0
 50123  1  0  0  0
 51 52  1  0  0  0
 51124  1  0  0  0
 51125  1  0  0  0
 52126  1  0  0  0
 52127  1  0  0  0
 53 54  1  0  0  0
 54 55  2  0  0  0
 54128  1  0  0  0
 55 57  1  0  0  0
 55129  1  0  0  0
 56 69  2  0  0  0
 57 58  2  0  0  0
 57130  1  0  0  0
 58131  1  0  0  0
 59 60  1  0  0  0
 59 61  1  0  0  0
 59 62  1  0  0  0
 60132  1  0  0  0
 60133  1  0  0  0
 60134  1  0  0  0
 61135  1  0  0  0
 61136  1  0  0  0
 61137  1  0  0  0
 62138  1  0  0  0
 62139  1  0  0  0
 62140  1  0  0  0
 63 65  1  0  0  0
 63141  1  0  0  0
 63142  1  0  0  0
 63143  1  0  0  0
 64144  1  0  0  0
 65145  1  0  0  0
 68 79  1  0  0  0
 71 72  2  0  0  0
 71 74  1  0  0  0
 71146  1  0  0  0
 72 76  1  0  0  0
 72147  1  0  0  0
 73 75  1  0  0  0
 73 76  2  0  0  0
 73148  1  0  0  0
 74 75  2  0  0  0
 74 80  1  0  0  0
 75 78  1  0  0  0
 76 81  1  0  0  0
 77 79  1  0  0  0
 77 82  1  0  0  0
 77 83  2  0  0  0
 78 82  1  0  0  0
 78149  1  0  0  0
 78150  1  0  0  0
 79151  1  0  0  0
 79152  1  0  0  0
 80 84  1  0  0  0
 80 85  1  0  0  0
 80 86  1  0  0  0
 81153  1  0  0  0
 82154  1  0  0  0
M  ISO  4   1 100  68 101  79 101  81 100
M  END
> <chiral flag>
0

> <version>
0

> <s_m_source_file>
/data/baiqing/PycharmProjects/Reinvent-master-3.2/result/LINK_invent/BTK/process_docking_weight1_custom_product_contain_oxygen_bond_distance_aromatic_linkinvent_7_9_3/rearranged_h_0050.sdf

> <i_m_source_file_index>
57

> <r_mmod_Potential_Energy-OPLS-2005>
145.947036743164

> <r_mmod_Stretch_Energy-OPLS-2005>
125.858695983887

> <r_mmod_Bend_Energy-OPLS-2005>
162.113723754883

> <r_mmod_Torsional_Energy-OPLS-2005>
246.367660522461

> <r_mmod_Improper_Torsional_Energy-OPLS-2005>
8.38111114501953

> <r_mmod_Van_der_Waal_Energy-OPLS-2005>
141.473907470703

> <r_mmod_Electrostatic_Energy-OPLS-2005>
-389.126861572266

> <r_mmod_Solvation_Energy-OPLS-2005>
-235.604522705078

> <b_mmod_Minimization_Converged-OPLS-2005>
0

> <r_mmod_RMS_Derivative-OPLS-2005>
3.59831142425537

$$$$
57
                    3D
 Structure written by MMmdl.
183193  0  0  1  0            999 V2000
  -30.8338  -14.3056   20.7402 C   0  0  0  0  0  0
  -30.4040  -12.2911   19.3813 C   0  0  0  0  0  0
  -29.4639  -12.5274   18.1878 C   0  0  0  0  0  0
  -27.9930  -12.3876   18.6119 C   0  0  0  0  0  0
  -27.6641  -13.2097   19.8836 C   0  0  2  0  0  0
  -28.7067  -12.9745   20.9983 C   0  0  0  0  0  0
  -25.2574  -13.8135   20.5650 C   0  0  0  0  0  0
  -24.1833  -13.0378   20.9152 C   0  0  0  0  0  0
  -24.6384  -11.6858   20.8766 C   0  0  0  0  0  0
  -23.9014  -10.4217   21.0417 C   0  0  0  0  0  0
  -24.3541   -9.4113   21.9201 C   0  0  0  0  0  0
  -23.6198   -8.2160   22.0780 C   0  0  0  0  0  0
  -22.4181   -8.0232   21.3556 C   0  0  0  0  0  0
  -21.9815   -9.0182   20.4662 C   0  0  0  0  0  0
  -22.7182  -10.2051   20.3042 C   0  0  0  0  0  0
  -21.6792   -6.0704   22.5268 C   0  0  0  0  0  0
  -21.4026   -6.5637   23.8200 C   0  0  0  0  0  0
  -21.3634   -5.6794   24.9173 C   0  0  0  0  0  0
  -21.6028   -4.3054   24.7241 C   0  0  0  0  0  0
  -21.8829   -3.8138   23.4353 C   0  0  0  0  0  0
  -21.9141   -4.6922   22.3403 C   0  0  0  0  0  0
  -22.7864  -13.5180   21.1843 C   0  0  0  0  0  0
  -22.1627   -4.2105   21.0984 F   0  0  0  0  0  0
  -21.5606   -3.4552   25.7761 F   0  0  0  0  0  0
  -30.0544  -13.2284   20.4553 N   0  0  0  0  0  0
  -26.3048  -12.9297   20.3471 N   0  0  0  0  0  0
  -25.9342  -11.6471   20.5944 N   0  0  0  0  0  0
  -22.0517  -12.8183   22.0416 N   0  0  0  0  0  0
  -25.4342  -15.1873   20.4032 N   0  0  0  0  0  0
  -31.7628  -14.6778   20.0143 O   0  0  0  0  0  0
  -21.6550   -6.8845   21.4235 O   0  0  0  0  0  0
  -22.3559  -14.5476   20.6689 O   0  0  0  0  0  0
  -24.6112  -31.8711   23.2166 C   0  0  0  0  0  0
  -25.9015  -32.4855   23.8450 C   0  0  1  0  0  0
  -27.2601  -27.4798   20.0701 C   0  0  0  0  0  0
  -25.5885  -33.8651   24.2381 N   0  0  0  0  0  0
  -23.4003  -30.4932   21.5565 C   0  0  2  0  0  0
  -24.8549  -28.9646   20.1237 C   0  0  0  0  0  0
  -22.7408  -29.4648   22.5030 C   0  0  0  0  0  0
  -18.0261  -28.1368   22.8513 C   0  0  0  0  0  0
  -24.1474  -36.7326   23.2638 C   0  0  0  0  0  0
  -25.9266  -30.8454   21.3690 C   0  0  0  0  0  0
  -26.0120  -29.4795   20.7232 C   0  0  0  0  0  0
  -27.2185  -28.7432   20.7055 C   0  0  0  0  0  0
  -26.0847  -26.9749   19.4778 C   0  0  0  0  0  0
  -24.8815  -27.7039   19.5056 C   0  0  0  0  0  0
  -23.6112  -29.8243   20.1725 C   0  0  0  0  0  0
  -25.4093  -36.3141   24.0355 C   0  0  1  0  0  0
  -20.5855  -28.3642   23.1348 C   0  0  2  0  0  0
  -20.6744  -26.9383   22.5425 C   0  0  0  0  0  0
  -19.5724  -26.6388   21.5219 C   0  0  0  0  0  0
  -18.1906  -26.7922   22.1627 C   0  0  0  0  0  0
  -19.1513  -28.8820   23.2922 C   0  0  0  0  0  0
  -18.9434  -30.1435   23.8918 C   0  0  0  0  0  0
  -17.6433  -30.6577   24.0561 C   0  0  0  0  0  0
  -25.9018  -34.9502   23.5161 C   0  0  0  0  0  0
  -16.5325  -29.9083   23.6322 C   0  0  0  0  0  0
  -16.7248  -28.6495   23.0356 C   0  0  0  0  0  0
  -26.4464  -31.6612   25.0747 C   0  0  0  0  0  0
  -25.3762  -31.3730   26.1537 C   0  0  0  0  0  0
  -27.0227  -30.3033   24.6084 C   0  0  0  0  0  0
  -27.6075  -32.4300   25.7478 C   0  0  0  0  0  0
  -27.5584  -37.1820   24.8465 C   0  0  0  0  0  0
  -21.4135  -29.3032   22.3782 N   0  0  0  0  0  0
  -26.4291  -37.3814   23.9416 N   0  0  0  0  0  0
  -24.6634  -31.0829   22.1068 N   0  0  0  0  0  0
  -23.4192  -28.8178   23.3052 O   0  0  0  0  0  0
  -28.3811  -26.6928   19.9294 O   0  0  0  0  0  0
  -26.5561  -34.8936   22.4713 O   0  0  0  0  0  0
  -23.5302  -32.1447   23.7573 O   0  0  0  0  0  0
  -32.8883  -21.8132   21.6177 C   0  0  0  0  0  0
  -32.5104  -23.1650   21.6217 C   0  0  0  0  0  0
  -32.5387  -20.9488   20.5494 C   0  0  0  0  0  0
  -31.9075  -21.5091   19.4038 C   0  0  0  0  0  0
  -31.5399  -22.8895   19.3973 C   0  0  0  0  0  0
  -31.7941  -23.7037   20.5387 C   0  0  0  0  0  0
  -32.8535  -15.7773   24.6542 C   0  0  0  0  0  0
  -32.1700  -15.2100   23.6461 C   0  0  0  0  0  0
  -32.9378  -18.0919   24.0877 C   0  0  0  0  0  0
  -33.0751  -17.0639   24.9501 C   0  0  0  0  0  0
  -31.5306  -17.0334   22.1463 C   0  0  0  0  0  0
  -31.5132  -15.7394   22.5912 C   0  0  0  0  0  0
  -32.5075  -18.0629   22.6731 C   0  0  0  0  0  0
  -30.0640  -25.3588   20.9471 C   0  0  0  0  0  0
  -31.9566  -27.5129   20.6828 C   0  0  0  0  0  0
  -30.5329  -27.8069   20.2089 C   0  0  0  0  0  0
  -32.3616  -26.0856   20.2899 C   0  0  0  0  0  0
  -29.5153  -26.8019   20.7913 C   0  0  1  0  0  0
  -31.6115  -20.6380   18.1809 C   0  0  0  0  0  0
  -30.8468  -23.4996   18.1803 C   0  0  0  0  0  0
  -33.4493  -17.3799   26.3870 C   0  0  0  0  0  0
  -30.3345  -17.5572   21.3515 C   0  0  0  0  0  0
  -32.8590  -19.4411   20.6506 C   0  0  0  0  0  0
  -33.0198  -19.0552   22.0417 N   0  0  0  0  0  0
  -31.3553  -25.0645   20.6172 N   0  0  0  0  0  0
  -30.6449  -14.8278   21.9610 N   0  0  0  0  0  0
  -29.2777  -24.4954   21.3600 O   0  0  0  0  0  0
  -31.4457  -12.3874   19.0703 H   0  0  0  0  0  0
  -30.3047  -11.2701   19.7529 H   0  0  0  0  0  0
  -29.6886  -11.8249   17.3851 H   0  0  0  0  0  0
  -29.6341  -13.5280   17.7841 H   0  0  0  0  0  0
  -27.7943  -11.3322   18.7967 H   0  0  0  0  0  0
  -27.3351  -12.6833   17.7932 H   0  0  0  0  0  0
  -27.7233  -14.2647   19.6142 H   0  0  0  0  0  0
  -28.6463  -11.9491   21.3649 H   0  0  0  0  0  0
  -28.4588  -13.6023   21.8515 H   0  0  0  0  0  0
  -25.2700   -9.5516   22.4764 H   0  0  0  0  0  0
  -23.9838   -7.4521   22.7514 H   0  0  0  0  0  0
  -21.0703   -8.8670   19.9009 H   0  0  0  0  0  0
  -22.3653  -10.9511   19.6074 H   0  0  0  0  0  0
  -21.2134   -7.6166   23.9705 H   0  0  0  0  0  0
  -21.1453   -6.0566   25.9075 H   0  0  0  0  0  0
  -22.0653   -2.7590   23.2877 H   0  0  0  0  0  0
  -22.4047  -11.9712   22.4654 H   0  0  0  0  0  0
  -21.1186  -13.1284   22.2782 H   0  0  0  0  0  0
  -24.6954  -15.8645   20.5682 H   0  0  0  0  0  0
  -26.3247  -15.6112   20.1758 H   0  0  0  0  0  0
  -26.7075  -32.5595   23.1209 H   0  0  0  0  0  0
  -25.0044  -33.9812   25.0532 H   0  0  0  0  0  0
  -22.6857  -31.3080   21.4202 H   0  0  0  0  0  0
  -23.3759  -35.9633   23.3283 H   0  0  0  0  0  0
  -24.3576  -36.8950   22.2055 H   0  0  0  0  0  0
  -23.7191  -37.6517   23.6649 H   0  0  0  0  0  0
  -26.0288  -31.6100   20.5976 H   0  0  0  0  0  0
  -26.8180  -30.9064   21.9814 H   0  0  0  0  0  0
  -28.1087  -29.1665   21.1445 H   0  0  0  0  0  0
  -26.1066  -26.0152   18.9797 H   0  0  0  0  0  0
  -23.9946  -27.3032   19.0340 H   0  0  0  0  0  0
  -23.7130  -30.5987   19.4113 H   0  0  0  0  0  0
  -22.7358  -29.2395   19.8823 H   0  0  0  0  0  0
  -25.1249  -36.2026   25.0848 H   0  0  0  0  0  0
  -20.9938  -28.3188   24.1470 H   0  0  0  0  0  0
  -20.5653  -26.2237   23.3600 H   0  0  0  0  0  0
  -21.6615  -26.7430   22.1225 H   0  0  0  0  0  0
  -19.6882  -25.6313   21.1226 H   0  0  0  0  0  0
  -19.6674  -27.3216   20.6768 H   0  0  0  0  0  0
  -17.4185  -26.6700   21.4016 H   0  0  0  0  0  0
  -18.0281  -26.0040   22.8995 H   0  0  0  0  0  0
  -19.7900  -30.7249   24.2315 H   0  0  0  0  0  0
  -17.4980  -31.6270   24.5145 H   0  0  0  0  0  0
  -15.5327  -30.2981   23.7638 H   0  0  0  0  0  0
  -15.8648  -28.0815   22.7068 H   0  0  0  0  0  0
  -24.5855  -30.7161   25.7893 H   0  0  0  0  0  0
  -24.9051  -32.2899   26.5085 H   0  0  0  0  0  0
  -25.8135  -30.8810   27.0235 H   0  0  0  0  0  0
  -26.2716  -29.6851   24.1145 H   0  0  0  0  0  0
  -27.3980  -29.7219   25.4516 H   0  0  0  0  0  0
  -27.8585  -30.4318   23.9199 H   0  0  0  0  0  0
  -27.2758  -33.3655   26.1992 H   0  0  0  0  0  0
  -28.3912  -32.6764   25.0302 H   0  0  0  0  0  0
  -28.0697  -31.8446   26.5435 H   0  0  0  0  0  0
  -28.2624  -38.0094   24.7492 H   0  0  0  0  0  0
  -28.1053  -36.2629   24.6301 H   0  0  0  0  0  0
  -27.2309  -37.1498   25.8870 H   0  0  0  0  0  0
  -20.9288  -29.8753   21.7006 H   0  0  0  0  0  0
  -26.0197  -38.2905   24.1400 H   0  0  0  0  0  0
  -33.4370  -21.4499   22.4770 H   0  0  0  0  0  0
  -32.7506  -23.7792   22.4784 H   0  0  0  0  0  0
  -33.2041  -15.0813   25.4058 H   0  0  0  0  0  0
  -32.1483  -14.1297   23.7102 H   0  0  0  0  0  0
  -33.2435  -19.0640   24.4545 H   0  0  0  0  0  0
  -32.0263  -27.6400   21.7647 H   0  0  0  0  0  0
  -32.6554  -28.2261   20.2439 H   0  0  0  0  0  0
  -30.5042  -27.7754   19.1188 H   0  0  0  0  0  0
  -30.2639  -28.8243   20.4928 H   0  0  0  0  0  0
  -33.3033  -25.8335   20.7795 H   0  0  0  0  0  0
  -32.5612  -26.0448   19.2181 H   0  0  0  0  0  0
  -29.2093  -27.1232   21.7878 H   0  0  0  0  0  0
  -32.1123  -19.6718   18.1859 H   0  0  0  0  0  0
  -31.9547  -21.1058   17.2585 H   0  0  0  0  0  0
  -30.5384  -20.4617   18.1073 H   0  0  0  0  0  0
  -31.2233  -23.1094   17.2372 H   0  0  0  0  0  0
  -30.9997  -24.5764   18.1222 H   0  0  0  0  0  0
  -29.7747  -23.3101   18.2265 H   0  0  0  0  0  0
  -32.6494  -17.0494   27.0505 H   0  0  0  0  0  0
  -33.5931  -18.4488   26.5509 H   0  0  0  0  0  0
  -34.3684  -16.8694   26.6816 H   0  0  0  0  0  0
  -29.4085  -17.2457   21.8399 H   0  0  0  0  0  0
  -30.3216  -17.1523   20.3386 H   0  0  0  0  0  0
  -30.2943  -18.6443   21.2995 H   0  0  0  0  0  0
  -33.8059  -19.2817   20.1328 H   0  0  0  0  0  0
  -32.1338  -18.8251   20.1277 H   0  0  0  0  0  0
  -29.8806  -14.4646   22.5098 H   0  0  0  0  0  0
  1 25  1  0  0  0
  1 30  2  0  0  0
  1 96  1  0  0  0
  2  3  1  0  0  0
  2 25  1  0  0  0
  2 98  1  0  0  0
  2 99  1  0  0  0
  3  4  1  0  0  0
  3100  1  0  0  0
  3101  1  0  0  0
  4  5  1  0  0  0
  4102  1  0  0  0
  4103  1  0  0  0
  5  6  1  0  0  0
  5 26  1  0  0  0
  5104  1  0  0  0
  6 25  1  0  0  0
  6105  1  0  0  0
  6106  1  0  0  0
  7  8  2  0  0  0
  7 26  1  0  0  0
  7 29  1  0  0  0
  8  9  1  0  0  0
  8 22  1  0  0  0
  9 10  1  0  0  0
  9 27  2  0  0  0
 10 11  2  0  0  0
 10 15  1  0  0  0
 11 12  1  0  0  0
 11107  1  0  0  0
 12 13  2  0  0  0
 12108  1  0  0  0
 13 14  1  0  0  0
 13 31  1  0  0  0
 14 15  2  0  0  0
 14109  1  0  0  0
 15110  1  0  0  0
 16 17  2  0  0  0
 16 21  1  0  0  0
 16 31  1  0  0  0
 17 18  1  0  0  0
 17111  1  0  0  0
 18 19  2  0  0  0
 18112  1  0  0  0
 19 20  1  0  0  0
 19 24  1  0  0  0
 20 21  2  0  0  0
 20113  1  0  0  0
 21 23  1  0  0  0
 22 28  1  0  0  0
 22 32  2  0  0  0
 26 27  1  0  0  0
 28114  1  0  0  0
 28115  1  0  0  0
 29116  1  0  0  0
 29117  1  0  0  0
 33 34  1  0  0  0
 33 66  1  0  0  0
 33 70  2  0  0  0
 34 36  1  0  0  0
 34 59  1  0  0  0
 34118  1  0  0  0
 35 44  2  0  0  0
 35 45  1  0  0  0
 35 68  1  0  0  0
 36 56  1  0  0  0
 36119  1  0  0  0
 37 39  1  0  0  0
 37 47  1  0  0  0
 37 66  1  0  0  0
 37120  1  0  0  0
 38 43  2  0  0  0
 38 46  1  0  0  0
 38 47  1  0  0  0
 39 64  1  0  0  0
 39 67  2  0  0  0
 40 52  1  0  0  0
 40 53  2  0  0  0
 40 58  1  0  0  0
 41121  1  0  0  0
 41122  1  0  0  0
 41123  1  0  0  0
 41 48  1  0  0  0
 42 43  1  0  0  0
 42 66  1  0  0  0
 42124  1  0  0  0
 42125  1  0  0  0
 43 44  1  0  0  0
 44126  1  0  0  0
 45 46  2  0  0  0
 45127  1  0  0  0
 46128  1  0  0  0
 47129  1  0  0  0
 47130  1  0  0  0
 48 56  1  0  0  0
 48 65  1  0  0  0
 48131  1  0  0  0
 49 50  1  0  0  0
 49 53  1  0  0  0
 49 64  1  0  0  0
 49132  1  0  0  0
 50 51  1  0  0  0
 50133  1  0  0  0
 50134  1  0  0  0
 51 52  1  0  0  0
 51135  1  0  0  0
 51136  1  0  0  0
 52137  1  0  0  0
 52138  1  0  0  0
 53 54  1  0  0  0
 54 55  2  0  0  0
 54139  1  0  0  0
 55 57  1  0  0  0
 55140  1  0  0  0
 56 69  2  0  0  0
 57 58  2  0  0  0
 57141  1  0  0  0
 58142  1  0  0  0
 59 60  1  0  0  0
 59 61  1  0  0  0
 59 62  1  0  0  0
 60143  1  0  0  0
 60144  1  0  0  0
 60145  1  0  0  0
 61146  1  0  0  0
 61147  1  0  0  0
 61148  1  0  0  0
 62149  1  0  0  0
 62150  1  0  0  0
 62151  1  0  0  0
 63 65  1  0  0  0
 63152  1  0  0  0
 63153  1  0  0  0
 63154  1  0  0  0
 64155  1  0  0  0
 65156  1  0  0  0
 68 88  1  0  0  0
 71 72  2  0  0  0
 71 73  1  0  0  0
 71157  1  0  0  0
 72 76  1  0  0  0
 72158  1  0  0  0
 73 74  2  0  0  0
 73 93  1  0  0  0
 74 75  1  0  0  0
 74 89  1  0  0  0
 75 76  2  0  0  0
 75 90  1  0  0  0
 76 95  1  0  0  0
 77 78  2  0  0  0
 77 80  1  0  0  0
 77159  1  0  0  0
 78 82  1  0  0  0
 78160  1  0  0  0
 79 80  2  0  0  0
 79 83  1  0  0  0
 79161  1  0  0  0
 80 91  1  0  0  0
 81 82  2  0  0  0
 81 83  1  0  0  0
 81 92  1  0  0  0
 82 96  1  0  0  0
 83 94  2  0  0  0
 84 88  1  0  0  0
 84 95  1  0  0  0
 84 97  2  0  0  0
 85 86  1  0  0  0
 85 87  1  0  0  0
 85162  1  0  0  0
 85163  1  0  0  0
 86 88  1  0  0  0
 86164  1  0  0  0
 86165  1  0  0  0
 87 95  1  0  0  0
 87166  1  0  0  0
 87167  1  0  0  0
 88168  1  0  0  0
 89169  1  0  0  0
 89170  1  0  0  0
 89171  1  0  0  0
 90172  1  0  0  0
 90173  1  0  0  0
 90174  1  0  0  0
 91175  1  0  0  0
 91176  1  0  0  0
 91177  1  0  0  0
 92178  1  0  0  0
 92179  1  0  0  0
 92180  1  0  0  0
 93 94  1  0  0  0
 93181  1  0  0  0
 93182  1  0  0  0
 96183  1  0  0  0
M  ISO  4   1 100  68 101  88 101  96 100
M  END
> <chiral flag>
0

> <version>
0

> <s_m_source_file>
/data/baiqing/PycharmProjects/Reinvent-master-3.2/result/LINK_invent/BTK/process_docking_weight1_custom_product_contain_oxygen_bond_distance_aromatic_linkinvent_7_9_3/rearranged_h_0050.sdf

> <i_m_source_file_index>
58

> <r_mmod_Potential_Energy-OPLS-2005>
192.279541015625

> <r_mmod_Stretch_Energy-OPLS-2005>
51.038257598877

> <r_mmod_Bend_Energy-OPLS-2005>
174.193572998047

> <r_mmod_Torsional_Energy-OPLS-2005>
301.604949951172

> <r_mmod_Improper_Torsional_Energy-OPLS-2005>
4.89458799362183

> <r_mmod_Van_der_Waal_Energy-OPLS-2005>
201.947708129883

> <r_mmod_Electrostatic_Energy-OPLS-2005>
-318.908996582031

> <r_mmod_Solvation_Energy-OPLS-2005>
-231.304382324219

> <b_mmod_Minimization_Converged-OPLS-2005>
0

> <r_mmod_RMS_Derivative-OPLS-2005>
6.57486772537231

$$$$
58
                    3D
 Structure written by MMmdl.
161169  0  0  1  0            999 V2000
  -30.6440  -14.6077   20.4898 C   0  0  0  0  0  0
  -30.4307  -12.3775   19.4158 C   0  0  0  0  0  0
  -29.4959  -12.4850   18.1941 C   0  0  0  0  0  0
  -28.0170  -12.3422   18.6147 C   0  0  0  0  0  0
  -27.6460  -13.2154   19.8454 C   0  0  2  0  0  0
  -28.6984  -13.0770   20.9642 C   0  0  0  0  0  0
  -25.2550  -13.8170   20.5673 C   0  0  0  0  0  0
  -24.1830  -13.0432   20.9196 C   0  0  0  0  0  0
  -24.6398  -11.6903   20.8736 C   0  0  0  0  0  0
  -23.9065  -10.4283   21.0395 C   0  0  0  0  0  0
  -24.3623   -9.4202   21.9175 C   0  0  0  0  0  0
  -23.6290   -8.2242   22.0752 C   0  0  0  0  0  0
  -22.4270   -8.0281   21.3541 C   0  0  0  0  0  0
  -21.9911   -9.0253   20.4641 C   0  0  0  0  0  0
  -22.7242  -10.2126   20.3044 C   0  0  0  0  0  0
  -21.6853   -6.0732   22.5276 C   0  0  0  0  0  0
  -21.4008   -6.5629   23.8207 C   0  0  0  0  0  0
  -21.3657   -5.6782   24.9169 C   0  0  0  0  0  0
  -21.6044   -4.3045   24.7215 C   0  0  0  0  0  0
  -21.8823   -3.8141   23.4334 C   0  0  0  0  0  0
  -21.9192   -4.6961   22.3395 C   0  0  0  0  0  0
  -22.7846  -13.5223   21.1832 C   0  0  0  0  0  0
  -22.1666   -4.2149   21.0970 F   0  0  0  0  0  0
  -21.5631   -3.4530   25.7723 F   0  0  0  0  0  0
  -30.0000  -13.4097   20.3719 N   0  0  0  0  0  0
  -26.2964  -12.9351   20.3258 N   0  0  0  0  0  0
  -25.9320  -11.6502   20.5729 N   0  0  0  0  0  0
  -22.0485  -12.8226   22.0393 N   0  0  0  0  0  0
  -25.4227  -15.1897   20.4085 N   0  0  0  0  0  0
  -31.8368  -14.7343   20.2019 O   0  0  0  0  0  0
  -21.6632   -6.8882   21.4238 O   0  0  0  0  0  0
  -22.3533  -14.5524   20.6666 O   0  0  0  0  0  0
  -24.6245  -31.8618   23.2019 C   0  0  0  0  0  0
  -25.9098  -32.4787   23.8353 C   0  0  1  0  0  0
  -27.2231  -27.3511   20.1022 C   0  0  0  0  0  0
  -25.5935  -33.8583   24.2287 N   0  0  0  0  0  0
  -23.4162  -30.4859   21.5425 C   0  0  2  0  0  0
  -24.8602  -28.9383   20.1123 C   0  0  0  0  0  0
  -22.7471  -29.4636   22.4912 C   0  0  0  0  0  0
  -18.0289  -28.1393   22.8510 C   0  0  0  0  0  0
  -24.1468  -36.7261   23.2645 C   0  0  0  0  0  0
  -25.9551  -30.8013   21.3649 C   0  0  0  0  0  0
  -26.0293  -29.4300   20.7094 C   0  0  0  0  0  0
  -27.2198  -28.6493   20.6900 C   0  0  0  0  0  0
  -26.0350  -26.8937   19.4992 C   0  0  0  0  0  0
  -24.8618  -27.6731   19.5000 C   0  0  0  0  0  0
  -23.6306  -29.8208   20.1572 C   0  0  0  0  0  0
  -25.4097  -36.3086   24.0351 C   0  0  1  0  0  0
  -20.5895  -28.3675   23.1287 C   0  0  2  0  0  0
  -20.6780  -26.9401   22.5406 C   0  0  0  0  0  0
  -19.5749  -26.6393   21.5213 C   0  0  0  0  0  0
  -18.1924  -26.7947   22.1625 C   0  0  0  0  0  0
  -19.1548  -28.8855   23.2896 C   0  0  0  0  0  0
  -18.9471  -30.1466   23.8902 C   0  0  0  0  0  0
  -17.6473  -30.6593   24.0574 C   0  0  0  0  0  0
  -25.9056  -34.9465   23.5126 C   0  0  0  0  0  0
  -16.5357  -29.9098   23.6343 C   0  0  0  0  0  0
  -16.7282  -28.6511   23.0371 C   0  0  0  0  0  0
  -26.4493  -31.6589   25.0708 C   0  0  0  0  0  0
  -25.3751  -31.3703   26.1447 C   0  0  0  0  0  0
  -27.0318  -30.3024   24.6117 C   0  0  0  0  0  0
  -27.6054  -32.4302   25.7496 C   0  0  0  0  0  0
  -27.5559  -37.1796   24.8484 C   0  0  0  0  0  0
  -21.4175  -29.3034   22.3672 N   0  0  0  0  0  0
  -26.4257  -37.3796   23.9447 N   0  0  0  0  0  0
  -24.6843  -31.0682   22.0928 N   0  0  0  0  0  0
  -23.4223  -28.8185   23.2974 O   0  0  0  0  0  0
  -28.3402  -26.5195   20.0775 O   0  0  0  0  0  0
  -26.5595  -34.8942   22.4669 O   0  0  0  0  0  0
  -23.5412  -32.1362   23.7392 O   0  0  0  0  0  0
  -29.5777  -18.7707   22.9554 C   0  0  0  0  0  0
  -29.8920  -18.1639   24.1800 C   0  0  0  0  0  0
  -30.2804  -16.0824   23.0177 C   0  0  0  0  0  0
  -29.6300  -18.0816   21.7149 C   0  0  0  0  0  0
  -29.9596  -16.6625   21.7611 C   0  0  0  0  0  0
  -30.2576  -16.8169   24.2110 C   0  0  0  0  0  0
  -28.4424  -23.8990   20.1695 C   0  0  0  0  0  0
  -28.3753  -22.6858   20.8152 C   0  0  0  0  0  0
  -28.4636  -21.3652   20.1171 C   0  0  0  0  0  0
  -28.0466  -22.6360   22.3046 C   0  0  0  0  0  0
  -30.7150  -20.9616   21.0007 C   0  0  0  0  0  0
  -29.3107  -18.9471   20.4431 C   0  0  0  0  0  0
  -28.2460  -25.2874   20.8658 C   0  0  0  0  0  0
  -29.8577  -15.7143   20.6725 N   0  0  0  0  0  0
  -29.4014  -20.4622   20.5737 N   0  0  0  0  0  0
  -27.6373  -21.0304   19.2647 O   0  0  0  0  0  0
  -30.5559  -16.2159   25.3880 F   0  0  0  0  0  0
  -31.4694  -12.5032   19.1049 H   0  0  0  0  0  0
  -30.3687  -11.3868   19.8672 H   0  0  0  0  0  0
  -29.7502  -11.7213   17.4571 H   0  0  0  0  0  0
  -29.6450  -13.4461   17.6994 H   0  0  0  0  0  0
  -27.8392  -11.2908   18.8436 H   0  0  0  0  0  0
  -27.3649  -12.5845   17.7742 H   0  0  0  0  0  0
  -27.6590  -14.2482   19.4994 H   0  0  0  0  0  0
  -28.7125  -12.0598   21.3594 H   0  0  0  0  0  0
  -28.4628  -13.7291   21.8068 H   0  0  0  0  0  0
  -25.2779   -9.5668   22.4739 H   0  0  0  0  0  0
  -23.9996   -7.4628   22.7472 H   0  0  0  0  0  0
  -21.0851   -8.8778   19.8939 H   0  0  0  0  0  0
  -22.3725  -10.9661   19.6141 H   0  0  0  0  0  0
  -21.2002   -7.6136   23.9714 H   0  0  0  0  0  0
  -21.1475   -6.0504   25.9073 H   0  0  0  0  0  0
  -22.0608   -2.7603   23.2828 H   0  0  0  0  0  0
  -22.4106  -11.9904   22.4808 H   0  0  0  0  0  0
  -21.1089  -13.1235   22.2556 H   0  0  0  0  0  0
  -24.6507  -15.8374   20.5252 H   0  0  0  0  0  0
  -26.2640  -15.6378   20.0713 H   0  0  0  0  0  0
  -26.7180  -32.5465   23.1116 H   0  0  0  0  0  0
  -25.0166  -33.9732   25.0490 H   0  0  0  0  0  0
  -22.7070  -31.3040   21.4036 H   0  0  0  0  0  0
  -23.3748  -35.9573   23.3321 H   0  0  0  0  0  0
  -24.3551  -36.8840   22.2052 H   0  0  0  0  0  0
  -23.7201  -37.6467   23.6635 H   0  0  0  0  0  0
  -26.0863  -31.5640   20.5962 H   0  0  0  0  0  0
  -26.8379  -30.8500   21.9920 H   0  0  0  0  0  0
  -28.1251  -29.0307   21.1420 H   0  0  0  0  0  0
  -26.0155  -25.9224   19.0244 H   0  0  0  0  0  0
  -23.9657  -27.2933   19.0266 H   0  0  0  0  0  0
  -23.7553  -30.5981   19.4022 H   0  0  0  0  0  0
  -22.7499  -29.2553   19.8484 H   0  0  0  0  0  0
  -25.1283  -36.1920   25.0843 H   0  0  0  0  0  0
  -21.0006  -28.3244   24.1400 H   0  0  0  0  0  0
  -20.5693  -26.2290   23.3601 H   0  0  0  0  0  0
  -21.6652  -26.7437   22.1194 H   0  0  0  0  0  0
  -19.6889  -25.6310   21.1228 H   0  0  0  0  0  0
  -19.6688  -27.3217   20.6757 H   0  0  0  0  0  0
  -17.4209  -26.6723   21.4008 H   0  0  0  0  0  0
  -18.0298  -26.0071   22.9007 H   0  0  0  0  0  0
  -19.7938  -30.7295   24.2247 H   0  0  0  0  0  0
  -17.5022  -31.6270   24.5186 H   0  0  0  0  0  0
  -15.5363  -30.3015   23.7656 H   0  0  0  0  0  0
  -15.8671  -28.0835   22.7090 H   0  0  0  0  0  0
  -24.5975  -30.6971   25.7811 H   0  0  0  0  0  0
  -24.8882  -32.2846   26.4829 H   0  0  0  0  0  0
  -25.8122  -30.8954   27.0240 H   0  0  0  0  0  0
  -26.2837  -29.6776   24.1204 H   0  0  0  0  0  0
  -27.4101  -29.7271   25.4584 H   0  0  0  0  0  0
  -27.8699  -30.4327   23.9264 H   0  0  0  0  0  0
  -27.2666  -33.3608   26.2046 H   0  0  0  0  0  0
  -28.3900  -32.6806   25.0356 H   0  0  0  0  0  0
  -28.0669  -31.8424   26.5442 H   0  0  0  0  0  0
  -28.2611  -38.0066   24.7533 H   0  0  0  0  0  0
  -28.1022  -36.2603   24.6304 H   0  0  0  0  0  0
  -27.2287  -37.1440   25.8892 H   0  0  0  0  0  0
  -20.9343  -29.8730   21.6875 H   0  0  0  0  0  0
  -26.0127  -38.2864   24.1470 H   0  0  0  0  0  0
  -29.2916  -19.8049   23.0002 H   0  0  0  0  0  0
  -29.8478  -18.7331   25.0972 H   0  0  0  0  0  0
  -30.5140  -15.0332   23.1082 H   0  0  0  0  0  0
  -28.6335  -23.9250   19.1053 H   0  0  0  0  0  0
  -26.9641  -22.6355   22.4383 H   0  0  0  0  0  0
  -28.4573  -23.4855   22.8479 H   0  0  0  0  0  0
  -28.4298  -21.7434   22.7894 H   0  0  0  0  0  0
  -31.0948  -21.7075   20.3007 H   0  0  0  0  0  0
  -31.4552  -20.1630   21.0395 H   0  0  0  0  0  0
  -30.6710  -21.4172   21.9897 H   0  0  0  0  0  0
  -28.3083  -18.6718   20.1153 H   0  0  0  0  0  0
  -29.9779  -18.6352   19.6375 H   0  0  0  0  0  0
  -27.3079  -25.2553   21.4212 H   0  0  0  0  0  0
  -29.0237  -25.3677   21.6258 H   0  0  0  0  0  0
  -28.9131  -15.5839   20.3463 H   0  0  0  0  0  0
  1 25  1  0  0  0
  1 30  2  0  0  0
  1 84  1  0  0  0
  2  3  1  0  0  0
  2 25  1  0  0  0
  2 88  1  0  0  0
  2 89  1  0  0  0
  3  4  1  0  0  0
  3 90  1  0  0  0
  3 91  1  0  0  0
  4  5  1  0  0  0
  4 92  1  0  0  0
  4 93  1  0  0  0
  5  6  1  0  0  0
  5 26  1  0  0  0
  5 94  1  0  0  0
  6 25  1  0  0  0
  6 95  1  0  0  0
  6 96  1  0  0  0
  7  8  2  0  0  0
  7 26  1  0  0  0
  7 29  1  0  0  0
  8  9  1  0  0  0
  8 22  1  0  0  0
  9 10  1  0  0  0
  9 27  2  0  0  0
 10 11  2  0  0  0
 10 15  1  0  0  0
 11 12  1  0  0  0
 11 97  1  0  0  0
 12 13  2  0  0  0
 12 98  1  0  0  0
 13 14  1  0  0  0
 13 31  1  0  0  0
 14 15  2  0  0  0
 14 99  1  0  0  0
 15100  1  0  0  0
 16 17  2  0  0  0
 16 21  1  0  0  0
 16 31  1  0  0  0
 17 18  1  0  0  0
 17101  1  0  0  0
 18 19  2  0  0  0
 18102  1  0  0  0
 19 20  1  0  0  0
 19 24  1  0  0  0
 20 21  2  0  0  0
 20103  1  0  0  0
 21 23  1  0  0  0
 22 28  1  0  0  0
 22 32  2  0  0  0
 26 27  1  0  0  0
 28104  1  0  0  0
 28105  1  0  0  0
 29106  1  0  0  0
 29107  1  0  0  0
 33 34  1  0  0  0
 33 66  1  0  0  0
 33 70  2  0  0  0
 34 36  1  0  0  0
 34 59  1  0  0  0
 34108  1  0  0  0
 35 44  2  0  0  0
 35 45  1  0  0  0
 35 68  1  0  0  0
 36 56  1  0  0  0
 36109  1  0  0  0
 37 39  1  0  0  0
 37 47  1  0  0  0
 37 66  1  0  0  0
 37110  1  0  0  0
 38 43  2  0  0  0
 38 46  1  0  0  0
 38 47  1  0  0  0
 39 64  1  0  0  0
 39 67  2  0  0  0
 40 52  1  0  0  0
 40 53  2  0  0  0
 40 58  1  0  0  0
 41111  1  0  0  0
 41112  1  0  0  0
 41113  1  0  0  0
 41 48  1  0  0  0
 42 43  1  0  0  0
 42 66  1  0  0  0
 42114  1  0  0  0
 42115  1  0  0  0
 43 44  1  0  0  0
 44116  1  0  0  0
 45 46  2  0  0  0
 45117  1  0  0  0
 46118  1  0  0  0
 47119  1  0  0  0
 47120  1  0  0  0
 48 56  1  0  0  0
 48 65  1  0  0  0
 48121  1  0  0  0
 49 50  1  0  0  0
 49 53  1  0  0  0
 49 64  1  0  0  0
 49122  1  0  0  0
 50 51  1  0  0  0
 50123  1  0  0  0
 50124  1  0  0  0
 51 52  1  0  0  0
 51125  1  0  0  0
 51126  1  0  0  0
 52127  1  0  0  0
 52128  1  0  0  0
 53 54  1  0  0  0
 54 55  2  0  0  0
 54129  1  0  0  0
 55 57  1  0  0  0
 55130  1  0  0  0
 56 69  2  0  0  0
 57 58  2  0  0  0
 57131  1  0  0  0
 58132  1  0  0  0
 59 60  1  0  0  0
 59 61  1  0  0  0
 59 62  1  0  0  0
 60133  1  0  0  0
 60134  1  0  0  0
 60135  1  0  0  0
 61136  1  0  0  0
 61137  1  0  0  0
 61138  1  0  0  0
 62139  1  0  0  0
 62140  1  0  0  0
 62141  1  0  0  0
 63 65  1  0  0  0
 63142  1  0  0  0
 63143  1  0  0  0
 63144  1  0  0  0
 64145  1  0  0  0
 65146  1  0  0  0
 68 83  1  0  0  0
 71 72  2  0  0  0
 71 74  1  0  0  0
 71147  1  0  0  0
 72 76  1  0  0  0
 72148  1  0  0  0
 73 75  1  0  0  0
 73 76  2  0  0  0
 73149  1  0  0  0
 74 75  2  0  0  0
 74 82  1  0  0  0
 75 84  1  0  0  0
 76 87  1  0  0  0
 77 78  2  0  0  0
 77 83  1  0  0  0
 77150  1  0  0  0
 78 79  1  0  0  0
 78 80  1  0  0  0
 79 85  1  0  0  0
 79 86  2  0  0  0
 80151  1  0  0  0
 80152  1  0  0  0
 80153  1  0  0  0
 81 85  1  0  0  0
 81154  1  0  0  0
 81155  1  0  0  0
 81156  1  0  0  0
 82 85  1  0  0  0
 82157  1  0  0  0
 82158  1  0  0  0
 83159  1  0  0  0
 83160  1  0  0  0
 84161  1  0  0  0
M  ISO  4   1 100  68 101  83 101  84 100
M  END
> <chiral flag>
0

> <version>
0

> <s_m_source_file>
/data/baiqing/PycharmProjects/Reinvent-master-3.2/result/LINK_invent/BTK/process_docking_weight1_custom_product_contain_oxygen_bond_distance_aromatic_linkinvent_7_9_3/rearranged_h_0050.sdf

> <i_m_source_file_index>
59

> <r_mmod_Potential_Energy-OPLS-2005>
168.815078735352

> <r_mmod_Stretch_Energy-OPLS-2005>
80.9611282348633

> <r_mmod_Bend_Energy-OPLS-2005>
134.107635498047

> <r_mmod_Torsional_Energy-OPLS-2005>
334.146179199219

> <r_mmod_Improper_Torsional_Energy-OPLS-2005>
12.5130853652954

> <r_mmod_Van_der_Waal_Energy-OPLS-2005>
152.702178955078

> <r_mmod_Electrostatic_Energy-OPLS-2005>
-366.110565185547

> <r_mmod_Solvation_Energy-OPLS-2005>
-220.347549438477

> <b_mmod_Minimization_Converged-OPLS-2005>
0

> <r_mmod_RMS_Derivative-OPLS-2005>
2.68828964233398

$$$$
59
                    3D
 Structure written by MMmdl.
161169  0  0  1  0            999 V2000
  -30.6816  -14.4514   20.5763 C   0  0  0  0  0  0
  -30.4116  -12.2984   19.4071 C   0  0  0  0  0  0
  -29.4942  -12.5399   18.1902 C   0  0  0  0  0  0
  -28.0108  -12.3840   18.5845 C   0  0  0  0  0  0
  -27.6507  -13.2074   19.8510 C   0  0  2  0  0  0
  -28.6805  -12.9605   20.9695 C   0  0  0  0  0  0
  -25.2545  -13.8150   20.5640 C   0  0  0  0  0  0
  -24.1813  -13.0405   20.9193 C   0  0  0  0  0  0
  -24.6362  -11.6881   20.8678 C   0  0  0  0  0  0
  -23.9014  -10.4275   21.0368 C   0  0  0  0  0  0
  -24.3588   -9.4210   21.9155 C   0  0  0  0  0  0
  -23.6286   -8.2230   22.0736 C   0  0  0  0  0  0
  -22.4256   -8.0262   21.3550 C   0  0  0  0  0  0
  -21.9862   -9.0207   20.4644 C   0  0  0  0  0  0
  -22.7169  -10.2094   20.3039 C   0  0  0  0  0  0
  -21.6863   -6.0688   22.5264 C   0  0  0  0  0  0
  -21.4004   -6.5592   23.8188 C   0  0  0  0  0  0
  -21.3684   -5.6765   24.9156 C   0  0  0  0  0  0
  -21.6085   -4.3031   24.7205 C   0  0  0  0  0  0
  -21.8822   -3.8099   23.4322 C   0  0  0  0  0  0
  -21.9180   -4.6912   22.3376 C   0  0  0  0  0  0
  -22.7823  -13.5173   21.1908 C   0  0  0  0  0  0
  -22.1660   -4.2100   21.0947 F   0  0  0  0  0  0
  -21.5653   -3.4519   25.7722 F   0  0  0  0  0  0
  -30.0197  -13.2687   20.4466 N   0  0  0  0  0  0
  -26.2954  -12.9309   20.3182 N   0  0  0  0  0  0
  -25.9258  -11.6449   20.5577 N   0  0  0  0  0  0
  -22.0488  -12.8159   22.0512 N   0  0  0  0  0  0
  -25.4216  -15.1864   20.4006 N   0  0  0  0  0  0
  -31.8196  -14.6382   20.1401 O   0  0  0  0  0  0
  -21.6664   -6.8831   21.4223 O   0  0  0  0  0  0
  -22.3457  -14.5437   20.6739 O   0  0  0  0  0  0
  -24.6164  -31.8668   23.2147 C   0  0  0  0  0  0
  -25.9030  -32.4812   23.8435 C   0  0  1  0  0  0
  -27.2370  -27.4387   20.0864 C   0  0  0  0  0  0
  -25.5878  -33.8613   24.2382 N   0  0  0  0  0  0
  -23.4010  -30.4958   21.5547 C   0  0  2  0  0  0
  -24.8456  -28.9596   20.1171 C   0  0  0  0  0  0
  -22.7397  -29.4698   22.5013 C   0  0  0  0  0  0
  -18.0247  -28.1443   22.8463 C   0  0  0  0  0  0
  -24.1469  -36.7257   23.2671 C   0  0  0  0  0  0
  -25.9353  -30.8323   21.3703 C   0  0  0  0  0  0
  -26.0068  -29.4714   20.7081 C   0  0  0  0  0  0
  -27.2017  -28.7184   20.6881 C   0  0  0  0  0  0
  -26.0457  -26.9318   19.5121 C   0  0  0  0  0  0
  -24.8587  -27.6865   19.5219 C   0  0  0  0  0  0
  -23.6071  -29.8278   20.1690 C   0  0  0  0  0  0
  -25.4096  -36.3121   24.0395 C   0  0  1  0  0  0
  -20.5851  -28.3711   23.1289 C   0  0  2  0  0  0
  -20.6765  -26.9446   22.5439 C   0  0  0  0  0  0
  -19.5729  -26.6424   21.5230 C   0  0  0  0  0  0
  -18.1896  -26.7999   22.1594 C   0  0  0  0  0  0
  -19.1497  -28.8897   23.2875 C   0  0  0  0  0  0
  -18.9447  -30.1509   23.8895 C   0  0  0  0  0  0
  -17.6448  -30.6623   24.0614 C   0  0  0  0  0  0
  -25.9014  -34.9473   23.5201 C   0  0  0  0  0  0
  -16.5340  -29.9136   23.6359 C   0  0  0  0  0  0
  -16.7250  -28.6583   23.0322 C   0  0  0  0  0  0
  -26.4523  -31.6577   25.0733 C   0  0  0  0  0  0
  -25.3906  -31.3505   26.1551 C   0  0  0  0  0  0
  -27.0441  -30.3079   24.6068 C   0  0  0  0  0  0
  -27.6112  -32.4368   25.7388 C   0  0  0  0  0  0
  -27.5592  -37.1774   24.8505 C   0  0  0  0  0  0
  -21.4142  -29.3025   22.3662 N   0  0  0  0  0  0
  -26.4288  -37.3809   23.9468 N   0  0  0  0  0  0
  -24.6681  -31.0814   22.1015 N   0  0  0  0  0  0
  -23.4153  -28.8250   23.3073 O   0  0  0  0  0  0
  -28.4319  -26.7404   20.0957 O   0  0  0  0  0  0
  -26.5593  -34.8912   22.4776 O   0  0  0  0  0  0
  -23.5358  -32.1391   23.7548 O   0  0  0  0  0  0
  -28.9903  -17.1101   24.7338 C   0  0  0  0  0  0
  -29.2642  -15.7468   24.5716 C   0  0  0  0  0  0
  -29.0784  -17.9771   23.6292 C   0  0  0  0  0  0
  -29.6210  -15.2556   23.3079 C   0  0  0  0  0  0
  -29.4109  -17.5095   22.3307 C   0  0  0  0  0  0
  -29.6674  -16.0997   22.1687 C   0  0  0  0  0  0
  -29.5434  -18.5299   21.2029 C   0  0  0  0  0  0
  -29.4762  -21.0253   20.7263 C   0  0  0  0  0  0
  -30.1478  -20.9460   19.3727 C   0  0  0  0  0  0
  -28.2850  -24.2336   19.9238 C   0  0  0  0  0  0
  -29.4537  -23.6099   20.7248 C   0  0  0  0  0  0
  -28.6031  -25.5947   19.2489 C   0  0  0  0  0  0
  -29.9190  -15.5221   20.8810 N   0  0  0  0  0  0
  -29.2241  -19.9169   21.4929 N   0  0  0  0  0  0
  -29.1514  -22.2474   21.2458 N   0  3  0  0  0  0
  -29.9459  -18.1942   20.0848 O   0  0  0  0  0  0
  -31.4610  -12.3937   19.1254 H   0  0  0  0  0  0
  -30.2865  -11.2766   19.7637 H   0  0  0  0  0  0
  -29.7422  -11.8513   17.3823 H   0  0  0  0  0  0
  -29.6662  -13.5429   17.7983 H   0  0  0  0  0  0
  -27.8167  -11.3224   18.7563 H   0  0  0  0  0  0
  -27.3736  -12.6788   17.7505 H   0  0  0  0  0  0
  -27.7010  -14.2624   19.5774 H   0  0  0  0  0  0
  -28.6416  -11.9237   21.3055 H   0  0  0  0  0  0
  -28.3959  -13.5542   21.8309 H   0  0  0  0  0  0
  -25.2740   -9.5665   22.4714 H   0  0  0  0  0  0
  -24.0002   -7.4605   22.7429 H   0  0  0  0  0  0
  -21.0794   -8.8659   19.8984 H   0  0  0  0  0  0
  -22.3588  -10.9576   19.6132 H   0  0  0  0  0  0
  -21.2005   -7.6108   23.9653 H   0  0  0  0  0  0
  -21.1551   -6.0514   25.9066 H   0  0  0  0  0  0
  -22.0606   -2.7556   23.2818 H   0  0  0  0  0  0
  -22.4119  -11.9841   22.4927 H   0  0  0  0  0  0
  -21.1122  -13.1161   22.2792 H   0  0  0  0  0  0
  -24.6457  -15.8291   20.5116 H   0  0  0  0  0  0
  -26.2520  -15.6249   20.0200 H   0  0  0  0  0  0
  -26.7088  -32.5524   23.1171 H   0  0  0  0  0  0
  -25.0103  -33.9768   25.0585 H   0  0  0  0  0  0
  -22.6933  -31.3149   21.4168 H   0  0  0  0  0  0
  -23.3793  -35.9537   23.3369 H   0  0  0  0  0  0
  -24.3563  -36.8816   22.2080 H   0  0  0  0  0  0
  -23.7122  -37.6429   23.6644 H   0  0  0  0  0  0
  -26.0850  -31.6073   20.6152 H   0  0  0  0  0  0
  -26.8145  -30.8593   22.0044 H   0  0  0  0  0  0
  -28.1013  -29.1251   21.1284 H   0  0  0  0  0  0
  -26.0071  -25.9519   19.0645 H   0  0  0  0  0  0
  -23.9599  -27.2762   19.0804 H   0  0  0  0  0  0
  -23.7078  -30.6029   19.4072 H   0  0  0  0  0  0
  -22.7303  -29.2433   19.8793 H   0  0  0  0  0  0
  -25.1273  -36.2022   25.0894 H   0  0  0  0  0  0
  -20.9932  -28.3298   24.1412 H   0  0  0  0  0  0
  -20.5714  -26.2332   23.3645 H   0  0  0  0  0  0
  -21.6603  -26.7513   22.1167 H   0  0  0  0  0  0
  -19.6903  -25.6342   21.1239 H   0  0  0  0  0  0
  -19.6691  -27.3216   20.6756 H   0  0  0  0  0  0
  -17.4190  -26.6814   21.3964 H   0  0  0  0  0  0
  -18.0219  -26.0144   22.8953 H   0  0  0  0  0  0
  -19.7914  -30.7333   24.2275 H   0  0  0  0  0  0
  -17.4978  -31.6297   24.5235 H   0  0  0  0  0  0
  -15.5340  -30.3028   23.7752 H   0  0  0  0  0  0
  -15.8644  -28.0945   22.6986 H   0  0  0  0  0  0
  -24.6017  -30.6938   25.7843 H   0  0  0  0  0  0
  -24.9192  -32.2576   26.5342 H   0  0  0  0  0  0
  -25.8391  -30.8402   27.0091 H   0  0  0  0  0  0
  -26.2958  -29.6643   24.1427 H   0  0  0  0  0  0
  -27.4620  -29.7465   25.4424 H   0  0  0  0  0  0
  -27.8597  -30.4482   23.8978 H   0  0  0  0  0  0
  -27.2740  -33.3638   26.2042 H   0  0  0  0  0  0
  -28.3772  -32.7012   25.0082 H   0  0  0  0  0  0
  -28.0993  -31.8511   26.5185 H   0  0  0  0  0  0
  -28.2665  -38.0025   24.7585 H   0  0  0  0  0  0
  -28.1030  -36.2572   24.6322 H   0  0  0  0  0  0
  -27.2312  -37.1417   25.8905 H   0  0  0  0  0  0
  -20.9355  -29.8606   21.6747 H   0  0  0  0  0  0
  -26.0203  -38.2899   24.1485 H   0  0  0  0  0  0
  -28.7191  -17.4907   25.7081 H   0  0  0  0  0  0
  -29.2054  -15.0732   25.4162 H   0  0  0  0  0  0
  -28.8763  -19.0208   23.8156 H   0  0  0  0  0  0
  -29.8503  -14.2045   23.2356 H   0  0  0  0  0  0
  -31.2094  -20.7211   19.4924 H   0  0  0  0  0  0
  -30.0589  -21.8720   18.8036 H   0  0  0  0  0  0
  -29.6988  -20.1844   18.7385 H   0  0  0  0  0  0
  -27.4026  -24.3452   20.5516 H   0  0  0  0  0  0
  -28.0084  -23.5293   19.1409 H   0  0  0  0  0  0
  -29.6792  -24.2576   21.5740 H   0  0  0  0  0  0
  -30.3692  -23.5915   20.1331 H   0  0  0  0  0  0
  -28.0317  -25.6984   18.3255 H   0  0  0  0  0  0
  -29.6426  -25.5960   18.9149 H   0  0  0  0  0  0
  -30.0333  -16.2340   20.1711 H   0  0  0  0  0  0
  -28.8245  -20.1260   22.3915 H   0  0  0  0  0  0
  -28.6381  -22.2751   22.1162 H   0  0  0  0  0  0
  1 25  1  0  0  0
  1 30  2  0  0  0
  1 83  1  0  0  0
  2  3  1  0  0  0
  2 25  1  0  0  0
  2 87  1  0  0  0
  2 88  1  0  0  0
  3  4  1  0  0  0
  3 89  1  0  0  0
  3 90  1  0  0  0
  4  5  1  0  0  0
  4 91  1  0  0  0
  4 92  1  0  0  0
  5  6  1  0  0  0
  5 26  1  0  0  0
  5 93  1  0  0  0
  6 25  1  0  0  0
  6 94  1  0  0  0
  6 95  1  0  0  0
  7  8  2  0  0  0
  7 26  1  0  0  0
  7 29  1  0  0  0
  8  9  1  0  0  0
  8 22  1  0  0  0
  9 10  1  0  0  0
  9 27  2  0  0  0
 10 11  2  0  0  0
 10 15  1  0  0  0
 11 12  1  0  0  0
 11 96  1  0  0  0
 12 13  2  0  0  0
 12 97  1  0  0  0
 13 14  1  0  0  0
 13 31  1  0  0  0
 14 15  2  0  0  0
 14 98  1  0  0  0
 15 99  1  0  0  0
 16 17  2  0  0  0
 16 21  1  0  0  0
 16 31  1  0  0  0
 17 18  1  0  0  0
 17100  1  0  0  0
 18 19  2  0  0  0
 18101  1  0  0  0
 19 20  1  0  0  0
 19 24  1  0  0  0
 20 21  2  0  0  0
 20102  1  0  0  0
 21 23  1  0  0  0
 22 28  1  0  0  0
 22 32  2  0  0  0
 26 27  1  0  0  0
 28103  1  0  0  0
 28104  1  0  0  0
 29105  1  0  0  0
 29106  1  0  0  0
 33 34  1  0  0  0
 33 66  1  0  0  0
 33 70  2  0  0  0
 34 36  1  0  0  0
 34 59  1  0  0  0
 34107  1  0  0  0
 35 44  2  0  0  0
 35 45  1  0  0  0
 35 68  1  0  0  0
 36 56  1  0  0  0
 36108  1  0  0  0
 37 39  1  0  0  0
 37 47  1  0  0  0
 37 66  1  0  0  0
 37109  1  0  0  0
 38 43  2  0  0  0
 38 46  1  0  0  0
 38 47  1  0  0  0
 39 64  1  0  0  0
 39 67  2  0  0  0
 40 52  1  0  0  0
 40 53  2  0  0  0
 40 58  1  0  0  0
 41110  1  0  0  0
 41111  1  0  0  0
 41112  1  0  0  0
 41 48  1  0  0  0
 42 43  1  0  0  0
 42 66  1  0  0  0
 42113  1  0  0  0
 42114  1  0  0  0
 43 44  1  0  0  0
 44115  1  0  0  0
 45 46  2  0  0  0
 45116  1  0  0  0
 46117  1  0  0  0
 47118  1  0  0  0
 47119  1  0  0  0
 48 56  1  0  0  0
 48 65  1  0  0  0
 48120  1  0  0  0
 49 50  1  0  0  0
 49 53  1  0  0  0
 49 64  1  0  0  0
 49121  1  0  0  0
 50 51  1  0  0  0
 50122  1  0  0  0
 50123  1  0  0  0
 51 52  1  0  0  0
 51124  1  0  0  0
 51125  1  0  0  0
 52126  1  0  0  0
 52127  1  0  0  0
 53 54  1  0  0  0
 54 55  2  0  0  0
 54128  1  0  0  0
 55 57  1  0  0  0
 55129  1  0  0  0
 56 69  2  0  0  0
 57 58  2  0  0  0
 57130  1  0  0  0
 58131  1  0  0  0
 59 60  1  0  0  0
 59 61  1  0  0  0
 59 62  1  0  0  0
 60132  1  0  0  0
 60133  1  0  0  0
 60134  1  0  0  0
 61135  1  0  0  0
 61136  1  0  0  0
 61137  1  0  0  0
 62138  1  0  0  0
 62139  1  0  0  0
 62140  1  0  0  0
 63 65  1  0  0  0
 63141  1  0  0  0
 63142  1  0  0  0
 63143  1  0  0  0
 64144  1  0  0  0
 65145  1  0  0  0
 68 82  1  0  0  0
 71 72  2  0  0  0
 71 73  1  0  0  0
 71146  1  0  0  0
 72 74  1  0  0  0
 72147  1  0  0  0
 73 75  2  0  0  0
 73148  1  0  0  0
 74 76  2  0  0  0
 74149  1  0  0  0
 75 76  1  0  0  0
 75 77  1  0  0  0
 76 83  1  0  0  0
 77 84  1  0  0  0
 77 86  2  0  0  0
 78 79  1  0  0  0
 78 84  1  0  0  0
 78 85  2  0  0  0
 79150  1  0  0  0
 79151  1  0  0  0
 79152  1  0  0  0
 80 81  1  0  0  0
 80 82  1  0  0  0
 80153  1  0  0  0
 80154  1  0  0  0
 81 85  1  0  0  0
 81155  1  0  0  0
 81156  1  0  0  0
 82157  1  0  0  0
 82158  1  0  0  0
 83159  1  0  0  0
 84160  1  0  0  0
 85161  1  0  0  0
M  CHG  1  85   1
M  ISO  4   1 100  68 101  82 101  83 100
M  END
> <chiral flag>
0

> <version>
0

> <s_m_source_file>
/data/baiqing/PycharmProjects/Reinvent-master-3.2/result/LINK_invent/BTK/process_docking_weight1_custom_product_contain_oxygen_bond_distance_aromatic_linkinvent_7_9_3/rearranged_h_0050.sdf

> <i_m_source_file_index>
60

> <r_mmod_Potential_Energy-OPLS-2005>
13.9178733825684

> <r_mmod_Stretch_Energy-OPLS-2005>
47.5988006591797

> <r_mmod_Bend_Energy-OPLS-2005>
129.920425415039

> <r_mmod_Torsional_Energy-OPLS-2005>
264.409790039062

> <r_mmod_Improper_Torsional_Energy-OPLS-2005>
13.2114191055298

> <r_mmod_Van_der_Waal_Energy-OPLS-2005>
170.036743164062

> <r_mmod_Electrostatic_Energy-OPLS-2005>
-162.597473144531

> <r_mmod_Solvation_Energy-OPLS-2005>
-461.468597412109

> <b_mmod_Minimization_Converged-OPLS-2005>
0

> <r_mmod_RMS_Derivative-OPLS-2005>
5.44810581207275

$$$$
60
                    3D
 Structure written by MMmdl.
151159  0  0  1  0            999 V2000
  -30.6182  -14.6508   20.4889 C   0  0  0  0  0  0
  -30.4343  -12.3957   19.4577 C   0  0  0  0  0  0
  -29.5097  -12.5117   18.2259 C   0  0  0  0  0  0
  -28.0316  -12.3464   18.6328 C   0  0  0  0  0  0
  -27.6501  -13.2187   19.8584 C   0  0  2  0  0  0
  -28.6913  -13.0857   20.9919 C   0  0  0  0  0  0
  -25.2542  -13.8181   20.5666 C   0  0  0  0  0  0
  -24.1812  -13.0457   20.9192 C   0  0  0  0  0  0
  -24.6371  -11.6919   20.8731 C   0  0  0  0  0  0
  -23.9039  -10.4298   21.0406 C   0  0  0  0  0  0
  -24.3594   -9.4215   21.9183 C   0  0  0  0  0  0
  -23.6271   -8.2250   22.0745 C   0  0  0  0  0  0
  -22.4261   -8.0281   21.3533 C   0  0  0  0  0  0
  -21.9897   -9.0255   20.4649 C   0  0  0  0  0  0
  -22.7219  -10.2137   20.3050 C   0  0  0  0  0  0
  -21.6860   -6.0729   22.5281 C   0  0  0  0  0  0
  -21.4019   -6.5629   23.8210 C   0  0  0  0  0  0
  -21.3666   -5.6777   24.9175 C   0  0  0  0  0  0
  -21.6047   -4.3043   24.7227 C   0  0  0  0  0  0
  -21.8817   -3.8136   23.4346 C   0  0  0  0  0  0
  -21.9196   -4.6954   22.3409 C   0  0  0  0  0  0
  -22.7839  -13.5262   21.1865 C   0  0  0  0  0  0
  -22.1667   -4.2147   21.0981 F   0  0  0  0  0  0
  -21.5637   -3.4521   25.7736 F   0  0  0  0  0  0
  -30.0088  -13.4237   20.4293 N   0  0  0  0  0  0
  -26.2954  -12.9361   20.3257 N   0  0  0  0  0  0
  -25.9298  -11.6510   20.5711 N   0  0  0  0  0  0
  -22.0461  -12.8256   22.0412 N   0  0  0  0  0  0
  -25.4244  -15.1898   20.4087 N   0  0  0  0  0  0
  -31.7887  -14.7985   20.1222 O   0  0  0  0  0  0
  -21.6635   -6.8873   21.4237 O   0  0  0  0  0  0
  -22.3540  -14.5581   20.6729 O   0  0  0  0  0  0
  -24.6265  -31.8612   23.2049 C   0  0  0  0  0  0
  -25.9115  -32.4783   23.8371 C   0  0  1  0  0  0
  -27.2165  -27.3169   20.1104 C   0  0  0  0  0  0
  -25.5942  -33.8583   24.2311 N   0  0  0  0  0  0
  -23.4198  -30.4883   21.5465 C   0  0  2  0  0  0
  -24.8649  -28.9471   20.1101 C   0  0  0  0  0  0
  -22.7481  -29.4638   22.4917 C   0  0  0  0  0  0
  -18.0294  -28.1402   22.8482 C   0  0  0  0  0  0
  -24.1486  -36.7294   23.2634 C   0  0  0  0  0  0
  -25.9617  -30.7891   21.3788 C   0  0  0  0  0  0
  -26.0343  -29.4159   20.7224 C   0  0  0  0  0  0
  -27.2132  -28.6106   20.7180 C   0  0  0  0  0  0
  -26.0288  -26.9151   19.4564 C   0  0  0  0  0  0
  -24.8642  -27.7017   19.4685 C   0  0  0  0  0  0
  -23.6357  -29.8299   20.1593 C   0  0  0  0  0  0
  -25.4107  -36.3086   24.0333 C   0  0  1  0  0  0
  -20.5895  -28.3704   23.1280 C   0  0  2  0  0  0
  -20.6783  -26.9428   22.5400 C   0  0  0  0  0  0
  -19.5755  -26.6398   21.5210 C   0  0  0  0  0  0
  -18.1942  -26.7940   22.1635 C   0  0  0  0  0  0
  -19.1544  -28.8869   23.2884 C   0  0  0  0  0  0
  -18.9462  -30.1468   23.8909 C   0  0  0  0  0  0
  -17.6458  -30.6592   24.0578 C   0  0  0  0  0  0
  -25.9045  -34.9453   23.5116 C   0  0  0  0  0  0
  -16.5355  -29.9096   23.6322 C   0  0  0  0  0  0
  -16.7281  -28.6522   23.0333 C   0  0  0  0  0  0
  -26.4503  -31.6577   25.0730 C   0  0  0  0  0  0
  -25.3742  -31.3713   26.1463 C   0  0  0  0  0  0
  -27.0335  -30.3000   24.6176 C   0  0  0  0  0  0
  -27.6078  -32.4292   25.7498 C   0  0  0  0  0  0
  -27.5580  -37.1804   24.8466 C   0  0  0  0  0  0
  -21.4193  -29.3060   22.3665 N   0  0  0  0  0  0
  -26.4292  -37.3775   23.9411 N   0  0  0  0  0  0
  -24.6879  -31.0627   22.1002 N   0  0  0  0  0  0
  -23.4203  -28.8163   23.2982 O   0  0  0  0  0  0
  -28.3230  -26.4523   20.1399 O   0  0  0  0  0  0
  -26.5595  -34.8917   22.4674 O   0  0  0  0  0  0
  -23.5429  -32.1406   23.7373 O   0  0  0  0  0  0
  -28.7814  -19.3998   20.5810 C   0  0  0  0  0  0
  -28.7609  -17.9817   20.7731 C   0  0  0  0  0  0
  -31.1007  -17.8477   20.2574 C   0  0  0  0  0  0
  -29.9706  -20.0804   20.2182 C   0  0  0  0  0  0
  -29.9121  -17.1592   20.6076 C   0  0  0  0  0  0
  -31.1242  -19.2605   20.0691 C   0  0  0  0  0  0
  -29.2411  -24.0108   20.1397 C   0  0  0  0  0  0
  -30.0931  -21.6198   19.9044 C   0  0  0  0  0  0
  -28.0412  -25.0067   20.3647 C   0  0  0  0  0  0
  -29.8001  -15.7074   20.8040 N   0  0  0  0  0  0
  -29.0635  -22.6526   20.2691 N   0  0  0  0  0  0
  -30.3382  -24.4724   19.8153 O   0  0  0  0  0  0
  -32.2977  -19.8382   19.7167 F   0  0  0  0  0  0
  -31.4775  -12.5160   19.1596 H   0  0  0  0  0  0
  -30.3632  -11.4019   19.9019 H   0  0  0  0  0  0
  -29.7794  -11.7649   17.4785 H   0  0  0  0  0  0
  -29.6500  -13.4844   17.7501 H   0  0  0  0  0  0
  -27.8647  -11.2938   18.8622 H   0  0  0  0  0  0
  -27.3798  -12.5803   17.7899 H   0  0  0  0  0  0
  -27.6650  -14.2510   19.5073 H   0  0  0  0  0  0
  -28.7009  -12.0712   21.3917 H   0  0  0  0  0  0
  -28.4306  -13.7336   21.8316 H   0  0  0  0  0  0
  -25.2738   -9.5720   22.4752 H   0  0  0  0  0  0
  -24.0009   -7.4652   22.7448 H   0  0  0  0  0  0
  -21.0841   -8.8772   19.8949 H   0  0  0  0  0  0
  -22.3676  -10.9673   19.6158 H   0  0  0  0  0  0
  -21.1998   -7.6131   23.9721 H   0  0  0  0  0  0
  -21.1495   -6.0499   25.9080 H   0  0  0  0  0  0
  -22.0587   -2.7596   23.2839 H   0  0  0  0  0  0
  -22.4054  -11.9921   22.4827 H   0  0  0  0  0  0
  -21.1072  -13.1296   22.2601 H   0  0  0  0  0  0
  -24.6471  -15.8347   20.5007 H   0  0  0  0  0  0
  -26.2574  -15.6274   20.0385 H   0  0  0  0  0  0
  -26.7182  -32.5457   23.1116 H   0  0  0  0  0  0
  -25.0132  -33.9729   25.0490 H   0  0  0  0  0  0
  -22.7132  -31.3091   21.4062 H   0  0  0  0  0  0
  -23.3736  -35.9637   23.3308 H   0  0  0  0  0  0
  -24.3581  -36.8897   22.2044 H   0  0  0  0  0  0
  -23.7254  -37.6514   23.6636 H   0  0  0  0  0  0
  -26.0922  -31.5513   20.6091 H   0  0  0  0  0  0
  -26.8433  -30.8397   22.0056 H   0  0  0  0  0  0
  -28.1077  -28.9617   21.2125 H   0  0  0  0  0  0
  -25.9695  -25.9885   18.9076 H   0  0  0  0  0  0
  -23.9746  -27.3478   18.9649 H   0  0  0  0  0  0
  -23.7605  -30.6104   19.4072 H   0  0  0  0  0  0
  -22.7537  -29.2652   19.8514 H   0  0  0  0  0  0
  -25.1279  -36.1942   25.0826 H   0  0  0  0  0  0
  -21.0004  -28.3286   24.1398 H   0  0  0  0  0  0
  -20.5708  -26.2314   23.3598 H   0  0  0  0  0  0
  -21.6651  -26.7475   22.1184 H   0  0  0  0  0  0
  -19.6917  -25.6311   21.1241 H   0  0  0  0  0  0
  -19.6692  -27.3208   20.6737 H   0  0  0  0  0  0
  -17.4204  -26.6677   21.4047 H   0  0  0  0  0  0
  -18.0367  -26.0099   22.9055 H   0  0  0  0  0  0
  -19.7934  -30.7284   24.2296 H   0  0  0  0  0  0
  -17.5009  -31.6264   24.5191 H   0  0  0  0  0  0
  -15.5358  -30.2999   23.7636 H   0  0  0  0  0  0
  -15.8689  -28.0848   22.7025 H   0  0  0  0  0  0
  -24.5909  -30.7074   25.7791 H   0  0  0  0  0  0
  -24.8940  -32.2878   26.4898 H   0  0  0  0  0  0
  -25.8070  -30.8880   27.0230 H   0  0  0  0  0  0
  -26.2901  -29.6752   24.1213 H   0  0  0  0  0  0
  -27.4052  -29.7255   25.4669 H   0  0  0  0  0  0
  -27.8764  -30.4282   23.9381 H   0  0  0  0  0  0
  -27.2719  -33.3606   26.2060 H   0  0  0  0  0  0
  -28.3899  -32.6819   25.0327 H   0  0  0  0  0  0
  -28.0724  -31.8411   26.5423 H   0  0  0  0  0  0
  -28.2588  -38.0106   24.7512 H   0  0  0  0  0  0
  -28.1086  -36.2641   24.6288 H   0  0  0  0  0  0
  -27.2304  -37.1452   25.8870 H   0  0  0  0  0  0
  -20.9361  -29.8799   21.6895 H   0  0  0  0  0  0
  -26.0172  -38.2852   24.1406 H   0  0  0  0  0  0
  -27.8640  -19.9591   20.6961 H   0  0  0  0  0  0
  -27.8212  -17.5225   21.0444 H   0  0  0  0  0  0
  -32.0249  -17.3084   20.1209 H   0  0  0  0  0  0
  -30.2153  -21.6860   18.8221 H   0  0  0  0  0  0
  -31.0487  -21.9498   20.3155 H   0  0  0  0  0  0
  -27.6810  -24.8795   21.3866 H   0  0  0  0  0  0
  -27.2591  -24.6279   19.7118 H   0  0  0  0  0  0
  -28.8868  -15.4017   21.1032 H   0  0  0  0  0  0
  -28.1503  -22.3225   20.5503 H   0  0  0  0  0  0
  1 25  1  0  0  0
  1 30  2  0  0  0
  1 80  1  0  0  0
  2  3  1  0  0  0
  2 25  1  0  0  0
  2 84  1  0  0  0
  2 85  1  0  0  0
  3  4  1  0  0  0
  3 86  1  0  0  0
  3 87  1  0  0  0
  4  5  1  0  0  0
  4 88  1  0  0  0
  4 89  1  0  0  0
  5  6  1  0  0  0
  5 26  1  0  0  0
  5 90  1  0  0  0
  6 25  1  0  0  0
  6 91  1  0  0  0
  6 92  1  0  0  0
  7  8  2  0  0  0
  7 26  1  0  0  0
  7 29  1  0  0  0
  8  9  1  0  0  0
  8 22  1  0  0  0
  9 10  1  0  0  0
  9 27  2  0  0  0
 10 11  2  0  0  0
 10 15  1  0  0  0
 11 12  1  0  0  0
 11 93  1  0  0  0
 12 13  2  0  0  0
 12 94  1  0  0  0
 13 14  1  0  0  0
 13 31  1  0  0  0
 14 15  2  0  0  0
 14 95  1  0  0  0
 15 96  1  0  0  0
 16 17  2  0  0  0
 16 21  1  0  0  0
 16 31  1  0  0  0
 17 18  1  0  0  0
 17 97  1  0  0  0
 18 19  2  0  0  0
 18 98  1  0  0  0
 19 20  1  0  0  0
 19 24  1  0  0  0
 20 21  2  0  0  0
 20 99  1  0  0  0
 21 23  1  0  0  0
 22 28  1  0  0  0
 22 32  2  0  0  0
 26 27  1  0  0  0
 28100  1  0  0  0
 28101  1  0  0  0
 29102  1  0  0  0
 29103  1  0  0  0
 33 34  1  0  0  0
 33 66  1  0  0  0
 33 70  2  0  0  0
 34 36  1  0  0  0
 34 59  1  0  0  0
 34104  1  0  0  0
 35 44  2  0  0  0
 35 45  1  0  0  0
 35 68  1  0  0  0
 36 56  1  0  0  0
 36105  1  0  0  0
 37 39  1  0  0  0
 37 47  1  0  0  0
 37 66  1  0  0  0
 37106  1  0  0  0
 38 43  2  0  0  0
 38 46  1  0  0  0
 38 47  1  0  0  0
 39 64  1  0  0  0
 39 67  2  0  0  0
 40 52  1  0  0  0
 40 53  2  0  0  0
 40 58  1  0  0  0
 41107  1  0  0  0
 41108  1  0  0  0
 41109  1  0  0  0
 41 48  1  0  0  0
 42 43  1  0  0  0
 42 66  1  0  0  0
 42110  1  0  0  0
 42111  1  0  0  0
 43 44  1  0  0  0
 44112  1  0  0  0
 45 46  2  0  0  0
 45113  1  0  0  0
 46114  1  0  0  0
 47115  1  0  0  0
 47116  1  0  0  0
 48 56  1  0  0  0
 48 65  1  0  0  0
 48117  1  0  0  0
 49 50  1  0  0  0
 49 53  1  0  0  0
 49 64  1  0  0  0
 49118  1  0  0  0
 50 51  1  0  0  0
 50119  1  0  0  0
 50120  1  0  0  0
 51 52  1  0  0  0
 51121  1  0  0  0
 51122  1  0  0  0
 52123  1  0  0  0
 52124  1  0  0  0
 53 54  1  0  0  0
 54 55  2  0  0  0
 54125  1  0  0  0
 55 57  1  0  0  0
 55126  1  0  0  0
 56 69  2  0  0  0
 57 58  2  0  0  0
 57127  1  0  0  0
 58128  1  0  0  0
 59 60  1  0  0  0
 59 61  1  0  0  0
 59 62  1  0  0  0
 60129  1  0  0  0
 60130  1  0  0  0
 60131  1  0  0  0
 61132  1  0  0  0
 61133  1  0  0  0
 61134  1  0  0  0
 62135  1  0  0  0
 62136  1  0  0  0
 62137  1  0  0  0
 63 65  1  0  0  0
 63138  1  0  0  0
 63139  1  0  0  0
 63140  1  0  0  0
 64141  1  0  0  0
 65142  1  0  0  0
 68 79  1  0  0  0
 71 72  2  0  0  0
 71 74  1  0  0  0
 71143  1  0  0  0
 72 75  1  0  0  0
 72144  1  0  0  0
 73 75  2  0  0  0
 73 76  1  0  0  0
 73145  1  0  0  0
 74 76  2  0  0  0
 74 78  1  0  0  0
 75 80  1  0  0  0
 76 83  1  0  0  0
 77 79  1  0  0  0
 77 81  1  0  0  0
 77 82  2  0  0  0
 78 81  1  0  0  0
 78146  1  0  0  0
 78147  1  0  0  0
 79148  1  0  0  0
 79149  1  0  0  0
 80150  1  0  0  0
 81151  1  0  0  0
M  ISO  4   1 100  68 101  79 101  80 100
M  END
> <chiral flag>
0

> <version>
0

> <s_m_source_file>
/data/baiqing/PycharmProjects/Reinvent-master-3.2/result/LINK_invent/BTK/process_docking_weight1_custom_product_contain_oxygen_bond_distance_aromatic_linkinvent_7_9_3/rearranged_h_0050.sdf

> <i_m_source_file_index>
61

> <r_mmod_Potential_Energy-OPLS-2005>
14.2365608215332

> <r_mmod_Stretch_Energy-OPLS-2005>
79.1475448608398

> <r_mmod_Bend_Energy-OPLS-2005>
140.470153808594

> <r_mmod_Torsional_Energy-OPLS-2005>
216.263656616211

> <r_mmod_Improper_Torsional_Energy-OPLS-2005>
4.705735206604

> <r_mmod_Van_der_Waal_Energy-OPLS-2005>
146.55354309082

> <r_mmod_Electrostatic_Energy-OPLS-2005>
-375.890625

> <r_mmod_Solvation_Energy-OPLS-2005>
-248.972244262695

> <b_mmod_Minimization_Converged-OPLS-2005>
0

> <r_mmod_RMS_Derivative-OPLS-2005>
2.50171446800232

$$$$
61
                    3D
 Structure written by MMmdl.
163171  0  0  1  0            999 V2000
  -30.6486  -14.4561   20.4840 C   0  0  0  0  0  0
  -30.4558  -12.2583   19.3980 C   0  0  0  0  0  0
  -29.5048  -12.4759   18.1975 C   0  0  0  0  0  0
  -28.0192  -12.3444   18.6027 C   0  0  0  0  0  0
  -27.6695  -13.1725   19.8713 C   0  0  2  0  0  0
  -28.7311  -12.9123   20.9736 C   0  0  0  0  0  0
  -25.2591  -13.8061   20.5616 C   0  0  0  0  0  0
  -24.1800  -13.0373   20.9183 C   0  0  0  0  0  0
  -24.6359  -11.6881   20.8737 C   0  0  0  0  0  0
  -23.9024  -10.4251   21.0342 C   0  0  0  0  0  0
  -24.3585   -9.4215   21.9145 C   0  0  0  0  0  0
  -23.6285   -8.2242   22.0733 C   0  0  0  0  0  0
  -22.4223   -8.0285   21.3582 C   0  0  0  0  0  0
  -21.9899   -9.0234   20.4630 C   0  0  0  0  0  0
  -22.7205  -10.2130   20.3027 C   0  0  0  0  0  0
  -21.6873   -6.0688   22.5258 C   0  0  0  0  0  0
  -21.3990   -6.5579   23.8178 C   0  0  0  0  0  0
  -21.3689   -5.6750   24.9164 C   0  0  0  0  0  0
  -21.6057   -4.3000   24.7231 C   0  0  0  0  0  0
  -21.8841   -3.8113   23.4341 C   0  0  0  0  0  0
  -21.9158   -4.6917   22.3413 C   0  0  0  0  0  0
  -22.7802  -13.5216   21.1782 C   0  0  0  0  0  0
  -22.1591   -4.2087   21.0998 F   0  0  0  0  0  0
  -21.5693   -3.4501   25.7756 F   0  0  0  0  0  0
  -30.0732  -13.2278   20.4263 N   0  0  0  0  0  0
  -26.3071  -12.9192   20.3416 N   0  0  0  0  0  0
  -25.9336  -11.6384   20.5810 N   0  0  0  0  0  0
  -22.0382  -12.8364   22.0371 N   0  0  0  0  0  0
  -25.4280  -15.1848   20.4080 N   0  0  0  0  0  0
  -31.8074  -14.7200   20.1373 O   0  0  0  0  0  0
  -21.6655   -6.8859   21.4226 O   0  0  0  0  0  0
  -22.3528  -14.5520   20.6580 O   0  0  0  0  0  0
  -24.6127  -31.8657   23.2103 C   0  0  0  0  0  0
  -25.9012  -32.4812   23.8414 C   0  0  1  0  0  0
  -27.2512  -27.4654   20.0867 C   0  0  0  0  0  0
  -25.5881  -33.8644   24.2305 N   0  0  0  0  0  0
  -23.4019  -30.4859   21.5491 C   0  0  2  0  0  0
  -24.8485  -28.9412   20.1221 C   0  0  0  0  0  0
  -22.7424  -29.4646   22.5035 C   0  0  0  0  0  0
  -18.0278  -28.1389   22.8501 C   0  0  0  0  0  0
  -24.1464  -36.7346   23.2644 C   0  0  0  0  0  0
  -25.9230  -30.8384   21.3548 C   0  0  0  0  0  0
  -26.0015  -29.4694   20.7122 C   0  0  0  0  0  0
  -27.2000  -28.7365   20.6923 C   0  0  0  0  0  0
  -26.0771  -26.9312   19.5078 C   0  0  0  0  0  0
  -24.8739  -27.6622   19.5351 C   0  0  0  0  0  0
  -23.6103  -29.8043   20.1687 C   0  0  0  0  0  0
  -25.4081  -36.3134   24.0331 C   0  0  1  0  0  0
  -20.5873  -28.3662   23.1312 C   0  0  2  0  0  0
  -20.6755  -26.9402   22.5411 C   0  0  0  0  0  0
  -19.5754  -26.6373   21.5201 C   0  0  0  0  0  0
  -18.1922  -26.7937   22.1603 C   0  0  0  0  0  0
  -19.1530  -28.8830   23.2893 C   0  0  0  0  0  0
  -18.9469  -30.1439   23.8908 C   0  0  0  0  0  0
  -17.6482  -30.6596   24.0557 C   0  0  0  0  0  0
  -25.9021  -34.9481   23.5102 C   0  0  0  0  0  0
  -16.5367  -29.9107   23.6339 C   0  0  0  0  0  0
  -16.7263  -28.6512   23.0356 C   0  0  0  0  0  0
  -26.4473  -31.6649   25.0769 C   0  0  0  0  0  0
  -25.3746  -31.3804   26.1542 C   0  0  0  0  0  0
  -27.0323  -30.3107   24.6139 C   0  0  0  0  0  0
  -27.6015  -32.4429   25.7549 C   0  0  0  0  0  0
  -27.5559  -37.1833   24.8464 C   0  0  0  0  0  0
  -21.4118  -29.3010   22.3712 N   0  0  0  0  0  0
  -26.4268  -37.3796   23.9398 N   0  0  0  0  0  0
  -24.6647  -31.0797   22.0980 N   0  0  0  0  0  0
  -23.4178  -28.8153   23.3038 O   0  0  0  0  0  0
  -28.4764  -26.8471   20.0840 O   0  0  0  0  0  0
  -26.5597  -34.8927   22.4680 O   0  0  0  0  0  0
  -23.5327  -32.1390   23.7528 O   0  0  0  0  0  0
  -28.9725  -19.3213   21.7825 C   0  0  0  0  0  0
  -29.4214  -16.9991   22.3239 C   0  0  0  0  0  0
  -29.0606  -18.2884   22.7338 C   0  0  0  0  0  0
  -29.2388  -19.0742   20.4190 C   0  0  0  0  0  0
  -29.6293  -17.7705   20.0075 C   0  0  0  0  0  0
  -29.7083  -16.7354   20.9753 C   0  0  0  0  0  0
  -29.4517  -22.4886   20.3491 C   0  0  0  0  0  0
  -28.6944  -18.5062   24.1806 C   0  0  0  0  0  0
  -29.9138  -17.4717   18.5403 C   0  0  0  0  0  0
  -28.9616  -20.2135   19.4318 C   0  0  0  0  0  0
  -30.4193  -23.6637   20.2461 C   0  0  0  0  0  0
  -29.8037  -25.0167   20.6294 C   0  0  0  0  0  0
  -28.6384  -25.4802   19.7306 C   0  0  0  0  0  0
  -29.6936  -15.3765   20.6287 N   0  0  0  0  0  0
  -29.7896  -21.3950   19.6507 N   0  0  0  0  0  0
  -28.4240  -22.5681   21.0271 O   0  0  0  0  0  0
  -31.4952  -12.3873   19.0787 H   0  0  0  0  0  0
  -30.3894  -11.2390   19.7907 H   0  0  0  0  0  0
  -29.7642  -11.7727   17.4032 H   0  0  0  0  0  0
  -29.6589  -13.4773   17.7866 H   0  0  0  0  0  0
  -27.8269  -11.2889   18.7798 H   0  0  0  0  0  0
  -27.3800  -12.6209   17.7654 H   0  0  0  0  0  0
  -27.6936  -14.2246   19.5864 H   0  0  0  0  0  0
  -28.7095  -11.8634   21.2794 H   0  0  0  0  0  0
  -28.5162  -13.4953   21.8738 H   0  0  0  0  0  0
  -25.2657   -9.5677   22.4760 H   0  0  0  0  0  0
  -23.9944   -7.4622   22.7484 H   0  0  0  0  0  0
  -21.0821   -8.8740   19.8977 H   0  0  0  0  0  0
  -22.3577  -10.9688   19.6170 H   0  0  0  0  0  0
  -21.1936   -7.6050   23.9735 H   0  0  0  0  0  0
  -21.1532   -6.0398   25.9075 H   0  0  0  0  0  0
  -22.0616   -2.7576   23.2851 H   0  0  0  0  0  0
  -22.3892  -12.0042   22.4860 H   0  0  0  0  0  0
  -21.1011  -13.1566   22.2468 H   0  0  0  0  0  0
  -24.6657  -15.8317   20.5733 H   0  0  0  0  0  0
  -26.2805  -15.6649   20.1556 H   0  0  0  0  0  0
  -26.7094  -32.5523   23.1202 H   0  0  0  0  0  0
  -25.0057  -33.9809   25.0471 H   0  0  0  0  0  0
  -22.6895  -31.3012   21.4030 H   0  0  0  0  0  0
  -23.3697  -35.9722   23.3352 H   0  0  0  0  0  0
  -24.3551  -36.8925   22.2058 H   0  0  0  0  0  0
  -23.7252  -37.6565   23.6647 H   0  0  0  0  0  0
  -26.0246  -31.5940   20.5767 H   0  0  0  0  0  0
  -26.8173  -30.9043   21.9642 H   0  0  0  0  0  0
  -28.0994  -29.1400   21.1336 H   0  0  0  0  0  0
  -26.0694  -25.9613   19.0363 H   0  0  0  0  0  0
  -23.9828  -27.2377   19.0888 H   0  0  0  0  0  0
  -23.7302  -30.5708   19.4048 H   0  0  0  0  0  0
  -22.7312  -29.2304   19.8660 H   0  0  0  0  0  0
  -25.1266  -36.1997   25.0824 H   0  0  0  0  0  0
  -20.9989  -28.3222   24.1420 H   0  0  0  0  0  0
  -20.5642  -26.2284   23.3600 H   0  0  0  0  0  0
  -21.6626  -26.7410   22.1212 H   0  0  0  0  0  0
  -19.6895  -25.6270   21.1245 H   0  0  0  0  0  0
  -19.6687  -27.3165   20.6724 H   0  0  0  0  0  0
  -17.4191  -26.6691   21.3994 H   0  0  0  0  0  0
  -18.0312  -26.0071   22.8994 H   0  0  0  0  0  0
  -19.7938  -30.7239   24.2286 H   0  0  0  0  0  0
  -17.5034  -31.6294   24.5144 H   0  0  0  0  0  0
  -15.5366  -30.3005   23.7650 H   0  0  0  0  0  0
  -15.8654  -28.0818   22.7079 H   0  0  0  0  0  0
  -24.5856  -30.7230   25.7907 H   0  0  0  0  0  0
  -24.9056  -32.3010   26.5040 H   0  0  0  0  0  0
  -25.8111  -30.8940   27.0271 H   0  0  0  0  0  0
  -26.2879  -29.6884   24.1185 H   0  0  0  0  0  0
  -27.4093  -29.7352   25.4596 H   0  0  0  0  0  0
  -27.8700  -30.4460   23.9295 H   0  0  0  0  0  0
  -27.2566  -33.3694   26.2176 H   0  0  0  0  0  0
  -28.3827  -32.7082   25.0405 H   0  0  0  0  0  0
  -28.0710  -31.8572   26.5464 H   0  0  0  0  0  0
  -28.2601  -38.0109   24.7478 H   0  0  0  0  0  0
  -28.1026  -36.2639   24.6321 H   0  0  0  0  0  0
  -27.2296  -37.1529   25.8876 H   0  0  0  0  0  0
  -20.9317  -29.8776   21.6956 H   0  0  0  0  0  0
  -26.0164  -38.2871   24.1412 H   0  0  0  0  0  0
  -28.6578  -20.3124   22.0878 H   0  0  0  0  0  0
  -29.4093  -16.1928   23.0403 H   0  0  0  0  0  0
  -27.6099  -18.4106   24.2877 H   0  0  0  0  0  0
  -28.9995  -19.4859   24.5616 H   0  0  0  0  0  0
  -29.1690  -17.7411   24.8006 H   0  0  0  0  0  0
  -29.0140  -17.6848   17.9649 H   0  0  0  0  0  0
  -30.1837  -16.4390   18.3447 H   0  0  0  0  0  0
  -30.7382  -18.0837   18.1799 H   0  0  0  0  0  0
  -27.9064  -20.4820   19.5257 H   0  0  0  0  0  0
  -29.0649  -19.9094   18.3912 H   0  0  0  0  0  0
  -30.7863  -23.7294   19.2241 H   0  0  0  0  0  0
  -31.2732  -23.4590   20.8927 H   0  0  0  0  0  0
  -30.5919  -25.7679   20.5831 H   0  0  0  0  0  0
  -29.4794  -25.0005   21.6720 H   0  0  0  0  0  0
  -27.7528  -24.8677   19.8937 H   0  0  0  0  0  0
  -28.9126  -25.4199   18.6760 H   0  0  0  0  0  0
  -28.8300  -14.9015   20.8241 H   0  0  0  0  0  0
  -30.6933  -21.4047   19.1945 H   0  0  0  0  0  0
  1 25  1  0  0  0
  1 30  2  0  0  0
  1 84  1  0  0  0
  2  3  1  0  0  0
  2 25  1  0  0  0
  2 87  1  0  0  0
  2 88  1  0  0  0
  3  4  1  0  0  0
  3 89  1  0  0  0
  3 90  1  0  0  0
  4  5  1  0  0  0
  4 91  1  0  0  0
  4 92  1  0  0  0
  5  6  1  0  0  0
  5 26  1  0  0  0
  5 93  1  0  0  0
  6 25  1  0  0  0
  6 94  1  0  0  0
  6 95  1  0  0  0
  7  8  2  0  0  0
  7 26  1  0  0  0
  7 29  1  0  0  0
  8  9  1  0  0  0
  8 22  1  0  0  0
  9 10  1  0  0  0
  9 27  2  0  0  0
 10 11  2  0  0  0
 10 15  1  0  0  0
 11 12  1  0  0  0
 11 96  1  0  0  0
 12 13  2  0  0  0
 12 97  1  0  0  0
 13 14  1  0  0  0
 13 31  1  0  0  0
 14 15  2  0  0  0
 14 98  1  0  0  0
 15 99  1  0  0  0
 16 17  2  0  0  0
 16 21  1  0  0  0
 16 31  1  0  0  0
 17 18  1  0  0  0
 17100  1  0  0  0
 18 19  2  0  0  0
 18101  1  0  0  0
 19 20  1  0  0  0
 19 24  1  0  0  0
 20 21  2  0  0  0
 20102  1  0  0  0
 21 23  1  0  0  0
 22 28  1  0  0  0
 22 32  2  0  0  0
 26 27  1  0  0  0
 28103  1  0  0  0
 28104  1  0  0  0
 29105  1  0  0  0
 29106  1  0  0  0
 33 34  1  0  0  0
 33 66  1  0  0  0
 33 70  2  0  0  0
 34 36  1  0  0  0
 34 59  1  0  0  0
 34107  1  0  0  0
 35 44  2  0  0  0
 35 45  1  0  0  0
 35 68  1  0  0  0
 36 56  1  0  0  0
 36108  1  0  0  0
 37 39  1  0  0  0
 37 47  1  0  0  0
 37 66  1  0  0  0
 37109  1  0  0  0
 38 43  2  0  0  0
 38 46  1  0  0  0
 38 47  1  0  0  0
 39 64  1  0  0  0
 39 67  2  0  0  0
 40 52  1  0  0  0
 40 53  2  0  0  0
 40 58  1  0  0  0
 41110  1  0  0  0
 41111  1  0  0  0
 41112  1  0  0  0
 41 48  1  0  0  0
 42 43  1  0  0  0
 42 66  1  0  0  0
 42113  1  0  0  0
 42114  1  0  0  0
 43 44  1  0  0  0
 44115  1  0  0  0
 45 46  2  0  0  0
 45116  1  0  0  0
 46117  1  0  0  0
 47118  1  0  0  0
 47119  1  0  0  0
 48 56  1  0  0  0
 48 65  1  0  0  0
 48120  1  0  0  0
 49 50  1  0  0  0
 49 53  1  0  0  0
 49 64  1  0  0  0
 49121  1  0  0  0
 50 51  1  0  0  0
 50122  1  0  0  0
 50123  1  0  0  0
 51 52  1  0  0  0
 51124  1  0  0  0
 51125  1  0  0  0
 52126  1  0  0  0
 52127  1  0  0  0
 53 54  1  0  0  0
 54 55  2  0  0  0
 54128  1  0  0  0
 55 57  1  0  0  0
 55129  1  0  0  0
 56 69  2  0  0  0
 57 58  2  0  0  0
 57130  1  0  0  0
 58131  1  0  0  0
 59 60  1  0  0  0
 59 61  1  0  0  0
 59 62  1  0  0  0
 60132  1  0  0  0
 60133  1  0  0  0
 60134  1  0  0  0
 61135  1  0  0  0
 61136  1  0  0  0
 61137  1  0  0  0
 62138  1  0  0  0
 62139  1  0  0  0
 62140  1  0  0  0
 63 65  1  0  0  0
 63141  1  0  0  0
 63142  1  0  0  0
 63143  1  0  0  0
 64144  1  0  0  0
 65145  1  0  0  0
 68 83  1  0  0  0
 71 73  2  0  0  0
 71 74  1  0  0  0
 71146  1  0  0  0
 72 73  1  0  0  0
 72 76  2  0  0  0
 72147  1  0  0  0
 73 78  1  0  0  0
 74 75  2  0  0  0
 74 80  1  0  0  0
 75 76  1  0  0  0
 75 79  1  0  0  0
 76 84  1  0  0  0
 77 81  1  0  0  0
 77 85  1  0  0  0
 77 86  2  0  0  0
 78148  1  0  0  0
 78149  1  0  0  0
 78150  1  0  0  0
 79151  1  0  0  0
 79152  1  0  0  0
 79153  1  0  0  0
 80 85  1  0  0  0
 80154  1  0  0  0
 80155  1  0  0  0
 81 82  1  0  0  0
 81156  1  0  0  0
 81157  1  0  0  0
 82 83  1  0  0  0
 82158  1  0  0  0
 82159  1  0  0  0
 83160  1  0  0  0
 83161  1  0  0  0
 84162  1  0  0  0
 85163  1  0  0  0
M  ISO  4   1 100  68 101  83 101  84 100
M  END
> <chiral flag>
0

> <version>
0

> <s_m_source_file>
/data/baiqing/PycharmProjects/Reinvent-master-3.2/result/LINK_invent/BTK/process_docking_weight1_custom_product_contain_oxygen_bond_distance_aromatic_linkinvent_7_9_3/rearranged_h_0050.sdf

> <i_m_source_file_index>
62

> <r_mmod_Potential_Energy-OPLS-2005>
-132.389556884766

> <r_mmod_Stretch_Energy-OPLS-2005>
34.5269470214844

> <r_mmod_Bend_Energy-OPLS-2005>
128.663589477539

> <r_mmod_Torsional_Energy-OPLS-2005>
239.810440063477

> <r_mmod_Improper_Torsional_Energy-OPLS-2005>
14.4105052947998

> <r_mmod_Van_der_Waal_Energy-OPLS-2005>
160.262649536133

> <r_mmod_Electrostatic_Energy-OPLS-2005>
-493.543975830078

> <r_mmod_Solvation_Energy-OPLS-2005>
-233.808074951172

> <b_mmod_Minimization_Converged-OPLS-2005>
0

> <r_mmod_RMS_Derivative-OPLS-2005>
10.5310077667236

$$$$
62
                    3D
 Structure written by MMmdl.
164172  0  0  1  0            999 V2000
  -30.6639  -14.4528   20.5622 C   0  0  0  0  0  0
  -30.4435  -12.2863   19.3948 C   0  0  0  0  0  0
  -29.4916  -12.4794   18.1944 C   0  0  0  0  0  0
  -28.0136  -12.3298   18.6191 C   0  0  0  0  0  0
  -27.6608  -13.1771   19.8690 C   0  0  2  0  0  0
  -28.7128  -12.9538   20.9824 C   0  0  0  0  0  0
  -25.2631  -13.8102   20.5708 C   0  0  0  0  0  0
  -24.1841  -13.0412   20.9190 C   0  0  0  0  0  0
  -24.6370  -11.6880   20.8765 C   0  0  0  0  0  0
  -23.9022  -10.4286   21.0434 C   0  0  0  0  0  0
  -24.3595   -9.4200   21.9204 C   0  0  0  0  0  0
  -23.6284   -8.2237   22.0749 C   0  0  0  0  0  0
  -22.4264   -8.0280   21.3544 C   0  0  0  0  0  0
  -21.9891   -9.0258   20.4646 C   0  0  0  0  0  0
  -22.7212  -10.2140   20.3066 C   0  0  0  0  0  0
  -21.6848   -6.0744   22.5294 C   0  0  0  0  0  0
  -21.4007   -6.5643   23.8225 C   0  0  0  0  0  0
  -21.3651   -5.6794   24.9190 C   0  0  0  0  0  0
  -21.6041   -4.3056   24.7234 C   0  0  0  0  0  0
  -21.8819   -3.8154   23.4351 C   0  0  0  0  0  0
  -21.9190   -4.6977   22.3410 C   0  0  0  0  0  0
  -22.7887  -13.5242   21.1869 C   0  0  0  0  0  0
  -22.1671   -4.2158   21.0988 F   0  0  0  0  0  0
  -21.5618   -3.4541   25.7739 F   0  0  0  0  0  0
  -30.0426  -13.2561   20.4182 N   0  0  0  0  0  0
  -26.3021  -12.9206   20.3389 N   0  0  0  0  0  0
  -25.9277  -11.6404   20.5806 N   0  0  0  0  0  0
  -22.0536  -12.8225   22.0420 N   0  0  0  0  0  0
  -25.4344  -15.1819   20.4109 N   0  0  0  0  0  0
  -31.8439  -14.6741   20.2742 O   0  0  0  0  0  0
  -21.6620   -6.8891   21.4250 O   0  0  0  0  0  0
  -22.3575  -14.5568   20.6745 O   0  0  0  0  0  0
  -24.6079  -31.8721   23.2136 C   0  0  0  0  0  0
  -25.8992  -32.4857   23.8430 C   0  0  1  0  0  0
  -27.2389  -27.4819   20.0985 C   0  0  0  0  0  0
  -25.5870  -33.8654   24.2368 N   0  0  0  0  0  0
  -23.3946  -30.4957   21.5509 C   0  0  2  0  0  0
  -24.8417  -28.9622   20.1191 C   0  0  0  0  0  0
  -22.7383  -29.4672   22.4992 C   0  0  0  0  0  0
  -18.0266  -28.1382   22.8519 C   0  0  0  0  0  0
  -24.1467  -36.7328   23.2645 C   0  0  0  0  0  0
  -25.9166  -30.8571   21.3533 C   0  0  0  0  0  0
  -25.9961  -29.4915   20.7085 C   0  0  0  0  0  0
  -27.1979  -28.7585   20.6923 C   0  0  0  0  0  0
  -26.0683  -26.9504   19.5113 C   0  0  0  0  0  0
  -24.8688  -27.6895   19.5229 C   0  0  0  0  0  0
  -23.6018  -29.8241   20.1652 C   0  0  0  0  0  0
  -25.4087  -36.3144   24.0356 C   0  0  1  0  0  0
  -20.5855  -28.3657   23.1351 C   0  0  2  0  0  0
  -20.6751  -26.9393   22.5445 C   0  0  0  0  0  0
  -19.5719  -26.6393   21.5251 C   0  0  0  0  0  0
  -18.1897  -26.7937   22.1649 C   0  0  0  0  0  0
  -19.1511  -28.8838   23.2935 C   0  0  0  0  0  0
  -18.9461  -30.1448   23.8938 C   0  0  0  0  0  0
  -17.6468  -30.6599   24.0587 C   0  0  0  0  0  0
  -25.9004  -34.9498   23.5154 C   0  0  0  0  0  0
  -16.5353  -29.9122   23.6323 C   0  0  0  0  0  0
  -16.7262  -28.6527   23.0360 C   0  0  0  0  0  0
  -26.4444  -31.6619   25.0739 C   0  0  0  0  0  0
  -25.3734  -31.3753   26.1506 C   0  0  0  0  0  0
  -27.0248  -30.3068   24.6064 C   0  0  0  0  0  0
  -27.6018  -32.4336   25.7519 C   0  0  0  0  0  0
  -27.5568  -37.1824   24.8467 C   0  0  0  0  0  0
  -21.4109  -29.3029   22.3752 N   0  0  0  0  0  0
  -26.4280  -37.3827   23.9414 N   0  0  0  0  0  0
  -24.6581  -31.0881   22.0990 N   0  0  0  0  0  0
  -23.4185  -28.8197   23.3000 O   0  0  0  0  0  0
  -28.4347  -26.8121   20.0974 O   0  0  0  0  0  0
  -26.5565  -34.8955   22.4717 O   0  0  0  0  0  0
  -23.5279  -32.1437   23.7556 O   0  0  0  0  0  0
  -30.0491  -18.0226   23.3375 C   0  0  0  0  0  0
  -30.4015  -16.8995   22.5504 C   0  0  0  0  0  0
  -28.6766  -17.5274   20.9496 C   0  0  0  0  0  0
  -29.0113  -18.8969   22.9393 C   0  0  0  0  0  0
  -28.3334  -18.6481   21.7238 C   0  0  0  0  0  0
  -29.6820  -16.6353   21.3632 C   0  0  0  0  0  0
  -28.5359  -19.9629   23.8451 C   0  0  0  0  0  0
  -28.7902  -21.2910   23.7860 C   0  0  0  0  0  0
  -29.7300  -21.8139   22.7992 C   0  0  0  0  0  0
  -27.2111  -19.5474   21.2343 C   0  0  0  0  0  0
  -28.1326  -22.2587   24.7593 C   0  0  0  0  0  0
  -29.7666  -25.0003   20.8475 C   0  0  0  0  0  0
  -29.9573  -23.4851   20.9995 C   0  0  0  0  0  0
  -28.3882  -25.4109   20.3153 C   0  0  0  0  0  0
  -29.7640  -15.4425   20.6116 N   0  0  0  0  0  0
  -29.2866  -22.9128   22.1701 N   0  0  0  0  0  0
  -30.8269  -21.3130   22.5450 O   0  0  0  0  0  0
  -31.4825  -12.4136   19.0819 H   0  0  0  0  0  0
  -30.3667  -11.2727   19.7923 H   0  0  0  0  0  0
  -29.7269  -11.7624   17.4047 H   0  0  0  0  0  0
  -29.6497  -13.4708   17.7670 H   0  0  0  0  0  0
  -27.8384  -11.2756   18.8359 H   0  0  0  0  0  0
  -27.3482  -12.5799   17.7904 H   0  0  0  0  0  0
  -27.6936  -14.2162   19.5465 H   0  0  0  0  0  0
  -28.6888  -11.9226   21.3399 H   0  0  0  0  0  0
  -28.4925  -13.5721   21.8546 H   0  0  0  0  0  0
  -25.2769   -9.5667   22.4737 H   0  0  0  0  0  0
  -24.0016   -7.4609   22.7433 H   0  0  0  0  0  0
  -21.0838   -8.8779   19.8930 H   0  0  0  0  0  0
  -22.3714  -10.9676   19.6143 H   0  0  0  0  0  0
  -21.2000   -7.6148   23.9742 H   0  0  0  0  0  0
  -21.1467   -6.0516   25.9092 H   0  0  0  0  0  0
  -22.0597   -2.7615   23.2848 H   0  0  0  0  0  0
  -22.4181  -11.9893   22.4807 H   0  0  0  0  0  0
  -21.1158  -13.1251   22.2643 H   0  0  0  0  0  0
  -24.6711  -15.8366   20.5374 H   0  0  0  0  0  0
  -26.2895  -15.6299   20.1131 H   0  0  0  0  0  0
  -26.7069  -32.5622   23.1218 H   0  0  0  0  0  0
  -25.0035  -33.9851   25.0534 H   0  0  0  0  0  0
  -22.6799  -31.3097   21.4122 H   0  0  0  0  0  0
  -23.3733  -35.9655   23.3325 H   0  0  0  0  0  0
  -24.3552  -36.8911   22.2052 H   0  0  0  0  0  0
  -23.7207  -37.6545   23.6625 H   0  0  0  0  0  0
  -26.0111  -31.6194   20.5784 H   0  0  0  0  0  0
  -26.8138  -30.9258   21.9587 H   0  0  0  0  0  0
  -28.0941  -29.1682   21.1362 H   0  0  0  0  0  0
  -26.0848  -25.9831   19.0286 H   0  0  0  0  0  0
  -23.9773  -27.2797   19.0672 H   0  0  0  0  0  0
  -23.7100  -30.5974   19.4046 H   0  0  0  0  0  0
  -22.7291  -29.2378   19.8685 H   0  0  0  0  0  0
  -25.1255  -36.2029   25.0849 H   0  0  0  0  0  0
  -20.9977  -28.3233   24.1463 H   0  0  0  0  0  0
  -20.5663  -26.2268   23.3632 H   0  0  0  0  0  0
  -21.6623  -26.7427   22.1231 H   0  0  0  0  0  0
  -19.6862  -25.6319   21.1245 H   0  0  0  0  0  0
  -19.6662  -27.3239   20.6805 H   0  0  0  0  0  0
  -17.4176  -26.6727   21.4032 H   0  0  0  0  0  0
  -18.0257  -26.0082   22.9034 H   0  0  0  0  0  0
  -19.7937  -30.7254   24.2320 H   0  0  0  0  0  0
  -17.5029  -31.6283   24.5177 H   0  0  0  0  0  0
  -15.5356  -30.3044   23.7620 H   0  0  0  0  0  0
  -15.8654  -28.0859   22.7053 H   0  0  0  0  0  0
  -24.5885  -30.7095   25.7893 H   0  0  0  0  0  0
  -24.8945  -32.2918   26.4950 H   0  0  0  0  0  0
  -25.8118  -30.8959   27.0267 H   0  0  0  0  0  0
  -26.2774  -29.6893   24.1046 H   0  0  0  0  0  0
  -27.3958  -29.7246   25.4510 H   0  0  0  0  0  0
  -27.8642  -30.4413   23.9241 H   0  0  0  0  0  0
  -27.2627  -33.3632   26.2118 H   0  0  0  0  0  0
  -28.3858  -32.6881   25.0376 H   0  0  0  0  0  0
  -28.0640  -31.8431   26.5442 H   0  0  0  0  0  0
  -28.2616  -38.0101   24.7508 H   0  0  0  0  0  0
  -28.1031  -36.2631   24.6290 H   0  0  0  0  0  0
  -27.2286  -37.1490   25.8876 H   0  0  0  0  0  0
  -20.9240  -29.8790   21.7030 H   0  0  0  0  0  0
  -26.0168  -38.2902   24.1435 H   0  0  0  0  0  0
  -30.5532  -18.1993   24.2765 H   0  0  0  0  0  0
  -31.1673  -16.2238   22.9050 H   0  0  0  0  0  0
  -28.1186  -17.3224   20.0478 H   0  0  0  0  0  0
  -27.8660  -19.6157   24.6161 H   0  0  0  0  0  0
  -27.6327  -20.4275   20.7492 H   0  0  0  0  0  0
  -26.5819  -19.0303   20.5088 H   0  0  0  0  0  0
  -26.5657  -19.8711   22.0500 H   0  0  0  0  0  0
  -27.4247  -22.9040   24.2424 H   0  0  0  0  0  0
  -28.8759  -22.8903   25.2453 H   0  0  0  0  0  0
  -27.5853  -21.7294   25.5403 H   0  0  0  0  0  0
  -30.5187  -25.3606   20.1440 H   0  0  0  0  0  0
  -29.9779  -25.5050   21.7921 H   0  0  0  0  0  0
  -31.0291  -23.2874   21.0518 H   0  0  0  0  0  0
  -29.5983  -22.9762   20.1056 H   0  0  0  0  0  0
  -27.6170  -25.1516   21.0424 H   0  0  0  0  0  0
  -28.1692  -24.8981   19.3769 H   0  0  0  0  0  0
  -28.8689  -15.1346   20.2657 H   0  0  0  0  0  0
  -28.3935  -23.2905   22.4581 H   0  0  0  0  0  0
  1 25  1  0  0  0
  1 30  2  0  0  0
  1 85  1  0  0  0
  2  3  1  0  0  0
  2 25  1  0  0  0
  2 88  1  0  0  0
  2 89  1  0  0  0
  3  4  1  0  0  0
  3 90  1  0  0  0
  3 91  1  0  0  0
  4  5  1  0  0  0
  4 92  1  0  0  0
  4 93  1  0  0  0
  5  6  1  0  0  0
  5 26  1  0  0  0
  5 94  1  0  0  0
  6 25  1  0  0  0
  6 95  1  0  0  0
  6 96  1  0  0  0
  7  8  2  0  0  0
  7 26  1  0  0  0
  7 29  1  0  0  0
  8  9  1  0  0  0
  8 22  1  0  0  0
  9 10  1  0  0  0
  9 27  2  0  0  0
 10 11  2  0  0  0
 10 15  1  0  0  0
 11 12  1  0  0  0
 11 97  1  0  0  0
 12 13  2  0  0  0
 12 98  1  0  0  0
 13 14  1  0  0  0
 13 31  1  0  0  0
 14 15  2  0  0  0
 14 99  1  0  0  0
 15100  1  0  0  0
 16 17  2  0  0  0
 16 21  1  0  0  0
 16 31  1  0  0  0
 17 18  1  0  0  0
 17101  1  0  0  0
 18 19  2  0  0  0
 18102  1  0  0  0
 19 20  1  0  0  0
 19 24  1  0  0  0
 20 21  2  0  0  0
 20103  1  0  0  0
 21 23  1  0  0  0
 22 28  1  0  0  0
 22 32  2  0  0  0
 26 27  1  0  0  0
 28104  1  0  0  0
 28105  1  0  0  0
 29106  1  0  0  0
 29107  1  0  0  0
 33 34  1  0  0  0
 33 66  1  0  0  0
 33 70  2  0  0  0
 34 36  1  0  0  0
 34 59  1  0  0  0
 34108  1  0  0  0
 35 44  2  0  0  0
 35 45  1  0  0  0
 35 68  1  0  0  0
 36 56  1  0  0  0
 36109  1  0  0  0
 37 39  1  0  0  0
 37 47  1  0  0  0
 37 66  1  0  0  0
 37110  1  0  0  0
 38 43  2  0  0  0
 38 46  1  0  0  0
 38 47  1  0  0  0
 39 64  1  0  0  0
 39 67  2  0  0  0
 40 52  1  0  0  0
 40 53  2  0  0  0
 40 58  1  0  0  0
 41111  1  0  0  0
 41112  1  0  0  0
 41113  1  0  0  0
 41 48  1  0  0  0
 42 43  1  0  0  0
 42 66  1  0  0  0
 42114  1  0  0  0
 42115  1  0  0  0
 43 44  1  0  0  0
 44116  1  0  0  0
 45 46  2  0  0  0
 45117  1  0  0  0
 46118  1  0  0  0
 47119  1  0  0  0
 47120  1  0  0  0
 48 56  1  0  0  0
 48 65  1  0  0  0
 48121  1  0  0  0
 49 50  1  0  0  0
 49 53  1  0  0  0
 49 64  1  0  0  0
 49122  1  0  0  0
 50 51  1  0  0  0
 50123  1  0  0  0
 50124  1  0  0  0
 51 52  1  0  0  0
 51125  1  0  0  0
 51126  1  0  0  0
 52127  1  0  0  0
 52128  1  0  0  0
 53 54  1  0  0  0
 54 55  2  0  0  0
 54129  1  0  0  0
 55 57  1  0  0  0
 55130  1  0  0  0
 56 69  2  0  0  0
 57 58  2  0  0  0
 57131  1  0  0  0
 58132  1  0  0  0
 59 60  1  0  0  0
 59 61  1  0  0  0
 59 62  1  0  0  0
 60133  1  0  0  0
 60134  1  0  0  0
 60135  1  0  0  0
 61136  1  0  0  0
 61137  1  0  0  0
 61138  1  0  0  0
 62139  1  0  0  0
 62140  1  0  0  0
 62141  1  0  0  0
 63 65  1  0  0  0
 63142  1  0  0  0
 63143  1  0  0  0
 63144  1  0  0  0
 64145  1  0  0  0
 65146  1  0  0  0
 68 84  1  0  0  0
 71 72  2  0  0  0
 71 74  1  0  0  0
 71147  1  0  0  0
 72 76  1  0  0  0
 72148  1  0  0  0
 73 75  1  0  0  0
 73 76  2  0  0  0
 73149  1  0  0  0
 74 75  2  0  0  0
 74 77  1  0  0  0
 75 80  1  0  0  0
 76 85  1  0  0  0
 77 78  2  0  0  0
 77150  1  0  0  0
 78 79  1  0  0  0
 78 81  1  0  0  0
 79 86  1  0  0  0
 79 87  2  0  0  0
 80151  1  0  0  0
 80152  1  0  0  0
 80153  1  0  0  0
 81154  1  0  0  0
 81155  1  0  0  0
 81156  1  0  0  0
 82 83  1  0  0  0
 82 84  1  0  0  0
 82157  1  0  0  0
 82158  1  0  0  0
 83 86  1  0  0  0
 83159  1  0  0  0
 83160  1  0  0  0
 84161  1  0  0  0
 84162  1  0  0  0
 85163  1  0  0  0
 86164  1  0  0  0
M  ISO  4   1 100  68 101  84 101  85 100
M  END
> <chiral flag>
0

> <version>
0

> <s_m_source_file>
/data/baiqing/PycharmProjects/Reinvent-master-3.2/result/LINK_invent/BTK/process_docking_weight1_custom_product_contain_oxygen_bond_distance_aromatic_linkinvent_7_9_3/rearranged_h_0050.sdf

> <i_m_source_file_index>
63

> <r_mmod_Potential_Energy-OPLS-2005>
-20.5511379241943

> <r_mmod_Stretch_Energy-OPLS-2005>
32.3351058959961

> <r_mmod_Bend_Energy-OPLS-2005>
108.883697509766

> <r_mmod_Torsional_Energy-OPLS-2005>
306.474945068359

> <r_mmod_Improper_Torsional_Energy-OPLS-2005>
15.2611017227173

> <r_mmod_Van_der_Waal_Energy-OPLS-2005>
154.820037841797

> <r_mmod_Electrostatic_Energy-OPLS-2005>
-423.385620117188

> <r_mmod_Solvation_Energy-OPLS-2005>
-231.712219238281

> <b_mmod_Minimization_Converged-OPLS-2005>
0

> <r_mmod_RMS_Derivative-OPLS-2005>
3.54314637184143

$$$$
63
                    3D
 Structure written by MMmdl.
157165  0  0  1  0            999 V2000
  -30.6924  -14.4805   20.6476 C   0  0  0  0  0  0
  -30.4279  -12.3335   19.4296 C   0  0  0  0  0  0
  -29.4928  -12.5209   18.2163 C   0  0  0  0  0  0
  -28.0157  -12.3713   18.6274 C   0  0  0  0  0  0
  -27.6595  -13.2093   19.8833 C   0  0  2  0  0  0
  -28.6972  -12.9721   21.0024 C   0  0  0  0  0  0
  -25.2551  -13.8157   20.5716 C   0  0  0  0  0  0
  -24.1809  -13.0417   20.9179 C   0  0  0  0  0  0
  -24.6375  -11.6878   20.8744 C   0  0  0  0  0  0
  -23.9073  -10.4268   21.0420 C   0  0  0  0  0  0
  -24.3628   -9.4183   21.9206 C   0  0  0  0  0  0
  -23.6282   -8.2233   22.0764 C   0  0  0  0  0  0
  -22.4277   -8.0291   21.3542 C   0  0  0  0  0  0
  -21.9911   -9.0279   20.4666 C   0  0  0  0  0  0
  -22.7243  -10.2141   20.3077 C   0  0  0  0  0  0
  -21.6824   -6.0767   22.5299 C   0  0  0  0  0  0
  -21.4021   -6.5671   23.8251 C   0  0  0  0  0  0
  -21.3668   -5.6814   24.9205 C   0  0  0  0  0  0
  -21.6034   -4.3070   24.7226 C   0  0  0  0  0  0
  -21.8804   -3.8179   23.4346 C   0  0  0  0  0  0
  -21.9172   -4.7006   22.3414 C   0  0  0  0  0  0
  -22.7847  -13.5243   21.1825 C   0  0  0  0  0  0
  -22.1633   -4.2202   21.0977 F   0  0  0  0  0  0
  -21.5596   -3.4546   25.7732 F   0  0  0  0  0  0
  -30.0295  -13.3019   20.4649 N   0  0  0  0  0  0
  -26.2993  -12.9346   20.3395 N   0  0  0  0  0  0
  -25.9292  -11.6488   20.5768 N   0  0  0  0  0  0
  -22.0453  -12.8300   22.0398 N   0  0  0  0  0  0
  -25.4251  -15.1891   20.4185 N   0  0  0  0  0  0
  -31.7980  -14.7047   20.1391 O   0  0  0  0  0  0
  -21.6594   -6.8926   21.4267 O   0  0  0  0  0  0
  -22.3589  -14.5564   20.6678 O   0  0  0  0  0  0
  -24.6178  -31.8689   23.2054 C   0  0  0  0  0  0
  -25.9089  -32.4812   23.8356 C   0  0  1  0  0  0
  -27.2217  -27.4022   20.1120 C   0  0  0  0  0  0
  -25.5936  -33.8598   24.2274 N   0  0  0  0  0  0
  -23.4065  -30.4975   21.5450 C   0  0  2  0  0  0
  -24.8519  -28.9620   20.1092 C   0  0  0  0  0  0
  -22.7409  -29.4721   22.4922 C   0  0  0  0  0  0
  -18.0285  -28.1408   22.8494 C   0  0  0  0  0  0
  -24.1493  -36.7283   23.2628 C   0  0  0  0  0  0
  -25.9385  -30.8290   21.3623 C   0  0  0  0  0  0
  -26.0147  -29.4606   20.7091 C   0  0  0  0  0  0
  -27.2065  -28.6903   20.7036 C   0  0  0  0  0  0
  -26.0480  -26.9433   19.4763 C   0  0  0  0  0  0
  -24.8649  -27.7066   19.4826 C   0  0  0  0  0  0
  -23.6150  -29.8331   20.1595 C   0  0  0  0  0  0
  -25.4126  -36.3070   24.0306 C   0  0  1  0  0  0
  -20.5878  -28.3718   23.1274 C   0  0  2  0  0  0
  -20.6770  -26.9450   22.5397 C   0  0  0  0  0  0
  -19.5752  -26.6409   21.5203 C   0  0  0  0  0  0
  -18.1936  -26.7958   22.1625 C   0  0  0  0  0  0
  -19.1533  -28.8879   23.2890 C   0  0  0  0  0  0
  -18.9468  -30.1462   23.8932 C   0  0  0  0  0  0
  -17.6466  -30.6609   24.0587 C   0  0  0  0  0  0
  -25.9056  -34.9449   23.5077 C   0  0  0  0  0  0
  -16.5361  -29.9116   23.6319 C   0  0  0  0  0  0
  -16.7269  -28.6530   23.0363 C   0  0  0  0  0  0
  -26.4501  -31.6607   25.0695 C   0  0  0  0  0  0
  -25.3754  -31.3766   26.1439 C   0  0  0  0  0  0
  -27.0308  -30.3029   24.6093 C   0  0  0  0  0  0
  -27.6048  -32.4350   25.7487 C   0  0  0  0  0  0
  -27.5581  -37.1808   24.8472 C   0  0  0  0  0  0
  -21.4140  -29.3076   22.3650 N   0  0  0  0  0  0
  -26.4298  -37.3772   23.9403 N   0  0  0  0  0  0
  -24.6727  -31.0801   22.0956 N   0  0  0  0  0  0
  -23.4170  -28.8243   23.2971 O   0  0  0  0  0  0
  -28.3477  -26.5952   20.1482 O   0  0  0  0  0  0
  -26.5605  -34.8917   22.4625 O   0  0  0  0  0  0
  -23.5369  -32.1435   23.7452 O   0  0  0  0  0  0
  -31.7183  -18.4927   22.6867 C   0  0  0  0  0  0
  -30.9969  -19.5161   22.0342 C   0  0  0  0  0  0
  -31.4212  -17.1347   22.4494 C   0  0  0  0  0  0
  -29.9629  -19.1929   21.1234 C   0  0  0  0  0  0
  -30.3953  -16.7834   21.5433 C   0  0  0  0  0  0
  -29.6694  -17.8165   20.8934 C   0  0  0  0  0  0
  -28.8306  -22.7345   20.7813 C   0  0  0  0  0  0
  -30.9034  -21.8927   19.7052 C   0  0  0  0  0  0
  -29.1338  -20.2737   20.3932 C   0  0  0  0  0  0
  -29.2049  -24.1991   20.3909 C   0  0  0  0  0  0
  -28.1295  -25.2798   20.7327 C   0  0  0  0  0  0
  -30.0252  -15.4160   21.3541 N   0  0  0  0  0  0
  -29.6093  -21.6873   20.3694 N   0  0  0  0  0  0
  -27.7957  -22.5452   21.4267 O   0  0  0  0  0  0
  -28.6727  -17.4792   20.0407 F   0  0  0  0  0  0
  -31.4721  -12.4570   19.1313 H   0  0  0  0  0  0
  -30.3473  -11.3170   19.8188 H   0  0  0  0  0  0
  -29.7384  -11.7936   17.4418 H   0  0  0  0  0  0
  -29.6521  -13.5056   17.7745 H   0  0  0  0  0  0
  -27.8275  -11.3131   18.8237 H   0  0  0  0  0  0
  -27.3699  -12.6513   17.7943 H   0  0  0  0  0  0
  -27.7062  -14.2608   19.5970 H   0  0  0  0  0  0
  -28.6859  -11.9254   21.3083 H   0  0  0  0  0  0
  -28.4477  -13.5310   21.9056 H   0  0  0  0  0  0
  -25.2763   -9.5610   22.4810 H   0  0  0  0  0  0
  -23.9956   -7.4622   22.7483 H   0  0  0  0  0  0
  -21.0833   -8.8863   19.8986 H   0  0  0  0  0  0
  -22.3741  -10.9729   19.6234 H   0  0  0  0  0  0
  -21.2045   -7.6183   23.9773 H   0  0  0  0  0  0
  -21.1488   -6.0531   25.9111 H   0  0  0  0  0  0
  -22.0564   -2.7632   23.2817 H   0  0  0  0  0  0
  -22.4041  -11.9987   22.4866 H   0  0  0  0  0  0
  -21.1134  -13.1477   22.2636 H   0  0  0  0  0  0
  -24.6492  -15.8357   20.5262 H   0  0  0  0  0  0
  -26.2758  -15.6421   20.1078 H   0  0  0  0  0  0
  -26.7164  -32.5523   23.1121 H   0  0  0  0  0  0
  -25.0149  -33.9761   25.0465 H   0  0  0  0  0  0
  -22.6955  -31.3153   21.4045 H   0  0  0  0  0  0
  -23.3739  -35.9639   23.3322 H   0  0  0  0  0  0
  -24.3567  -36.8877   22.2041 H   0  0  0  0  0  0
  -23.7286  -37.6503   23.6633 H   0  0  0  0  0  0
  -26.0572  -31.5975   20.5977 H   0  0  0  0  0  0
  -26.8223  -30.8780   21.9862 H   0  0  0  0  0  0
  -28.0983  -29.0677   21.1813 H   0  0  0  0  0  0
  -26.0325  -25.9886   18.9716 H   0  0  0  0  0  0
  -23.9771  -27.3231   18.9983 H   0  0  0  0  0  0
  -23.7211  -30.6088   19.3991 H   0  0  0  0  0  0
  -22.7355  -29.2562   19.8652 H   0  0  0  0  0  0
  -25.1315  -36.1910   25.0800 H   0  0  0  0  0  0
  -21.0000  -28.3335   24.1384 H   0  0  0  0  0  0
  -20.5682  -26.2349   23.3610 H   0  0  0  0  0  0
  -21.6641  -26.7497   22.1197 H   0  0  0  0  0  0
  -19.6912  -25.6314   21.1256 H   0  0  0  0  0  0
  -19.6678  -27.3194   20.6721 H   0  0  0  0  0  0
  -17.4190  -26.6695   21.4038 H   0  0  0  0  0  0
  -18.0349  -26.0099   22.9029 H   0  0  0  0  0  0
  -19.7944  -30.7266   24.2327 H   0  0  0  0  0  0
  -17.5032  -31.6294   24.5183 H   0  0  0  0  0  0
  -15.5366  -30.3048   23.7611 H   0  0  0  0  0  0
  -15.8673  -28.0851   22.7077 H   0  0  0  0  0  0
  -24.5884  -30.7162   25.7788 H   0  0  0  0  0  0
  -24.9003  -32.2948   26.4884 H   0  0  0  0  0  0
  -25.8082  -30.8928   27.0199 H   0  0  0  0  0  0
  -26.2852  -29.6829   24.1098 H   0  0  0  0  0  0
  -27.4000  -29.7239   25.4567 H   0  0  0  0  0  0
  -27.8717  -30.4299   23.9277 H   0  0  0  0  0  0
  -27.2613  -33.3619   26.2096 H   0  0  0  0  0  0
  -28.3854  -32.6996   25.0340 H   0  0  0  0  0  0
  -28.0725  -31.8481   26.5405 H   0  0  0  0  0  0
  -28.2617  -38.0085   24.7470 H   0  0  0  0  0  0
  -28.1048  -36.2604   24.6345 H   0  0  0  0  0  0
  -27.2274  -37.1526   25.8870 H   0  0  0  0  0  0
  -20.9273  -29.8789   21.6878 H   0  0  0  0  0  0
  -26.0160  -38.2839   24.1399 H   0  0  0  0  0  0
  -32.5065  -18.7491   23.3836 H   0  0  0  0  0  0
  -31.2414  -20.5478   22.2495 H   0  0  0  0  0  0
  -31.9716  -16.3673   22.9781 H   0  0  0  0  0  0
  -30.8165  -22.5596   18.8463 H   0  0  0  0  0  0
  -31.3180  -20.9576   19.3322 H   0  0  0  0  0  0
  -31.6295  -22.3170   20.3999 H   0  0  0  0  0  0
  -28.1071  -20.2020   20.7565 H   0  0  0  0  0  0
  -29.0601  -19.9702   19.3466 H   0  0  0  0  0  0
  -29.3588  -24.2225   19.3139 H   0  0  0  0  0  0
  -30.1514  -24.4575   20.8590 H   0  0  0  0  0  0
  -28.0881  -25.4153   21.8137 H   0  0  0  0  0  0
  -27.1550  -24.8757   20.4603 H   0  0  0  0  0  0
  -29.0909  -15.1661   21.6455 H   0  0  0  0  0  0
  1 25  1  0  0  0
  1 30  2  0  0  0
  1 82  1  0  0  0
  2  3  1  0  0  0
  2 25  1  0  0  0
  2 86  1  0  0  0
  2 87  1  0  0  0
  3  4  1  0  0  0
  3 88  1  0  0  0
  3 89  1  0  0  0
  4  5  1  0  0  0
  4 90  1  0  0  0
  4 91  1  0  0  0
  5  6  1  0  0  0
  5 26  1  0  0  0
  5 92  1  0  0  0
  6 25  1  0  0  0
  6 93  1  0  0  0
  6 94  1  0  0  0
  7  8  2  0  0  0
  7 26  1  0  0  0
  7 29  1  0  0  0
  8  9  1  0  0  0
  8 22  1  0  0  0
  9 10  1  0  0  0
  9 27  2  0  0  0
 10 11  2  0  0  0
 10 15  1  0  0  0
 11 12  1  0  0  0
 11 95  1  0  0  0
 12 13  2  0  0  0
 12 96  1  0  0  0
 13 14  1  0  0  0
 13 31  1  0  0  0
 14 15  2  0  0  0
 14 97  1  0  0  0
 15 98  1  0  0  0
 16 17  2  0  0  0
 16 21  1  0  0  0
 16 31  1  0  0  0
 17 18  1  0  0  0
 17 99  1  0  0  0
 18 19  2  0  0  0
 18100  1  0  0  0
 19 20  1  0  0  0
 19 24  1  0  0  0
 20 21  2  0  0  0
 20101  1  0  0  0
 21 23  1  0  0  0
 22 28  1  0  0  0
 22 32  2  0  0  0
 26 27  1  0  0  0
 28102  1  0  0  0
 28103  1  0  0  0
 29104  1  0  0  0
 29105  1  0  0  0
 33 34  1  0  0  0
 33 66  1  0  0  0
 33 70  2  0  0  0
 34 36  1  0  0  0
 34 59  1  0  0  0
 34106  1  0  0  0
 35 44  2  0  0  0
 35 45  1  0  0  0
 35 68  1  0  0  0
 36 56  1  0  0  0
 36107  1  0  0  0
 37 39  1  0  0  0
 37 47  1  0  0  0
 37 66  1  0  0  0
 37108  1  0  0  0
 38 43  2  0  0  0
 38 46  1  0  0  0
 38 47  1  0  0  0
 39 64  1  0  0  0
 39 67  2  0  0  0
 40 52  1  0  0  0
 40 53  2  0  0  0
 40 58  1  0  0  0
 41109  1  0  0  0
 41110  1  0  0  0
 41111  1  0  0  0
 41 48  1  0  0  0
 42 43  1  0  0  0
 42 66  1  0  0  0
 42112  1  0  0  0
 42113  1  0  0  0
 43 44  1  0  0  0
 44114  1  0  0  0
 45 46  2  0  0  0
 45115  1  0  0  0
 46116  1  0  0  0
 47117  1  0  0  0
 47118  1  0  0  0
 48 56  1  0  0  0
 48 65  1  0  0  0
 48119  1  0  0  0
 49 50  1  0  0  0
 49 53  1  0  0  0
 49 64  1  0  0  0
 49120  1  0  0  0
 50 51  1  0  0  0
 50121  1  0  0  0
 50122  1  0  0  0
 51 52  1  0  0  0
 51123  1  0  0  0
 51124  1  0  0  0
 52125  1  0  0  0
 52126  1  0  0  0
 53 54  1  0  0  0
 54 55  2  0  0  0
 54127  1  0  0  0
 55 57  1  0  0  0
 55128  1  0  0  0
 56 69  2  0  0  0
 57 58  2  0  0  0
 57129  1  0  0  0
 58130  1  0  0  0
 59 60  1  0  0  0
 59 61  1  0  0  0
 59 62  1  0  0  0
 60131  1  0  0  0
 60132  1  0  0  0
 60133  1  0  0  0
 61134  1  0  0  0
 61135  1  0  0  0
 61136  1  0  0  0
 62137  1  0  0  0
 62138  1  0  0  0
 62139  1  0  0  0
 63 65  1  0  0  0
 63140  1  0  0  0
 63141  1  0  0  0
 63142  1  0  0  0
 64143  1  0  0  0
 65144  1  0  0  0
 68 81  1  0  0  0
 71 72  2  0  0  0
 71 73  1  0  0  0
 71145  1  0  0  0
 72 74  1  0  0  0
 72146  1  0  0  0
 73 75  2  0  0  0
 73147  1  0  0  0
 74 76  2  0  0  0
 74 79  1  0  0  0
 75 76  1  0  0  0
 75 82  1  0  0  0
 76 85  1  0  0  0
 77 80  1  0  0  0
 77 83  1  0  0  0
 77 84  2  0  0  0
 78 83  1  0  0  0
 78148  1  0  0  0
 78149  1  0  0  0
 78150  1  0  0  0
 79 83  1  0  0  0
 79151  1  0  0  0
 79152  1  0  0  0
 80 81  1  0  0  0
 80153  1  0  0  0
 80154  1  0  0  0
 81155  1  0  0  0
 81156  1  0  0  0
 82157  1  0  0  0
M  ISO  4   1 100  68 101  81 101  82 100
M  END
> <chiral flag>
0

> <version>
0

> <s_m_source_file>
/data/baiqing/PycharmProjects/Reinvent-master-3.2/result/LINK_invent/BTK/process_docking_weight1_custom_product_contain_oxygen_bond_distance_aromatic_linkinvent_7_9_3/rearranged_h_0050.sdf

> <i_m_source_file_index>
64

> <r_mmod_Potential_Energy-OPLS-2005>
-63.1989364624023

> <r_mmod_Stretch_Energy-OPLS-2005>
49.1344528198242

> <r_mmod_Bend_Energy-OPLS-2005>
99.9293212890625

> <r_mmod_Torsional_Energy-OPLS-2005>
255.431304931641

> <r_mmod_Improper_Torsional_Energy-OPLS-2005>
3.0551278591156

> <r_mmod_Van_der_Waal_Energy-OPLS-2005>
159.091857910156

> <r_mmod_Electrostatic_Energy-OPLS-2005>
-426.244689941406

> <r_mmod_Solvation_Energy-OPLS-2005>
-221.14436340332

> <b_mmod_Minimization_Converged-OPLS-2005>
0

> <r_mmod_RMS_Derivative-OPLS-2005>
4.71560525894165

$$$$
64
                    3D
 Structure written by MMmdl.
168177  0  0  1  0            999 V2000
  -30.6089  -14.6593   20.5319 C   0  0  0  0  0  0
  -30.4328  -12.4154   19.4650 C   0  0  0  0  0  0
  -29.5073  -12.5444   18.2333 C   0  0  0  0  0  0
  -28.0244  -12.3895   18.6264 C   0  0  0  0  0  0
  -27.6510  -13.2254   19.8805 C   0  0  2  0  0  0
  -28.6926  -13.0556   21.0087 C   0  0  0  0  0  0
  -25.2510  -13.8192   20.5697 C   0  0  0  0  0  0
  -24.1767  -13.0465   20.9155 C   0  0  0  0  0  0
  -24.6351  -11.6922   20.8688 C   0  0  0  0  0  0
  -23.9017  -10.4315   21.0351 C   0  0  0  0  0  0
  -24.3578   -9.4231   21.9130 C   0  0  0  0  0  0
  -23.6287   -8.2249   22.0711 C   0  0  0  0  0  0
  -22.4265   -8.0267   21.3516 C   0  0  0  0  0  0
  -21.9876   -9.0232   20.4620 C   0  0  0  0  0  0
  -22.7183  -10.2130   20.3021 C   0  0  0  0  0  0
  -21.6853   -6.0716   22.5252 C   0  0  0  0  0  0
  -21.4007   -6.5619   23.8180 C   0  0  0  0  0  0
  -21.3662   -5.6768   24.9141 C   0  0  0  0  0  0
  -21.6061   -4.3033   24.7195 C   0  0  0  0  0  0
  -21.8844   -3.8125   23.4313 C   0  0  0  0  0  0
  -21.9200   -4.6949   22.3374 C   0  0  0  0  0  0
  -22.7793  -13.5229   21.1853 C   0  0  0  0  0  0
  -22.1662   -4.2119   21.0953 F   0  0  0  0  0  0
  -21.5651   -3.4531   25.7717 F   0  0  0  0  0  0
  -30.0065  -13.4250   20.4605 N   0  0  0  0  0  0
  -26.2948  -12.9390   20.3373 N   0  0  0  0  0  0
  -25.9285  -11.6532   20.5725 N   0  0  0  0  0  0
  -22.0444  -12.8196   22.0398 N   0  0  0  0  0  0
  -25.4268  -15.1921   20.4144 N   0  0  0  0  0  0
  -31.7430  -14.8359   20.0778 O   0  0  0  0  0  0
  -21.6644   -6.8859   21.4206 O   0  0  0  0  0  0
  -22.3463  -14.5562   20.6741 O   0  0  0  0  0  0
  -24.6295  -31.8534   23.2000 C   0  0  0  0  0  0
  -25.9106  -32.4758   23.8357 C   0  0  1  0  0  0
  -27.2482  -27.3057   20.1057 C   0  0  0  0  0  0
  -25.5915  -33.8560   24.2278 N   0  0  0  0  0  0
  -23.4294  -30.4742   21.5385 C   0  0  2  0  0  0
  -24.8782  -28.9156   20.1102 C   0  0  0  0  0  0
  -22.7512  -29.4590   22.4895 C   0  0  0  0  0  0
  -18.0286  -28.1404   22.8456 C   0  0  0  0  0  0
  -24.1464  -36.7308   23.2653 C   0  0  0  0  0  0
  -25.9700  -30.7747   21.3757 C   0  0  0  0  0  0
  -26.0427  -29.3989   20.7180 C   0  0  0  0  0  0
  -27.2241  -28.6017   20.7067 C   0  0  0  0  0  0
  -26.0672  -26.8791   19.4571 C   0  0  0  0  0  0
  -24.8917  -27.6621   19.4720 C   0  0  0  0  0  0
  -23.6481  -29.7998   20.1571 C   0  0  0  0  0  0
  -25.4089  -36.3089   24.0342 C   0  0  1  0  0  0
  -20.5892  -28.3710   23.1257 C   0  0  2  0  0  0
  -20.6763  -26.9418   22.5419 C   0  0  0  0  0  0
  -19.5750  -26.6376   21.5209 C   0  0  0  0  0  0
  -18.1924  -26.7943   22.1598 C   0  0  0  0  0  0
  -19.1542  -28.8867   23.2852 C   0  0  0  0  0  0
  -18.9467  -30.1464   23.8876 C   0  0  0  0  0  0
  -17.6466  -30.6587   24.0565 C   0  0  0  0  0  0
  -25.9030  -34.9452   23.5117 C   0  0  0  0  0  0
  -16.5350  -29.9087   23.6343 C   0  0  0  0  0  0
  -16.7271  -28.6518   23.0328 C   0  0  0  0  0  0
  -26.4464  -31.6606   25.0765 C   0  0  0  0  0  0
  -25.3701  -31.3758   26.1513 C   0  0  0  0  0  0
  -27.0324  -30.3030   24.6248 C   0  0  0  0  0  0
  -27.6002  -32.4369   25.7549 C   0  0  0  0  0  0
  -27.5564  -37.1813   24.8456 C   0  0  0  0  0  0
  -21.4217  -29.3045   22.3639 N   0  0  0  0  0  0
  -26.4267  -37.3787   23.9414 N   0  0  0  0  0  0
  -24.6952  -31.0523   22.0950 N   0  0  0  0  0  0
  -23.4207  -28.8142   23.3003 O   0  0  0  0  0  0
  -28.3993  -26.5051   20.1980 O   0  0  0  0  0  0
  -26.5598  -34.8918   22.4679 O   0  0  0  0  0  0
  -23.5446  -32.1348   23.7282 O   0  0  0  0  0  0
  -28.8522  -19.4563   19.1228 C   0  0  0  0  0  0
  -28.9878  -17.0082   19.1633 C   0  0  0  0  0  0
  -29.8331  -18.3117   21.0375 C   0  0  0  0  0  0
  -28.6175  -18.2039   18.5189 C   0  0  0  0  0  0
  -29.4824  -19.5616   20.3828 C   0  0  0  0  0  0
  -29.6113  -17.0151   20.4294 C   0  0  0  0  0  0
  -30.0333  -23.5283   21.3106 C   0  0  0  0  0  0
  -31.2190  -23.8042   24.8147 C   0  0  0  0  0  0
  -30.6655  -23.9154   22.4409 C   0  0  0  0  0  0
  -30.7361  -23.2142   23.7086 C   0  0  0  0  0  0
  -29.9087  -24.4837   20.0943 C   0  0  0  0  0  0
  -27.4826  -24.0515   20.5195 C   0  0  0  0  0  0
  -27.9471  -22.5384   20.4041 C   0  0  0  0  0  0
  -28.4692  -25.0609   19.8399 C   0  0  1  0  0  0
  -28.0107  -18.1380   17.1301 C   0  0  0  0  0  0
  -30.0286  -20.9878   20.8172 C   0  0  0  0  0  0
  -29.8749  -15.7080   21.0464 N   0  0  0  0  0  0
  -29.2034  -22.2414   21.1675 N   0  3  2  0  0  0
  -31.4740  -12.5464   19.1690 H   0  0  0  0  0  0
  -30.3752  -11.4132   19.8918 H   0  0  0  0  0  0
  -29.7753  -11.8048   17.4787 H   0  0  0  0  0  0
  -29.6528  -13.5203   17.7680 H   0  0  0  0  0  0
  -27.8309  -11.3319   18.8064 H   0  0  0  0  0  0
  -27.3871  -12.6754   17.7890 H   0  0  0  0  0  0
  -27.6738  -14.2697   19.5718 H   0  0  0  0  0  0
  -28.7094  -12.0186   21.3510 H   0  0  0  0  0  0
  -28.4301  -13.6517   21.8823 H   0  0  0  0  0  0
  -25.2719   -9.5749   22.4680 H   0  0  0  0  0  0
  -24.0026   -7.4656   22.7430 H   0  0  0  0  0  0
  -21.0804   -8.8748   19.8929 H   0  0  0  0  0  0
  -22.3615  -10.9657   19.6130 H   0  0  0  0  0  0
  -21.1976   -7.6122   23.9677 H   0  0  0  0  0  0
  -21.1455   -6.0481   25.9046 H   0  0  0  0  0  0
  -22.0625   -2.7587   23.2804 H   0  0  0  0  0  0
  -22.4079  -11.9844   22.4740 H   0  0  0  0  0  0
  -21.1062  -13.1193   22.2645 H   0  0  0  0  0  0
  -24.6773  -15.8597   20.5577 H   0  0  0  0  0  0
  -26.2943  -15.6258   20.1282 H   0  0  0  0  0  0
  -26.7189  -32.5391   23.1125 H   0  0  0  0  0  0
  -25.0090  -33.9685   25.0441 H   0  0  0  0  0  0
  -22.7269  -31.2959   21.3863 H   0  0  0  0  0  0
  -23.3720  -35.9649   23.3314 H   0  0  0  0  0  0
  -24.3566  -36.8921   22.2072 H   0  0  0  0  0  0
  -23.7195  -37.6507   23.6660 H   0  0  0  0  0  0
  -26.1012  -31.5283   20.5998 H   0  0  0  0  0  0
  -26.8545  -30.8324   22.0000 H   0  0  0  0  0  0
  -28.1229  -28.9602   21.1876 H   0  0  0  0  0  0
  -26.0300  -25.9366   18.9312 H   0  0  0  0  0  0
  -23.9994  -27.2929   18.9833 H   0  0  0  0  0  0
  -23.7811  -30.5707   19.3981 H   0  0  0  0  0  0
  -22.7677  -29.2336   19.8497 H   0  0  0  0  0  0
  -25.1250  -36.1975   25.0835 H   0  0  0  0  0  0
  -20.9983  -28.3303   24.1378 H   0  0  0  0  0  0
  -20.5631  -26.2337   23.3642 H   0  0  0  0  0  0
  -21.6634  -26.7408   22.1235 H   0  0  0  0  0  0
  -19.6907  -25.6276   21.1261 H   0  0  0  0  0  0
  -19.6704  -27.3164   20.6724 H   0  0  0  0  0  0
  -17.4208  -26.6702   21.3988 H   0  0  0  0  0  0
  -18.0299  -26.0089   22.8997 H   0  0  0  0  0  0
  -19.7946  -30.7279   24.2248 H   0  0  0  0  0  0
  -17.5020  -31.6253   24.5190 H   0  0  0  0  0  0
  -15.5354  -30.2968   23.7692 H   0  0  0  0  0  0
  -15.8676  -28.0838   22.7031 H   0  0  0  0  0  0
  -24.5862  -30.7110   25.7862 H   0  0  0  0  0  0
  -24.8919  -32.2940   26.4946 H   0  0  0  0  0  0
  -25.8060  -30.8947   27.0288 H   0  0  0  0  0  0
  -26.2920  -29.6790   24.1243 H   0  0  0  0  0  0
  -27.3972  -29.7278   25.4768 H   0  0  0  0  0  0
  -27.8800  -30.4304   23.9514 H   0  0  0  0  0  0
  -27.2560  -33.3633   26.2160 H   0  0  0  0  0  0
  -28.3810  -32.7005   25.0405 H   0  0  0  0  0  0
  -28.0697  -31.8508   26.5462 H   0  0  0  0  0  0
  -28.2584  -38.0106   24.7487 H   0  0  0  0  0  0
  -28.1047  -36.2639   24.6271 H   0  0  0  0  0  0
  -27.2310  -37.1461   25.8866 H   0  0  0  0  0  0
  -20.9442  -29.8773   21.6822 H   0  0  0  0  0  0
  -26.0159  -38.2869   24.1406 H   0  0  0  0  0  0
  -28.6075  -20.3452   18.5621 H   0  0  0  0  0  0
  -28.7935  -16.0706   18.6635 H   0  0  0  0  0  0
  -30.3397  -18.3505   21.9936 H   0  0  0  0  0  0
  -31.2649  -23.2779   25.7583 H   0  0  0  0  0  0
  -31.5725  -24.8282   24.8101 H   0  0  0  0  0  0
  -31.1526  -24.8829   22.4018 H   0  0  0  0  0  0
  -30.4014  -22.1911   23.7903 H   0  0  0  0  0  0
  -30.2778  -23.9609   19.2114 H   0  0  0  0  0  0
  -30.6169  -25.3024   20.2173 H   0  0  0  0  0  0
  -27.3622  -24.3096   21.5716 H   0  0  0  0  0  0
  -26.4894  -24.1526   20.0864 H   0  0  0  0  0  0
  -28.0972  -22.2981   19.3545 H   0  0  0  0  0  0
  -27.1556  -21.8792   20.7665 H   0  0  0  0  0  0
  -28.3128  -25.0127   18.7602 H   0  0  0  0  0  0
  -27.9924  -19.1170   16.6520 H   0  0  0  0  0  0
  -26.9908  -17.7582   17.1774 H   0  0  0  0  0  0
  -28.5934  -17.4754   16.4896 H   0  0  0  0  0  0
  -30.6763  -21.2838   19.9907 H   0  0  0  0  0  0
  -30.7155  -20.8186   21.6453 H   0  0  0  0  0  0
  -29.0974  -15.3697   21.5924 H   0  0  0  0  0  0
  -28.8456  -22.0329   22.0874 H   0  0  0  0  0  0
  1 25  1  0  0  0
  1 30  2  0  0  0
  1 87  1  0  0  0
  2  3  1  0  0  0
  2 25  1  0  0  0
  2 89  1  0  0  0
  2 90  1  0  0  0
  3  4  1  0  0  0
  3 91  1  0  0  0
  3 92  1  0  0  0
  4  5  1  0  0  0
  4 93  1  0  0  0
  4 94  1  0  0  0
  5  6  1  0  0  0
  5 26  1  0  0  0
  5 95  1  0  0  0
  6 25  1  0  0  0
  6 96  1  0  0  0
  6 97  1  0  0  0
  7  8  2  0  0  0
  7 26  1  0  0  0
  7 29  1  0  0  0
  8  9  1  0  0  0
  8 22  1  0  0  0
  9 10  1  0  0  0
  9 27  2  0  0  0
 10 11  2  0  0  0
 10 15  1  0  0  0
 11 12  1  0  0  0
 11 98  1  0  0  0
 12 13  2  0  0  0
 12 99  1  0  0  0
 13 14  1  0  0  0
 13 31  1  0  0  0
 14 15  2  0  0  0
 14100  1  0  0  0
 15101  1  0  0  0
 16 17  2  0  0  0
 16 21  1  0  0  0
 16 31  1  0  0  0
 17 18  1  0  0  0
 17102  1  0  0  0
 18 19  2  0  0  0
 18103  1  0  0  0
 19 20  1  0  0  0
 19 24  1  0  0  0
 20 21  2  0  0  0
 20104  1  0  0  0
 21 23  1  0  0  0
 22 28  1  0  0  0
 22 32  2  0  0  0
 26 27  1  0  0  0
 28105  1  0  0  0
 28106  1  0  0  0
 29107  1  0  0  0
 29108  1  0  0  0
 33 34  1  0  0  0
 33 66  1  0  0  0
 33 70  2  0  0  0
 34 36  1  0  0  0
 34 59  1  0  0  0
 34109  1  0  0  0
 35 44  2  0  0  0
 35 45  1  0  0  0
 35 68  1  0  0  0
 36 56  1  0  0  0
 36110  1  0  0  0
 37 39  1  0  0  0
 37 47  1  0  0  0
 37 66  1  0  0  0
 37111  1  0  0  0
 38 43  2  0  0  0
 38 46  1  0  0  0
 38 47  1  0  0  0
 39 64  1  0  0  0
 39 67  2  0  0  0
 40 52  1  0  0  0
 40 53  2  0  0  0
 40 58  1  0  0  0
 41112  1  0  0  0
 41113  1  0  0  0
 41114  1  0  0  0
 41 48  1  0  0  0
 42 43  1  0  0  0
 42 66  1  0  0  0
 42115  1  0  0  0
 42116  1  0  0  0
 43 44  1  0  0  0
 44117  1  0  0  0
 45 46  2  0  0  0
 45118  1  0  0  0
 46119  1  0  0  0
 47120  1  0  0  0
 47121  1  0  0  0
 48 56  1  0  0  0
 48 65  1  0  0  0
 48122  1  0  0  0
 49 50  1  0  0  0
 49 53  1  0  0  0
 49 64  1  0  0  0
 49123  1  0  0  0
 50 51  1  0  0  0
 50124  1  0  0  0
 50125  1  0  0  0
 51 52  1  0  0  0
 51126  1  0  0  0
 51127  1  0  0  0
 52128  1  0  0  0
 52129  1  0  0  0
 53 54  1  0  0  0
 54 55  2  0  0  0
 54130  1  0  0  0
 55 57  1  0  0  0
 55131  1  0  0  0
 56 69  2  0  0  0
 57 58  2  0  0  0
 57132  1  0  0  0
 58133  1  0  0  0
 59 60  1  0  0  0
 59 61  1  0  0  0
 59 62  1  0  0  0
 60134  1  0  0  0
 60135  1  0  0  0
 60136  1  0  0  0
 61137  1  0  0  0
 61138  1  0  0  0
 61139  1  0  0  0
 62140  1  0  0  0
 62141  1  0  0  0
 62142  1  0  0  0
 63 65  1  0  0  0
 63143  1  0  0  0
 63144  1  0  0  0
 63145  1  0  0  0
 64146  1  0  0  0
 65147  1  0  0  0
 68 84  1  0  0  0
 71 74  2  0  0  0
 71 75  1  0  0  0
 71148  1  0  0  0
 72 74  1  0  0  0
 72 76  2  0  0  0
 72149  1  0  0  0
 73 75  2  0  0  0
 73 76  1  0  0  0
 73150  1  0  0  0
 74 85  1  0  0  0
 75 86  1  0  0  0
 76 87  1  0  0  0
 77 79  2  0  0  0
 77 81  1  0  0  0
 77 88  1  0  0  0
 78 80  2  0  0  0
 78151  1  0  0  0
 78152  1  0  0  0
 79 80  1  0  0  0
 79153  1  0  0  0
 80154  1  0  0  0
 81 84  1  0  0  0
 81155  1  0  0  0
 81156  1  0  0  0
 82 83  1  0  0  0
 82 84  1  0  0  0
 82157  1  0  0  0
 82158  1  0  0  0
 83 88  1  0  0  0
 83159  1  0  0  0
 83160  1  0  0  0
 84161  1  0  0  0
 85162  1  0  0  0
 85163  1  0  0  0
 85164  1  0  0  0
 86165  1  0  0  0
 86166  1  0  0  0
 86 88  1  0  0  0
 87167  1  0  0  0
 88168  1  0  0  0
M  CHG  1  88   1
M  ISO  4   1 100  68 101  84 101  87 100
M  END
> <chiral flag>
0

> <version>
0

> <s_m_source_file>
/data/baiqing/PycharmProjects/Reinvent-master-3.2/result/LINK_invent/BTK/process_docking_weight1_custom_product_contain_oxygen_bond_distance_aromatic_linkinvent_7_9_3/rearranged_h_0050.sdf

> <i_m_source_file_index>
65

> <r_mmod_Potential_Energy-OPLS-2005>
41.9989852905273

> <r_mmod_Stretch_Energy-OPLS-2005>
101.483253479004

> <r_mmod_Bend_Energy-OPLS-2005>
192.387435913086

> <r_mmod_Torsional_Energy-OPLS-2005>
271.809631347656

> <r_mmod_Improper_Torsional_Energy-OPLS-2005>
7.76207399368286

> <r_mmod_Van_der_Waal_Energy-OPLS-2005>
138.583679199219

> <r_mmod_Electrostatic_Energy-OPLS-2005>
-278.137115478516

> <r_mmod_Solvation_Energy-OPLS-2005>
-444.902709960938

> <b_mmod_Minimization_Converged-OPLS-2005>
0

> <r_mmod_RMS_Derivative-OPLS-2005>
4.5924186706543

$$$$
65
                    3D
 Structure written by MMmdl.
176185  0  0  1  0            999 V2000
  -30.6574  -14.5127   20.5991 C   0  0  0  0  0  0
  -30.4456  -12.3412   19.4147 C   0  0  0  0  0  0
  -29.4954  -12.5186   18.2100 C   0  0  0  0  0  0
  -28.0196  -12.3581   18.6290 C   0  0  0  0  0  0
  -27.6657  -13.1995   19.8816 C   0  0  2  0  0  0
  -28.7087  -12.9575   20.9947 C   0  0  0  0  0  0
  -25.2622  -13.8154   20.5689 C   0  0  0  0  0  0
  -24.1849  -13.0441   20.9157 C   0  0  0  0  0  0
  -24.6395  -11.6902   20.8753 C   0  0  0  0  0  0
  -23.9047  -10.4297   21.0416 C   0  0  0  0  0  0
  -24.3601   -9.4202   21.9190 C   0  0  0  0  0  0
  -23.6289   -8.2234   22.0758 C   0  0  0  0  0  0
  -22.4277   -8.0273   21.3545 C   0  0  0  0  0  0
  -21.9898   -9.0244   20.4644 C   0  0  0  0  0  0
  -22.7221  -10.2134   20.3055 C   0  0  0  0  0  0
  -21.6838   -6.0727   22.5272 C   0  0  0  0  0  0
  -21.4009   -6.5631   23.8203 C   0  0  0  0  0  0
  -21.3661   -5.6797   24.9176 C   0  0  0  0  0  0
  -21.6043   -4.3055   24.7233 C   0  0  0  0  0  0
  -21.8823   -3.8140   23.4352 C   0  0  0  0  0  0
  -21.9192   -4.6960   22.3406 C   0  0  0  0  0  0
  -22.7862  -13.5232   21.1836 C   0  0  0  0  0  0
  -22.1667   -4.2146   21.0988 F   0  0  0  0  0  0
  -21.5642   -3.4537   25.7742 F   0  0  0  0  0  0
  -30.0420  -13.3021   20.4567 N   0  0  0  0  0  0
  -26.3050  -12.9308   20.3405 N   0  0  0  0  0  0
  -25.9319  -11.6469   20.5788 N   0  0  0  0  0  0
  -22.0536  -12.8194   22.0410 N   0  0  0  0  0  0
  -25.4381  -15.1867   20.4118 N   0  0  0  0  0  0
  -31.7404  -14.7816   20.0692 O   0  0  0  0  0  0
  -21.6644   -6.8867   21.4232 O   0  0  0  0  0  0
  -22.3538  -14.5545   20.6704 O   0  0  0  0  0  0
  -24.6209  -31.8668   23.2097 C   0  0  0  0  0  0
  -25.9075  -32.4814   23.8423 C   0  0  1  0  0  0
  -27.2307  -27.3855   20.0831 C   0  0  0  0  0  0
  -25.5936  -33.8618   24.2357 N   0  0  0  0  0  0
  -23.4120  -30.4924   21.5530 C   0  0  2  0  0  0
  -24.8544  -28.9607   20.1201 C   0  0  0  0  0  0
  -22.7456  -29.4658   22.4994 C   0  0  0  0  0  0
  -18.0279  -28.1373   22.8493 C   0  0  0  0  0  0
  -24.1476  -36.7326   23.2639 C   0  0  0  0  0  0
  -25.9499  -30.8154   21.3737 C   0  0  0  0  0  0
  -26.0237  -29.4482   20.7150 C   0  0  0  0  0  0
  -27.2138  -28.6699   20.6952 C   0  0  0  0  0  0
  -26.0255  -26.9335   19.4864 C   0  0  0  0  0  0
  -24.8518  -27.7026   19.5071 C   0  0  0  0  0  0
  -23.6231  -29.8356   20.1668 C   0  0  0  0  0  0
  -25.4091  -36.3121   24.0348 C   0  0  1  0  0  0
  -20.5875  -28.3672   23.1308 C   0  0  2  0  0  0
  -20.6774  -26.9401   22.5412 C   0  0  0  0  0  0
  -19.5749  -26.6381   21.5209 C   0  0  0  0  0  0
  -18.1934  -26.7913   22.1624 C   0  0  0  0  0  0
  -19.1530  -28.8843   23.2893 C   0  0  0  0  0  0
  -18.9454  -30.1444   23.8907 C   0  0  0  0  0  0
  -17.6455  -30.6582   24.0557 C   0  0  0  0  0  0
  -25.9034  -34.9468   23.5141 C   0  0  0  0  0  0
  -16.5346  -29.9078   23.6323 C   0  0  0  0  0  0
  -16.7271  -28.6491   23.0360 C   0  0  0  0  0  0
  -26.4469  -31.6586   25.0752 C   0  0  0  0  0  0
  -25.3727  -31.3654   26.1498 C   0  0  0  0  0  0
  -27.0320  -30.3021   24.6152 C   0  0  0  0  0  0
  -27.6047  -32.4323   25.7491 C   0  0  0  0  0  0
  -27.5565  -37.1796   24.8452 C   0  0  0  0  0  0
  -21.4179  -29.3048   22.3733 N   0  0  0  0  0  0
  -26.4275  -37.3807   23.9417 N   0  0  0  0  0  0
  -24.6799  -31.0725   22.1032 N   0  0  0  0  0  0
  -23.4200  -28.8195   23.3059 O   0  0  0  0  0  0
  -28.3839  -26.5952   20.0874 O   0  0  0  0  0  0
  -26.5566  -34.8917   22.4684 O   0  0  0  0  0  0
  -23.5378  -32.1443   23.7451 O   0  0  0  0  0  0
  -29.0717  -19.5777   21.3323 C   0  0  0  0  0  0
  -28.4860  -17.2452   21.7493 C   0  0  0  0  0  0
  -30.6544  -17.7847   20.7939 C   0  0  0  0  0  0
  -28.1472  -18.6122   21.7778 C   0  0  0  0  0  0
  -30.3315  -19.1793   20.8348 C   0  0  0  0  0  0
  -29.7361  -16.8032   21.2642 C   0  0  0  0  0  0
  -30.9171  -22.6716   21.2545 C   0  0  0  0  0  0
  -32.2858  -24.9366   23.0652 C   0  0  0  0  0  0
  -31.8501  -22.6574   22.2357 C   0  0  0  0  0  0
  -31.9914  -23.6449   23.2898 C   0  0  0  0  0  0
  -30.6271  -24.8377   18.8792 C   0  0  0  0  0  0
  -29.8234  -23.7634   21.1064 C   0  0  0  0  0  0
  -28.9996  -22.8837   19.0190 C   0  0  0  0  0  0
  -30.0985  -21.8017   18.9218 C   0  0  0  0  0  0
  -29.4456  -24.2168   19.6687 C   0  0  2  0  0  0
  -26.7922  -19.0443   22.3022 C   0  0  0  0  0  0
  -30.3670  -25.3884   17.4787 C   0  0  0  0  0  0
  -31.3854  -20.2214   20.3980 C   0  0  0  0  0  0
  -28.2326  -25.2161   19.6450 C   0  0  0  0  0  0
  -29.9629  -15.3874   21.3600 N   0  0  0  0  0  0
  -30.9850  -21.6505   20.1141 N   0  3  2  0  0  0
  -31.7740  -24.8411   19.3325 O   0  0  0  0  0  0
  -31.4824  -12.4834   19.1037 H   0  0  0  0  0  0
  -30.3896  -11.3255   19.8077 H   0  0  0  0  0  0
  -29.7359  -11.7995   17.4262 H   0  0  0  0  0  0
  -29.6408  -13.5083   17.7761 H   0  0  0  0  0  0
  -27.8403  -11.3022   18.8337 H   0  0  0  0  0  0
  -27.3580  -12.6198   17.8019 H   0  0  0  0  0  0
  -27.7178  -14.2487   19.5929 H   0  0  0  0  0  0
  -28.6980  -11.9096   21.2930 H   0  0  0  0  0  0
  -28.4481  -13.5083   21.8998 H   0  0  0  0  0  0
  -25.2754   -9.5675   22.4757 H   0  0  0  0  0  0
  -24.0001   -7.4619   22.7460 H   0  0  0  0  0  0
  -21.0829   -8.8750   19.8938 H   0  0  0  0  0  0
  -22.3675  -10.9670   19.6165 H   0  0  0  0  0  0
  -21.1996   -7.6146   23.9692 H   0  0  0  0  0  0
  -21.1486   -6.0542   25.9072 H   0  0  0  0  0  0
  -22.0602   -2.7599   23.2859 H   0  0  0  0  0  0
  -22.4162  -11.9818   22.4746 H   0  0  0  0  0  0
  -21.1171  -13.1200   22.2702 H   0  0  0  0  0  0
  -24.6755  -15.8473   20.5098 H   0  0  0  0  0  0
  -26.2986  -15.6140   20.0920 H   0  0  0  0  0  0
  -26.7153  -32.5504   23.1197 H   0  0  0  0  0  0
  -25.0140  -33.9783   25.0538 H   0  0  0  0  0  0
  -22.7034  -31.3117   21.4154 H   0  0  0  0  0  0
  -23.3726  -35.9668   23.3299 H   0  0  0  0  0  0
  -24.3560  -36.8924   22.2049 H   0  0  0  0  0  0
  -23.7217  -37.6536   23.6637 H   0  0  0  0  0  0
  -26.0679  -31.5808   20.6042 H   0  0  0  0  0  0
  -26.8362  -30.8658   21.9953 H   0  0  0  0  0  0
  -28.1165  -29.0434   21.1586 H   0  0  0  0  0  0
  -25.9400  -25.9791   18.9905 H   0  0  0  0  0  0
  -23.9530  -27.3199   19.0453 H   0  0  0  0  0  0
  -23.7464  -30.6145   19.4137 H   0  0  0  0  0  0
  -22.7421  -29.2699   19.8621 H   0  0  0  0  0  0
  -25.1251  -36.2006   25.0838 H   0  0  0  0  0  0
  -20.9953  -28.3218   24.1435 H   0  0  0  0  0  0
  -20.5704  -26.2272   23.3599 H   0  0  0  0  0  0
  -21.6649  -26.7463   22.1189 H   0  0  0  0  0  0
  -19.6923  -25.6294   21.1238 H   0  0  0  0  0  0
  -19.6682  -27.3190   20.6732 H   0  0  0  0  0  0
  -17.4205  -26.6653   21.4023 H   0  0  0  0  0  0
  -18.0336  -26.0038   22.9012 H   0  0  0  0  0  0
  -19.7932  -30.7244   24.2282 H   0  0  0  0  0  0
  -17.5019  -31.6262   24.5157 H   0  0  0  0  0  0
  -15.5357  -30.2994   23.7639 H   0  0  0  0  0  0
  -15.8662  -28.0814   22.7086 H   0  0  0  0  0  0
  -24.5930  -30.6959   25.7836 H   0  0  0  0  0  0
  -24.8870  -32.2793   26.4941 H   0  0  0  0  0  0
  -25.8114  -30.8867   27.0272 H   0  0  0  0  0  0
  -26.2915  -29.6803   24.1110 H   0  0  0  0  0  0
  -27.8777  -30.4349   23.9404 H   0  0  0  0  0  0
  -27.3982  -29.7235   25.4645 H   0  0  0  0  0  0
  -27.2600  -33.3490   26.2283 H   0  0  0  0  0  0
  -28.3702  -32.7113   25.0236 H   0  0  0  0  0  0
  -28.0915  -31.8382   26.5238 H   0  0  0  0  0  0
  -28.2596  -38.0089   24.7508 H   0  0  0  0  0  0
  -28.1053  -36.2619   24.6263 H   0  0  0  0  0  0
  -27.2289  -37.1434   25.8862 H   0  0  0  0  0  0
  -20.9365  -29.8786   21.6957 H   0  0  0  0  0  0
  -26.0170  -38.2885   24.1436 H   0  0  0  0  0  0
  -28.8063  -20.6248   21.3901 H   0  0  0  0  0  0
  -27.7642  -16.5250   22.1125 H   0  0  0  0  0  0
  -31.6244  -17.4742   20.4296 H   0  0  0  0  0  0
  -32.3869  -25.6404   23.8789 H   0  0  0  0  0  0
  -32.4339  -25.3173   22.0625 H   0  0  0  0  0  0
  -32.6155  -21.8972   22.2394 H   0  0  0  0  0  0
  -31.8547  -23.3174   24.3113 H   0  0  0  0  0  0
  -28.9369  -23.3822   21.6159 H   0  0  0  0  0  0
  -30.0935  -24.6543   21.6694 H   0  0  0  0  0  0
  -28.1651  -22.4693   19.5888 H   0  0  0  0  0  0
  -28.5881  -23.0540   18.0238 H   0  0  0  0  0  0
  -30.7506  -22.0232   18.0770 H   0  0  0  0  0  0
  -29.6255  -20.8504   18.6715 H   0  0  0  0  0  0
  -26.8513  -19.2556   23.3713 H   0  0  0  0  0  0
  -26.0486  -18.2633   22.1382 H   0  0  0  0  0  0
  -26.4412  -19.9444   21.7969 H   0  0  0  0  0  0
  -29.5229  -24.8900   17.0040 H   0  0  0  0  0  0
  -31.2422  -25.2405   16.8439 H   0  0  0  0  0  0
  -30.1567  -26.4570   17.5239 H   0  0  0  0  0  0
  -31.8320  -19.8472   19.4766 H   0  0  0  0  0  0
  -32.1978  -20.1770   21.1196 H   0  0  0  0  0  0
  -27.4327  -24.7597   20.2316 H   0  0  0  0  0  0
  -27.8781  -25.2475   18.6131 H   0  0  0  0  0  0
  -29.2185  -14.9078   21.8422 H   0  0  0  0  0  0
  -31.8523  -21.9173   19.6705 H   0  0  0  0  0  0
  1 25  1  0  0  0
  1 30  2  0  0  0
  1 90  1  0  0  0
  2  3  1  0  0  0
  2 25  1  0  0  0
  2 93  1  0  0  0
  2 94  1  0  0  0
  3  4  1  0  0  0
  3 95  1  0  0  0
  3 96  1  0  0  0
  4  5  1  0  0  0
  4 97  1  0  0  0
  4 98  1  0  0  0
  5  6  1  0  0  0
  5 26  1  0  0  0
  5 99  1  0  0  0
  6 25  1  0  0  0
  6100  1  0  0  0
  6101  1  0  0  0
  7  8  2  0  0  0
  7 26  1  0  0  0
  7 29  1  0  0  0
  8  9  1  0  0  0
  8 22  1  0  0  0
  9 10  1  0  0  0
  9 27  2  0  0  0
 10 11  2  0  0  0
 10 15  1  0  0  0
 11 12  1  0  0  0
 11102  1  0  0  0
 12 13  2  0  0  0
 12103  1  0  0  0
 13 14  1  0  0  0
 13 31  1  0  0  0
 14 15  2  0  0  0
 14104  1  0  0  0
 15105  1  0  0  0
 16 17  2  0  0  0
 16 21  1  0  0  0
 16 31  1  0  0  0
 17 18  1  0  0  0
 17106  1  0  0  0
 18 19  2  0  0  0
 18107  1  0  0  0
 19 20  1  0  0  0
 19 24  1  0  0  0
 20 21  2  0  0  0
 20108  1  0  0  0
 21 23  1  0  0  0
 22 28  1  0  0  0
 22 32  2  0  0  0
 26 27  1  0  0  0
 28109  1  0  0  0
 28110  1  0  0  0
 29111  1  0  0  0
 29112  1  0  0  0
 33 34  1  0  0  0
 33 66  1  0  0  0
 33 70  2  0  0  0
 34 36  1  0  0  0
 34 59  1  0  0  0
 34113  1  0  0  0
 35 44  2  0  0  0
 35 45  1  0  0  0
 35 68  1  0  0  0
 36 56  1  0  0  0
 36114  1  0  0  0
 37 39  1  0  0  0
 37 47  1  0  0  0
 37 66  1  0  0  0
 37115  1  0  0  0
 38 43  2  0  0  0
 38 46  1  0  0  0
 38 47  1  0  0  0
 39 64  1  0  0  0
 39 67  2  0  0  0
 40 52  1  0  0  0
 40 53  2  0  0  0
 40 58  1  0  0  0
 41116  1  0  0  0
 41117  1  0  0  0
 41118  1  0  0  0
 41 48  1  0  0  0
 42 43  1  0  0  0
 42 66  1  0  0  0
 42119  1  0  0  0
 42120  1  0  0  0
 43 44  1  0  0  0
 44121  1  0  0  0
 45 46  2  0  0  0
 45122  1  0  0  0
 46123  1  0  0  0
 47124  1  0  0  0
 47125  1  0  0  0
 48 56  1  0  0  0
 48 65  1  0  0  0
 48126  1  0  0  0
 49 50  1  0  0  0
 49 53  1  0  0  0
 49 64  1  0  0  0
 49127  1  0  0  0
 50 51  1  0  0  0
 50128  1  0  0  0
 50129  1  0  0  0
 51 52  1  0  0  0
 51130  1  0  0  0
 51131  1  0  0  0
 52132  1  0  0  0
 52133  1  0  0  0
 53 54  1  0  0  0
 54 55  2  0  0  0
 54134  1  0  0  0
 55 57  1  0  0  0
 55135  1  0  0  0
 56 69  2  0  0  0
 57 58  2  0  0  0
 57136  1  0  0  0
 58137  1  0  0  0
 59 60  1  0  0  0
 59 61  1  0  0  0
 59 62  1  0  0  0
 60138  1  0  0  0
 60139  1  0  0  0
 60140  1  0  0  0
 61141  1  0  0  0
 61142  1  0  0  0
 61143  1  0  0  0
 62144  1  0  0  0
 62145  1  0  0  0
 62146  1  0  0  0
 63 65  1  0  0  0
 63147  1  0  0  0
 63148  1  0  0  0
 63149  1  0  0  0
 64150  1  0  0  0
 65151  1  0  0  0
 68 89  1  0  0  0
 71 74  2  0  0  0
 71 75  1  0  0  0
 71152  1  0  0  0
 72 74  1  0  0  0
 72 76  2  0  0  0
 72153  1  0  0  0
 73 75  2  0  0  0
 73 76  1  0  0  0
 73154  1  0  0  0
 74 86  1  0  0  0
 75 88  1  0  0  0
 76 90  1  0  0  0
 77 79  2  0  0  0
 77 82  1  0  0  0
 77 91  1  0  0  0
 78 80  2  0  0  0
 78155  1  0  0  0
 78156  1  0  0  0
 79 80  1  0  0  0
 79157  1  0  0  0
 80158  1  0  0  0
 81 87  1  0  0  0
 81 92  2  0  0  0
 81 85  1  0  0  0
 82 85  1  0  0  0
 82159  1  0  0  0
 82160  1  0  0  0
 83 84  1  0  0  0
 83 85  1  0  0  0
 83161  1  0  0  0
 83162  1  0  0  0
 84 91  1  0  0  0
 84163  1  0  0  0
 84164  1  0  0  0
 85 89  1  0  0  0
 86165  1  0  0  0
 86166  1  0  0  0
 86167  1  0  0  0
 87168  1  0  0  0
 87169  1  0  0  0
 87170  1  0  0  0
 88171  1  0  0  0
 88172  1  0  0  0
 88 91  1  0  0  0
 89173  1  0  0  0
 89174  1  0  0  0
 90175  1  0  0  0
 91176  1  0  0  0
M  CHG  1  91   1
M  ISO  4   1 100  68 101  89 101  90 100
M  END
> <chiral flag>
0

> <version>
0

> <s_m_source_file>
/data/baiqing/PycharmProjects/Reinvent-master-3.2/result/LINK_invent/BTK/process_docking_weight1_custom_product_contain_oxygen_bond_distance_aromatic_linkinvent_7_9_3/rearranged_h_0050.sdf

> <i_m_source_file_index>
66

> <r_mmod_Potential_Energy-OPLS-2005>
-84.5378875732422

> <r_mmod_Stretch_Energy-OPLS-2005>
60.239444732666

> <r_mmod_Bend_Energy-OPLS-2005>
181.39225769043

> <r_mmod_Torsional_Energy-OPLS-2005>
249.581329345703

> <r_mmod_Improper_Torsional_Energy-OPLS-2005>
4.33314990997314

> <r_mmod_Van_der_Waal_Energy-OPLS-2005>
160.405120849609

> <r_mmod_Electrostatic_Energy-OPLS-2005>
-326.3515625

> <r_mmod_Solvation_Energy-OPLS-2005>
-434.519470214844

> <b_mmod_Minimization_Converged-OPLS-2005>
0

> <r_mmod_RMS_Derivative-OPLS-2005>
3.28554153442383

$$$$
66
                    3D
 Structure written by MMmdl.
163171  0  0  1  0            999 V2000
  -30.7803  -14.3186   20.7533 C   0  0  0  0  0  0
  -30.4231  -12.2915   19.3878 C   0  0  0  0  0  0
  -29.4890  -12.5378   18.1904 C   0  0  0  0  0  0
  -28.0098  -12.4037   18.5999 C   0  0  0  0  0  0
  -27.6702  -13.2032   19.8843 C   0  0  2  0  0  0
  -28.7027  -12.9123   20.9945 C   0  0  0  0  0  0
  -25.2613  -13.8168   20.5675 C   0  0  0  0  0  0
  -24.1840  -13.0443   20.9127 C   0  0  0  0  0  0
  -24.6359  -11.6904   20.8655 C   0  0  0  0  0  0
  -23.8997  -10.4301   21.0331 C   0  0  0  0  0  0
  -24.3571   -9.4245   21.9116 C   0  0  0  0  0  0
  -23.6282   -8.2272   22.0716 C   0  0  0  0  0  0
  -22.4268   -8.0257   21.3525 C   0  0  0  0  0  0
  -21.9871   -9.0213   20.4627 C   0  0  0  0  0  0
  -22.7155  -10.2114   20.3016 C   0  0  0  0  0  0
  -21.6880   -6.0686   22.5245 C   0  0  0  0  0  0
  -21.4027   -6.5596   23.8168 C   0  0  0  0  0  0
  -21.3671   -5.6767   24.9135 C   0  0  0  0  0  0
  -21.6064   -4.3029   24.7216 C   0  0  0  0  0  0
  -21.8827   -3.8103   23.4347 C   0  0  0  0  0  0
  -21.9206   -4.6901   22.3398 C   0  0  0  0  0  0
  -22.7864  -13.5230   21.1804 C   0  0  0  0  0  0
  -22.1682   -4.2080   21.0982 F   0  0  0  0  0  0
  -21.5634   -3.4534   25.7741 F   0  0  0  0  0  0
  -30.0511  -13.2097   20.4723 N   0  0  0  0  0  0
  -26.3051  -12.9319   20.3343 N   0  0  0  0  0  0
  -25.9297  -11.6473   20.5685 N   0  0  0  0  0  0
  -22.0539  -12.8226   22.0394 N   0  0  0  0  0  0
  -25.4428  -15.1895   20.4205 N   0  0  0  0  0  0
  -31.7512  -14.6853   20.0818 O   0  0  0  0  0  0
  -21.6669   -6.8835   21.4212 O   0  0  0  0  0  0
  -22.3548  -14.5517   20.6628 O   0  0  0  0  0  0
  -24.6092  -31.8670   23.2078 C   0  0  0  0  0  0
  -25.8994  -32.4811   23.8373 C   0  0  1  0  0  0
  -27.2486  -27.4532   20.1091 C   0  0  0  0  0  0
  -25.5875  -33.8603   24.2306 N   0  0  0  0  0  0
  -23.3948  -30.4876   21.5468 C   0  0  2  0  0  0
  -24.8466  -28.9497   20.1121 C   0  0  0  0  0  0
  -22.7368  -29.4642   22.4988 C   0  0  0  0  0  0
  -18.0259  -28.1374   22.8485 C   0  0  0  0  0  0
  -24.1469  -36.7325   23.2632 C   0  0  0  0  0  0
  -25.9175  -30.8423   21.3503 C   0  0  0  0  0  0
  -25.9986  -29.4740   20.7071 C   0  0  0  0  0  0
  -27.1961  -28.7304   20.7042 C   0  0  0  0  0  0
  -26.0753  -26.9265   19.5168 C   0  0  0  0  0  0
  -24.8797  -27.6755   19.5147 C   0  0  0  0  0  0
  -23.6018  -29.8107   20.1621 C   0  0  0  0  0  0
  -25.4090  -36.3099   24.0343 C   0  0  1  0  0  0
  -20.5839  -28.3628   23.1352 C   0  0  2  0  0  0
  -20.6737  -26.9366   22.5433 C   0  0  0  0  0  0
  -19.5729  -26.6370   21.5215 C   0  0  0  0  0  0
  -18.1906  -26.7922   22.1620 C   0  0  0  0  0  0
  -19.1504  -28.8824   23.2911 C   0  0  0  0  0  0
  -18.9445  -30.1435   23.8899 C   0  0  0  0  0  0
  -17.6452  -30.6591   24.0555 C   0  0  0  0  0  0
  -25.9033  -34.9463   23.5121 C   0  0  0  0  0  0
  -16.5343  -29.9094   23.6331 C   0  0  0  0  0  0
  -16.7249  -28.6518   23.0335 C   0  0  0  0  0  0
  -26.4439  -31.6584   25.0686 C   0  0  0  0  0  0
  -25.3727  -31.3695   26.1449 C   0  0  0  0  0  0
  -27.0268  -30.3028   24.6042 C   0  0  0  0  0  0
  -27.6010  -32.4307   25.7448 C   0  0  0  0  0  0
  -27.5584  -37.1783   24.8453 C   0  0  0  0  0  0
  -21.4104  -29.3015   22.3769 N   0  0  0  0  0  0
  -26.4267  -37.3798   23.9438 N   0  0  0  0  0  0
  -24.6587  -31.0793   22.0954 N   0  0  0  0  0  0
  -23.4168  -28.8202   23.3024 O   0  0  0  0  0  0
  -28.4599  -26.8001   20.1497 O   0  0  0  0  0  0
  -26.5596  -34.8924   22.4684 O   0  0  0  0  0  0
  -23.5305  -32.1411   23.7502 O   0  0  0  0  0  0
  -29.2124  -19.2161   23.3421 C   0  0  0  0  0  0
  -29.8031  -17.9469   23.5002 C   0  0  0  0  0  0
  -29.3003  -19.8880   22.1066 C   0  0  0  0  0  0
  -30.5436  -18.0106   21.1768 C   0  0  0  0  0  0
  -30.4763  -17.3403   22.4160 C   0  0  0  0  0  0
  -29.9707  -19.2909   21.0191 C   0  0  0  0  0  0
  -29.9537  -22.4837   19.4604 C   0  0  0  0  0  0
  -32.0578  -21.3961   20.2383 C   0  0  0  0  0  0
  -31.1489  -15.9873   22.5842 C   0  0  0  0  0  0
  -30.0923  -20.0125   19.6798 C   0  0  0  0  0  0
  -30.6616  -23.8539   19.3688 C   0  0  0  0  0  0
  -30.0049  -25.0093   20.1610 C   0  0  0  0  0  0
  -28.5915  -25.4488   19.7202 C   0  0  0  0  0  0
  -30.4389  -14.9105   21.9022 N   0  0  0  0  0  0
  -30.6627  -21.3686   19.7807 N   0  0  0  0  0  0
  -28.7538  -22.4377   19.1767 O   0  0  0  0  0  0
  -31.4664  -12.4085   19.0866 H   0  0  0  0  0  0
  -30.3347  -11.2606   19.7346 H   0  0  0  0  0  0
  -29.7176  -11.8390   17.3860 H   0  0  0  0  0  0
  -29.6701  -13.5355   17.7887 H   0  0  0  0  0  0
  -27.7962  -11.3450   18.7498 H   0  0  0  0  0  0
  -27.3660  -12.7355   17.7832 H   0  0  0  0  0  0
  -27.7417  -14.2621   19.6346 H   0  0  0  0  0  0
  -28.6571  -11.8589   21.2783 H   0  0  0  0  0  0
  -28.4425  -13.4627   21.9007 H   0  0  0  0  0  0
  -25.2715   -9.5753   22.4662 H   0  0  0  0  0  0
  -24.0001   -7.4684   22.7445 H   0  0  0  0  0  0
  -21.0798   -8.8679   19.8981 H   0  0  0  0  0  0
  -22.3537  -10.9614   19.6127 H   0  0  0  0  0  0
  -21.2032   -7.6104   23.9632 H   0  0  0  0  0  0
  -21.1492   -6.0515   25.9028 H   0  0  0  0  0  0
  -22.0618   -2.7563   23.2866 H   0  0  0  0  0  0
  -22.4203  -11.9946   22.4840 H   0  0  0  0  0  0
  -21.1119  -13.1179   22.2558 H   0  0  0  0  0  0
  -24.6984  -15.8616   20.5672 H   0  0  0  0  0  0
  -26.3154  -15.6219   20.1445 H   0  0  0  0  0  0
  -26.7071  -32.5508   23.1143 H   0  0  0  0  0  0
  -24.9968  -33.9749   25.0399 H   0  0  0  0  0  0
  -22.6821  -31.3011   21.4045 H   0  0  0  0  0  0
  -23.3717  -35.9665   23.3303 H   0  0  0  0  0  0
  -24.3559  -36.8939   22.2040 H   0  0  0  0  0  0
  -23.7254  -37.6542   23.6651 H   0  0  0  0  0  0
  -26.0136  -31.6055   20.5780 H   0  0  0  0  0  0
  -26.8093  -30.9085   21.9621 H   0  0  0  0  0  0
  -28.0860  -29.1345   21.1667 H   0  0  0  0  0  0
  -26.0694  -25.9437   19.0658 H   0  0  0  0  0  0
  -23.9903  -27.2624   19.0569 H   0  0  0  0  0  0
  -23.6933  -30.5788   19.3948 H   0  0  0  0  0  0
  -22.7274  -29.2206   19.8784 H   0  0  0  0  0  0
  -25.1254  -36.1943   25.0838 H   0  0  0  0  0  0
  -20.9917  -28.3179   24.1475 H   0  0  0  0  0  0
  -20.5635  -26.2221   23.3598 H   0  0  0  0  0  0
  -21.6617  -26.7414   22.1230 H   0  0  0  0  0  0
  -19.6894  -25.6280   21.1250 H   0  0  0  0  0  0
  -19.6706  -27.3164   20.6731 H   0  0  0  0  0  0
  -17.4173  -26.6648   21.4024 H   0  0  0  0  0  0
  -18.0320  -26.0058   22.9012 H   0  0  0  0  0  0
  -19.7925  -30.7244   24.2267 H   0  0  0  0  0  0
  -17.5022  -31.6274   24.5141 H   0  0  0  0  0  0
  -15.5344  -30.3002   23.7684 H   0  0  0  0  0  0
  -15.8634  -28.0867   22.7031 H   0  0  0  0  0  0
  -24.5890  -30.7047   25.7818 H   0  0  0  0  0  0
  -24.8900  -32.2835   26.4905 H   0  0  0  0  0  0
  -25.8074  -30.8868   27.0211 H   0  0  0  0  0  0
  -26.2799  -29.6787   24.1116 H   0  0  0  0  0  0
  -27.4085  -29.7268   25.4483 H   0  0  0  0  0  0
  -27.8607  -30.4358   23.9151 H   0  0  0  0  0  0
  -27.2647  -33.3628   26.2014 H   0  0  0  0  0  0
  -28.3829  -32.6850   25.0278 H   0  0  0  0  0  0
  -28.0671  -31.8436   26.5371 H   0  0  0  0  0  0
  -28.2544  -38.0132   24.7568 H   0  0  0  0  0  0
  -28.1149  -36.2668   24.6187 H   0  0  0  0  0  0
  -27.2326  -37.1331   25.8858 H   0  0  0  0  0  0
  -20.9250  -29.8756   21.7008 H   0  0  0  0  0  0
  -26.0156  -38.2866   24.1486 H   0  0  0  0  0  0
  -28.6935  -19.6776   24.1728 H   0  0  0  0  0  0
  -29.7404  -17.4448   24.4590 H   0  0  0  0  0  0
  -28.8507  -20.8646   21.9933 H   0  0  0  0  0  0
  -31.0628  -17.5460   20.3490 H   0  0  0  0  0  0
  -32.7184  -21.8130   19.4783 H   0  0  0  0  0  0
  -32.4333  -20.3996   20.4687 H   0  0  0  0  0  0
  -32.1523  -21.9875   21.1512 H   0  0  0  0  0  0
  -31.2101  -15.7358   23.6445 H   0  0  0  0  0  0
  -32.1812  -16.0561   22.2376 H   0  0  0  0  0  0
  -29.1135  -20.0047   19.2008 H   0  0  0  0  0  0
  -30.7317  -19.4219   19.0184 H   0  0  0  0  0  0
  -30.6927  -24.1263   18.3147 H   0  0  0  0  0  0
  -31.7061  -23.8010   19.6706 H   0  0  0  0  0  0
  -30.6655  -25.8707   20.0558 H   0  0  0  0  0  0
  -30.0099  -24.7874   21.2297 H   0  0  0  0  0  0
  -27.8374  -24.8057   20.1746 H   0  0  0  0  0  0
  -28.4853  -25.3999   18.6361 H   0  0  0  0  0  0
  -29.6575  -14.5070   22.3946 H   0  0  0  0  0  0
  1 25  1  0  0  0
  1 30  2  0  0  0
  1 84  1  0  0  0
  2  3  1  0  0  0
  2 25  1  0  0  0
  2 87  1  0  0  0
  2 88  1  0  0  0
  3  4  1  0  0  0
  3 89  1  0  0  0
  3 90  1  0  0  0
  4  5  1  0  0  0
  4 91  1  0  0  0
  4 92  1  0  0  0
  5  6  1  0  0  0
  5 26  1  0  0  0
  5 93  1  0  0  0
  6 25  1  0  0  0
  6 94  1  0  0  0
  6 95  1  0  0  0
  7  8  2  0  0  0
  7 26  1  0  0  0
  7 29  1  0  0  0
  8  9  1  0  0  0
  8 22  1  0  0  0
  9 10  1  0  0  0
  9 27  2  0  0  0
 10 11  2  0  0  0
 10 15  1  0  0  0
 11 12  1  0  0  0
 11 96  1  0  0  0
 12 13  2  0  0  0
 12 97  1  0  0  0
 13 14  1  0  0  0
 13 31  1  0  0  0
 14 15  2  0  0  0
 14 98  1  0  0  0
 15 99  1  0  0  0
 16 17  2  0  0  0
 16 21  1  0  0  0
 16 31  1  0  0  0
 17 18  1  0  0  0
 17100  1  0  0  0
 18 19  2  0  0  0
 18101  1  0  0  0
 19 20  1  0  0  0
 19 24  1  0  0  0
 20 21  2  0  0  0
 20102  1  0  0  0
 21 23  1  0  0  0
 22 28  1  0  0  0
 22 32  2  0  0  0
 26 27  1  0  0  0
 28103  1  0  0  0
 28104  1  0  0  0
 29105  1  0  0  0
 29106  1  0  0  0
 33 34  1  0  0  0
 33 66  1  0  0  0
 33 70  2  0  0  0
 34 36  1  0  0  0
 34 59  1  0  0  0
 34107  1  0  0  0
 35 44  2  0  0  0
 35 45  1  0  0  0
 35 68  1  0  0  0
 36 56  1  0  0  0
 36108  1  0  0  0
 37 39  1  0  0  0
 37 47  1  0  0  0
 37 66  1  0  0  0
 37109  1  0  0  0
 38 43  2  0  0  0
 38 46  1  0  0  0
 38 47  1  0  0  0
 39 64  1  0  0  0
 39 67  2  0  0  0
 40 52  1  0  0  0
 40 53  2  0  0  0
 40 58  1  0  0  0
 41110  1  0  0  0
 41111  1  0  0  0
 41112  1  0  0  0
 41 48  1  0  0  0
 42 43  1  0  0  0
 42 66  1  0  0  0
 42113  1  0  0  0
 42114  1  0  0  0
 43 44  1  0  0  0
 44115  1  0  0  0
 45 46  2  0  0  0
 45116  1  0  0  0
 46117  1  0  0  0
 47118  1  0  0  0
 47119  1  0  0  0
 48 56  1  0  0  0
 48 65  1  0  0  0
 48120  1  0  0  0
 49 50  1  0  0  0
 49 53  1  0  0  0
 49 64  1  0  0  0
 49121  1  0  0  0
 50 51  1  0  0  0
 50122  1  0  0  0
 50123  1  0  0  0
 51 52  1  0  0  0
 51124  1  0  0  0
 51125  1  0  0  0
 52126  1  0  0  0
 52127  1  0  0  0
 53 54  1  0  0  0
 54 55  2  0  0  0
 54128  1  0  0  0
 55 57  1  0  0  0
 55129  1  0  0  0
 56 69  2  0  0  0
 57 58  2  0  0  0
 57130  1  0  0  0
 58131  1  0  0  0
 59 60  1  0  0  0
 59 61  1  0  0  0
 59 62  1  0  0  0
 60132  1  0  0  0
 60133  1  0  0  0
 60134  1  0  0  0
 61135  1  0  0  0
 61136  1  0  0  0
 61137  1  0  0  0
 62138  1  0  0  0
 62139  1  0  0  0
 62140  1  0  0  0
 63 65  1  0  0  0
 63141  1  0  0  0
 63142  1  0  0  0
 63143  1  0  0  0
 64144  1  0  0  0
 65145  1  0  0  0
 68 83  1  0  0  0
 71 72  2  0  0  0
 71 73  1  0  0  0
 71146  1  0  0  0
 72 75  1  0  0  0
 72147  1  0  0  0
 73 76  2  0  0  0
 73148  1  0  0  0
 74 75  2  0  0  0
 74 76  1  0  0  0
 74149  1  0  0  0
 75 79  1  0  0  0
 76 80  1  0  0  0
 77 81  1  0  0  0
 77 85  1  0  0  0
 77 86  2  0  0  0
 78 85  1  0  0  0
 78150  1  0  0  0
 78151  1  0  0  0
 78152  1  0  0  0
 79 84  1  0  0  0
 79153  1  0  0  0
 79154  1  0  0  0
 80 85  1  0  0  0
 80155  1  0  0  0
 80156  1  0  0  0
 81 82  1  0  0  0
 81157  1  0  0  0
 81158  1  0  0  0
 82 83  1  0  0  0
 82159  1  0  0  0
 82160  1  0  0  0
 83161  1  0  0  0
 83162  1  0  0  0
 84163  1  0  0  0
M  ISO  4   1 100  68 101  83 101  84 100
M  END
> <chiral flag>
0

> <version>
0

> <s_m_source_file>
/data/baiqing/PycharmProjects/Reinvent-master-3.2/result/LINK_invent/BTK/process_docking_weight1_custom_product_contain_oxygen_bond_distance_aromatic_linkinvent_7_9_3/rearranged_h_0050.sdf

> <i_m_source_file_index>
67

> <r_mmod_Potential_Energy-OPLS-2005>
-163.007995605469

> <r_mmod_Stretch_Energy-OPLS-2005>
35.4259490966797

> <r_mmod_Bend_Energy-OPLS-2005>
104.171600341797

> <r_mmod_Torsional_Energy-OPLS-2005>
201.095336914062

> <r_mmod_Improper_Torsional_Energy-OPLS-2005>
2.93996500968933

> <r_mmod_Van_der_Waal_Energy-OPLS-2005>
159.380752563477

> <r_mmod_Electrostatic_Energy-OPLS-2005>
-452.793182373047

> <r_mmod_Solvation_Energy-OPLS-2005>
-223.776977539062

> <b_mmod_Minimization_Converged-OPLS-2005>
0

> <r_mmod_RMS_Derivative-OPLS-2005>
3.92618298530579

$$$$
67
                    3D
 Structure written by MMmdl.
164173  0  0  1  0            999 V2000
  -30.6064  -14.6439   20.4926 C   0  0  0  0  0  0
  -30.4299  -12.3962   19.4502 C   0  0  0  0  0  0
  -29.5223  -12.5895   18.2118 C   0  0  0  0  0  0
  -28.0232  -12.4648   18.5731 C   0  0  0  0  0  0
  -27.6512  -13.2445   19.8661 C   0  0  2  0  0  0
  -28.6970  -13.0475   20.9858 C   0  0  0  0  0  0
  -25.2529  -13.8230   20.5619 C   0  0  0  0  0  0
  -24.1824  -13.0425   20.9080 C   0  0  0  0  0  0
  -24.6429  -11.6938   20.8629 C   0  0  0  0  0  0
  -23.9068  -10.4317   21.0300 C   0  0  0  0  0  0
  -24.3629   -9.4269   21.9110 C   0  0  0  0  0  0
  -23.6319   -8.2298   22.0731 C   0  0  0  0  0  0
  -22.4311   -8.0303   21.3522 C   0  0  0  0  0  0
  -21.9897   -9.0250   20.4619 C   0  0  0  0  0  0
  -22.7206  -10.2134   20.2978 C   0  0  0  0  0  0
  -21.6917   -6.0715   22.5229 C   0  0  0  0  0  0
  -21.4060   -6.5618   23.8165 C   0  0  0  0  0  0
  -21.3675   -5.6767   24.9126 C   0  0  0  0  0  0
  -21.6035   -4.3021   24.7176 C   0  0  0  0  0  0
  -21.8842   -3.8116   23.4298 C   0  0  0  0  0  0
  -21.9225   -4.6932   22.3352 C   0  0  0  0  0  0
  -22.7848  -13.5180   21.1784 C   0  0  0  0  0  0
  -22.1709   -4.2139   21.0929 F   0  0  0  0  0  0
  -21.5612   -3.4489   25.7672 F   0  0  0  0  0  0
  -30.0106  -13.4088   20.4355 N   0  0  0  0  0  0
  -26.2980  -12.9442   20.3261 N   0  0  0  0  0  0
  -25.9370  -11.6584   20.5609 N   0  0  0  0  0  0
  -22.0577  -12.8160   22.0400 N   0  0  0  0  0  0
  -25.4177  -15.1950   20.4101 N   0  0  0  0  0  0
  -31.7568  -14.8254   20.0841 O   0  0  0  0  0  0
  -21.6735   -6.8853   21.4185 O   0  0  0  0  0  0
  -22.3450  -14.5457   20.6633 O   0  0  0  0  0  0
  -24.6176  -31.8614   23.1994 C   0  0  0  0  0  0
  -25.9029  -32.4783   23.8352 C   0  0  1  0  0  0
  -27.2472  -27.3321   20.1755 C   0  0  0  0  0  0
  -25.5882  -33.8579   24.2267 N   0  0  0  0  0  0
  -23.4137  -30.4767   21.5379 C   0  0  2  0  0  0
  -24.8743  -28.9167   20.1298 C   0  0  0  0  0  0
  -22.7405  -29.4651   22.4919 C   0  0  0  0  0  0
  -18.0265  -28.1375   22.8478 C   0  0  0  0  0  0
  -24.1517  -36.7275   23.2633 C   0  0  0  0  0  0
  -25.9511  -30.7963   21.3754 C   0  0  0  0  0  0
  -26.0311  -29.4183   20.7348 C   0  0  0  0  0  0
  -27.2203  -28.6343   20.7540 C   0  0  0  0  0  0
  -26.0700  -26.8641   19.5576 C   0  0  0  0  0  0
  -24.8917  -27.6418   19.5328 C   0  0  0  0  0  0
  -23.6335  -29.7874   20.1623 C   0  0  0  0  0  0
  -25.4137  -36.3063   24.0319 C   0  0  1  0  0  0
  -20.5870  -28.3671   23.1272 C   0  0  2  0  0  0
  -20.6750  -26.9394   22.5383 C   0  0  0  0  0  0
  -19.5725  -26.6371   21.5197 C   0  0  0  0  0  0
  -18.1926  -26.7918   22.1629 C   0  0  0  0  0  0
  -19.1514  -28.8839   23.2885 C   0  0  0  0  0  0
  -18.9456  -30.1451   23.8892 C   0  0  0  0  0  0
  -17.6459  -30.6594   24.0564 C   0  0  0  0  0  0
  -25.9068  -34.9439   23.5103 C   0  0  0  0  0  0
  -16.5354  -29.9088   23.6340 C   0  0  0  0  0  0
  -16.7254  -28.6500   23.0365 C   0  0  0  0  0  0
  -26.4419  -31.6581   25.0719 C   0  0  0  0  0  0
  -25.3623  -31.3786   26.1406 C   0  0  0  0  0  0
  -27.0261  -30.2991   24.6215 C   0  0  0  0  0  0
  -27.5991  -32.4266   25.7554 C   0  0  0  0  0  0
  -27.5602  -37.1794   24.8439 C   0  0  0  0  0  0
  -21.4130  -29.3044   22.3659 N   0  0  0  0  0  0
  -26.4304  -37.3771   23.9398 N   0  0  0  0  0  0
  -24.6772  -31.0661   22.0927 N   0  0  0  0  0  0
  -23.4168  -28.8212   23.2993 O   0  0  0  0  0  0
  -28.4189  -26.5778   20.0856 O   0  0  0  0  0  0
  -26.5651  -34.8889   22.4684 O   0  0  0  0  0  0
  -23.5332  -32.1388   23.7333 O   0  0  0  0  0  0
  -29.1819  -19.0343   19.2603 C   0  0  0  0  0  0
  -29.3278  -17.6364   19.4459 C   0  0  0  0  0  0
  -29.4488  -19.9961   20.2686 C   0  0  0  0  0  0
  -29.9180  -19.4668   21.5256 C   0  0  0  0  0  0
  -30.1701  -18.0477   21.6747 C   0  0  0  0  0  0
  -29.8392  -17.1074   20.6504 C   0  0  0  0  0  0
  -30.6442  -23.0956   20.8990 C   0  0  0  0  0  0
  -30.7585  -24.2547   21.8907 C   0  0  0  0  0  0
  -30.1086  -25.5402   21.3653 C   0  0  0  0  0  0
  -28.4612  -23.9430   20.1550 C   0  0  0  0  0  0
  -28.6562  -25.3564   20.8770 C   0  0  2  0  0  0
  -30.1206  -20.3523   22.7534 C   0  0  0  0  0  0
  -30.7938  -17.4764   22.9492 C   0  0  0  0  0  0
  -29.0940  -21.4781   19.8053 C   0  0  0  0  0  0
  -29.4004  -22.7917   20.4741 N   0  0  0  0  0  0
  -29.7926  -15.6675   20.8976 N   0  0  0  0  0  0
  -31.6480  -22.4406   20.6081 O   0  0  0  0  0  0
  -31.4863  -12.4931   19.1858 H   0  0  0  0  0  0
  -30.3081  -11.3912   19.8602 H   0  0  0  0  0  0
  -29.7915  -11.8930   17.4187 H   0  0  0  0  0  0
  -29.7046  -13.5847   17.7980 H   0  0  0  0  0  0
  -27.7515  -11.4087   18.6489 H   0  0  0  0  0  0
  -27.4264  -12.8646   17.7508 H   0  0  0  0  0  0
  -27.6702  -14.3004   19.5921 H   0  0  0  0  0  0
  -28.7064  -12.0008   21.2955 H   0  0  0  0  0  0
  -28.4392  -13.6208   21.8782 H   0  0  0  0  0  0
  -25.2807   -9.5789   22.4616 H   0  0  0  0  0  0
  -24.0089   -7.4686   22.7432 H   0  0  0  0  0  0
  -21.0868   -8.8709   19.8888 H   0  0  0  0  0  0
  -22.3685  -10.9633   19.6028 H   0  0  0  0  0  0
  -21.2129   -7.6146   23.9640 H   0  0  0  0  0  0
  -21.1466   -6.0516   25.9027 H   0  0  0  0  0  0
  -22.0636   -2.7581   23.2792 H   0  0  0  0  0  0
  -22.4387  -11.9950   22.4852 H   0  0  0  0  0  0
  -21.1103  -13.1000   22.2519 H   0  0  0  0  0  0
  -24.6384  -15.8394   20.4993 H   0  0  0  0  0  0
  -26.2646  -15.6512   20.0908 H   0  0  0  0  0  0
  -26.7122  -32.5451   23.1127 H   0  0  0  0  0  0
  -24.9953  -33.9746   25.0351 H   0  0  0  0  0  0
  -22.7032  -31.2918   21.3774 H   0  0  0  0  0  0
  -23.3800  -35.9597   23.3252 H   0  0  0  0  0  0
  -24.3620  -36.8919   22.2057 H   0  0  0  0  0  0
  -23.7221  -37.6443   23.6683 H   0  0  0  0  0  0
  -26.0782  -31.5588   20.6045 H   0  0  0  0  0  0
  -26.8271  -30.8558   22.0077 H   0  0  0  0  0  0
  -28.1100  -29.0241   21.2289 H   0  0  0  0  0  0
  -26.0699  -25.8907   19.0907 H   0  0  0  0  0  0
  -24.0012  -27.2433   19.0642 H   0  0  0  0  0  0
  -23.7355  -30.5429   19.3834 H   0  0  0  0  0  0
  -22.7646  -29.1905   19.8799 H   0  0  0  0  0  0
  -25.1342  -36.1940   25.0823 H   0  0  0  0  0  0
  -20.9992  -28.3241   24.1381 H   0  0  0  0  0  0
  -20.5656  -26.2296   23.3580 H   0  0  0  0  0  0
  -21.6619  -26.7407   22.1189 H   0  0  0  0  0  0
  -19.6908  -25.6283   21.1237 H   0  0  0  0  0  0
  -19.6695  -27.3172   20.6728 H   0  0  0  0  0  0
  -17.4188  -26.6632   21.4050 H   0  0  0  0  0  0
  -18.0351  -26.0084   22.9051 H   0  0  0  0  0  0
  -19.7938  -30.7263   24.2279 H   0  0  0  0  0  0
  -17.5023  -31.6292   24.5123 H   0  0  0  0  0  0
  -15.5366  -30.3012   23.7664 H   0  0  0  0  0  0
  -15.8643  -28.0831   22.7105 H   0  0  0  0  0  0
  -24.5722  -30.7268   25.7658 H   0  0  0  0  0  0
  -24.8920  -32.3012   26.4842 H   0  0  0  0  0  0
  -25.7846  -30.8859   27.0172 H   0  0  0  0  0  0
  -26.2926  -29.6822   24.1001 H   0  0  0  0  0  0
  -27.3644  -29.7172   25.4801 H   0  0  0  0  0  0
  -27.8920  -30.4232   23.9702 H   0  0  0  0  0  0
  -27.2587  -33.3474   26.2316 H   0  0  0  0  0  0
  -28.3788  -32.6945   25.0414 H   0  0  0  0  0  0
  -28.0688  -31.8247   26.5334 H   0  0  0  0  0  0
  -28.2563  -38.0152   24.7552 H   0  0  0  0  0  0
  -28.1169  -36.2667   24.6227 H   0  0  0  0  0  0
  -27.2306  -37.1357   25.8836 H   0  0  0  0  0  0
  -20.9278  -29.8729   21.6846 H   0  0  0  0  0  0
  -26.0184  -38.2863   24.1387 H   0  0  0  0  0  0
  -28.7885  -19.3773   18.3133 H   0  0  0  0  0  0
  -29.0109  -16.9810   18.6452 H   0  0  0  0  0  0
  -31.8060  -24.4278   22.1483 H   0  0  0  0  0  0
  -30.2520  -23.9610   22.8132 H   0  0  0  0  0  0
  -30.7438  -25.9651   20.5863 H   0  0  0  0  0  0
  -30.1016  -26.2691   22.1760 H   0  0  0  0  0  0
  -28.4885  -24.1038   19.0753 H   0  0  0  0  0  0
  -27.4488  -23.5971   20.3603 H   0  0  0  0  0  0
  -28.0113  -25.3566   21.7611 H   0  0  0  0  0  0
  -29.6073  -21.3072   22.6997 H   0  0  0  0  0  0
  -31.1884  -20.5212   22.9147 H   0  0  0  0  0  0
  -29.7233  -19.8626   23.6459 H   0  0  0  0  0  0
  -30.0441  -16.9584   23.5449 H   0  0  0  0  0  0
  -31.3004  -18.2122   23.5773 H   0  0  0  0  0  0
  -31.5542  -16.7441   22.6682 H   0  0  0  0  0  0
  -28.0153  -21.4644   19.6550 H   0  0  0  0  0  0
  -29.5122  -21.5702   18.7976 H   0  0  0  0  0  0
  -28.9001  -15.3385   21.2251 H   0  0  0  0  0  0
  1 25  1  0  0  0
  1 30  2  0  0  0
  1 86  1  0  0  0
  2  3  1  0  0  0
  2 25  1  0  0  0
  2 88  1  0  0  0
  2 89  1  0  0  0
  3  4  1  0  0  0
  3 90  1  0  0  0
  3 91  1  0  0  0
  4  5  1  0  0  0
  4 92  1  0  0  0
  4 93  1  0  0  0
  5  6  1  0  0  0
  5 26  1  0  0  0
  5 94  1  0  0  0
  6 25  1  0  0  0
  6 95  1  0  0  0
  6 96  1  0  0  0
  7  8  2  0  0  0
  7 26  1  0  0  0
  7 29  1  0  0  0
  8  9  1  0  0  0
  8 22  1  0  0  0
  9 10  1  0  0  0
  9 27  2  0  0  0
 10 11  2  0  0  0
 10 15  1  0  0  0
 11 12  1  0  0  0
 11 97  1  0  0  0
 12 13  2  0  0  0
 12 98  1  0  0  0
 13 14  1  0  0  0
 13 31  1  0  0  0
 14 15  2  0  0  0
 14 99  1  0  0  0
 15100  1  0  0  0
 16 17  2  0  0  0
 16 21  1  0  0  0
 16 31  1  0  0  0
 17 18  1  0  0  0
 17101  1  0  0  0
 18 19  2  0  0  0
 18102  1  0  0  0
 19 20  1  0  0  0
 19 24  1  0  0  0
 20 21  2  0  0  0
 20103  1  0  0  0
 21 23  1  0  0  0
 22 28  1  0  0  0
 22 32  2  0  0  0
 26 27  1  0  0  0
 28104  1  0  0  0
 28105  1  0  0  0
 29106  1  0  0  0
 29107  1  0  0  0
 33 34  1  0  0  0
 33 66  1  0  0  0
 33 70  2  0  0  0
 34 36  1  0  0  0
 34 59  1  0  0  0
 34108  1  0  0  0
 35 44  2  0  0  0
 35 45  1  0  0  0
 35 68  1  0  0  0
 36 56  1  0  0  0
 36109  1  0  0  0
 37 39  1  0  0  0
 37 47  1  0  0  0
 37 66  1  0  0  0
 37110  1  0  0  0
 38 43  2  0  0  0
 38 46  1  0  0  0
 38 47  1  0  0  0
 39 64  1  0  0  0
 39 67  2  0  0  0
 40 52  1  0  0  0
 40 53  2  0  0  0
 40 58  1  0  0  0
 41111  1  0  0  0
 41112  1  0  0  0
 41113  1  0  0  0
 41 48  1  0  0  0
 42 43  1  0  0  0
 42 66  1  0  0  0
 42114  1  0  0  0
 42115  1  0  0  0
 43 44  1  0  0  0
 44116  1  0  0  0
 45 46  2  0  0  0
 45117  1  0  0  0
 46118  1  0  0  0
 47119  1  0  0  0
 47120  1  0  0  0
 48 56  1  0  0  0
 48 65  1  0  0  0
 48121  1  0  0  0
 49 50  1  0  0  0
 49 53  1  0  0  0
 49 64  1  0  0  0
 49122  1  0  0  0
 50 51  1  0  0  0
 50123  1  0  0  0
 50124  1  0  0  0
 51 52  1  0  0  0
 51125  1  0  0  0
 51126  1  0  0  0
 52127  1  0  0  0
 52128  1  0  0  0
 53 54  1  0  0  0
 54 55  2  0  0  0
 54129  1  0  0  0
 55 57  1  0  0  0
 55130  1  0  0  0
 56 69  2  0  0  0
 57 58  2  0  0  0
 57131  1  0  0  0
 58132  1  0  0  0
 59 60  1  0  0  0
 59 61  1  0  0  0
 59 62  1  0  0  0
 60133  1  0  0  0
 60134  1  0  0  0
 60135  1  0  0  0
 61136  1  0  0  0
 61137  1  0  0  0
 61138  1  0  0  0
 62139  1  0  0  0
 62140  1  0  0  0
 62141  1  0  0  0
 63 65  1  0  0  0
 63142  1  0  0  0
 63143  1  0  0  0
 63144  1  0  0  0
 64145  1  0  0  0
 65146  1  0  0  0
 68 81  1  0  0  0
 71 72  2  0  0  0
 71 73  1  0  0  0
 71147  1  0  0  0
 72 76  1  0  0  0
 72148  1  0  0  0
 73 74  2  0  0  0
 73 84  1  0  0  0
 74 75  1  0  0  0
 74 82  1  0  0  0
 75 76  2  0  0  0
 75 83  1  0  0  0
 76 86  1  0  0  0
 77 78  1  0  0  0
 77 85  1  0  0  0
 77 87  2  0  0  0
 78 79  1  0  0  0
 78149  1  0  0  0
 78150  1  0  0  0
 79 81  1  0  0  0
 79151  1  0  0  0
 79152  1  0  0  0
 80 81  1  0  0  0
 80 85  1  0  0  0
 80153  1  0  0  0
 80154  1  0  0  0
 81155  1  0  0  0
 82156  1  0  0  0
 82157  1  0  0  0
 82158  1  0  0  0
 83159  1  0  0  0
 83160  1  0  0  0
 83161  1  0  0  0
 84 85  1  0  0  0
 84162  1  0  0  0
 84163  1  0  0  0
 86164  1  0  0  0
M  ISO  4   1 100  68 101  81 101  86 100
M  END
> <chiral flag>
0

> <version>
0

> <s_m_source_file>
/data/baiqing/PycharmProjects/Reinvent-master-3.2/result/LINK_invent/BTK/process_docking_weight1_custom_product_contain_oxygen_bond_distance_aromatic_linkinvent_7_9_3/rearranged_h_0050.sdf

> <i_m_source_file_index>
68

> <r_mmod_Potential_Energy-OPLS-2005>
116.287155151367

> <r_mmod_Stretch_Energy-OPLS-2005>
88.7507629394531

> <r_mmod_Bend_Energy-OPLS-2005>
188.91389465332

> <r_mmod_Torsional_Energy-OPLS-2005>
309.232391357422

> <r_mmod_Improper_Torsional_Energy-OPLS-2005>
8.24563026428223

> <r_mmod_Van_der_Waal_Energy-OPLS-2005>
143.521026611328

> <r_mmod_Electrostatic_Energy-OPLS-2005>
-428.626159667969

> <r_mmod_Solvation_Energy-OPLS-2005>
-236.998062133789

> <b_mmod_Minimization_Converged-OPLS-2005>
0

> <r_mmod_RMS_Derivative-OPLS-2005>
7.68524265289307

$$$$
68
                    3D
 Structure written by MMmdl.
157165  0  0  1  0            999 V2000
  -30.6734  -14.5104   20.5975 C   0  0  0  0  0  0
  -30.4408  -12.3357   19.4349 C   0  0  0  0  0  0
  -29.5079  -12.5085   18.2177 C   0  0  0  0  0  0
  -28.0302  -12.3476   18.6251 C   0  0  0  0  0  0
  -27.6623  -13.1982   19.8687 C   0  0  2  0  0  0
  -28.6999  -12.9917   20.9959 C   0  0  0  0  0  0
  -25.2635  -13.8107   20.5765 C   0  0  0  0  0  0
  -24.1844  -13.0399   20.9144 C   0  0  0  0  0  0
  -24.6379  -11.6864   20.8708 C   0  0  0  0  0  0
  -23.9036  -10.4272   21.0404 C   0  0  0  0  0  0
  -24.3582   -9.4187   21.9188 C   0  0  0  0  0  0
  -23.6259   -8.2227   22.0744 C   0  0  0  0  0  0
  -22.4247   -8.0276   21.3533 C   0  0  0  0  0  0
  -21.9885   -9.0260   20.4633 C   0  0  0  0  0  0
  -22.7203  -10.2137   20.3054 C   0  0  0  0  0  0
  -21.6846   -6.0716   22.5284 C   0  0  0  0  0  0
  -21.3992   -6.5623   23.8217 C   0  0  0  0  0  0
  -21.3671   -5.6770   24.9180 C   0  0  0  0  0  0
  -21.6054   -4.3040   24.7229 C   0  0  0  0  0  0
  -21.8819   -3.8126   23.4361 C   0  0  0  0  0  0
  -21.9180   -4.6941   22.3405 C   0  0  0  0  0  0
  -22.7880  -13.5246   21.1827 C   0  0  0  0  0  0
  -22.1661   -4.2130   21.0995 F   0  0  0  0  0  0
  -21.5628   -3.4527   25.7744 F   0  0  0  0  0  0
  -30.0317  -13.3156   20.4539 N   0  0  0  0  0  0
  -26.3033  -12.9262   20.3326 N   0  0  0  0  0  0
  -25.9308  -11.6434   20.5708 N   0  0  0  0  0  0
  -22.0487  -12.8292   22.0408 N   0  0  0  0  0  0
  -25.4454  -15.1843   20.4491 N   0  0  0  0  0  0
  -31.7951  -14.7280   20.1338 O   0  0  0  0  0  0
  -21.6627   -6.8876   21.4246 O   0  0  0  0  0  0
  -22.3620  -14.5578   20.6678 O   0  0  0  0  0  0
  -24.6188  -31.8653   23.2065 C   0  0  0  0  0  0
  -25.9062  -32.4808   23.8366 C   0  0  1  0  0  0
  -27.2420  -27.3991   20.1053 C   0  0  0  0  0  0
  -25.5925  -33.8605   24.2336 N   0  0  0  0  0  0
  -23.4086  -30.4863   21.5491 C   0  0  2  0  0  0
  -24.8542  -28.9426   20.1192 C   0  0  0  0  0  0
  -22.7449  -29.4631   22.5010 C   0  0  0  0  0  0
  -18.0279  -28.1396   22.8482 C   0  0  0  0  0  0
  -24.1482  -36.7302   23.2633 C   0  0  0  0  0  0
  -25.9377  -30.8229   21.3592 C   0  0  0  0  0  0
  -26.0149  -29.4502   20.7151 C   0  0  0  0  0  0
  -27.2041  -28.6823   20.7067 C   0  0  0  0  0  0
  -26.0538  -26.9080   19.5129 C   0  0  0  0  0  0
  -24.8703  -27.6719   19.5198 C   0  0  0  0  0  0
  -23.6200  -29.8171   20.1639 C   0  0  0  0  0  0
  -25.4096  -36.3116   24.0362 C   0  0  1  0  0  0
  -20.5870  -28.3684   23.1332 C   0  0  2  0  0  0
  -20.6777  -26.9423   22.5431 C   0  0  0  0  0  0
  -19.5738  -26.6404   21.5237 C   0  0  0  0  0  0
  -18.1913  -26.7942   22.1636 C   0  0  0  0  0  0
  -19.1529  -28.8851   23.2896 C   0  0  0  0  0  0
  -18.9463  -30.1454   23.8910 C   0  0  0  0  0  0
  -17.6458  -30.6584   24.0569 C   0  0  0  0  0  0
  -25.9032  -34.9481   23.5148 C   0  0  0  0  0  0
  -16.5347  -29.9092   23.6319 C   0  0  0  0  0  0
  -16.7269  -28.6519   23.0330 C   0  0  0  0  0  0
  -26.4489  -31.6587   25.0690 C   0  0  0  0  0  0
  -25.3761  -31.3708   26.1460 C   0  0  0  0  0  0
  -27.0301  -30.3020   24.6033 C   0  0  0  0  0  0
  -27.6080  -32.4288   25.7450 C   0  0  0  0  0  0
  -27.5592  -37.1803   24.8465 C   0  0  0  0  0  0
  -21.4169  -29.3036   22.3743 N   0  0  0  0  0  0
  -26.4288  -37.3799   23.9448 N   0  0  0  0  0  0
  -24.6741  -31.0734   22.0976 N   0  0  0  0  0  0
  -23.4195  -28.8189   23.3076 O   0  0  0  0  0  0
  -28.4337  -26.6889   20.1409 O   0  0  0  0  0  0
  -26.5584  -34.8926   22.4691 O   0  0  0  0  0  0
  -23.5361  -32.1436   23.7438 O   0  0  0  0  0  0
  -30.3900  -19.6083   22.0779 C   0  0  0  0  0  0
  -30.7027  -17.2516   22.6385 C   0  0  0  0  0  0
  -29.8674  -19.2655   20.8096 C   0  0  0  0  0  0
  -29.7965  -17.8810   20.4524 C   0  0  0  0  0  0
  -30.2011  -16.8677   21.3772 C   0  0  0  0  0  0
  -30.8048  -18.6123   22.9832 C   0  0  0  0  0  0
  -28.9042  -22.8246   19.6530 C   0  0  0  0  0  0
  -29.2550  -17.4816   19.0828 C   0  0  0  0  0  0
  -29.3941  -20.3751   19.8405 C   0  0  0  0  0  0
  -28.5260  -24.1518   20.3610 C   0  0  0  0  0  0
  -28.6075  -25.4257   19.4585 C   0  0  0  0  0  0
  -29.9208  -15.4784   21.1662 N   0  0  0  0  0  0
  -29.1055  -21.7153   20.4005 N   0  0  0  0  0  0
  -29.0023  -22.7940   18.4228 O   0  0  0  0  0  0
  -31.4056  -19.0668   24.5380 Cl  0  0  0  0  0  0
  -31.4845  -12.4640   19.1427 H   0  0  0  0  0  0
  -30.3640  -11.3252   19.8369 H   0  0  0  0  0  0
  -29.7605  -11.7886   17.4389 H   0  0  0  0  0  0
  -29.6533  -13.4956   17.7789 H   0  0  0  0  0  0
  -27.8531  -11.2917   18.8355 H   0  0  0  0  0  0
  -27.3855  -12.6037   17.7823 H   0  0  0  0  0  0
  -27.7001  -14.2407   19.5563 H   0  0  0  0  0  0
  -28.6842  -11.9568   21.3374 H   0  0  0  0  0  0
  -28.4406  -13.5836   21.8723 H   0  0  0  0  0  0
  -25.2731   -9.5659   22.4743 H   0  0  0  0  0  0
  -23.9934   -7.4619   22.7473 H   0  0  0  0  0  0
  -21.0797   -8.8826   19.8959 H   0  0  0  0  0  0
  -22.3684  -10.9690   19.6170 H   0  0  0  0  0  0
  -21.1996   -7.6129   23.9728 H   0  0  0  0  0  0
  -21.1492   -6.0503   25.9087 H   0  0  0  0  0  0
  -22.0593   -2.7585   23.2881 H   0  0  0  0  0  0
  -22.4031  -11.9918   22.4778 H   0  0  0  0  0  0
  -21.1135  -13.1429   22.2626 H   0  0  0  0  0  0
  -24.7076  -15.8501   20.6504 H   0  0  0  0  0  0
  -26.3361  -15.6261   20.2644 H   0  0  0  0  0  0
  -26.7137  -32.5531   23.1136 H   0  0  0  0  0  0
  -25.0130  -33.9759   25.0519 H   0  0  0  0  0  0
  -22.6969  -31.3023   21.4084 H   0  0  0  0  0  0
  -23.3771  -35.9603   23.3256 H   0  0  0  0  0  0
  -24.3571  -36.8934   22.2050 H   0  0  0  0  0  0
  -23.7194  -37.6483   23.6638 H   0  0  0  0  0  0
  -26.0365  -31.5823   20.5818 H   0  0  0  0  0  0
  -26.8282  -30.8897   21.9716 H   0  0  0  0  0  0
  -28.1003  -29.0706   21.1708 H   0  0  0  0  0  0
  -26.0106  -25.9317   19.0575 H   0  0  0  0  0  0
  -23.9763  -27.2710   19.0642 H   0  0  0  0  0  0
  -23.7397  -30.5920   19.4058 H   0  0  0  0  0  0
  -22.7405  -29.2479   19.8582 H   0  0  0  0  0  0
  -25.1251  -36.1980   25.0856 H   0  0  0  0  0  0
  -20.9930  -28.3261   24.1465 H   0  0  0  0  0  0
  -20.5717  -26.2290   23.3614 H   0  0  0  0  0  0
  -21.6648  -26.7480   22.1203 H   0  0  0  0  0  0
  -19.6898  -25.6330   21.1224 H   0  0  0  0  0  0
  -19.6659  -27.3260   20.6797 H   0  0  0  0  0  0
  -17.4191  -26.6700   21.4030 H   0  0  0  0  0  0
  -18.0286  -26.0086   22.9020 H   0  0  0  0  0  0
  -19.7938  -30.7276   24.2288 H   0  0  0  0  0  0
  -17.5013  -31.6262   24.5193 H   0  0  0  0  0  0
  -15.5351  -30.3004   23.7636 H   0  0  0  0  0  0
  -15.8672  -28.0857   22.7015 H   0  0  0  0  0  0
  -24.5954  -30.7006   25.7846 H   0  0  0  0  0  0
  -24.8921  -32.2865   26.4862 H   0  0  0  0  0  0
  -25.8144  -30.8939   27.0235 H   0  0  0  0  0  0
  -26.2825  -29.6796   24.1098 H   0  0  0  0  0  0
  -27.4114  -29.7230   25.4458 H   0  0  0  0  0  0
  -27.8631  -30.4345   23.9123 H   0  0  0  0  0  0
  -27.2724  -33.3604   26.2009 H   0  0  0  0  0  0
  -28.3893  -32.6822   25.0276 H   0  0  0  0  0  0
  -28.0724  -31.8396   26.5368 H   0  0  0  0  0  0
  -28.2603  -38.0115   24.7573 H   0  0  0  0  0  0
  -28.1098  -36.2664   24.6202 H   0  0  0  0  0  0
  -27.2311  -37.1348   25.8861 H   0  0  0  0  0  0
  -20.9361  -29.8759   21.6942 H   0  0  0  0  0  0
  -26.0182  -38.2860   24.1487 H   0  0  0  0  0  0
  -30.4745  -20.6416   22.3775 H   0  0  0  0  0  0
  -30.9828  -16.5048   23.3689 H   0  0  0  0  0  0
  -29.6187  -18.1576   18.3067 H   0  0  0  0  0  0
  -28.1657  -17.5094   19.0781 H   0  0  0  0  0  0
  -29.5747  -16.4818   18.7891 H   0  0  0  0  0  0
  -28.4838  -20.0363   19.3488 H   0  0  0  0  0  0
  -30.1453  -20.4773   19.0550 H   0  0  0  0  0  0
  -29.1943  -24.2719   21.2133 H   0  0  0  0  0  0
  -27.5189  -24.0498   20.7630 H   0  0  0  0  0  0
  -27.9657  -25.3311   18.5843 H   0  0  0  0  0  0
  -29.6153  -25.4703   19.0449 H   0  0  0  0  0  0
  -29.0216  -15.1620   21.4941 H   0  0  0  0  0  0
  -28.9789  -21.7822   21.4009 H   0  0  0  0  0  0
  1 25  1  0  0  0
  1 30  2  0  0  0
  1 82  1  0  0  0
  2  3  1  0  0  0
  2 25  1  0  0  0
  2 86  1  0  0  0
  2 87  1  0  0  0
  3  4  1  0  0  0
  3 88  1  0  0  0
  3 89  1  0  0  0
  4  5  1  0  0  0
  4 90  1  0  0  0
  4 91  1  0  0  0
  5  6  1  0  0  0
  5 26  1  0  0  0
  5 92  1  0  0  0
  6 25  1  0  0  0
  6 93  1  0  0  0
  6 94  1  0  0  0
  7  8  2  0  0  0
  7 26  1  0  0  0
  7 29  1  0  0  0
  8  9  1  0  0  0
  8 22  1  0  0  0
  9 10  1  0  0  0
  9 27  2  0  0  0
 10 11  2  0  0  0
 10 15  1  0  0  0
 11 12  1  0  0  0
 11 95  1  0  0  0
 12 13  2  0  0  0
 12 96  1  0  0  0
 13 14  1  0  0  0
 13 31  1  0  0  0
 14 15  2  0  0  0
 14 97  1  0  0  0
 15 98  1  0  0  0
 16 17  2  0  0  0
 16 21  1  0  0  0
 16 31  1  0  0  0
 17 18  1  0  0  0
 17 99  1  0  0  0
 18 19  2  0  0  0
 18100  1  0  0  0
 19 20  1  0  0  0
 19 24  1  0  0  0
 20 21  2  0  0  0
 20101  1  0  0  0
 21 23  1  0  0  0
 22 28  1  0  0  0
 22 32  2  0  0  0
 26 27  1  0  0  0
 28102  1  0  0  0
 28103  1  0  0  0
 29104  1  0  0  0
 29105  1  0  0  0
 33 34  1  0  0  0
 33 66  1  0  0  0
 33 70  2  0  0  0
 34 36  1  0  0  0
 34 59  1  0  0  0
 34106  1  0  0  0
 35 44  2  0  0  0
 35 45  1  0  0  0
 35 68  1  0  0  0
 36 56  1  0  0  0
 36107  1  0  0  0
 37 39  1  0  0  0
 37 47  1  0  0  0
 37 66  1  0  0  0
 37108  1  0  0  0
 38 43  2  0  0  0
 38 46  1  0  0  0
 38 47  1  0  0  0
 39 64  1  0  0  0
 39 67  2  0  0  0
 40 52  1  0  0  0
 40 53  2  0  0  0
 40 58  1  0  0  0
 41109  1  0  0  0
 41110  1  0  0  0
 41111  1  0  0  0
 41 48  1  0  0  0
 42 43  1  0  0  0
 42 66  1  0  0  0
 42112  1  0  0  0
 42113  1  0  0  0
 43 44  1  0  0  0
 44114  1  0  0  0
 45 46  2  0  0  0
 45115  1  0  0  0
 46116  1  0  0  0
 47117  1  0  0  0
 47118  1  0  0  0
 48 56  1  0  0  0
 48 65  1  0  0  0
 48119  1  0  0  0
 49 50  1  0  0  0
 49 53  1  0  0  0
 49 64  1  0  0  0
 49120  1  0  0  0
 50 51  1  0  0  0
 50121  1  0  0  0
 50122  1  0  0  0
 51 52  1  0  0  0
 51123  1  0  0  0
 51124  1  0  0  0
 52125  1  0  0  0
 52126  1  0  0  0
 53 54  1  0  0  0
 54 55  2  0  0  0
 54127  1  0  0  0
 55 57  1  0  0  0
 55128  1  0  0  0
 56 69  2  0  0  0
 57 58  2  0  0  0
 57129  1  0  0  0
 58130  1  0  0  0
 59 60  1  0  0  0
 59 61  1  0  0  0
 59 62  1  0  0  0
 60131  1  0  0  0
 60132  1  0  0  0
 60133  1  0  0  0
 61134  1  0  0  0
 61135  1  0  0  0
 61136  1  0  0  0
 62137  1  0  0  0
 62138  1  0  0  0
 62139  1  0  0  0
 63 65  1  0  0  0
 63140  1  0  0  0
 63141  1  0  0  0
 63142  1  0  0  0
 64143  1  0  0  0
 65144  1  0  0  0
 68 81  1  0  0  0
 71 73  2  0  0  0
 71 76  1  0  0  0
 71145  1  0  0  0
 72 75  1  0  0  0
 72 76  2  0  0  0
 72146  1  0  0  0
 73 74  1  0  0  0
 73 79  1  0  0  0
 74 75  2  0  0  0
 74 78  1  0  0  0
 75 82  1  0  0  0
 76 85  1  0  0  0
 77 80  1  0  0  0
 77 83  1  0  0  0
 77 84  2  0  0  0
 78147  1  0  0  0
 78148  1  0  0  0
 78149  1  0  0  0
 79 83  1  0  0  0
 79150  1  0  0  0
 79151  1  0  0  0
 80 81  1  0  0  0
 80152  1  0  0  0
 80153  1  0  0  0
 81154  1  0  0  0
 81155  1  0  0  0
 82156  1  0  0  0
 83157  1  0  0  0
M  ISO  4   1 100  68 101  81 101  82 100
M  END
> <chiral flag>
0

> <version>
0

> <s_m_source_file>
/data/baiqing/PycharmProjects/Reinvent-master-3.2/result/LINK_invent/BTK/process_docking_weight1_custom_product_contain_oxygen_bond_distance_aromatic_linkinvent_7_9_3/rearranged_h_0050.sdf

> <i_m_source_file_index>
69

> <r_mmod_Potential_Energy-OPLS-2005>
-134.591278076172

> <r_mmod_Stretch_Energy-OPLS-2005>
46.4530410766602

> <r_mmod_Bend_Energy-OPLS-2005>
112.188911437988

> <r_mmod_Torsional_Energy-OPLS-2005>
225.667922973633

> <r_mmod_Improper_Torsional_Energy-OPLS-2005>
4.22494220733643

> <r_mmod_Van_der_Waal_Energy-OPLS-2005>
150.626541137695

> <r_mmod_Electrostatic_Energy-OPLS-2005>
-453.736755371094

> <r_mmod_Solvation_Energy-OPLS-2005>
-238.553070068359

> <b_mmod_Minimization_Converged-OPLS-2005>
0

> <r_mmod_RMS_Derivative-OPLS-2005>
4.5672550201416

$$$$
69
                    3D
 Structure written by MMmdl.
163171  0  0  1  0            999 V2000
  -30.7708  -14.3654   20.6968 C   0  0  0  0  0  0
  -30.4238  -12.2929   19.3985 C   0  0  0  0  0  0
  -29.4896  -12.5256   18.1958 C   0  0  0  0  0  0
  -28.0144  -12.3741   18.6118 C   0  0  0  0  0  0
  -27.6699  -13.1930   19.8825 C   0  0  2  0  0  0
  -28.7088  -12.9407   20.9989 C   0  0  0  0  0  0
  -25.2663  -13.8124   20.5729 C   0  0  0  0  0  0
  -24.1879  -13.0422   20.9182 C   0  0  0  0  0  0
  -24.6396  -11.6877   20.8734 C   0  0  0  0  0  0
  -23.9050  -10.4281   21.0414 C   0  0  0  0  0  0
  -24.3602   -9.4190   21.9185 C   0  0  0  0  0  0
  -23.6278   -8.2230   22.0753 C   0  0  0  0  0  0
  -22.4261   -8.0270   21.3545 C   0  0  0  0  0  0
  -21.9895   -9.0253   20.4650 C   0  0  0  0  0  0
  -22.7226  -10.2129   20.3063 C   0  0  0  0  0  0
  -21.6841   -6.0722   22.5289 C   0  0  0  0  0  0
  -21.4002   -6.5621   23.8221 C   0  0  0  0  0  0
  -21.3674   -5.6778   24.9191 C   0  0  0  0  0  0
  -21.6059   -4.3042   24.7239 C   0  0  0  0  0  0
  -21.8819   -3.8133   23.4357 C   0  0  0  0  0  0
  -21.9180   -4.6952   22.3414 C   0  0  0  0  0  0
  -22.7916  -13.5266   21.1848 C   0  0  0  0  0  0
  -22.1653   -4.2137   21.0992 F   0  0  0  0  0  0
  -21.5637   -3.4531   25.7752 F   0  0  0  0  0  0
  -30.0542  -13.2343   20.4665 N   0  0  0  0  0  0
  -26.3074  -12.9254   20.3402 N   0  0  0  0  0  0
  -25.9314  -11.6420   20.5761 N   0  0  0  0  0  0
  -22.0514  -12.8281   22.0394 N   0  0  0  0  0  0
  -25.4468  -15.1838   20.4229 N   0  0  0  0  0  0
  -31.7897  -14.6679   20.0675 O   0  0  0  0  0  0
  -21.6618   -6.8876   21.4245 O   0  0  0  0  0  0
  -22.3633  -14.5592   20.6722 O   0  0  0  0  0  0
  -24.6103  -31.8732   23.2164 C   0  0  0  0  0  0
  -25.9020  -32.4847   23.8422 C   0  0  1  0  0  0
  -27.2316  -27.4760   20.0683 C   0  0  0  0  0  0
  -25.5915  -33.8646   24.2358 N   0  0  0  0  0  0
  -23.3935  -30.4987   21.5595 C   0  0  2  0  0  0
  -24.8352  -28.9742   20.1179 C   0  0  0  0  0  0
  -22.7354  -29.4673   22.5041 C   0  0  0  0  0  0
  -18.0254  -28.1359   22.8506 C   0  0  0  0  0  0
  -24.1492  -36.7316   23.2638 C   0  0  0  0  0  0
  -25.9199  -30.8461   21.3672 C   0  0  0  0  0  0
  -25.9947  -29.4868   20.7096 C   0  0  0  0  0  0
  -27.1928  -28.7449   20.6841 C   0  0  0  0  0  0
  -26.0464  -26.9670   19.4833 C   0  0  0  0  0  0
  -24.8524  -27.7091   19.5093 C   0  0  0  0  0  0
  -23.5986  -29.8385   20.1707 C   0  0  0  0  0  0
  -25.4112  -36.3116   24.0336 C   0  0  1  0  0  0
  -20.5842  -28.3650   23.1358 C   0  0  2  0  0  0
  -20.6768  -26.9388   22.5477 C   0  0  0  0  0  0
  -19.5752  -26.6351   21.5268 C   0  0  0  0  0  0
  -18.1923  -26.7892   22.1660 C   0  0  0  0  0  0
  -19.1499  -28.8815   23.2923 C   0  0  0  0  0  0
  -18.9440  -30.1444   23.8898 C   0  0  0  0  0  0
  -17.6447  -30.6587   24.0538 C   0  0  0  0  0  0
  -25.9033  -34.9489   23.5132 C   0  0  0  0  0  0
  -16.5336  -29.9093   23.6312 C   0  0  0  0  0  0
  -16.7240  -28.6501   23.0338 C   0  0  0  0  0  0
  -26.4486  -31.6590   25.0712 C   0  0  0  0  0  0
  -25.3777  -31.3687   26.1473 C   0  0  0  0  0  0
  -27.0311  -30.3032   24.6048 C   0  0  0  0  0  0
  -27.6058  -32.4318   25.7474 C   0  0  0  0  0  0
  -27.5580  -37.1812   24.8460 C   0  0  0  0  0  0
  -21.4091  -29.3026   22.3760 N   0  0  0  0  0  0
  -26.4293  -37.3804   23.9409 N   0  0  0  0  0  0
  -24.6592  -31.0849   22.1068 N   0  0  0  0  0  0
  -23.4132  -28.8206   23.3054 O   0  0  0  0  0  0
  -28.4344  -26.8032   20.0510 O   0  0  0  0  0  0
  -26.5586  -34.8923   22.4690 O   0  0  0  0  0  0
  -23.5306  -32.1486   23.7574 O   0  0  0  0  0  0
  -27.5347  -18.4945   21.4983 C   0  0  0  0  0  0
  -29.9015  -18.6304   23.0047 C   0  0  0  0  0  0
  -27.7375  -19.5750   22.3777 C   0  0  0  0  0  0
  -28.9389  -19.6553   23.1319 C   0  0  0  0  0  0
  -29.6994  -17.5394   22.1312 C   0  0  0  0  0  0
  -28.5132  -17.4952   21.3548 C   0  0  0  0  0  0
  -26.7257  -23.8315   20.7126 C   0  0  0  0  0  0
  -27.8226  -24.5961   20.8315 C   0  0  0  0  0  0
  -26.7152  -20.6132   22.4330 C   0  0  0  0  0  0
  -29.2170  -20.8060   24.0915 C   0  0  0  0  0  0
  -30.7822  -16.4629   22.0555 C   0  0  0  0  0  0
  -26.1724  -23.0157   21.8523 C   0  0  0  0  0  0
  -28.4425  -25.4184   19.7207 C   0  0  0  0  0  0
  -25.5140  -20.3684   22.9519 N   0  0  0  0  0  0
  -30.3023  -15.1322   21.6870 N   0  0  0  0  0  0
  -27.0056  -21.8138   21.9304 N   0  3  0  0  0  0
  -28.2953  -16.5060   20.4558 F   0  0  0  0  0  0
  -31.4656  -12.4034   19.0918 H   0  0  0  0  0  0
  -30.3337  -11.2686   19.7646 H   0  0  0  0  0  0
  -29.7267  -11.8244   17.3945 H   0  0  0  0  0  0
  -29.6602  -13.5231   17.7885 H   0  0  0  0  0  0
  -27.8257  -11.3150   18.7886 H   0  0  0  0  0  0
  -27.3602  -12.6651   17.7895 H   0  0  0  0  0  0
  -27.7253  -14.2446   19.6035 H   0  0  0  0  0  0
  -28.6778  -11.8992   21.3202 H   0  0  0  0  0  0
  -28.4472  -13.5173   21.8866 H   0  0  0  0  0  0
  -25.2744   -9.5661   22.4758 H   0  0  0  0  0  0
  -23.9990   -7.4616   22.7470 H   0  0  0  0  0  0
  -21.0828   -8.8774   19.8963 H   0  0  0  0  0  0
  -22.3688  -10.9667   19.6176 H   0  0  0  0  0  0
  -21.1981   -7.6123   23.9733 H   0  0  0  0  0  0
  -21.1510   -6.0500   25.9103 H   0  0  0  0  0  0
  -22.0589   -2.7591   23.2866 H   0  0  0  0  0  0
  -22.4040  -11.9926   22.4814 H   0  0  0  0  0  0
  -21.1162  -13.1399   22.2592 H   0  0  0  0  0  0
  -24.6971  -15.8496   20.5731 H   0  0  0  0  0  0
  -26.3347  -15.6173   20.1943 H   0  0  0  0  0  0
  -26.7075  -32.5568   23.1175 H   0  0  0  0  0  0
  -25.0095  -33.9837   25.0515 H   0  0  0  0  0  0
  -22.6804  -31.3152   21.4269 H   0  0  0  0  0  0
  -23.3759  -35.9646   23.3308 H   0  0  0  0  0  0
  -24.3572  -36.8904   22.2043 H   0  0  0  0  0  0
  -23.7237  -37.6524   23.6642 H   0  0  0  0  0  0
  -26.0295  -31.6196   20.6059 H   0  0  0  0  0  0
  -26.8096  -30.8927   21.9841 H   0  0  0  0  0  0
  -28.0890  -29.1432   21.1375 H   0  0  0  0  0  0
  -26.0179  -26.0063   18.9940 H   0  0  0  0  0  0
  -23.9599  -27.3036   19.0520 H   0  0  0  0  0  0
  -23.7104  -30.6216   19.4201 H   0  0  0  0  0  0
  -22.7225  -29.2617   19.8689 H   0  0  0  0  0  0
  -25.1287  -36.1997   25.0832 H   0  0  0  0  0  0
  -20.9907  -28.3221   24.1494 H   0  0  0  0  0  0
  -20.5684  -26.2263   23.3675 H   0  0  0  0  0  0
  -21.6653  -26.7457   22.1292 H   0  0  0  0  0  0
  -19.6930  -25.6259   21.1318 H   0  0  0  0  0  0
  -19.6696  -27.3126   20.6773 H   0  0  0  0  0  0
  -17.4212  -26.6632   21.4050 H   0  0  0  0  0  0
  -18.0296  -26.0035   22.9057 H   0  0  0  0  0  0
  -19.7915  -30.7263   24.2250 H   0  0  0  0  0  0
  -17.5009  -31.6259   24.5146 H   0  0  0  0  0  0
  -15.5338  -30.3008   23.7638 H   0  0  0  0  0  0
  -15.8630  -28.0830   22.7057 H   0  0  0  0  0  0
  -24.5943  -30.7035   25.7821 H   0  0  0  0  0  0
  -24.8997  -32.2842   26.4962 H   0  0  0  0  0  0
  -25.8159  -30.8833   27.0197 H   0  0  0  0  0  0
  -26.2826  -29.6783   24.1156 H   0  0  0  0  0  0
  -27.4145  -29.7275   25.4482 H   0  0  0  0  0  0
  -27.8637  -30.4354   23.9135 H   0  0  0  0  0  0
  -27.2657  -33.3600   26.2089 H   0  0  0  0  0  0
  -28.3852  -32.6905   25.0289 H   0  0  0  0  0  0
  -28.0746  -31.8420   26.5361 H   0  0  0  0  0  0
  -28.2613  -38.0100   24.7510 H   0  0  0  0  0  0
  -28.1064  -36.2630   24.6300 H   0  0  0  0  0  0
  -27.2284  -37.1456   25.8860 H   0  0  0  0  0  0
  -20.9231  -29.8744   21.7003 H   0  0  0  0  0  0
  -26.0183  -38.2879   24.1442 H   0  0  0  0  0  0
  -26.6385  -18.4450   20.8960 H   0  0  0  0  0  0
  -30.8141  -18.6760   23.5849 H   0  0  0  0  0  0
  -26.1982  -23.7617   19.7711 H   0  0  0  0  0  0
  -28.3199  -24.6478   21.7881 H   0  0  0  0  0  0
  -30.0648  -20.5839   24.7403 H   0  0  0  0  0  0
  -28.3597  -20.9937   24.7387 H   0  0  0  0  0  0
  -29.4446  -21.7220   23.5454 H   0  0  0  0  0  0
  -31.2542  -16.3750   23.0346 H   0  0  0  0  0  0
  -31.5626  -16.8129   21.3765 H   0  0  0  0  0  0
  -25.1208  -22.7846   21.6744 H   0  0  0  0  0  0
  -26.2441  -23.5780   22.7843 H   0  0  0  0  0  0
  -27.9942  -25.2162   18.7468 H   0  0  0  0  0  0
  -29.4836  -25.1129   19.6243 H   0  0  0  0  0  0
  -25.3006  -19.4417   23.2911 H   0  0  0  0  0  0
  -24.8410  -21.0981   23.1150 H   0  0  0  0  0  0
  -29.4724  -14.8041   22.1548 H   0  0  0  0  0  0
  -27.9147  -21.8872   21.4924 H   0  0  0  0  0  0
  1 25  1  0  0  0
  1 30  2  0  0  0
  1 85  1  0  0  0
  2  3  1  0  0  0
  2 25  1  0  0  0
  2 88  1  0  0  0
  2 89  1  0  0  0
  3  4  1  0  0  0
  3 90  1  0  0  0
  3 91  1  0  0  0
  4  5  1  0  0  0
  4 92  1  0  0  0
  4 93  1  0  0  0
  5  6  1  0  0  0
  5 26  1  0  0  0
  5 94  1  0  0  0
  6 25  1  0  0  0
  6 95  1  0  0  0
  6 96  1  0  0  0
  7  8  2  0  0  0
  7 26  1  0  0  0
  7 29  1  0  0  0
  8  9  1  0  0  0
  8 22  1  0  0  0
  9 10  1  0  0  0
  9 27  2  0  0  0
 10 11  2  0  0  0
 10 15  1  0  0  0
 11 12  1  0  0  0
 11 97  1  0  0  0
 12 13  2  0  0  0
 12 98  1  0  0  0
 13 14  1  0  0  0
 13 31  1  0  0  0
 14 15  2  0  0  0
 14 99  1  0  0  0
 15100  1  0  0  0
 16 17  2  0  0  0
 16 21  1  0  0  0
 16 31  1  0  0  0
 17 18  1  0  0  0
 17101  1  0  0  0
 18 19  2  0  0  0
 18102  1  0  0  0
 19 20  1  0  0  0
 19 24  1  0  0  0
 20 21  2  0  0  0
 20103  1  0  0  0
 21 23  1  0  0  0
 22 28  1  0  0  0
 22 32  2  0  0  0
 26 27  1  0  0  0
 28104  1  0  0  0
 28105  1  0  0  0
 29106  1  0  0  0
 29107  1  0  0  0
 33 34  1  0  0  0
 33 66  1  0  0  0
 33 70  2  0  0  0
 34 36  1  0  0  0
 34 59  1  0  0  0
 34108  1  0  0  0
 35 44  2  0  0  0
 35 45  1  0  0  0
 35 68  1  0  0  0
 36 56  1  0  0  0
 36109  1  0  0  0
 37 39  1  0  0  0
 37 47  1  0  0  0
 37 66  1  0  0  0
 37110  1  0  0  0
 38 43  2  0  0  0
 38 46  1  0  0  0
 38 47  1  0  0  0
 39 64  1  0  0  0
 39 67  2  0  0  0
 40 52  1  0  0  0
 40 53  2  0  0  0
 40 58  1  0  0  0
 41111  1  0  0  0
 41112  1  0  0  0
 41113  1  0  0  0
 41 48  1  0  0  0
 42 43  1  0  0  0
 42 66  1  0  0  0
 42114  1  0  0  0
 42115  1  0  0  0
 43 44  1  0  0  0
 44116  1  0  0  0
 45 46  2  0  0  0
 45117  1  0  0  0
 46118  1  0  0  0
 47119  1  0  0  0
 47120  1  0  0  0
 48 56  1  0  0  0
 48 65  1  0  0  0
 48121  1  0  0  0
 49 50  1  0  0  0
 49 53  1  0  0  0
 49 64  1  0  0  0
 49122  1  0  0  0
 50 51  1  0  0  0
 50123  1  0  0  0
 50124  1  0  0  0
 51 52  1  0  0  0
 51125  1  0  0  0
 51126  1  0  0  0
 52127  1  0  0  0
 52128  1  0  0  0
 53 54  1  0  0  0
 54 55  2  0  0  0
 54129  1  0  0  0
 55 57  1  0  0  0
 55130  1  0  0  0
 56 69  2  0  0  0
 57 58  2  0  0  0
 57131  1  0  0  0
 58132  1  0  0  0
 59 60  1  0  0  0
 59 61  1  0  0  0
 59 62  1  0  0  0
 60133  1  0  0  0
 60134  1  0  0  0
 60135  1  0  0  0
 61136  1  0  0  0
 61137  1  0  0  0
 61138  1  0  0  0
 62139  1  0  0  0
 62140  1  0  0  0
 62141  1  0  0  0
 63 65  1  0  0  0
 63142  1  0  0  0
 63143  1  0  0  0
 63144  1  0  0  0
 64145  1  0  0  0
 65146  1  0  0  0
 68 83  1  0  0  0
 71 73  2  0  0  0
 71 76  1  0  0  0
 71147  1  0  0  0
 72 74  2  0  0  0
 72 75  1  0  0  0
 72148  1  0  0  0
 73 74  1  0  0  0
 73 79  1  0  0  0
 74 80  1  0  0  0
 75 76  2  0  0  0
 75 81  1  0  0  0
 76 87  1  0  0  0
 77 78  2  0  0  0
 77 82  1  0  0  0
 77149  1  0  0  0
 78 83  1  0  0  0
 78150  1  0  0  0
 79 84  1  0  0  0
 79 86  2  0  0  0
 80151  1  0  0  0
 80152  1  0  0  0
 80153  1  0  0  0
 81 85  1  0  0  0
 81154  1  0  0  0
 81155  1  0  0  0
 82 86  1  0  0  0
 82156  1  0  0  0
 82157  1  0  0  0
 83158  1  0  0  0
 83159  1  0  0  0
 84160  1  0  0  0
 84161  1  0  0  0
 85162  1  0  0  0
 86163  1  0  0  0
M  CHG  1  86   1
M  ISO  4   1 100  68 101  83 101  85 100
M  END
> <chiral flag>
0

> <version>
0

> <s_m_source_file>
/data/baiqing/PycharmProjects/Reinvent-master-3.2/result/LINK_invent/BTK/process_docking_weight1_custom_product_contain_oxygen_bond_distance_aromatic_linkinvent_7_9_3/rearranged_h_0050.sdf

> <i_m_source_file_index>
70

> <r_mmod_Potential_Energy-OPLS-2005>
-347.845764160156

> <r_mmod_Stretch_Energy-OPLS-2005>
32.3462829589844

> <r_mmod_Bend_Energy-OPLS-2005>
98.9675140380859

> <r_mmod_Torsional_Energy-OPLS-2005>
199.515182495117

> <r_mmod_Improper_Torsional_Energy-OPLS-2005>
2.07640361785889

> <r_mmod_Van_der_Waal_Energy-OPLS-2005>
159.417602539062

> <r_mmod_Electrostatic_Energy-OPLS-2005>
-436.970672607422

> <r_mmod_Solvation_Energy-OPLS-2005>
-411.149108886719

> <b_mmod_Minimization_Converged-OPLS-2005>
0

> <r_mmod_RMS_Derivative-OPLS-2005>
2.97211313247681

$$$$
70
                    3D
 Structure written by MMmdl.
168177  0  0  1  0            999 V2000
  -30.6866  -14.4281   20.5120 C   0  0  0  0  0  0
  -30.4246  -12.2467   19.4323 C   0  0  0  0  0  0
  -29.4944  -12.4122   18.2086 C   0  0  0  0  0  0
  -28.0091  -12.3385   18.6181 C   0  0  0  0  0  0
  -27.6631  -13.1874   19.8690 C   0  0  2  0  0  0
  -28.7004  -12.9643   20.9943 C   0  0  0  0  0  0
  -25.2617  -13.8109   20.5656 C   0  0  0  0  0  0
  -24.1843  -13.0423   20.9176 C   0  0  0  0  0  0
  -24.6373  -11.6880   20.8761 C   0  0  0  0  0  0
  -23.9040  -10.4271   21.0432 C   0  0  0  0  0  0
  -24.3593   -9.4174   21.9200 C   0  0  0  0  0  0
  -23.6259   -8.2217   22.0765 C   0  0  0  0  0  0
  -22.4239   -8.0271   21.3551 C   0  0  0  0  0  0
  -21.9870   -9.0250   20.4652 C   0  0  0  0  0  0
  -22.7209  -10.2112   20.3076 C   0  0  0  0  0  0
  -21.6829   -6.0722   22.5271 C   0  0  0  0  0  0
  -21.4011   -6.5630   23.8206 C   0  0  0  0  0  0
  -21.3672   -5.6775   24.9176 C   0  0  0  0  0  0
  -21.6044   -4.3047   24.7213 C   0  0  0  0  0  0
  -21.8817   -3.8142   23.4336 C   0  0  0  0  0  0
  -21.9185   -4.6950   22.3398 C   0  0  0  0  0  0
  -22.7880  -13.5259   21.1828 C   0  0  0  0  0  0
  -22.1664   -4.2157   21.0972 F   0  0  0  0  0  0
  -21.5634   -3.4533   25.7730 F   0  0  0  0  0  0
  -30.0395  -13.2383   20.4430 N   0  0  0  0  0  0
  -26.3014  -12.9246   20.3315 N   0  0  0  0  0  0
  -25.9271  -11.6432   20.5765 N   0  0  0  0  0  0
  -22.0487  -12.8296   22.0390 N   0  0  0  0  0  0
  -25.4380  -15.1818   20.4067 N   0  0  0  0  0  0
  -31.8329  -14.6146   20.0918 O   0  0  0  0  0  0
  -21.6610   -6.8853   21.4238 O   0  0  0  0  0  0
  -22.3575  -14.5568   20.6663 O   0  0  0  0  0  0
  -24.6089  -31.8686   23.2113 C   0  0  0  0  0  0
  -25.9001  -32.4827   23.8394 C   0  0  1  0  0  0
  -27.2476  -27.4767   20.0969 C   0  0  0  0  0  0
  -25.5866  -33.8624   24.2340 N   0  0  0  0  0  0
  -23.3958  -30.4871   21.5529 C   0  0  2  0  0  0
  -24.8405  -28.9444   20.1249 C   0  0  0  0  0  0
  -22.7383  -29.4643   22.5057 C   0  0  0  0  0  0
  -18.0267  -28.1362   22.8495 C   0  0  0  0  0  0
  -24.1481  -36.7326   23.2640 C   0  0  0  0  0  0
  -25.9157  -30.8451   21.3550 C   0  0  0  0  0  0
  -25.9934  -29.4776   20.7137 C   0  0  0  0  0  0
  -27.1956  -28.7503   20.6926 C   0  0  0  0  0  0
  -26.0790  -26.9298   19.5216 C   0  0  0  0  0  0
  -24.8757  -27.6670   19.5290 C   0  0  0  0  0  0
  -23.5998  -29.8068   20.1709 C   0  0  0  0  0  0
  -25.4098  -36.3125   24.0348 C   0  0  1  0  0  0
  -20.5846  -28.3624   23.1356 C   0  0  2  0  0  0
  -20.6759  -26.9372   22.5427 C   0  0  0  0  0  0
  -19.5743  -26.6375   21.5217 C   0  0  0  0  0  0
  -18.1915  -26.7914   22.1620 C   0  0  0  0  0  0
  -19.1514  -28.8818   23.2915 C   0  0  0  0  0  0
  -18.9440  -30.1429   23.8917 C   0  0  0  0  0  0
  -17.6442  -30.6568   24.0565 C   0  0  0  0  0  0
  -25.9011  -34.9486   23.5145 C   0  0  0  0  0  0
  -16.5337  -29.9069   23.6322 C   0  0  0  0  0  0
  -16.7257  -28.6488   23.0344 C   0  0  0  0  0  0
  -26.4462  -31.6594   25.0705 C   0  0  0  0  0  0
  -25.3757  -31.3672   26.1477 C   0  0  0  0  0  0
  -27.0282  -30.3053   24.6021 C   0  0  0  0  0  0
  -27.6054  -32.4309   25.7445 C   0  0  0  0  0  0
  -27.5580  -37.1816   24.8471 C   0  0  0  0  0  0
  -21.4121  -29.3000   22.3785 N   0  0  0  0  0  0
  -26.4295  -37.3799   23.9409 N   0  0  0  0  0  0
  -24.6591  -31.0814   22.0991 N   0  0  0  0  0  0
  -23.4171  -28.8200   23.3094 O   0  0  0  0  0  0
  -28.4771  -26.8779   20.0252 O   0  0  0  0  0  0
  -26.5588  -34.8931   22.4714 O   0  0  0  0  0  0
  -23.5299  -32.1433   23.7535 O   0  0  0  0  0  0
  -28.9763  -17.2393   17.6630 C   0  0  0  0  0  0
  -29.4881  -16.2644   18.5304 C   0  0  0  0  0  0
  -29.0877  -17.7224   20.4298 C   0  0  0  0  0  0
  -28.5328  -18.4769   18.1632 C   0  0  0  0  0  0
  -28.6307  -18.7418   19.5582 C   0  0  0  0  0  0
  -29.5211  -16.4815   19.9273 C   0  0  0  0  0  0
  -29.1030  -24.7744   18.9928 C   0  0  0  0  0  0
  -28.8852  -25.2727   17.7629 C   0  0  0  0  0  0
  -29.4251  -21.1273   19.7461 C   0  0  0  0  0  0
  -30.4366  -24.1632   21.5719 C   0  0  0  0  0  0
  -31.0393  -23.7550   20.2254 C   0  0  0  0  0  0
  -29.6849  -25.4861   21.4017 C   0  0  0  0  0  0
  -29.9273  -23.5073   19.1847 C   0  0  1  0  0  0
  -28.6313  -25.4887   20.2669 C   0  0  1  0  0  0
  -27.9729  -19.4884   17.1730 C   0  0  0  0  0  0
  -28.3163  -20.1263   20.1362 C   0  0  0  0  0  0
  -29.9036  -15.4625   20.8428 N   0  0  0  0  0  0
  -29.0513  -22.4020   19.5616 N   0  0  0  0  0  0
  -30.5976  -20.7592   19.6036 O   0  0  0  0  0  0
  -28.2503  -20.0856   21.4692 F   0  0  0  0  0  0
  -27.1343  -20.5627   19.6934 F   0  0  0  0  0  0
  -31.4710  -12.3393   19.1324 H   0  0  0  0  0  0
  -30.3251  -11.2441   19.8509 H   0  0  0  0  0  0
  -29.7061  -11.6257   17.4817 H   0  0  0  0  0  0
  -29.7002  -13.3399   17.6832 H   0  0  0  0  0  0
  -27.7746  -11.2910   18.8096 H   0  0  0  0  0  0
  -27.3793  -12.6366   17.7814 H   0  0  0  0  0  0
  -27.7071  -14.2296   19.5580 H   0  0  0  0  0  0
  -28.6557  -11.9352   21.3564 H   0  0  0  0  0  0
  -28.4693  -13.5855   21.8615 H   0  0  0  0  0  0
  -25.2752   -9.5637   22.4753 H   0  0  0  0  0  0
  -23.9954   -7.4611   22.7490 H   0  0  0  0  0  0
  -21.0796   -8.8791   19.8950 H   0  0  0  0  0  0
  -22.3704  -10.9660   19.6185 H   0  0  0  0  0  0
  -21.2007   -7.6134   23.9720 H   0  0  0  0  0  0
  -21.1508   -6.0505   25.9076 H   0  0  0  0  0  0
  -22.0590   -2.7603   23.2828 H   0  0  0  0  0  0
  -22.4096  -11.9961   22.4786 H   0  0  0  0  0  0
  -21.1130  -13.1391   22.2609 H   0  0  0  0  0  0
  -24.6705  -15.8361   20.5050 H   0  0  0  0  0  0
  -26.2905  -15.6102   20.0680 H   0  0  0  0  0  0
  -26.7071  -32.5553   23.1156 H   0  0  0  0  0  0
  -25.0036  -33.9789   25.0502 H   0  0  0  0  0  0
  -22.6817  -31.3015   21.4125 H   0  0  0  0  0  0
  -23.3733  -35.9668   23.3335 H   0  0  0  0  0  0
  -24.3574  -36.8899   22.2046 H   0  0  0  0  0  0
  -23.7244  -37.6548   23.6626 H   0  0  0  0  0  0
  -26.0157  -31.6039   20.5781 H   0  0  0  0  0  0
  -26.8096  -30.9089   21.9635 H   0  0  0  0  0  0
  -28.0954  -29.1672   21.1233 H   0  0  0  0  0  0
  -26.1051  -25.9614   19.0422 H   0  0  0  0  0  0
  -23.9887  -27.2527   19.0688 H   0  0  0  0  0  0
  -23.7007  -30.5749   19.4027 H   0  0  0  0  0  0
  -22.7262  -29.2171   19.8851 H   0  0  0  0  0  0
  -25.1267  -36.2006   25.0842 H   0  0  0  0  0  0
  -20.9925  -28.3176   24.1480 H   0  0  0  0  0  0
  -20.5674  -26.2222   23.3596 H   0  0  0  0  0  0
  -21.6631  -26.7437   22.1216 H   0  0  0  0  0  0
  -19.6898  -25.6299   21.1221 H   0  0  0  0  0  0
  -19.6678  -27.3209   20.6769 H   0  0  0  0  0  0
  -17.4189  -26.6683   21.4013 H   0  0  0  0  0  0
  -18.0294  -26.0046   22.9001 H   0  0  0  0  0  0
  -19.7908  -30.7251   24.2292 H   0  0  0  0  0  0
  -17.4989  -31.6252   24.5152 H   0  0  0  0  0  0
  -15.5337  -30.2971   23.7641 H   0  0  0  0  0  0
  -15.8654  -28.0816   22.7047 H   0  0  0  0  0  0
  -24.5908  -30.7040   25.7827 H   0  0  0  0  0  0
  -24.8967  -32.2810   26.4992 H   0  0  0  0  0  0
  -25.8132  -30.8797   27.0194 H   0  0  0  0  0  0
  -26.2787  -29.6801   24.1149 H   0  0  0  0  0  0
  -27.4177  -29.7290   25.4422 H   0  0  0  0  0  0
  -27.8564  -30.4410   23.9062 H   0  0  0  0  0  0
  -27.2681  -33.3584   26.2080 H   0  0  0  0  0  0
  -28.3803  -32.6910   25.0225 H   0  0  0  0  0  0
  -28.0785  -31.8405   26.5294 H   0  0  0  0  0  0
  -28.2630  -38.0084   24.7489 H   0  0  0  0  0  0
  -28.1046  -36.2620   24.6327 H   0  0  0  0  0  0
  -27.2306  -37.1507   25.8879 H   0  0  0  0  0  0
  -20.9294  -29.8693   21.6976 H   0  0  0  0  0  0
  -26.0201  -38.2890   24.1377 H   0  0  0  0  0  0
  -28.9369  -17.0223   16.6040 H   0  0  0  0  0  0
  -29.8331  -15.3449   18.0945 H   0  0  0  0  0  0
  -29.1389  -17.8988   21.4961 H   0  0  0  0  0  0
  -29.2487  -24.7694   16.8789 H   0  0  0  0  0  0
  -28.3372  -26.1915   17.6137 H   0  0  0  0  0  0
  -31.2264  -24.2766   22.3158 H   0  0  0  0  0  0
  -29.7712  -23.3868   21.9506 H   0  0  0  0  0  0
  -31.6812  -22.8851   20.3499 H   0  0  0  0  0  0
  -31.6999  -24.5454   19.8644 H   0  0  0  0  0  0
  -30.4306  -26.2558   21.1949 H   0  0  0  0  0  0
  -29.2175  -25.7740   22.3446 H   0  0  0  0  0  0
  -30.3914  -23.2460   18.2303 H   0  0  0  0  0  0
  -27.7183  -25.0077   20.6212 H   0  0  0  0  0  0
  -28.0526  -19.1243   16.1479 H   0  0  0  0  0  0
  -28.5102  -20.4341   17.2124 H   0  0  0  0  0  0
  -26.9153  -19.6703   17.3669 H   0  0  0  0  0  0
  -29.1898  -15.2377   21.5200 H   0  0  0  0  0  0
  -28.0637  -22.5957   19.6588 H   0  0  0  0  0  0
  1 25  1  0  0  0
  1 30  2  0  0  0
  1 87  1  0  0  0
  2  3  1  0  0  0
  2 25  1  0  0  0
  2 92  1  0  0  0
  2 93  1  0  0  0
  3  4  1  0  0  0
  3 94  1  0  0  0
  3 95  1  0  0  0
  4  5  1  0  0  0
  4 96  1  0  0  0
  4 97  1  0  0  0
  5  6  1  0  0  0
  5 26  1  0  0  0
  5 98  1  0  0  0
  6 25  1  0  0  0
  6 99  1  0  0  0
  6100  1  0  0  0
  7  8  2  0  0  0
  7 26  1  0  0  0
  7 29  1  0  0  0
  8  9  1  0  0  0
  8 22  1  0  0  0
  9 10  1  0  0  0
  9 27  2  0  0  0
 10 11  2  0  0  0
 10 15  1  0  0  0
 11 12  1  0  0  0
 11101  1  0  0  0
 12 13  2  0  0  0
 12102  1  0  0  0
 13 14  1  0  0  0
 13 31  1  0  0  0
 14 15  2  0  0  0
 14103  1  0  0  0
 15104  1  0  0  0
 16 17  2  0  0  0
 16 21  1  0  0  0
 16 31  1  0  0  0
 17 18  1  0  0  0
 17105  1  0  0  0
 18 19  2  0  0  0
 18106  1  0  0  0
 19 20  1  0  0  0
 19 24  1  0  0  0
 20 21  2  0  0  0
 20107  1  0  0  0
 21 23  1  0  0  0
 22 28  1  0  0  0
 22 32  2  0  0  0
 26 27  1  0  0  0
 28108  1  0  0  0
 28109  1  0  0  0
 29110  1  0  0  0
 29111  1  0  0  0
 33 34  1  0  0  0
 33 66  1  0  0  0
 33 70  2  0  0  0
 34 36  1  0  0  0
 34 59  1  0  0  0
 34112  1  0  0  0
 35 44  2  0  0  0
 35 45  1  0  0  0
 35 68  1  0  0  0
 36 56  1  0  0  0
 36113  1  0  0  0
 37 39  1  0  0  0
 37 47  1  0  0  0
 37 66  1  0  0  0
 37114  1  0  0  0
 38 43  2  0  0  0
 38 46  1  0  0  0
 38 47  1  0  0  0
 39 64  1  0  0  0
 39 67  2  0  0  0
 40 52  1  0  0  0
 40 53  2  0  0  0
 40 58  1  0  0  0
 41115  1  0  0  0
 41116  1  0  0  0
 41117  1  0  0  0
 41 48  1  0  0  0
 42 43  1  0  0  0
 42 66  1  0  0  0
 42118  1  0  0  0
 42119  1  0  0  0
 43 44  1  0  0  0
 44120  1  0  0  0
 45 46  2  0  0  0
 45121  1  0  0  0
 46122  1  0  0  0
 47123  1  0  0  0
 47124  1  0  0  0
 48 56  1  0  0  0
 48 65  1  0  0  0
 48125  1  0  0  0
 49 50  1  0  0  0
 49 53  1  0  0  0
 49 64  1  0  0  0
 49126  1  0  0  0
 50 51  1  0  0  0
 50127  1  0  0  0
 50128  1  0  0  0
 51 52  1  0  0  0
 51129  1  0  0  0
 51130  1  0  0  0
 52131  1  0  0  0
 52132  1  0  0  0
 53 54  1  0  0  0
 54 55  2  0  0  0
 54133  1  0  0  0
 55 57  1  0  0  0
 55134  1  0  0  0
 56 69  2  0  0  0
 57 58  2  0  0  0
 57135  1  0  0  0
 58136  1  0  0  0
 59 60  1  0  0  0
 59 61  1  0  0  0
 59 62  1  0  0  0
 60137  1  0  0  0
 60138  1  0  0  0
 60139  1  0  0  0
 61140  1  0  0  0
 61141  1  0  0  0
 61142  1  0  0  0
 62143  1  0  0  0
 62144  1  0  0  0
 62145  1  0  0  0
 63 65  1  0  0  0
 63146  1  0  0  0
 63147  1  0  0  0
 63148  1  0  0  0
 64149  1  0  0  0
 65150  1  0  0  0
 68 84  1  0  0  0
 71 72  2  0  0  0
 71 74  1  0  0  0
 71151  1  0  0  0
 72 76  1  0  0  0
 72152  1  0  0  0
 73 75  1  0  0  0
 73 76  2  0  0  0
 73153  1  0  0  0
 74 75  2  0  0  0
 74 85  1  0  0  0
 75 86  1  0  0  0
 76 87  1  0  0  0
 77 78  2  0  0  0
 77 83  1  0  0  0
 77 84  1  0  0  0
 78154  1  0  0  0
 78155  1  0  0  0
 79 86  1  0  0  0
 79 88  1  0  0  0
 79 89  2  0  0  0
 80 81  1  0  0  0
 80 82  1  0  0  0
 80156  1  0  0  0
 80157  1  0  0  0
 81 83  1  0  0  0
 81158  1  0  0  0
 81159  1  0  0  0
 82 84  1  0  0  0
 82160  1  0  0  0
 82161  1  0  0  0
 83 88  1  0  0  0
 83162  1  0  0  0
 84163  1  0  0  0
 85164  1  0  0  0
 85165  1  0  0  0
 85166  1  0  0  0
 86 90  1  0  0  0
 86 91  1  0  0  0
 87167  1  0  0  0
 88168  1  0  0  0
M  ISO  4   1 100  68 101  84 101  87 100
M  END
> <chiral flag>
0

> <version>
0

> <s_m_source_file>
/data/baiqing/PycharmProjects/Reinvent-master-3.2/result/LINK_invent/BTK/process_docking_weight1_custom_product_contain_oxygen_bond_distance_aromatic_linkinvent_7_9_3/rearranged_h_0050.sdf

> <i_m_source_file_index>
71

> <r_mmod_Potential_Energy-OPLS-2005>
68.4808959960938

> <r_mmod_Stretch_Energy-OPLS-2005>
34.8052864074707

> <r_mmod_Bend_Energy-OPLS-2005>
107.015800476074

> <r_mmod_Torsional_Energy-OPLS-2005>
276.006225585938

> <r_mmod_Improper_Torsional_Energy-OPLS-2005>
9.1529712677002

> <r_mmod_Van_der_Waal_Energy-OPLS-2005>
167.263824462891

> <r_mmod_Electrostatic_Energy-OPLS-2005>
-322.979034423828

> <r_mmod_Solvation_Energy-OPLS-2005>
-217.549743652344

> <b_mmod_Minimization_Converged-OPLS-2005>
0

> <r_mmod_RMS_Derivative-OPLS-2005>
3.29446387290955

$$$$
71
                    3D
 Structure written by MMmdl.
167176  0  0  1  0            999 V2000
  -30.7089  -14.4642   20.5491 C   0  0  0  0  0  0
  -30.4150  -12.2956   19.4247 C   0  0  0  0  0  0
  -29.4915  -12.4969   18.2057 C   0  0  0  0  0  0
  -28.0124  -12.3596   18.6175 C   0  0  0  0  0  0
  -27.6583  -13.2056   19.8704 C   0  0  2  0  0  0
  -28.7003  -13.0019   20.9945 C   0  0  0  0  0  0
  -25.2578  -13.8160   20.5667 C   0  0  0  0  0  0
  -24.1827  -13.0443   20.9177 C   0  0  0  0  0  0
  -24.6373  -11.6908   20.8732 C   0  0  0  0  0  0
  -23.9044  -10.4293   21.0402 C   0  0  0  0  0  0
  -24.3604   -9.4205   21.9174 C   0  0  0  0  0  0
  -23.6285   -8.2239   22.0744 C   0  0  0  0  0  0
  -22.4266   -8.0274   21.3537 C   0  0  0  0  0  0
  -21.9896   -9.0245   20.4638 C   0  0  0  0  0  0
  -22.7218  -10.2128   20.3049 C   0  0  0  0  0  0
  -21.6856   -6.0725   22.5270 C   0  0  0  0  0  0
  -21.4016   -6.5631   23.8204 C   0  0  0  0  0  0
  -21.3663   -5.6786   24.9167 C   0  0  0  0  0  0
  -21.6051   -4.3051   24.7225 C   0  0  0  0  0  0
  -21.8823   -3.8136   23.4348 C   0  0  0  0  0  0
  -21.9194   -4.6950   22.3398 C   0  0  0  0  0  0
  -22.7854  -13.5244   21.1846 C   0  0  0  0  0  0
  -22.1661   -4.2137   21.0980 F   0  0  0  0  0  0
  -21.5632   -3.4535   25.7740 F   0  0  0  0  0  0
  -30.0306  -13.2911   20.4364 N   0  0  0  0  0  0
  -26.3001  -12.9321   20.3347 N   0  0  0  0  0  0
  -25.9301  -11.6486   20.5770 N   0  0  0  0  0  0
  -22.0498  -12.8232   22.0402 N   0  0  0  0  0  0
  -25.4319  -15.1876   20.4036 N   0  0  0  0  0  0
  -31.8548  -14.6116   20.1157 O   0  0  0  0  0  0
  -21.6641   -6.8863   21.4231 O   0  0  0  0  0  0
  -22.3538  -14.5547   20.6688 O   0  0  0  0  0  0
  -24.6138  -31.8680   23.2096 C   0  0  0  0  0  0
  -25.9034  -32.4823   23.8395 C   0  0  1  0  0  0
  -27.2330  -27.4423   20.1025 C   0  0  0  0  0  0
  -25.5896  -33.8623   24.2332 N   0  0  0  0  0  0
  -23.4015  -30.4901   21.5496 C   0  0  2  0  0  0
  -24.8488  -28.9509   20.1194 C   0  0  0  0  0  0
  -22.7400  -29.4665   22.4997 C   0  0  0  0  0  0
  -18.0270  -28.1380   22.8496 C   0  0  0  0  0  0
  -24.1484  -36.7318   23.2641 C   0  0  0  0  0  0
  -25.9285  -30.8363   21.3608 C   0  0  0  0  0  0
  -26.0063  -29.4683   20.7148 C   0  0  0  0  0  0
  -27.2045  -28.7200   20.7040 C   0  0  0  0  0  0
  -26.0637  -26.9325   19.5056 C   0  0  0  0  0  0
  -24.8702  -27.6809   19.5142 C   0  0  0  0  0  0
  -23.6102  -29.8176   20.1659 C   0  0  0  0  0  0
  -25.4106  -36.3112   24.0341 C   0  0  1  0  0  0
  -20.5861  -28.3667   23.1320 C   0  0  2  0  0  0
  -20.6765  -26.9405   22.5423 C   0  0  0  0  0  0
  -19.5745  -26.6390   21.5216 C   0  0  0  0  0  0
  -18.1919  -26.7930   22.1622 C   0  0  0  0  0  0
  -19.1520  -28.8839   23.2907 C   0  0  0  0  0  0
  -18.9449  -30.1445   23.8919 C   0  0  0  0  0  0
  -17.6453  -30.6590   24.0568 C   0  0  0  0  0  0
  -25.9034  -34.9478   23.5133 C   0  0  0  0  0  0
  -16.5342  -29.9092   23.6329 C   0  0  0  0  0  0
  -16.7260  -28.6505   23.0352 C   0  0  0  0  0  0
  -26.4468  -31.6594   25.0716 C   0  0  0  0  0  0
  -25.3745  -31.3686   26.1473 C   0  0  0  0  0  0
  -27.0289  -30.3034   24.6085 C   0  0  0  0  0  0
  -27.6061  -32.4300   25.7469 C   0  0  0  0  0  0
  -27.5578  -37.1810   24.8470 C   0  0  0  0  0  0
  -21.4133  -29.3031   22.3728 N   0  0  0  0  0  0
  -26.4297  -37.3793   23.9410 N   0  0  0  0  0  0
  -24.6662  -31.0793   22.0989 N   0  0  0  0  0  0
  -23.4169  -28.8217   23.3053 O   0  0  0  0  0  0
  -28.3988  -26.7181   20.0490 O   0  0  0  0  0  0
  -26.5597  -34.8930   22.4696 O   0  0  0  0  0  0
  -23.5337  -32.1427   23.7494 O   0  0  0  0  0  0
  -29.4386  -17.8133   20.3087 C   0  0  0  0  0  0
  -31.6204  -17.3588   21.2622 C   0  0  0  0  0  0
  -29.8015  -19.1606   20.0533 C   0  0  0  0  0  0
  -32.0174  -18.6951   21.0413 C   0  0  0  0  0  0
  -31.1260  -19.5907   20.3745 C   0  0  0  0  0  0
  -30.3551  -16.8905   20.8583 C   0  0  0  0  0  0
  -28.8478  -22.4603   18.7640 C   0  0  0  0  0  0
  -28.9627  -23.9270   19.2147 C   0  0  0  0  0  0
  -28.5097  -23.1905   21.5603 C   0  0  0  0  0  0
  -28.1729  -21.7746   21.0505 C   0  0  0  0  0  0
  -28.1958  -24.2657   20.5051 C   0  0  1  0  0  0
  -31.6104  -20.9761   19.9553 C   0  0  0  0  0  0
  -28.7466  -20.0446   19.3484 C   0  0  0  0  0  0
  -28.5332  -25.6858   21.0314 C   0  0  0  0  0  0
  -33.4175  -19.1081   21.5184 C   0  0  0  0  0  0
  -28.6696  -21.4847   19.6953 N   0  0  0  0  0  0
  -29.9893  -15.5142   20.9980 N   0  0  0  0  0  0
  -29.0053  -22.2169   17.5641 O   0  0  0  0  0  0
  -33.8713  -18.2840   22.4665 F   0  0  0  0  0  0
  -33.4222  -20.3292   22.0593 F   0  0  0  0  0  0
  -34.5772  -19.0663   20.1644 Cl  0  0  0  0  0  0
  -31.4609  -12.3809   19.1245 H   0  0  0  0  0  0
  -30.3044  -11.2878   19.8295 H   0  0  0  0  0  0
  -29.7307  -11.7714   17.4271 H   0  0  0  0  0  0
  -29.6626  -13.4824   17.7689 H   0  0  0  0  0  0
  -27.8231  -11.3040   18.8179 H   0  0  0  0  0  0
  -27.3623  -12.6293   17.7844 H   0  0  0  0  0  0
  -27.6979  -14.2508   19.5632 H   0  0  0  0  0  0
  -28.6730  -11.9725   21.3554 H   0  0  0  0  0  0
  -28.4696  -13.6231   21.8612 H   0  0  0  0  0  0
  -25.2750   -9.5691   22.4745 H   0  0  0  0  0  0
  -23.9998   -7.4636   22.7463 H   0  0  0  0  0  0
  -21.0826   -8.8760   19.8949 H   0  0  0  0  0  0
  -22.3670  -10.9663   19.6159 H   0  0  0  0  0  0
  -21.2007   -7.6139   23.9704 H   0  0  0  0  0  0
  -21.1485   -6.0518   25.9074 H   0  0  0  0  0  0
  -22.0601   -2.7599   23.2853 H   0  0  0  0  0  0
  -22.4119  -11.9902   22.4795 H   0  0  0  0  0  0
  -21.1112  -13.1242   22.2612 H   0  0  0  0  0  0
  -24.6640  -15.8435   20.4990 H   0  0  0  0  0  0
  -26.2784  -15.6187   20.0559 H   0  0  0  0  0  0
  -26.7110  -32.5547   23.1174 H   0  0  0  0  0  0
  -25.0053  -33.9789   25.0476 H   0  0  0  0  0  0
  -22.6911  -31.3076   21.4076 H   0  0  0  0  0  0
  -23.3742  -35.9657   23.3318 H   0  0  0  0  0  0
  -24.3585  -36.8914   22.2054 H   0  0  0  0  0  0
  -23.7237  -37.6532   23.6639 H   0  0  0  0  0  0
  -26.0377  -31.5988   20.5885 H   0  0  0  0  0  0
  -26.8190  -30.8931   21.9754 H   0  0  0  0  0  0
  -28.1045  -29.1170   21.1516 H   0  0  0  0  0  0
  -26.0788  -25.9632   19.0271 H   0  0  0  0  0  0
  -23.9808  -27.2774   19.0519 H   0  0  0  0  0  0
  -23.7171  -30.5902   19.4036 H   0  0  0  0  0  0
  -22.7348  -29.2354   19.8721 H   0  0  0  0  0  0
  -25.1273  -36.1990   25.0833 H   0  0  0  0  0  0
  -20.9949  -28.3237   24.1443 H   0  0  0  0  0  0
  -20.5675  -26.2273   23.3609 H   0  0  0  0  0  0
  -21.6635  -26.7459   22.1211 H   0  0  0  0  0  0
  -19.6913  -25.6306   21.1233 H   0  0  0  0  0  0
  -19.6689  -27.3218   20.6762 H   0  0  0  0  0  0
  -17.4192  -26.6692   21.4014 H   0  0  0  0  0  0
  -18.0312  -26.0066   22.9010 H   0  0  0  0  0  0
  -19.7927  -30.7254   24.2296 H   0  0  0  0  0  0
  -17.5009  -31.6274   24.5162 H   0  0  0  0  0  0
  -15.5345  -30.2998   23.7645 H   0  0  0  0  0  0
  -15.8657  -28.0829   22.7061 H   0  0  0  0  0  0
  -24.5960  -30.6977   25.7820 H   0  0  0  0  0  0
  -24.8890  -32.2826   26.4899 H   0  0  0  0  0  0
  -25.8121  -30.8895   27.0238 H   0  0  0  0  0  0
  -26.2823  -29.6806   24.1146 H   0  0  0  0  0  0
  -27.4058  -29.7258   25.4534 H   0  0  0  0  0  0
  -27.8654  -30.4346   23.9221 H   0  0  0  0  0  0
  -27.2707  -33.3603   26.2065 H   0  0  0  0  0  0
  -28.3858  -32.6848   25.0278 H   0  0  0  0  0  0
  -28.0743  -31.8407   26.5363 H   0  0  0  0  0  0
  -28.2604  -38.0095   24.7507 H   0  0  0  0  0  0
  -28.1053  -36.2627   24.6297 H   0  0  0  0  0  0
  -27.2300  -37.1473   25.8874 H   0  0  0  0  0  0
  -20.9292  -29.8723   21.6925 H   0  0  0  0  0  0
  -26.0186  -38.2874   24.1407 H   0  0  0  0  0  0
  -28.4553  -17.4667   20.0220 H   0  0  0  0  0  0
  -32.3191  -16.6769   21.7231 H   0  0  0  0  0  0
  -28.6216  -24.5728   18.4055 H   0  0  0  0  0  0
  -30.0234  -24.1398   19.3512 H   0  0  0  0  0  0
  -29.5654  -23.2380   21.8316 H   0  0  0  0  0  0
  -27.9545  -23.3877   22.4787 H   0  0  0  0  0  0
  -27.0891  -21.6511   21.0358 H   0  0  0  0  0  0
  -28.5568  -21.0350   21.7551 H   0  0  0  0  0  0
  -27.1283  -24.2261   20.2857 H   0  0  0  0  0  0
  -31.2857  -21.1990   18.9411 H   0  0  0  0  0  0
  -32.6923  -21.0710   19.9199 H   0  0  0  0  0  0
  -31.2358  -21.7402   20.6350 H   0  0  0  0  0  0
  -27.7576  -19.6293   19.5452 H   0  0  0  0  0  0
  -28.8917  -19.8946   18.2775 H   0  0  0  0  0  0
  -29.5710  -25.7069   21.3664 H   0  0  0  0  0  0
  -27.9336  -25.9106   21.9165 H   0  0  0  0  0  0
  -29.0254  -15.3117   21.2146 H   0  0  0  0  0  0
  1 25  1  0  0  0
  1 30  2  0  0  0
  1 87  1  0  0  0
  2  3  1  0  0  0
  2 25  1  0  0  0
  2 92  1  0  0  0
  2 93  1  0  0  0
  3  4  1  0  0  0
  3 94  1  0  0  0
  3 95  1  0  0  0
  4  5  1  0  0  0
  4 96  1  0  0  0
  4 97  1  0  0  0
  5  6  1  0  0  0
  5 26  1  0  0  0
  5 98  1  0  0  0
  6 25  1  0  0  0
  6 99  1  0  0  0
  6100  1  0  0  0
  7  8  2  0  0  0
  7 26  1  0  0  0
  7 29  1  0  0  0
  8  9  1  0  0  0
  8 22  1  0  0  0
  9 10  1  0  0  0
  9 27  2  0  0  0
 10 11  2  0  0  0
 10 15  1  0  0  0
 11 12  1  0  0  0
 11101  1  0  0  0
 12 13  2  0  0  0
 12102  1  0  0  0
 13 14  1  0  0  0
 13 31  1  0  0  0
 14 15  2  0  0  0
 14103  1  0  0  0
 15104  1  0  0  0
 16 17  2  0  0  0
 16 21  1  0  0  0
 16 31  1  0  0  0
 17 18  1  0  0  0
 17105  1  0  0  0
 18 19  2  0  0  0
 18106  1  0  0  0
 19 20  1  0  0  0
 19 24  1  0  0  0
 20 21  2  0  0  0
 20107  1  0  0  0
 21 23  1  0  0  0
 22 28  1  0  0  0
 22 32  2  0  0  0
 26 27  1  0  0  0
 28108  1  0  0  0
 28109  1  0  0  0
 29110  1  0  0  0
 29111  1  0  0  0
 33 34  1  0  0  0
 33 66  1  0  0  0
 33 70  2  0  0  0
 34 36  1  0  0  0
 34 59  1  0  0  0
 34112  1  0  0  0
 35 44  2  0  0  0
 35 45  1  0  0  0
 35 68  1  0  0  0
 36 56  1  0  0  0
 36113  1  0  0  0
 37 39  1  0  0  0
 37 47  1  0  0  0
 37 66  1  0  0  0
 37114  1  0  0  0
 38 43  2  0  0  0
 38 46  1  0  0  0
 38 47  1  0  0  0
 39 64  1  0  0  0
 39 67  2  0  0  0
 40 52  1  0  0  0
 40 53  2  0  0  0
 40 58  1  0  0  0
 41115  1  0  0  0
 41116  1  0  0  0
 41117  1  0  0  0
 41 48  1  0  0  0
 42 43  1  0  0  0
 42 66  1  0  0  0
 42118  1  0  0  0
 42119  1  0  0  0
 43 44  1  0  0  0
 44120  1  0  0  0
 45 46  2  0  0  0
 45121  1  0  0  0
 46122  1  0  0  0
 47123  1  0  0  0
 47124  1  0  0  0
 48 56  1  0  0  0
 48 65  1  0  0  0
 48125  1  0  0  0
 49 50  1  0  0  0
 49 53  1  0  0  0
 49 64  1  0  0  0
 49126  1  0  0  0
 50 51  1  0  0  0
 50127  1  0  0  0
 50128  1  0  0  0
 51 52  1  0  0  0
 51129  1  0  0  0
 51130  1  0  0  0
 52131  1  0  0  0
 52132  1  0  0  0
 53 54  1  0  0  0
 54 55  2  0  0  0
 54133  1  0  0  0
 55 57  1  0  0  0
 55134  1  0  0  0
 56 69  2  0  0  0
 57 58  2  0  0  0
 57135  1  0  0  0
 58136  1  0  0  0
 59 60  1  0  0  0
 59 61  1  0  0  0
 59 62  1  0  0  0
 60137  1  0  0  0
 60138  1  0  0  0
 60139  1  0  0  0
 61140  1  0  0  0
 61141  1  0  0  0
 61142  1  0  0  0
 62143  1  0  0  0
 62144  1  0  0  0
 62145  1  0  0  0
 63 65  1  0  0  0
 63146  1  0  0  0
 63147  1  0  0  0
 63148  1  0  0  0
 64149  1  0  0  0
 65150  1  0  0  0
 68 84  1  0  0  0
 71 73  2  0  0  0
 71 76  1  0  0  0
 71151  1  0  0  0
 72 74  1  0  0  0
 72 76  2  0  0  0
 72152  1  0  0  0
 73 75  1  0  0  0
 73 83  1  0  0  0
 74 75  2  0  0  0
 74 85  1  0  0  0
 75 82  1  0  0  0
 76 87  1  0  0  0
 77 78  1  0  0  0
 77 86  1  0  0  0
 77 88  2  0  0  0
 78 81  1  0  0  0
 78153  1  0  0  0
 78154  1  0  0  0
 79 80  1  0  0  0
 79 81  1  0  0  0
 79155  1  0  0  0
 79156  1  0  0  0
 80 86  1  0  0  0
 80157  1  0  0  0
 80158  1  0  0  0
 81 84  1  0  0  0
 81159  1  0  0  0
 82160  1  0  0  0
 82161  1  0  0  0
 82162  1  0  0  0
 83 86  1  0  0  0
 83163  1  0  0  0
 83164  1  0  0  0
 84165  1  0  0  0
 84166  1  0  0  0
 85 89  1  0  0  0
 85 90  1  0  0  0
 85 91  1  0  0  0
 87167  1  0  0  0
M  ISO  4   1 100  68 101  84 101  87 100
M  END
> <chiral flag>
0

> <version>
0

> <s_m_source_file>
/data/baiqing/PycharmProjects/Reinvent-master-3.2/result/LINK_invent/BTK/process_docking_weight1_custom_product_contain_oxygen_bond_distance_aromatic_linkinvent_7_9_3/rearranged_h_0050.sdf

> <i_m_source_file_index>
72

> <r_mmod_Potential_Energy-OPLS-2005>
27.8542594909668

> <r_mmod_Stretch_Energy-OPLS-2005>
43.8658638000488

> <r_mmod_Bend_Energy-OPLS-2005>
105.341789245605

> <r_mmod_Torsional_Energy-OPLS-2005>
277.613616943359

> <r_mmod_Improper_Torsional_Energy-OPLS-2005>
5.9337306022644

> <r_mmod_Van_der_Waal_Energy-OPLS-2005>
167.100936889648

> <r_mmod_Electrostatic_Energy-OPLS-2005>
-353.376495361328

> <r_mmod_Solvation_Energy-OPLS-2005>
-230.973709106445

> <b_mmod_Minimization_Converged-OPLS-2005>
0

> <r_mmod_RMS_Derivative-OPLS-2005>
1.27056682109833

$$$$
72
                    3D
 Structure written by MMmdl.
154162  0  0  1  0            999 V2000
  -30.5746  -14.7197   20.4945 C   0  0  0  0  0  0
  -30.4329  -12.4457   19.4296 C   0  0  0  0  0  0
  -29.5005  -12.5320   18.1985 C   0  0  0  0  0  0
  -28.0198  -12.3704   18.6084 C   0  0  0  0  0  0
  -27.6328  -13.2327   19.8413 C   0  0  2  0  0  0
  -28.6828  -13.1244   20.9641 C   0  0  0  0  0  0
  -25.2430  -13.8186   20.5765 C   0  0  0  0  0  0
  -24.1748  -13.0426   20.9252 C   0  0  0  0  0  0
  -24.6321  -11.6905   20.8678 C   0  0  0  0  0  0
  -23.9007  -10.4311   21.0360 C   0  0  0  0  0  0
  -24.3588   -9.4242   21.9143 C   0  0  0  0  0  0
  -23.6285   -8.2267   22.0710 C   0  0  0  0  0  0
  -22.4249   -8.0268   21.3524 C   0  0  0  0  0  0
  -21.9865   -9.0242   20.4617 C   0  0  0  0  0  0
  -22.7167  -10.2140   20.3027 C   0  0  0  0  0  0
  -21.6858   -6.0697   22.5293 C   0  0  0  0  0  0
  -21.4015   -6.5613   23.8218 C   0  0  0  0  0  0
  -21.3674   -5.6763   24.9197 C   0  0  0  0  0  0
  -21.6062   -4.3036   24.7230 C   0  0  0  0  0  0
  -21.8819   -3.8119   23.4370 C   0  0  0  0  0  0
  -21.9198   -4.6934   22.3421 C   0  0  0  0  0  0
  -22.7773  -13.5191   21.1964 C   0  0  0  0  0  0
  -22.1671   -4.2114   21.0998 F   0  0  0  0  0  0
  -21.5638   -3.4525   25.7760 F   0  0  0  0  0  0
  -29.9781  -13.4854   20.3799 N   0  0  0  0  0  0
  -26.2864  -12.9436   20.3210 N   0  0  0  0  0  0
  -25.9239  -11.6558   20.5583 N   0  0  0  0  0  0
  -22.0435  -12.8150   22.0502 N   0  0  0  0  0  0
  -25.3912  -15.1966   20.4352 N   0  0  0  0  0  0
  -31.7836  -14.8485   20.2860 O   0  0  0  0  0  0
  -21.6648   -6.8845   21.4233 O   0  0  0  0  0  0
  -22.3467  -14.5517   20.6813 O   0  0  0  0  0  0
  -24.6347  -31.8650   23.2015 C   0  0  0  0  0  0
  -25.9178  -32.4829   23.8369 C   0  0  1  0  0  0
  -27.1776  -27.2462   20.1400 C   0  0  0  0  0  0
  -25.6003  -33.8617   24.2304 N   0  0  0  0  0  0
  -23.4281  -30.4905   21.5501 C   0  0  2  0  0  0
  -24.8648  -28.9482   20.1158 C   0  0  0  0  0  0
  -22.7511  -29.4629   22.4917 C   0  0  0  0  0  0
  -18.0325  -28.1364   22.8516 C   0  0  0  0  0  0
  -24.1486  -36.7263   23.2630 C   0  0  0  0  0  0
  -25.9772  -30.7764   21.3868 C   0  0  0  0  0  0
  -26.0470  -29.4009   20.7193 C   0  0  0  0  0  0
  -27.2099  -28.5586   20.7273 C   0  0  0  0  0  0
  -25.9807  -26.8903   19.4828 C   0  0  0  0  0  0
  -24.8347  -27.6923   19.4995 C   0  0  0  0  0  0
  -23.6474  -29.8455   20.1605 C   0  0  0  0  0  0
  -25.4110  -36.3090   24.0320 C   0  0  1  0  0  0
  -20.5936  -28.3636   23.1298 C   0  0  2  0  0  0
  -20.6783  -26.9363   22.5387 C   0  0  0  0  0  0
  -19.5741  -26.6345   21.5227 C   0  0  0  0  0  0
  -18.1933  -26.7920   22.1640 C   0  0  0  0  0  0
  -19.1579  -28.8827   23.2902 C   0  0  0  0  0  0
  -18.9493  -30.1456   23.8880 C   0  0  0  0  0  0
  -17.6475  -30.6563   24.0575 C   0  0  0  0  0  0
  -25.9061  -34.9477   23.5095 C   0  0  0  0  0  0
  -16.5362  -29.9068   23.6345 C   0  0  0  0  0  0
  -16.7311  -28.6490   23.0361 C   0  0  0  0  0  0
  -26.4511  -31.6685   25.0781 C   0  0  0  0  0  0
  -25.3677  -31.3936   26.1460 C   0  0  0  0  0  0
  -27.0376  -30.3091   24.6332 C   0  0  0  0  0  0
  -27.6043  -32.4452   25.7587 C   0  0  0  0  0  0
  -27.5561  -37.1800   24.8453 C   0  0  0  0  0  0
  -21.4211  -29.3036   22.3680 N   0  0  0  0  0  0
  -26.4288  -37.3779   23.9397 N   0  0  0  0  0  0
  -24.6997  -31.0576   22.1034 N   0  0  0  0  0  0
  -23.4210  -28.8183   23.3041 O   0  0  0  0  0  0
  -28.2114  -26.2808   20.2070 O   0  0  0  0  0  0
  -26.5535  -34.8949   22.4617 O   0  0  0  0  0  0
  -23.5490  -32.1503   23.7258 O   0  0  0  0  0  0
  -29.4464  -18.3893   20.2404 C   0  0  0  0  0  0
  -29.7355  -19.8480   22.1685 C   0  0  0  0  0  0
  -30.1181  -17.4167   22.3626 C   0  0  0  0  0  0
  -29.4136  -19.7344   20.8021 C   0  0  0  0  0  0
  -29.8180  -17.2040   20.9966 C   0  0  0  0  0  0
  -30.0629  -18.7096   22.9382 C   0  0  0  0  0  0
  -28.8093  -23.6343   20.2700 C   0  0  0  0  0  0
  -27.1462  -22.0077   21.1337 C   0  0  0  0  0  0
  -29.1386  -21.0602   19.9688 C   0  0  0  0  0  0
  -27.7683  -24.8436   20.4281 C   0  0  0  0  0  0
  -29.7170  -15.8153   20.4887 N   0  0  0  0  0  0
  -28.4524  -22.3071   20.5398 N   0  0  0  0  0  0
  -29.9187  -23.9016   19.7996 O   0  0  0  0  0  0
  -30.3929  -18.9096   24.6182 Cl  0  0  0  0  0  0
  -31.4667  -12.5980   19.1170 H   0  0  0  0  0  0
  -30.3943  -11.4469   19.8746 H   0  0  0  0  0  0
  -29.7763  -11.7853   17.4533 H   0  0  0  0  0  0
  -29.6375  -13.4980   17.7089 H   0  0  0  0  0  0
  -27.8342  -11.3160   18.8146 H   0  0  0  0  0  0
  -27.3815  -12.6262   17.7631 H   0  0  0  0  0  0
  -27.6246  -14.2639   19.4898 H   0  0  0  0  0  0
  -28.7049  -12.1195   21.3909 H   0  0  0  0  0  0
  -28.4219  -13.7956   21.7847 H   0  0  0  0  0  0
  -25.2732   -9.5797   22.4706 H   0  0  0  0  0  0
  -24.0047   -7.4670   22.7420 H   0  0  0  0  0  0
  -21.0789   -8.8739   19.8940 H   0  0  0  0  0  0
  -22.3574  -10.9677   19.6152 H   0  0  0  0  0  0
  -21.1982   -7.6117   23.9719 H   0  0  0  0  0  0
  -21.1501   -6.0489   25.9090 H   0  0  0  0  0  0
  -22.0566   -2.7561   23.2881 H   0  0  0  0  0  0
  -22.4037  -11.9849   22.5003 H   0  0  0  0  0  0
  -21.1023  -13.1153   22.2653 H   0  0  0  0  0  0
  -24.6022  -15.8123   20.6068 H   0  0  0  0  0  0
  -26.2068  -15.6931   20.1021 H   0  0  0  0  0  0
  -26.7280  -32.5496   23.1146 H   0  0  0  0  0  0
  -25.0400  -33.9826   25.0610 H   0  0  0  0  0  0
  -22.7274  -31.3161   21.4131 H   0  0  0  0  0  0
  -23.3795  -35.9562   23.3322 H   0  0  0  0  0  0
  -24.3592  -36.8820   22.2038 H   0  0  0  0  0  0
  -23.7201  -37.6446   23.6659 H   0  0  0  0  0  0
  -26.1280  -31.5554   20.6368 H   0  0  0  0  0  0
  -26.8467  -30.8097   22.0334 H   0  0  0  0  0  0
  -28.1039  -28.8888   21.2388 H   0  0  0  0  0  0
  -25.8777  -25.9627   18.9496 H   0  0  0  0  0  0
  -23.9285  -27.3189   19.0423 H   0  0  0  0  0  0
  -23.7935  -30.6352   19.4227 H   0  0  0  0  0  0
  -22.7610  -29.3020   19.8312 H   0  0  0  0  0  0
  -25.1320  -36.1927   25.0813 H   0  0  0  0  0  0
  -21.0068  -28.3162   24.1418 H   0  0  0  0  0  0
  -20.5698  -26.2235   23.3574 H   0  0  0  0  0  0
  -21.6646  -26.7367   22.1193 H   0  0  0  0  0  0
  -19.6846  -25.6263   21.1277 H   0  0  0  0  0  0
  -19.6696  -27.3122   20.6757 H   0  0  0  0  0  0
  -17.4200  -26.6726   21.4029 H   0  0  0  0  0  0
  -18.0293  -26.0069   22.9042 H   0  0  0  0  0  0
  -19.7946  -30.7322   24.2195 H   0  0  0  0  0  0
  -17.5013  -31.6268   24.5139 H   0  0  0  0  0  0
  -15.5350  -30.2945   23.7691 H   0  0  0  0  0  0
  -15.8713  -28.0805   22.7063 H   0  0  0  0  0  0
  -24.5777  -30.7398   25.7752 H   0  0  0  0  0  0
  -24.8992  -32.3191   26.4828 H   0  0  0  0  0  0
  -25.7894  -30.9096   27.0269 H   0  0  0  0  0  0
  -26.3014  -29.6843   24.1258 H   0  0  0  0  0  0
  -27.3915  -29.7367   25.4910 H   0  0  0  0  0  0
  -27.8962  -30.4366   23.9733 H   0  0  0  0  0  0
  -27.2613  -33.3736   26.2176 H   0  0  0  0  0  0
  -28.3879  -32.7008   25.0449 H   0  0  0  0  0  0
  -28.0710  -31.8581   26.5499 H   0  0  0  0  0  0
  -28.2582  -38.0083   24.7515 H   0  0  0  0  0  0
  -28.1063  -36.2625   24.6322 H   0  0  0  0  0  0
  -27.2303  -37.1464   25.8857 H   0  0  0  0  0  0
  -20.9326  -29.8891   21.7038 H   0  0  0  0  0  0
  -26.0163  -38.2851   24.1428 H   0  0  0  0  0  0
  -29.1927  -18.2668   19.1948 H   0  0  0  0  0  0
  -29.7338  -20.8242   22.6339 H   0  0  0  0  0  0
  -30.3512  -16.5814   23.0102 H   0  0  0  0  0  0
  -26.9270  -22.6461   21.9901 H   0  0  0  0  0  0
  -27.0682  -20.9807   21.4934 H   0  0  0  0  0  0
  -26.3683  -22.1556   20.3827 H   0  0  0  0  0  0
  -28.5509  -20.7698   19.0978 H   0  0  0  0  0  0
  -30.1082  -21.3653   19.5759 H   0  0  0  0  0  0
  -27.2543  -24.7813   21.3915 H   0  0  0  0  0  0
  -27.0424  -24.5480   19.6753 H   0  0  0  0  0  0
  -28.7878  -15.5630   20.1953 H   0  0  0  0  0  0
  1 25  1  0  0  0
  1 30  2  0  0  0
  1 81  1  0  0  0
  2  3  1  0  0  0
  2 25  1  0  0  0
  2 85  1  0  0  0
  2 86  1  0  0  0
  3  4  1  0  0  0
  3 87  1  0  0  0
  3 88  1  0  0  0
  4  5  1  0  0  0
  4 89  1  0  0  0
  4 90  1  0  0  0
  5  6  1  0  0  0
  5 26  1  0  0  0
  5 91  1  0  0  0
  6 25  1  0  0  0
  6 92  1  0  0  0
  6 93  1  0  0  0
  7  8  2  0  0  0
  7 26  1  0  0  0
  7 29  1  0  0  0
  8  9  1  0  0  0
  8 22  1  0  0  0
  9 10  1  0  0  0
  9 27  2  0  0  0
 10 11  2  0  0  0
 10 15  1  0  0  0
 11 12  1  0  0  0
 11 94  1  0  0  0
 12 13  2  0  0  0
 12 95  1  0  0  0
 13 14  1  0  0  0
 13 31  1  0  0  0
 14 15  2  0  0  0
 14 96  1  0  0  0
 15 97  1  0  0  0
 16 17  2  0  0  0
 16 21  1  0  0  0
 16 31  1  0  0  0
 17 18  1  0  0  0
 17 98  1  0  0  0
 18 19  2  0  0  0
 18 99  1  0  0  0
 19 20  1  0  0  0
 19 24  1  0  0  0
 20 21  2  0  0  0
 20100  1  0  0  0
 21 23  1  0  0  0
 22 28  1  0  0  0
 22 32  2  0  0  0
 26 27  1  0  0  0
 28101  1  0  0  0
 28102  1  0  0  0
 29103  1  0  0  0
 29104  1  0  0  0
 33 34  1  0  0  0
 33 66  1  0  0  0
 33 70  2  0  0  0
 34 36  1  0  0  0
 34 59  1  0  0  0
 34105  1  0  0  0
 35 44  2  0  0  0
 35 45  1  0  0  0
 35 68  1  0  0  0
 36 56  1  0  0  0
 36106  1  0  0  0
 37 39  1  0  0  0
 37 47  1  0  0  0
 37 66  1  0  0  0
 37107  1  0  0  0
 38 43  2  0  0  0
 38 46  1  0  0  0
 38 47  1  0  0  0
 39 64  1  0  0  0
 39 67  2  0  0  0
 40 52  1  0  0  0
 40 53  2  0  0  0
 40 58  1  0  0  0
 41108  1  0  0  0
 41109  1  0  0  0
 41110  1  0  0  0
 41 48  1  0  0  0
 42 43  1  0  0  0
 42 66  1  0  0  0
 42111  1  0  0  0
 42112  1  0  0  0
 43 44  1  0  0  0
 44113  1  0  0  0
 45 46  2  0  0  0
 45114  1  0  0  0
 46115  1  0  0  0
 47116  1  0  0  0
 47117  1  0  0  0
 48 56  1  0  0  0
 48 65  1  0  0  0
 48118  1  0  0  0
 49 50  1  0  0  0
 49 53  1  0  0  0
 49 64  1  0  0  0
 49119  1  0  0  0
 50 51  1  0  0  0
 50120  1  0  0  0
 50121  1  0  0  0
 51 52  1  0  0  0
 51122  1  0  0  0
 51123  1  0  0  0
 52124  1  0  0  0
 52125  1  0  0  0
 53 54  1  0  0  0
 54 55  2  0  0  0
 54126  1  0  0  0
 55 57  1  0  0  0
 55127  1  0  0  0
 56 69  2  0  0  0
 57 58  2  0  0  0
 57128  1  0  0  0
 58129  1  0  0  0
 59 60  1  0  0  0
 59 61  1  0  0  0
 59 62  1  0  0  0
 60130  1  0  0  0
 60131  1  0  0  0
 60132  1  0  0  0
 61133  1  0  0  0
 61134  1  0  0  0
 61135  1  0  0  0
 62136  1  0  0  0
 62137  1  0  0  0
 62138  1  0  0  0
 63 65  1  0  0  0
 63139  1  0  0  0
 63140  1  0  0  0
 63141  1  0  0  0
 64142  1  0  0  0
 65143  1  0  0  0
 68 80  1  0  0  0
 71 74  2  0  0  0
 71 75  1  0  0  0
 71144  1  0  0  0
 72 74  1  0  0  0
 72 76  2  0  0  0
 72145  1  0  0  0
 73 75  2  0  0  0
 73 76  1  0  0  0
 73146  1  0  0  0
 74 79  1  0  0  0
 75 81  1  0  0  0
 76 84  1  0  0  0
 77 80  1  0  0  0
 77 82  1  0  0  0
 77 83  2  0  0  0
 78 82  1  0  0  0
 78147  1  0  0  0
 78148  1  0  0  0
 78149  1  0  0  0
 79 82  1  0  0  0
 79150  1  0  0  0
 79151  1  0  0  0
 80152  1  0  0  0
 80153  1  0  0  0
 81154  1  0  0  0
M  ISO  4   1 100  68 101  80 101  81 100
M  END
> <chiral flag>
0

> <version>
0

> <s_m_source_file>
/data/baiqing/PycharmProjects/Reinvent-master-3.2/result/LINK_invent/BTK/process_docking_weight1_custom_product_contain_oxygen_bond_distance_aromatic_linkinvent_7_9_3/rearranged_h_0050.sdf

> <i_m_source_file_index>
73

> <r_mmod_Potential_Energy-OPLS-2005>
239.448822021484

> <r_mmod_Stretch_Energy-OPLS-2005>
125.238693237305

> <r_mmod_Bend_Energy-OPLS-2005>
161.076416015625

> <r_mmod_Torsional_Energy-OPLS-2005>
270.580932617188

> <r_mmod_Improper_Torsional_Energy-OPLS-2005>
11.9995698928833

> <r_mmod_Van_der_Waal_Energy-OPLS-2005>
142.286224365234

> <r_mmod_Electrostatic_Energy-OPLS-2005>
-323.020202636719

> <r_mmod_Solvation_Energy-OPLS-2005>
-246.106292724609

> <b_mmod_Minimization_Converged-OPLS-2005>
0

> <r_mmod_RMS_Derivative-OPLS-2005>
7.32689809799194

$$$$
73
                    3D
 Structure written by MMmdl.
163172  0  0  1  0            999 V2000
  -30.6957  -14.4769   20.5611 C   0  0  0  0  0  0
  -30.4271  -12.3059   19.4219 C   0  0  0  0  0  0
  -29.4983  -12.5086   18.2054 C   0  0  0  0  0  0
  -28.0173  -12.3717   18.6143 C   0  0  0  0  0  0
  -27.6627  -13.2068   19.8745 C   0  0  2  0  0  0
  -28.7048  -12.9824   20.9935 C   0  0  0  0  0  0
  -25.2579  -13.8159   20.5683 C   0  0  0  0  0  0
  -24.1824  -13.0438   20.9168 C   0  0  0  0  0  0
  -24.6368  -11.6906   20.8716 C   0  0  0  0  0  0
  -23.9029  -10.4296   21.0388 C   0  0  0  0  0  0
  -24.3592   -9.4219   21.9167 C   0  0  0  0  0  0
  -23.6276   -8.2249   22.0745 C   0  0  0  0  0  0
  -22.4256   -8.0278   21.3537 C   0  0  0  0  0  0
  -21.9882   -9.0249   20.4643 C   0  0  0  0  0  0
  -22.7196  -10.2131   20.3048 C   0  0  0  0  0  0
  -21.6853   -6.0728   22.5273 C   0  0  0  0  0  0
  -21.4017   -6.5635   23.8205 C   0  0  0  0  0  0
  -21.3661   -5.6787   24.9167 C   0  0  0  0  0  0
  -21.6046   -4.3052   24.7218 C   0  0  0  0  0  0
  -21.8822   -3.8141   23.4343 C   0  0  0  0  0  0
  -21.9193   -4.6957   22.3396 C   0  0  0  0  0  0
  -22.7849  -13.5249   21.1831 C   0  0  0  0  0  0
  -22.1666   -4.2144   21.0975 F   0  0  0  0  0  0
  -21.5624   -3.4534   25.7729 F   0  0  0  0  0  0
  -30.0376  -13.2904   20.4426 N   0  0  0  0  0  0
  -26.3020  -12.9329   20.3354 N   0  0  0  0  0  0
  -25.9300  -11.6488   20.5735 N   0  0  0  0  0  0
  -22.0488  -12.8255   22.0396 N   0  0  0  0  0  0
  -25.4307  -15.1879   20.4125 N   0  0  0  0  0  0
  -31.8461  -14.6280   20.1496 O   0  0  0  0  0  0
  -21.6635   -6.8868   21.4230 O   0  0  0  0  0  0
  -22.3540  -14.5554   20.6677 O   0  0  0  0  0  0
  -24.6154  -31.8697   23.2121 C   0  0  0  0  0  0
  -25.9041  -32.4839   23.8413 C   0  0  1  0  0  0
  -27.2303  -27.4306   20.0800 C   0  0  0  0  0  0
  -25.5887  -33.8638   24.2335 N   0  0  0  0  0  0
  -23.4016  -30.4968   21.5545 C   0  0  2  0  0  0
  -24.8445  -28.9671   20.1180 C   0  0  0  0  0  0
  -22.7411  -29.4673   22.5002 C   0  0  0  0  0  0
  -18.0264  -28.1383   22.8492 C   0  0  0  0  0  0
  -24.1479  -36.7324   23.2635 C   0  0  0  0  0  0
  -25.9332  -30.8333   21.3655 C   0  0  0  0  0  0
  -26.0083  -29.4669   20.7139 C   0  0  0  0  0  0
  -27.2010  -28.7049   20.6968 C   0  0  0  0  0  0
  -26.0337  -26.9472   19.4918 C   0  0  0  0  0  0
  -24.8511  -27.7039   19.5093 C   0  0  0  0  0  0
  -23.6092  -29.8361   20.1673 C   0  0  0  0  0  0
  -25.4100  -36.3126   24.0337 C   0  0  1  0  0  0
  -20.5859  -28.3663   23.1323 C   0  0  2  0  0  0
  -20.6757  -26.9400   22.5422 C   0  0  0  0  0  0
  -19.5735  -26.6390   21.5218 C   0  0  0  0  0  0
  -18.1913  -26.7929   22.1631 C   0  0  0  0  0  0
  -19.1515  -28.8842   23.2905 C   0  0  0  0  0  0
  -18.9449  -30.1444   23.8922 C   0  0  0  0  0  0
  -17.6453  -30.6592   24.0568 C   0  0  0  0  0  0
  -25.9030  -34.9487   23.5136 C   0  0  0  0  0  0
  -16.5342  -29.9100   23.6320 C   0  0  0  0  0  0
  -16.7255  -28.6514   23.0346 C   0  0  0  0  0  0
  -26.4460  -31.6621   25.0741 C   0  0  0  0  0  0
  -25.3717  -31.3745   26.1487 C   0  0  0  0  0  0
  -27.0281  -30.3062   24.6113 C   0  0  0  0  0  0
  -27.6042  -32.4334   25.7498 C   0  0  0  0  0  0
  -27.5577  -37.1815   24.8459 C   0  0  0  0  0  0
  -21.4140  -29.3031   22.3733 N   0  0  0  0  0  0
  -26.4290  -37.3808   23.9411 N   0  0  0  0  0  0
  -24.6690  -31.0804   22.1025 N   0  0  0  0  0  0
  -23.4193  -28.8201   23.3025 O   0  0  0  0  0  0
  -28.4100  -26.7028   20.0744 O   0  0  0  0  0  0
  -26.5603  -34.8938   22.4701 O   0  0  0  0  0  0
  -23.5342  -32.1449   23.7514 O   0  0  0  0  0  0
  -28.9574  -18.9125   22.0603 C   0  0  0  0  0  0
  -29.0914  -17.5141   21.9597 C   0  0  0  0  0  0
  -30.7142  -19.1875   20.4237 C   0  0  0  0  0  0
  -29.7592  -19.7713   21.2849 C   0  0  0  0  0  0
  -30.8325  -17.7803   20.2804 C   0  0  0  0  0  0
  -30.0177  -16.9116   21.0777 C   0  0  0  0  0  0
  -29.7406  -22.6742   17.9476 C   0  0  0  0  0  0
  -29.9627  -23.9814   18.1287 C   0  0  0  0  0  0
  -29.2892  -21.8246   19.0396 C   0  0  0  0  0  0
  -29.8489  -23.6443   20.5938 C   0  0  0  0  0  0
  -30.1529  -24.1063   21.8260 C   0  0  0  0  0  0
  -29.7441  -24.6703   19.4502 C   0  0  2  0  0  0
  -31.8196  -17.3073   19.2290 C   0  0  0  0  0  0
  -29.6138  -21.2997   21.4595 C   0  0  0  0  0  0
  -28.3923  -25.4278   19.4145 C   0  0  0  0  0  0
  -29.6065  -22.2519   20.3028 N   0  0  0  0  0  0
  -29.9420  -15.4738   21.0692 N   0  0  0  0  0  0
  -28.6883  -20.7726   18.8033 O   0  0  0  0  0  0
  -31.4727  -12.4048   19.1233 H   0  0  0  0  0  0
  -30.3261  -11.2948   19.8210 H   0  0  0  0  0  0
  -29.7388  -11.7866   17.4237 H   0  0  0  0  0  0
  -29.6658  -13.4964   17.7724 H   0  0  0  0  0  0
  -27.8220  -11.3159   18.8028 H   0  0  0  0  0  0
  -27.3699  -12.6553   17.7835 H   0  0  0  0  0  0
  -27.7074  -14.2560   19.5794 H   0  0  0  0  0  0
  -28.6792  -11.9454   21.3305 H   0  0  0  0  0  0
  -28.4643  -13.5741   21.8779 H   0  0  0  0  0  0
  -25.2746   -9.5711   22.4727 H   0  0  0  0  0  0
  -24.0003   -7.4648   22.7470 H   0  0  0  0  0  0
  -21.0810   -8.8757   19.8953 H   0  0  0  0  0  0
  -22.3647  -10.9666   19.6161 H   0  0  0  0  0  0
  -21.2016   -7.6143   23.9708 H   0  0  0  0  0  0
  -21.1478   -6.0514   25.9068 H   0  0  0  0  0  0
  -22.0599   -2.7602   23.2832 H   0  0  0  0  0  0
  -22.4108  -11.9940   22.4819 H   0  0  0  0  0  0
  -21.1105  -13.1295   22.2585 H   0  0  0  0  0  0
  -24.6616  -15.8408   20.5183 H   0  0  0  0  0  0
  -26.2860  -15.6304   20.1002 H   0  0  0  0  0  0
  -26.7117  -32.5554   23.1184 H   0  0  0  0  0  0
  -25.0008  -33.9805   25.0458 H   0  0  0  0  0  0
  -22.6893  -31.3137   21.4200 H   0  0  0  0  0  0
  -23.3744  -35.9652   23.3302 H   0  0  0  0  0  0
  -24.3574  -36.8939   22.2050 H   0  0  0  0  0  0
  -23.7231  -37.6528   23.6649 H   0  0  0  0  0  0
  -26.0419  -31.5978   20.5946 H   0  0  0  0  0  0
  -26.8229  -30.8908   21.9810 H   0  0  0  0  0  0
  -28.1001  -29.0925   21.1557 H   0  0  0  0  0  0
  -25.9745  -25.9847   19.0066 H   0  0  0  0  0  0
  -23.9546  -27.3094   19.0512 H   0  0  0  0  0  0
  -23.7216  -30.6137   19.4113 H   0  0  0  0  0  0
  -22.7314  -29.2603   19.8681 H   0  0  0  0  0  0
  -25.1277  -36.1994   25.0831 H   0  0  0  0  0  0
  -20.9947  -28.3227   24.1446 H   0  0  0  0  0  0
  -20.5665  -26.2269   23.3605 H   0  0  0  0  0  0
  -21.6629  -26.7446   22.1213 H   0  0  0  0  0  0
  -19.6891  -25.6306   21.1234 H   0  0  0  0  0  0
  -19.6675  -27.3213   20.6758 H   0  0  0  0  0  0
  -17.4178  -26.6670   21.4035 H   0  0  0  0  0  0
  -18.0312  -26.0078   22.9036 H   0  0  0  0  0  0
  -19.7926  -30.7242   24.2319 H   0  0  0  0  0  0
  -17.5013  -31.6277   24.5159 H   0  0  0  0  0  0
  -15.5346  -30.3015   23.7634 H   0  0  0  0  0  0
  -15.8651  -28.0845   22.7054 H   0  0  0  0  0  0
  -24.5879  -30.7103   25.7827 H   0  0  0  0  0  0
  -24.8912  -32.2909   26.4925 H   0  0  0  0  0  0
  -25.8053  -30.8919   27.0256 H   0  0  0  0  0  0
  -26.2830  -29.6853   24.1124 H   0  0  0  0  0  0
  -27.4008  -29.7275   25.4577 H   0  0  0  0  0  0
  -27.8683  -30.4388   23.9293 H   0  0  0  0  0  0
  -27.2673  -33.3639   26.2087 H   0  0  0  0  0  0
  -28.3840  -32.6894   25.0310 H   0  0  0  0  0  0
  -28.0718  -31.8448   26.5404 H   0  0  0  0  0  0
  -28.2603  -38.0106   24.7514 H   0  0  0  0  0  0
  -28.1070  -36.2644   24.6276 H   0  0  0  0  0  0
  -27.2301  -37.1457   25.8864 H   0  0  0  0  0  0
  -20.9295  -29.8777   21.6977 H   0  0  0  0  0  0
  -26.0181  -38.2887   24.1421 H   0  0  0  0  0  0
  -28.2316  -19.3220   22.7485 H   0  0  0  0  0  0
  -28.4506  -16.8971   22.5744 H   0  0  0  0  0  0
  -31.3472  -19.8365   19.8360 H   0  0  0  0  0  0
  -29.8840  -22.2425   16.9690 H   0  0  0  0  0  0
  -30.2779  -24.5981   17.2982 H   0  0  0  0  0  0
  -30.3138  -25.1649   21.9765 H   0  0  0  0  0  0
  -30.2390  -23.4964   22.7107 H   0  0  0  0  0  0
  -30.5609  -25.3882   19.5490 H   0  0  0  0  0  0
  -32.1278  -18.1234   18.5744 H   0  0  0  0  0  0
  -31.3785  -16.5464   18.5866 H   0  0  0  0  0  0
  -32.7228  -16.9206   19.7006 H   0  0  0  0  0  0
  -30.4731  -21.5282   22.0869 H   0  0  0  0  0  0
  -28.7275  -21.5073   22.0609 H   0  0  0  0  0  0
  -27.6195  -24.7844   19.8390 H   0  0  0  0  0  0
  -28.1194  -25.6120   18.3729 H   0  0  0  0  0  0
  -29.0923  -15.1120   21.4743 H   0  0  0  0  0  0
  1 25  1  0  0  0
  1 30  2  0  0  0
  1 87  1  0  0  0
  2  3  1  0  0  0
  2 25  1  0  0  0
  2 89  1  0  0  0
  2 90  1  0  0  0
  3  4  1  0  0  0
  3 91  1  0  0  0
  3 92  1  0  0  0
  4  5  1  0  0  0
  4 93  1  0  0  0
  4 94  1  0  0  0
  5  6  1  0  0  0
  5 26  1  0  0  0
  5 95  1  0  0  0
  6 25  1  0  0  0
  6 96  1  0  0  0
  6 97  1  0  0  0
  7  8  2  0  0  0
  7 26  1  0  0  0
  7 29  1  0  0  0
  8  9  1  0  0  0
  8 22  1  0  0  0
  9 10  1  0  0  0
  9 27  2  0  0  0
 10 11  2  0  0  0
 10 15  1  0  0  0
 11 12  1  0  0  0
 11 98  1  0  0  0
 12 13  2  0  0  0
 12 99  1  0  0  0
 13 14  1  0  0  0
 13 31  1  0  0  0
 14 15  2  0  0  0
 14100  1  0  0  0
 15101  1  0  0  0
 16 17  2  0  0  0
 16 21  1  0  0  0
 16 31  1  0  0  0
 17 18  1  0  0  0
 17102  1  0  0  0
 18 19  2  0  0  0
 18103  1  0  0  0
 19 20  1  0  0  0
 19 24  1  0  0  0
 20 21  2  0  0  0
 20104  1  0  0  0
 21 23  1  0  0  0
 22 28  1  0  0  0
 22 32  2  0  0  0
 26 27  1  0  0  0
 28105  1  0  0  0
 28106  1  0  0  0
 29107  1  0  0  0
 29108  1  0  0  0
 33 34  1  0  0  0
 33 66  1  0  0  0
 33 70  2  0  0  0
 34 36  1  0  0  0
 34 59  1  0  0  0
 34109  1  0  0  0
 35 44  2  0  0  0
 35 45  1  0  0  0
 35 68  1  0  0  0
 36 56  1  0  0  0
 36110  1  0  0  0
 37 39  1  0  0  0
 37 47  1  0  0  0
 37 66  1  0  0  0
 37111  1  0  0  0
 38 43  2  0  0  0
 38 46  1  0  0  0
 38 47  1  0  0  0
 39 64  1  0  0  0
 39 67  2  0  0  0
 40 52  1  0  0  0
 40 53  2  0  0  0
 40 58  1  0  0  0
 41112  1  0  0  0
 41113  1  0  0  0
 41114  1  0  0  0
 41 48  1  0  0  0
 42 43  1  0  0  0
 42 66  1  0  0  0
 42115  1  0  0  0
 42116  1  0  0  0
 43 44  1  0  0  0
 44117  1  0  0  0
 45 46  2  0  0  0
 45118  1  0  0  0
 46119  1  0  0  0
 47120  1  0  0  0
 47121  1  0  0  0
 48 56  1  0  0  0
 48 65  1  0  0  0
 48122  1  0  0  0
 49 50  1  0  0  0
 49 53  1  0  0  0
 49 64  1  0  0  0
 49123  1  0  0  0
 50 51  1  0  0  0
 50124  1  0  0  0
 50125  1  0  0  0
 51 52  1  0  0  0
 51126  1  0  0  0
 51127  1  0  0  0
 52128  1  0  0  0
 52129  1  0  0  0
 53 54  1  0  0  0
 54 55  2  0  0  0
 54130  1  0  0  0
 55 57  1  0  0  0
 55131  1  0  0  0
 56 69  2  0  0  0
 57 58  2  0  0  0
 57132  1  0  0  0
 58133  1  0  0  0
 59 60  1  0  0  0
 59 61  1  0  0  0
 59 62  1  0  0  0
 60134  1  0  0  0
 60135  1  0  0  0
 60136  1  0  0  0
 61137  1  0  0  0
 61138  1  0  0  0
 61139  1  0  0  0
 62140  1  0  0  0
 62141  1  0  0  0
 62142  1  0  0  0
 63 65  1  0  0  0
 63143  1  0  0  0
 63144  1  0  0  0
 63145  1  0  0  0
 64146  1  0  0  0
 65147  1  0  0  0
 68 85  1  0  0  0
 71 72  2  0  0  0
 71 74  1  0  0  0
 71148  1  0  0  0
 72 76  1  0  0  0
 72149  1  0  0  0
 73 74  2  0  0  0
 73 75  1  0  0  0
 73150  1  0  0  0
 74 84  1  0  0  0
 75 76  2  0  0  0
 75 83  1  0  0  0
 76 87  1  0  0  0
 77 78  2  0  0  0
 77 79  1  0  0  0
 77151  1  0  0  0
 78 82  1  0  0  0
 78152  1  0  0  0
 79 86  1  0  0  0
 79 88  2  0  0  0
 80 81  2  0  0  0
 80 82  1  0  0  0
 80 86  1  0  0  0
 81153  1  0  0  0
 81154  1  0  0  0
 82 85  1  0  0  0
 82155  1  0  0  0
 83156  1  0  0  0
 83157  1  0  0  0
 83158  1  0  0  0
 84 86  1  0  0  0
 84159  1  0  0  0
 84160  1  0  0  0
 85161  1  0  0  0
 85162  1  0  0  0
 87163  1  0  0  0
M  ISO  4   1 100  68 101  85 101  87 100
M  END
> <chiral flag>
0

> <version>
0

> <s_m_source_file>
/data/baiqing/PycharmProjects/Reinvent-master-3.2/result/LINK_invent/BTK/process_docking_weight1_custom_product_contain_oxygen_bond_distance_aromatic_linkinvent_7_9_3/rearranged_h_0050.sdf

> <i_m_source_file_index>
74

> <r_mmod_Potential_Energy-OPLS-2005>
60.6421127319336

> <r_mmod_Stretch_Energy-OPLS-2005>
53.7159309387207

> <r_mmod_Bend_Energy-OPLS-2005>
151.036804199219

> <r_mmod_Torsional_Energy-OPLS-2005>
198.888702392578

> <r_mmod_Improper_Torsional_Energy-OPLS-2005>
3.11318635940552

> <r_mmod_Van_der_Waal_Energy-OPLS-2005>
195.208847045898

> <r_mmod_Electrostatic_Energy-OPLS-2005>
-341.477844238281

> <r_mmod_Solvation_Energy-OPLS-2005>
-213.95947265625

> <b_mmod_Minimization_Converged-OPLS-2005>
0

> <r_mmod_RMS_Derivative-OPLS-2005>
1.67971229553223

$$$$
74
                    3D
 Structure written by MMmdl.
160168  0  0  1  0            999 V2000
  -30.6905  -14.5210   20.4561 C   0  0  0  0  0  0
  -30.4191  -12.3131   19.4257 C   0  0  0  0  0  0
  -29.4899  -12.4772   18.2042 C   0  0  0  0  0  0
  -28.0132  -12.3408   18.6214 C   0  0  0  0  0  0
  -27.6522  -13.2109   19.8540 C   0  0  2  0  0  0
  -28.7001  -13.0563   20.9791 C   0  0  0  0  0  0
  -25.2566  -13.8192   20.5678 C   0  0  0  0  0  0
  -24.1834  -13.0467   20.9201 C   0  0  0  0  0  0
  -24.6387  -11.6937   20.8761 C   0  0  0  0  0  0
  -23.9054  -10.4328   21.0444 C   0  0  0  0  0  0
  -24.3614   -9.4236   21.9206 C   0  0  0  0  0  0
  -23.6309   -8.2253   22.0754 C   0  0  0  0  0  0
  -22.4278   -8.0293   21.3555 C   0  0  0  0  0  0
  -21.9935   -9.0273   20.4635 C   0  0  0  0  0  0
  -22.7254  -10.2160   20.3065 C   0  0  0  0  0  0
  -21.6850   -6.0735   22.5291 C   0  0  0  0  0  0
  -21.4003   -6.5650   23.8217 C   0  0  0  0  0  0
  -21.3663   -5.6809   24.9192 C   0  0  0  0  0  0
  -21.6049   -4.3065   24.7238 C   0  0  0  0  0  0
  -21.8829   -3.8158   23.4356 C   0  0  0  0  0  0
  -21.9198   -4.6967   22.3419 C   0  0  0  0  0  0
  -22.7861  -13.5250   21.1895 C   0  0  0  0  0  0
  -22.1687   -4.2153   21.1003 F   0  0  0  0  0  0
  -21.5636   -3.4546   25.7757 F   0  0  0  0  0  0
  -30.0246  -13.3360   20.4049 N   0  0  0  0  0  0
  -26.2982  -12.9360   20.3293 N   0  0  0  0  0  0
  -25.9304  -11.6515   20.5758 N   0  0  0  0  0  0
  -22.0530  -12.8188   22.0409 N   0  0  0  0  0  0
  -25.4322  -15.1916   20.4071 N   0  0  0  0  0  0
  -31.8978  -14.6015   20.2310 O   0  0  0  0  0  0
  -21.6664   -6.8877   21.4249 O   0  0  0  0  0  0
  -22.3527  -14.5572   20.6774 O   0  0  0  0  0  0
  -24.6152  -31.8664   23.2060 C   0  0  0  0  0  0
  -25.9036  -32.4809   23.8384 C   0  0  1  0  0  0
  -27.2334  -27.4142   20.1015 C   0  0  0  0  0  0
  -25.5867  -33.8615   24.2308 N   0  0  0  0  0  0
  -23.4046  -30.4869   21.5496 C   0  0  2  0  0  0
  -24.8550  -28.9562   20.1117 C   0  0  0  0  0  0
  -22.7419  -29.4651   22.5005 C   0  0  0  0  0  0
  -18.0251  -28.1364   22.8473 C   0  0  0  0  0  0
  -24.1479  -36.7359   23.2638 C   0  0  0  0  0  0
  -25.9339  -30.8269   21.3607 C   0  0  0  0  0  0
  -26.0153  -29.4589   20.7107 C   0  0  0  0  0  0
  -27.2110  -28.6974   20.6986 C   0  0  0  0  0  0
  -26.0571  -26.9425   19.4764 C   0  0  0  0  0  0
  -24.8727  -27.6985   19.4843 C   0  0  0  0  0  0
  -23.6118  -29.8175   20.1647 C   0  0  0  0  0  0
  -25.4088  -36.3128   24.0325 C   0  0  1  0  0  0
  -20.5852  -28.3659   23.1313 C   0  0  2  0  0  0
  -20.6749  -26.9391   22.5422 C   0  0  0  0  0  0
  -19.5732  -26.6383   21.5210 C   0  0  0  0  0  0
  -18.1917  -26.7905   22.1621 C   0  0  0  0  0  0
  -19.1504  -28.8827   23.2881 C   0  0  0  0  0  0
  -18.9433  -30.1440   23.8891 C   0  0  0  0  0  0
  -17.6443  -30.6575   24.0567 C   0  0  0  0  0  0
  -25.9018  -34.9481   23.5131 C   0  0  0  0  0  0
  -16.5325  -29.9082   23.6321 C   0  0  0  0  0  0
  -16.7247  -28.6496   23.0326 C   0  0  0  0  0  0
  -26.4437  -31.6577   25.0724 C   0  0  0  0  0  0
  -25.3691  -31.3687   26.1471 C   0  0  0  0  0  0
  -27.0257  -30.3006   24.6131 C   0  0  0  0  0  0
  -27.6010  -32.4278   25.7504 C   0  0  0  0  0  0
  -27.5569  -37.1819   24.8447 C   0  0  0  0  0  0
  -21.4142  -29.3046   22.3752 N   0  0  0  0  0  0
  -26.4282  -37.3805   23.9391 N   0  0  0  0  0  0
  -24.6699  -31.0759   22.0973 N   0  0  0  0  0  0
  -23.4182  -28.8189   23.3048 O   0  0  0  0  0  0
  -28.3817  -26.6412   20.1053 O   0  0  0  0  0  0
  -26.5642  -34.8934   22.4732 O   0  0  0  0  0  0
  -23.5337  -32.1424   23.7435 O   0  0  0  0  0  0
  -30.6788  -19.7145   19.4219 C   0  0  0  0  0  0
  -31.2532  -18.6819   18.6686 C   0  0  0  0  0  0
  -29.6070  -18.0489   20.8375 C   0  0  0  0  0  0
  -29.8081  -19.4147   20.4874 C   0  0  0  0  0  0
  -30.9827  -17.3276   18.9549 C   0  0  0  0  0  0
  -30.2074  -16.9825   20.1067 C   0  0  0  0  0  0
  -29.4703  -23.0369   21.0614 C   0  0  0  0  0  0
  -31.4837  -16.3247   17.9250 C   0  0  0  0  0  0
  -28.1983  -21.8283   19.3180 C   0  0  0  0  0  0
  -29.1021  -20.5531   21.2541 C   0  0  0  0  0  0
  -29.4273  -24.3554   20.2380 C   0  0  0  0  0  0
  -28.2174  -25.2731   20.5561 C   0  0  0  0  0  0
  -29.9077  -15.6260   20.5108 N   0  0  0  0  0  0
  -28.9853  -21.8671   20.5551 N   0  0  0  0  0  0
  -30.0006  -23.0851   22.1756 O   0  0  0  0  0  0
  -31.4608  -12.4079   19.1150 H   0  0  0  0  0  0
  -30.3234  -11.3158   19.8602 H   0  0  0  0  0  0
  -29.7303  -11.7389   17.4370 H   0  0  0  0  0  0
  -29.6450  -13.4533   17.7435 H   0  0  0  0  0  0
  -27.8325  -11.2897   18.8461 H   0  0  0  0  0  0
  -27.3572  -12.5850   17.7854 H   0  0  0  0  0  0
  -27.6757  -14.2442   19.5088 H   0  0  0  0  0  0
  -28.6773  -12.0434   21.3860 H   0  0  0  0  0  0
  -28.4760  -13.7219   21.8137 H   0  0  0  0  0  0
  -25.2776   -9.5708   22.4753 H   0  0  0  0  0  0
  -24.0054   -7.4635   22.7441 H   0  0  0  0  0  0
  -21.0899   -8.8764   19.8920 H   0  0  0  0  0  0
  -22.3735  -10.9679   19.6151 H   0  0  0  0  0  0
  -21.1977   -7.6151   23.9715 H   0  0  0  0  0  0
  -21.1483   -6.0551   25.9095 H   0  0  0  0  0  0
  -22.0594   -2.7611   23.2875 H   0  0  0  0  0  0
  -22.4204  -11.9829   22.4712 H   0  0  0  0  0  0
  -21.1119  -13.1133   22.2622 H   0  0  0  0  0  0
  -24.6700  -15.8526   20.5066 H   0  0  0  0  0  0
  -26.2794  -15.6229   20.0610 H   0  0  0  0  0  0
  -26.7120  -32.5530   23.1162 H   0  0  0  0  0  0
  -24.9868  -33.9745   25.0352 H   0  0  0  0  0  0
  -22.6912  -31.3012   21.4089 H   0  0  0  0  0  0
  -23.3723  -35.9722   23.3295 H   0  0  0  0  0  0
  -24.3564  -36.8985   22.2052 H   0  0  0  0  0  0
  -23.7249  -37.6557   23.6674 H   0  0  0  0  0  0
  -26.0399  -31.5841   20.5821 H   0  0  0  0  0  0
  -26.8231  -30.8872   21.9765 H   0  0  0  0  0  0
  -28.1091  -29.0890   21.1584 H   0  0  0  0  0  0
  -26.0472  -25.9943   18.9618 H   0  0  0  0  0  0
  -23.9891  -27.3083   18.9953 H   0  0  0  0  0  0
  -23.7030  -30.5878   19.3981 H   0  0  0  0  0  0
  -22.7383  -29.2260   19.8840 H   0  0  0  0  0  0
  -25.1256  -36.1999   25.0818 H   0  0  0  0  0  0
  -20.9891  -28.3236   24.1455 H   0  0  0  0  0  0
  -20.5627  -26.2282   23.3612 H   0  0  0  0  0  0
  -21.6618  -26.7430   22.1231 H   0  0  0  0  0  0
  -19.6898  -25.6297   21.1229 H   0  0  0  0  0  0
  -19.6666  -27.3205   20.6741 H   0  0  0  0  0  0
  -17.4165  -26.6615   21.4044 H   0  0  0  0  0  0
  -18.0324  -26.0067   22.9033 H   0  0  0  0  0  0
  -19.7912  -30.7250   24.2268 H   0  0  0  0  0  0
  -17.4991  -31.6252   24.5181 H   0  0  0  0  0  0
  -15.5313  -30.2984   23.7650 H   0  0  0  0  0  0
  -15.8641  -28.0834   22.7024 H   0  0  0  0  0  0
  -24.5870  -30.7018   25.7811 H   0  0  0  0  0  0
  -24.8868  -32.2830   26.4943 H   0  0  0  0  0  0
  -25.8029  -30.8841   27.0233 H   0  0  0  0  0  0
  -26.2819  -29.6786   24.1141 H   0  0  0  0  0  0
  -27.3920  -29.7221   25.4625 H   0  0  0  0  0  0
  -27.8702  -30.4280   23.9363 H   0  0  0  0  0  0
  -27.2632  -33.3561   26.2141 H   0  0  0  0  0  0
  -28.3812  -32.6851   25.0324 H   0  0  0  0  0  0
  -28.0713  -31.8366   26.5373 H   0  0  0  0  0  0
  -28.2576  -38.0127   24.7498 H   0  0  0  0  0  0
  -28.1064  -36.2646   24.6263 H   0  0  0  0  0  0
  -27.2293  -37.1464   25.8854 H   0  0  0  0  0  0
  -20.9306  -29.8828   21.7016 H   0  0  0  0  0  0
  -26.0180  -38.2885   24.1401 H   0  0  0  0  0  0
  -30.8815  -20.7379   19.1416 H   0  0  0  0  0  0
  -31.8709  -18.9442   17.8199 H   0  0  0  0  0  0
  -28.9609  -17.8131   21.6731 H   0  0  0  0  0  0
  -31.5381  -16.7855   16.9382 H   0  0  0  0  0  0
  -30.8044  -15.4807   17.8264 H   0  0  0  0  0  0
  -32.4824  -15.9670   18.1768 H   0  0  0  0  0  0
  -27.3726  -22.5390   19.3473 H   0  0  0  0  0  0
  -27.7590  -20.8436   19.1536 H   0  0  0  0  0  0
  -28.8226  -22.0526   18.4516 H   0  0  0  0  0  0
  -29.6067  -20.6586   22.2152 H   0  0  0  0  0  0
  -28.0916  -20.2255   21.5033 H   0  0  0  0  0  0
  -29.4989  -24.1569   19.1704 H   0  0  0  0  0  0
  -30.3371  -24.9018   20.4821 H   0  0  0  0  0  0
  -28.0381  -25.2972   21.6308 H   0  0  0  0  0  0
  -27.3435  -24.7935   20.1208 H   0  0  0  0  0  0
  -28.9636  -15.4568   20.8215 H   0  0  0  0  0  0
  1 25  1  0  0  0
  1 30  2  0  0  0
  1 83  1  0  0  0
  2  3  1  0  0  0
  2 25  1  0  0  0
  2 86  1  0  0  0
  2 87  1  0  0  0
  3  4  1  0  0  0
  3 88  1  0  0  0
  3 89  1  0  0  0
  4  5  1  0  0  0
  4 90  1  0  0  0
  4 91  1  0  0  0
  5  6  1  0  0  0
  5 26  1  0  0  0
  5 92  1  0  0  0
  6 25  1  0  0  0
  6 93  1  0  0  0
  6 94  1  0  0  0
  7  8  2  0  0  0
  7 26  1  0  0  0
  7 29  1  0  0  0
  8  9  1  0  0  0
  8 22  1  0  0  0
  9 10  1  0  0  0
  9 27  2  0  0  0
 10 11  2  0  0  0
 10 15  1  0  0  0
 11 12  1  0  0  0
 11 95  1  0  0  0
 12 13  2  0  0  0
 12 96  1  0  0  0
 13 14  1  0  0  0
 13 31  1  0  0  0
 14 15  2  0  0  0
 14 97  1  0  0  0
 15 98  1  0  0  0
 16 17  2  0  0  0
 16 21  1  0  0  0
 16 31  1  0  0  0
 17 18  1  0  0  0
 17 99  1  0  0  0
 18 19  2  0  0  0
 18100  1  0  0  0
 19 20  1  0  0  0
 19 24  1  0  0  0
 20 21  2  0  0  0
 20101  1  0  0  0
 21 23  1  0  0  0
 22 28  1  0  0  0
 22 32  2  0  0  0
 26 27  1  0  0  0
 28102  1  0  0  0
 28103  1  0  0  0
 29104  1  0  0  0
 29105  1  0  0  0
 33 34  1  0  0  0
 33 66  1  0  0  0
 33 70  2  0  0  0
 34 36  1  0  0  0
 34 59  1  0  0  0
 34106  1  0  0  0
 35 44  2  0  0  0
 35 45  1  0  0  0
 35 68  1  0  0  0
 36 56  1  0  0  0
 36107  1  0  0  0
 37 39  1  0  0  0
 37 47  1  0  0  0
 37 66  1  0  0  0
 37108  1  0  0  0
 38 43  2  0  0  0
 38 46  1  0  0  0
 38 47  1  0  0  0
 39 64  1  0  0  0
 39 67  2  0  0  0
 40 52  1  0  0  0
 40 53  2  0  0  0
 40 58  1  0  0  0
 41109  1  0  0  0
 41110  1  0  0  0
 41111  1  0  0  0
 41 48  1  0  0  0
 42 43  1  0  0  0
 42 66  1  0  0  0
 42112  1  0  0  0
 42113  1  0  0  0
 43 44  1  0  0  0
 44114  1  0  0  0
 45 46  2  0  0  0
 45115  1  0  0  0
 46116  1  0  0  0
 47117  1  0  0  0
 47118  1  0  0  0
 48 56  1  0  0  0
 48 65  1  0  0  0
 48119  1  0  0  0
 49 50  1  0  0  0
 49 53  1  0  0  0
 49 64  1  0  0  0
 49120  1  0  0  0
 50 51  1  0  0  0
 50121  1  0  0  0
 50122  1  0  0  0
 51 52  1  0  0  0
 51123  1  0  0  0
 51124  1  0  0  0
 52125  1  0  0  0
 52126  1  0  0  0
 53 54  1  0  0  0
 54 55  2  0  0  0
 54127  1  0  0  0
 55 57  1  0  0  0
 55128  1  0  0  0
 56 69  2  0  0  0
 57 58  2  0  0  0
 57129  1  0  0  0
 58130  1  0  0  0
 59 60  1  0  0  0
 59 61  1  0  0  0
 59 62  1  0  0  0
 60131  1  0  0  0
 60132  1  0  0  0
 60133  1  0  0  0
 61134  1  0  0  0
 61135  1  0  0  0
 61136  1  0  0  0
 62137  1  0  0  0
 62138  1  0  0  0
 62139  1  0  0  0
 63 65  1  0  0  0
 63140  1  0  0  0
 63141  1  0  0  0
 63142  1  0  0  0
 64143  1  0  0  0
 65144  1  0  0  0
 68 82  1  0  0  0
 71 72  2  0  0  0
 71 74  1  0  0  0
 71145  1  0  0  0
 72 75  1  0  0  0
 72146  1  0  0  0
 73 74  2  0  0  0
 73 76  1  0  0  0
 73147  1  0  0  0
 74 80  1  0  0  0
 75 76  2  0  0  0
 75 78  1  0  0  0
 76 83  1  0  0  0
 77 81  1  0  0  0
 77 84  1  0  0  0
 77 85  2  0  0  0
 78148  1  0  0  0
 78149  1  0  0  0
 78150  1  0  0  0
 79 84  1  0  0  0
 79151  1  0  0  0
 79152  1  0  0  0
 79153  1  0  0  0
 80 84  1  0  0  0
 80154  1  0  0  0
 80155  1  0  0  0
 81 82  1  0  0  0
 81156  1  0  0  0
 81157  1  0  0  0
 82158  1  0  0  0
 82159  1  0  0  0
 83160  1  0  0  0
M  ISO  4   1 100  68 101  82 101  83 100
M  END
> <chiral flag>
0

> <version>
0

> <s_m_source_file>
/data/baiqing/PycharmProjects/Reinvent-master-3.2/result/LINK_invent/BTK/process_docking_weight1_custom_product_contain_oxygen_bond_distance_aromatic_linkinvent_7_9_3/rearranged_h_0050.sdf

> <i_m_source_file_index>
75

> <r_mmod_Potential_Energy-OPLS-2005>
-20.8732833862305

> <r_mmod_Stretch_Energy-OPLS-2005>
49.3149871826172

> <r_mmod_Bend_Energy-OPLS-2005>
106.636169433594

> <r_mmod_Torsional_Energy-OPLS-2005>
264.775054931641

> <r_mmod_Improper_Torsional_Energy-OPLS-2005>
6.78901338577271

> <r_mmod_Van_der_Waal_Energy-OPLS-2005>
161.430252075195

> <r_mmod_Electrostatic_Energy-OPLS-2005>
-407.017272949219

> <r_mmod_Solvation_Energy-OPLS-2005>
-229.301544189453

> <b_mmod_Minimization_Converged-OPLS-2005>
0

> <r_mmod_RMS_Derivative-OPLS-2005>
3.55200004577637

$$$$
75
                    3D
 Structure written by MMmdl.
161170  0  0  1  0            999 V2000
  -30.6338  -14.5881   20.5263 C   0  0  0  0  0  0
  -30.4398  -12.3662   19.4413 C   0  0  0  0  0  0
  -29.5069  -12.5138   18.2181 C   0  0  0  0  0  0
  -28.0285  -12.3562   18.6283 C   0  0  0  0  0  0
  -27.6597  -13.2105   19.8704 C   0  0  2  0  0  0
  -28.7029  -13.0245   20.9957 C   0  0  0  0  0  0
  -25.2586  -13.8159   20.5673 C   0  0  0  0  0  0
  -24.1841  -13.0435   20.9177 C   0  0  0  0  0  0
  -24.6397  -11.6904   20.8729 C   0  0  0  0  0  0
  -23.9060  -10.4291   21.0402 C   0  0  0  0  0  0
  -24.3614   -9.4206   21.9179 C   0  0  0  0  0  0
  -23.6292   -8.2241   22.0752 C   0  0  0  0  0  0
  -22.4272   -8.0279   21.3543 C   0  0  0  0  0  0
  -21.9904   -9.0254   20.4643 C   0  0  0  0  0  0
  -22.7234  -10.2130   20.3051 C   0  0  0  0  0  0
  -21.6849   -6.0732   22.5280 C   0  0  0  0  0  0
  -21.4013   -6.5637   23.8214 C   0  0  0  0  0  0
  -21.3659   -5.6790   24.9175 C   0  0  0  0  0  0
  -21.6047   -4.3053   24.7223 C   0  0  0  0  0  0
  -21.8821   -3.8145   23.4343 C   0  0  0  0  0  0
  -21.9194   -4.6960   22.3402 C   0  0  0  0  0  0
  -22.7864  -13.5237   21.1843 C   0  0  0  0  0  0
  -22.1662   -4.2145   21.0979 F   0  0  0  0  0  0
  -21.5631   -3.4536   25.7737 F   0  0  0  0  0  0
  -30.0262  -13.3651   20.4442 N   0  0  0  0  0  0
  -26.3016  -12.9331   20.3329 N   0  0  0  0  0  0
  -25.9326  -11.6491   20.5749 N   0  0  0  0  0  0
  -22.0498  -12.8236   22.0399 N   0  0  0  0  0  0
  -25.4309  -15.1875   20.4077 N   0  0  0  0  0  0
  -31.7754  -14.7787   20.0957 O   0  0  0  0  0  0
  -21.6639   -6.8875   21.4242 O   0  0  0  0  0  0
  -22.3555  -14.5549   20.6698 O   0  0  0  0  0  0
  -24.6229  -31.8631   23.2072 C   0  0  0  0  0  0
  -25.9094  -32.4793   23.8383 C   0  0  1  0  0  0
  -27.2257  -27.3507   20.0992 C   0  0  0  0  0  0
  -25.5926  -33.8595   24.2309 N   0  0  0  0  0  0
  -23.4138  -30.4887   21.5501 C   0  0  2  0  0  0
  -24.8579  -28.9516   20.1113 C   0  0  0  0  0  0
  -22.7455  -29.4637   22.4968 C   0  0  0  0  0  0
  -18.0280  -28.1381   22.8494 C   0  0  0  0  0  0
  -24.1490  -36.7296   23.2639 C   0  0  0  0  0  0
  -25.9530  -30.8011   21.3759 C   0  0  0  0  0  0
  -26.0252  -29.4316   20.7170 C   0  0  0  0  0  0
  -27.2077  -28.6391   20.7098 C   0  0  0  0  0  0
  -26.0304  -26.9186   19.4736 C   0  0  0  0  0  0
  -24.8604  -27.6974   19.4854 C   0  0  0  0  0  0
  -23.6247  -29.8273   20.1635 C   0  0  0  0  0  0
  -25.4113  -36.3093   24.0335 C   0  0  1  0  0  0
  -20.5876  -28.3674   23.1306 C   0  0  2  0  0  0
  -20.6769  -26.9405   22.5417 C   0  0  0  0  0  0
  -19.5745  -26.6383   21.5219 C   0  0  0  0  0  0
  -18.1924  -26.7926   22.1628 C   0  0  0  0  0  0
  -19.1531  -28.8845   23.2895 C   0  0  0  0  0  0
  -18.9450  -30.1451   23.8906 C   0  0  0  0  0  0
  -17.6451  -30.6583   24.0562 C   0  0  0  0  0  0
  -25.9049  -34.9458   23.5120 C   0  0  0  0  0  0
  -16.5343  -29.9081   23.6332 C   0  0  0  0  0  0
  -16.7268  -28.6497   23.0355 C   0  0  0  0  0  0
  -26.4490  -31.6589   25.0737 C   0  0  0  0  0  0
  -25.3735  -31.3708   26.1471 C   0  0  0  0  0  0
  -27.0325  -30.3019   24.6167 C   0  0  0  0  0  0
  -27.6061  -32.4315   25.7500 C   0  0  0  0  0  0
  -27.5584  -37.1799   24.8461 C   0  0  0  0  0  0
  -21.4173  -29.3035   22.3706 N   0  0  0  0  0  0
  -26.4289  -37.3787   23.9417 N   0  0  0  0  0  0
  -24.6817  -31.0666   22.1013 N   0  0  0  0  0  0
  -23.4200  -28.8174   23.3028 O   0  0  0  0  0  0
  -28.3708  -26.5431   20.1478 O   0  0  0  0  0  0
  -26.5611  -34.8915   22.4679 O   0  0  0  0  0  0
  -23.5401  -32.1419   23.7422 O   0  0  0  0  0  0
  -28.4872  -19.1231   20.8253 C   0  0  0  0  0  0
  -28.6428  -17.7376   21.0979 C   0  0  0  0  0  0
  -30.8666  -17.7926   20.1709 C   0  0  0  0  0  0
  -29.5068  -19.8799   20.1975 C   0  0  0  0  0  0
  -29.8195  -17.0273   20.7502 C   0  0  0  0  0  0
  -30.7173  -19.1866   19.9014 C   0  0  0  0  0  0
  -30.3884  -23.5699   20.1780 C   0  0  0  0  0  0
  -31.6579  -23.5619   20.6184 C   0  0  0  0  0  0
  -29.7868  -24.6342   19.2352 C   0  0  0  0  0  0
  -27.4806  -24.1087   20.2116 C   0  0  0  0  0  0
  -28.1918  -23.1268   21.1833 C   0  0  0  0  0  0
  -28.3687  -25.2019   19.5452 C   0  0  1  0  0  0
  -29.2168  -21.3367   19.6950 C   0  0  0  0  0  0
  -29.8441  -15.5935   20.9997 N   0  0  0  0  0  0
  -29.4260  -22.5037   20.6297 N   0  3  2  0  0  0
  -32.0368  -20.0192   19.1576 Cl  0  0  0  0  0  0
  -31.4813  -12.4911   19.1400 H   0  0  0  0  0  0
  -30.3706  -11.3616   19.8603 H   0  0  0  0  0  0
  -29.7651  -11.7754   17.4573 H   0  0  0  0  0  0
  -29.6553  -13.4915   17.7568 H   0  0  0  0  0  0
  -27.8563  -11.3010   18.8423 H   0  0  0  0  0  0
  -27.3755  -12.6060   17.7913 H   0  0  0  0  0  0
  -27.6913  -14.2528   19.5523 H   0  0  0  0  0  0
  -28.7038  -11.9908   21.3448 H   0  0  0  0  0  0
  -28.4492  -13.6255   21.8697 H   0  0  0  0  0  0
  -25.2758   -9.5685   22.4754 H   0  0  0  0  0  0
  -24.0000   -7.4634   22.7472 H   0  0  0  0  0  0
  -21.0833   -8.8774   19.8954 H   0  0  0  0  0  0
  -22.3697  -10.9667   19.6158 H   0  0  0  0  0  0
  -21.2003   -7.6146   23.9717 H   0  0  0  0  0  0
  -21.1480   -6.0517   25.9079 H   0  0  0  0  0  0
  -22.0601   -2.7605   23.2845 H   0  0  0  0  0  0
  -22.4103  -11.9891   22.4785 H   0  0  0  0  0  0
  -21.1117  -13.1273   22.2604 H   0  0  0  0  0  0
  -24.6593  -15.8388   20.5040 H   0  0  0  0  0  0
  -26.2729  -15.6214   20.0518 H   0  0  0  0  0  0
  -26.7160  -32.5474   23.1133 H   0  0  0  0  0  0
  -25.0078  -33.9744   25.0457 H   0  0  0  0  0  0
  -22.7057  -31.3085   21.4127 H   0  0  0  0  0  0
  -23.3756  -35.9622   23.3287 H   0  0  0  0  0  0
  -24.3597  -36.8928   22.2058 H   0  0  0  0  0  0
  -23.7226  -37.6489   23.6664 H   0  0  0  0  0  0
  -26.0825  -31.5676   20.6105 H   0  0  0  0  0  0
  -26.8344  -30.8465   22.0041 H   0  0  0  0  0  0
  -28.1029  -29.0036   21.1942 H   0  0  0  0  0  0
  -25.9553  -25.9640   18.9775 H   0  0  0  0  0  0
  -23.9646  -27.3232   19.0088 H   0  0  0  0  0  0
  -23.7390  -30.6061   19.4089 H   0  0  0  0  0  0
  -22.7449  -29.2552   19.8631 H   0  0  0  0  0  0
  -25.1288  -36.1947   25.0826 H   0  0  0  0  0  0
  -20.9967  -28.3237   24.1429 H   0  0  0  0  0  0
  -20.5682  -26.2279   23.3607 H   0  0  0  0  0  0
  -21.6635  -26.7449   22.1200 H   0  0  0  0  0  0
  -19.6904  -25.6296   21.1244 H   0  0  0  0  0  0
  -19.6684  -27.3199   20.6754 H   0  0  0  0  0  0
  -17.4197  -26.6683   21.4024 H   0  0  0  0  0  0
  -18.0318  -26.0065   22.9018 H   0  0  0  0  0  0
  -19.7925  -30.7266   24.2279 H   0  0  0  0  0  0
  -17.5003  -31.6267   24.5154 H   0  0  0  0  0  0
  -15.5342  -30.2980   23.7653 H   0  0  0  0  0  0
  -15.8669  -28.0817   22.7070 H   0  0  0  0  0  0
  -24.5919  -30.7046   25.7798 H   0  0  0  0  0  0
  -24.8913  -32.2862   26.4910 H   0  0  0  0  0  0
  -25.8074  -30.8881   27.0237 H   0  0  0  0  0  0
  -26.2884  -29.6780   24.1200 H   0  0  0  0  0  0
  -27.4038  -29.7264   25.4656 H   0  0  0  0  0  0
  -27.8752  -30.4311   23.9372 H   0  0  0  0  0  0
  -27.2684  -33.3615   26.2085 H   0  0  0  0  0  0
  -28.3867  -32.6871   25.0321 H   0  0  0  0  0  0
  -28.0734  -31.8433   26.5410 H   0  0  0  0  0  0
  -28.2580  -38.0118   24.7545 H   0  0  0  0  0  0
  -28.1100  -36.2653   24.6237 H   0  0  0  0  0  0
  -27.2314  -37.1387   25.8866 H   0  0  0  0  0  0
  -20.9342  -29.8758   21.6923 H   0  0  0  0  0  0
  -26.0172  -38.2859   24.1433 H   0  0  0  0  0  0
  -27.5419  -19.5921   21.0616 H   0  0  0  0  0  0
  -27.8148  -17.2102   21.5526 H   0  0  0  0  0  0
  -31.7965  -17.3168   19.8985 H   0  0  0  0  0  0
  -32.3536  -24.3300   20.3121 H   0  0  0  0  0  0
  -32.0318  -22.7996   21.2872 H   0  0  0  0  0  0
  -29.7546  -24.1619   18.2522 H   0  0  0  0  0  0
  -30.4890  -25.4612   19.1246 H   0  0  0  0  0  0
  -26.6394  -24.5647   20.7325 H   0  0  0  0  0  0
  -27.0317  -23.5144   19.4151 H   0  0  0  0  0  0
  -27.5009  -22.3498   21.5130 H   0  0  0  0  0  0
  -28.4729  -23.6755   22.0830 H   0  0  0  0  0  0
  -27.9594  -25.3718   18.5482 H   0  0  0  0  0  0
  -28.1885  -21.3568   19.3340 H   0  0  0  0  0  0
  -29.8053  -21.5081   18.7940 H   0  0  0  0  0  0
  -28.9964  -15.2338   21.4116 H   0  0  0  0  0  0
  -29.8439  -22.0635   21.4353 H   0  0  0  0  0  0
  1 25  1  0  0  0
  1 30  2  0  0  0
  1 84  1  0  0  0
  2  3  1  0  0  0
  2 25  1  0  0  0
  2 87  1  0  0  0
  2 88  1  0  0  0
  3  4  1  0  0  0
  3 89  1  0  0  0
  3 90  1  0  0  0
  4  5  1  0  0  0
  4 91  1  0  0  0
  4 92  1  0  0  0
  5  6  1  0  0  0
  5 26  1  0  0  0
  5 93  1  0  0  0
  6 25  1  0  0  0
  6 94  1  0  0  0
  6 95  1  0  0  0
  7  8  2  0  0  0
  7 26  1  0  0  0
  7 29  1  0  0  0
  8  9  1  0  0  0
  8 22  1  0  0  0
  9 10  1  0  0  0
  9 27  2  0  0  0
 10 11  2  0  0  0
 10 15  1  0  0  0
 11 12  1  0  0  0
 11 96  1  0  0  0
 12 13  2  0  0  0
 12 97  1  0  0  0
 13 14  1  0  0  0
 13 31  1  0  0  0
 14 15  2  0  0  0
 14 98  1  0  0  0
 15 99  1  0  0  0
 16 17  2  0  0  0
 16 21  1  0  0  0
 16 31  1  0  0  0
 17 18  1  0  0  0
 17100  1  0  0  0
 18 19  2  0  0  0
 18101  1  0  0  0
 19 20  1  0  0  0
 19 24  1  0  0  0
 20 21  2  0  0  0
 20102  1  0  0  0
 21 23  1  0  0  0
 22 28  1  0  0  0
 22 32  2  0  0  0
 26 27  1  0  0  0
 28103  1  0  0  0
 28104  1  0  0  0
 29105  1  0  0  0
 29106  1  0  0  0
 33 34  1  0  0  0
 33 66  1  0  0  0
 33 70  2  0  0  0
 34 36  1  0  0  0
 34 59  1  0  0  0
 34107  1  0  0  0
 35 44  2  0  0  0
 35 45  1  0  0  0
 35 68  1  0  0  0
 36 56  1  0  0  0
 36108  1  0  0  0
 37 39  1  0  0  0
 37 47  1  0  0  0
 37 66  1  0  0  0
 37109  1  0  0  0
 38 43  2  0  0  0
 38 46  1  0  0  0
 38 47  1  0  0  0
 39 64  1  0  0  0
 39 67  2  0  0  0
 40 52  1  0  0  0
 40 53  2  0  0  0
 40 58  1  0  0  0
 41110  1  0  0  0
 41111  1  0  0  0
 41112  1  0  0  0
 41 48  1  0  0  0
 42 43  1  0  0  0
 42 66  1  0  0  0
 42113  1  0  0  0
 42114  1  0  0  0
 43 44  1  0  0  0
 44115  1  0  0  0
 45 46  2  0  0  0
 45116  1  0  0  0
 46117  1  0  0  0
 47118  1  0  0  0
 47119  1  0  0  0
 48 56  1  0  0  0
 48 65  1  0  0  0
 48120  1  0  0  0
 49 50  1  0  0  0
 49 53  1  0  0  0
 49 64  1  0  0  0
 49121  1  0  0  0
 50 51  1  0  0  0
 50122  1  0  0  0
 50123  1  0  0  0
 51 52  1  0  0  0
 51124  1  0  0  0
 51125  1  0  0  0
 52126  1  0  0  0
 52127  1  0  0  0
 53 54  1  0  0  0
 54 55  2  0  0  0
 54128  1  0  0  0
 55 57  1  0  0  0
 55129  1  0  0  0
 56 69  2  0  0  0
 57 58  2  0  0  0
 57130  1  0  0  0
 58131  1  0  0  0
 59 60  1  0  0  0
 59 61  1  0  0  0
 59 62  1  0  0  0
 60132  1  0  0  0
 60133  1  0  0  0
 60134  1  0  0  0
 61135  1  0  0  0
 61136  1  0  0  0
 61137  1  0  0  0
 62138  1  0  0  0
 62139  1  0  0  0
 62140  1  0  0  0
 63 65  1  0  0  0
 63141  1  0  0  0
 63142  1  0  0  0
 63143  1  0  0  0
 64144  1  0  0  0
 65145  1  0  0  0
 68 82  1  0  0  0
 71 72  2  0  0  0
 71 74  1  0  0  0
 71146  1  0  0  0
 72 75  1  0  0  0
 72147  1  0  0  0
 73 75  2  0  0  0
 73 76  1  0  0  0
 73148  1  0  0  0
 74 76  2  0  0  0
 74 83  1  0  0  0
 75 84  1  0  0  0
 76 86  1  0  0  0
 77 78  2  0  0  0
 77 79  1  0  0  0
 77 85  1  0  0  0
 78149  1  0  0  0
 78150  1  0  0  0
 79 82  1  0  0  0
 79151  1  0  0  0
 79152  1  0  0  0
 80 81  1  0  0  0
 80 82  1  0  0  0
 80153  1  0  0  0
 80154  1  0  0  0
 81 85  1  0  0  0
 81155  1  0  0  0
 81156  1  0  0  0
 82157  1  0  0  0
 83158  1  0  0  0
 83159  1  0  0  0
 83 85  1  0  0  0
 84160  1  0  0  0
 85161  1  0  0  0
M  CHG  1  85   1
M  ISO  4   1 100  68 101  82 101  84 100
M  END
> <chiral flag>
0

> <version>
0

> <s_m_source_file>
/data/baiqing/PycharmProjects/Reinvent-master-3.2/result/LINK_invent/BTK/process_docking_weight1_custom_product_contain_oxygen_bond_distance_aromatic_linkinvent_7_9_3/rearranged_h_0050.sdf

> <i_m_source_file_index>
76

> <r_mmod_Potential_Energy-OPLS-2005>
-81.729621887207

> <r_mmod_Stretch_Energy-OPLS-2005>
64.5648803710938

> <r_mmod_Bend_Energy-OPLS-2005>
154.31852722168

> <r_mmod_Torsional_Energy-OPLS-2005>
239.269683837891

> <r_mmod_Improper_Torsional_Energy-OPLS-2005>
4.72768354415894

> <r_mmod_Van_der_Waal_Energy-OPLS-2005>
145.898025512695

> <r_mmod_Electrostatic_Energy-OPLS-2005>
-276.208160400391

> <r_mmod_Solvation_Energy-OPLS-2005>
-447.789245605469

> <b_mmod_Minimization_Converged-OPLS-2005>
0

> <r_mmod_RMS_Derivative-OPLS-2005>
0.852307915687561

$$$$
76
                    3D
 Structure written by MMmdl.
167176  0  0  1  0            999 V2000
  -29.8411  -15.7644   20.3612 C   0  0  0  0  0  0
  -30.3550  -13.2063   19.5842 C   0  0  0  0  0  0
  -29.5389  -12.6957   18.3561 C   0  0  0  0  0  0
  -28.1163  -12.2834   18.7694 C   0  0  0  0  0  0
  -27.5445  -13.2777   19.8021 C   0  0  2  0  0  0
  -28.4985  -13.5788   20.9630 C   0  0  0  0  0  0
  -25.2085  -13.8184   20.5683 C   0  0  0  0  0  0
  -24.1526  -13.0374   20.9320 C   0  0  0  0  0  0
  -24.6205  -11.6875   20.8778 C   0  0  0  0  0  0
  -23.8968  -10.4249   21.0441 C   0  0  0  0  0  0
  -24.3568   -9.4180   21.9204 C   0  0  0  0  0  0
  -23.6267   -8.2203   22.0753 C   0  0  0  0  0  0
  -22.4252   -8.0238   21.3538 C   0  0  0  0  0  0
  -21.9868   -9.0201   20.4643 C   0  0  0  0  0  0
  -22.7166  -10.2089   20.3067 C   0  0  0  0  0  0
  -21.6841   -6.0715   22.5288 C   0  0  0  0  0  0
  -21.4002   -6.5626   23.8218 C   0  0  0  0  0  0
  -21.3654   -5.6781   24.9180 C   0  0  0  0  0  0
  -21.6046   -4.3046   24.7235 C   0  0  0  0  0  0
  -21.8818   -3.8135   23.4357 C   0  0  0  0  0  0
  -21.9186   -4.6947   22.3410 C   0  0  0  0  0  0
  -22.7585  -13.5154   21.1990 C   0  0  0  0  0  0
  -22.1658   -4.2135   21.0988 F   0  0  0  0  0  0
  -21.5631   -3.4531   25.7749 F   0  0  0  0  0  0
  -29.5919  -14.3172   20.3372 N   0  0  0  0  0  0
  -26.2354  -12.9394   20.2940 N   0  0  0  0  0  0
  -25.9076  -11.6523   20.5570 N   0  0  0  0  0  0
  -22.0252  -12.8145   22.0545 N   0  0  0  0  0  0
  -25.3749  -15.1925   20.4089 N   0  0  0  0  0  0
  -31.0795  -15.8661   20.1522 O   0  0  0  0  0  0
  -21.6615   -6.8844   21.4244 O   0  0  0  0  0  0
  -22.3301  -14.5466   20.6823 O   0  0  0  0  0  0
  -24.6308  -31.6532   23.0725 C   0  0  0  0  0  0
  -25.8842  -32.3867   23.7115 C   0  0  1  0  0  0
  -27.9457  -27.6177   19.9669 C   0  0  0  0  0  0
  -25.5317  -33.7777   24.1023 N   0  0  0  0  0  0
  -23.4195  -29.7018   21.8832 C   0  0  2  0  0  0
  -25.5002  -28.0006   19.7472 C   0  0  0  0  0  0
  -22.5916  -29.3291   22.9865 C   0  0  0  0  0  0
  -17.9492  -28.1377   22.8454 C   0  0  0  0  0  0
  -24.1448  -36.6997   23.2707 C   0  0  0  0  0  0
  -25.9385  -30.5702   21.0920 C   0  0  0  0  0  0
  -26.3734  -29.2833   20.0762 C   0  0  0  0  0  0
  -27.7167  -28.9986   20.0101 C   0  0  0  0  0  0
  -27.2078  -26.8170   19.0900 C   0  0  0  0  0  0
  -25.9773  -27.2449   18.7108 C   0  0  0  0  0  0
  -23.4594  -28.0615   21.0300 C   0  0  0  0  0  0
  -25.4127  -36.2603   24.0216 C   0  0  1  0  0  0
  -20.4483  -28.2733   23.3022 C   0  0  2  0  0  0
  -20.5346  -26.8593   22.6791 C   0  0  0  0  0  0
  -19.5312  -26.6364   21.5523 C   0  0  0  0  0  0
  -18.1200  -26.8090   22.1222 C   0  0  0  0  0  0
  -19.0587  -28.8525   23.3507 C   0  0  0  0  0  0
  -18.8797  -30.1228   23.9371 C   0  0  0  0  0  0
  -17.5924  -30.6669   24.0611 C   0  0  0  0  0  0
  -25.9040  -34.9001   23.4665 C   0  0  0  0  0  0
  -16.4811  -29.9331   23.6116 C   0  0  0  0  0  0
  -16.6591  -28.6754   23.0058 C   0  0  0  0  0  0
  -26.4415  -31.6513   25.0069 C   0  0  0  0  0  0
  -25.3664  -31.3784   26.0882 C   0  0  0  0  0  0
  -27.0651  -30.3025   24.6190 C   0  0  0  0  0  0
  -27.5749  -32.4691   25.6779 C   0  0  0  0  0  0
  -27.5512  -37.1571   24.8464 C   0  0  0  0  0  0
  -21.3154  -29.2055   22.6497 N   0  0  0  0  0  0
  -26.4219  -37.3429   23.9400 N   0  0  0  0  0  0
  -24.6904  -30.6606   22.0690 N   0  0  0  0  0  0
  -23.1359  -28.8412   23.9583 O   0  0  0  0  0  0
  -27.9746  -27.0665   21.1876 O   0  0  0  0  0  0
  -26.6080  -34.8788   22.4556 O   0  0  0  0  0  0
  -23.5511  -32.0030   23.5785 O   0  0  0  0  0  0
  -27.1321  -21.0439   21.5196 C   0  0  0  0  0  0
  -27.8296  -19.6521   21.5210 C   0  0  0  0  0  0
  -26.5665  -21.9394   20.4413 C   0  0  0  0  0  0
  -26.9356  -20.9501   19.3412 C   0  0  0  0  0  0
  -27.6597  -19.5435   19.3424 C   0  0  0  0  0  0
  -28.2281  -18.6664   20.4451 C   0  0  0  0  0  0
  -25.3470  -26.1890   21.7036 C   0  0  0  0  0  0
  -23.3796  -27.8633   18.6454 C   0  0  0  0  0  0
  -24.0061  -29.5624   19.5592 C   0  0  0  0  0  0
  -23.7650  -26.0443   19.4423 C   0  0  0  0  0  0
  -25.4631  -28.0710   21.9419 C   0  0  2  0  0  0
  -26.4319  -21.4587   17.9912 C   0  0  0  0  0  0
  -27.8002  -18.8542   17.9916 C   0  0  0  0  0  0
  -25.3726  -23.4916   20.4724 C   0  0  0  0  0  0
  -27.1049  -27.8052   22.2032 C   0  0  0  0  0  0
  -25.0024  -25.3145   20.5112 N   0  0  0  0  0  0
  -28.7649  -16.9539   20.5027 N   0  0  0  0  0  0
  -25.6107  -25.5405   22.7207 O   0  0  0  0  0  0
  -31.3158  -13.5816   19.2308 H   0  0  0  0  0  0
  -30.6044  -12.3806   20.2531 H   0  0  0  0  0  0
  -30.0538  -11.8664   17.8692 H   0  0  0  0  0  0
  -29.4784  -13.4957   17.6167 H   0  0  0  0  0  0
  -28.1672  -11.2892   19.2153 H   0  0  0  0  0  0
  -27.4656  -12.2029   17.8980 H   0  0  0  0  0  0
  -27.4104  -14.1994   19.2331 H   0  0  0  0  0  0
  -28.8141  -12.6756   21.4889 H   0  0  0  0  0  0
  -28.0146  -14.2178   21.7040 H   0  0  0  0  0  0
  -25.2713   -9.5675   22.4776 H   0  0  0  0  0  0
  -23.9987   -7.4591   22.7464 H   0  0  0  0  0  0
  -21.0804   -8.8711   19.8945 H   0  0  0  0  0  0
  -22.3625  -10.9633   19.6180 H   0  0  0  0  0  0
  -21.1987   -7.6134   23.9718 H   0  0  0  0  0  0
  -21.1481   -6.0512   25.9083 H   0  0  0  0  0  0
  -22.0603   -2.7599   23.2861 H   0  0  0  0  0  0
  -22.3877  -11.9813   22.4944 H   0  0  0  0  0  0
  -21.0869  -13.1164   22.2749 H   0  0  0  0  0  0
  -24.5781  -15.8151   20.4851 H   0  0  0  0  0  0
  -26.1328  -15.5968   19.8776 H   0  0  0  0  0  0
  -26.6829  -32.4377   22.9740 H   0  0  0  0  0  0
  -24.8978  -33.8668   24.8827 H   0  0  0  0  0  0
  -22.7436  -30.4422   21.4506 H   0  0  0  0  0  0
  -23.3717  -35.9315   23.3253 H   0  0  0  0  0  0
  -24.3464  -36.8843   22.2144 H   0  0  0  0  0  0
  -23.7222  -37.6108   23.6957 H   0  0  0  0  0  0
  -25.8766  -31.4487   20.4483 H   0  0  0  0  0  0
  -26.8238  -30.7527   21.6946 H   0  0  0  0  0  0
  -28.4040  -29.6521   20.5300 H   0  0  0  0  0  0
  -27.5375  -25.8208   18.8290 H   0  0  0  0  0  0
  -25.4765  -26.5719   18.0352 H   0  0  0  0  0  0
  -22.4395  -27.9827   20.6368 H   0  0  0  0  0  0
  -23.2675  -27.2793   21.7569 H   0  0  0  0  0  0
  -25.1408  -36.1220   25.0704 H   0  0  0  0  0  0
  -20.7485  -28.1793   24.3495 H   0  0  0  0  0  0
  -20.2708  -26.1530   23.4682 H   0  0  0  0  0  0
  -21.5293  -26.5448   22.4044 H   0  0  0  0  0  0
  -19.6448  -25.6390   21.1260 H   0  0  0  0  0  0
  -19.7094  -27.3493   20.7460 H   0  0  0  0  0  0
  -17.3893  -26.7350   21.3152 H   0  0  0  0  0  0
  -17.8930  -26.0016   22.8199 H   0  0  0  0  0  0
  -19.7306  -30.6739   24.3147 H   0  0  0  0  0  0
  -17.4551  -31.6378   24.5181 H   0  0  0  0  0  0
  -15.4857  -30.3436   23.7188 H   0  0  0  0  0  0
  -15.7962  -28.1337   22.6428 H   0  0  0  0  0  0
  -24.5935  -30.6933   25.7383 H   0  0  0  0  0  0
  -24.8710  -32.2964   26.4050 H   0  0  0  0  0  0
  -25.8038  -30.9266   26.9792 H   0  0  0  0  0  0
  -26.3180  -29.6185   24.2280 H   0  0  0  0  0  0
  -27.5149  -29.8063   25.4798 H   0  0  0  0  0  0
  -27.8541  -30.4331   23.8786 H   0  0  0  0  0  0
  -27.2128  -33.4086   26.0966 H   0  0  0  0  0  0
  -28.3616  -32.7141   24.9635 H   0  0  0  0  0  0
  -28.0397  -31.9204   26.4979 H   0  0  0  0  0  0
  -28.2488  -37.9898   24.7482 H   0  0  0  0  0  0
  -28.1038  -36.2409   24.6327 H   0  0  0  0  0  0
  -27.2222  -37.1241   25.8865 H   0  0  0  0  0  0
  -20.9868  -29.6133   21.7855 H   0  0  0  0  0  0
  -26.0004  -38.2456   24.1413 H   0  0  0  0  0  0
  -26.9652  -21.4305   22.5157 H   0  0  0  0  0  0
  -28.0390  -19.2911   22.5184 H   0  0  0  0  0  0
  -23.7421  -27.8932   17.6160 H   0  0  0  0  0  0
  -22.3027  -27.9331   18.4794 H   0  0  0  0  0  0
  -23.1071  -30.1771   19.5942 H   0  0  0  0  0  0
  -24.5839  -30.1539   18.8374 H   0  0  0  0  0  0
  -23.7348  -25.3626   18.5922 H   0  0  0  0  0  0
  -22.8419  -25.7651   19.9517 H   0  0  0  0  0  0
  -25.1264  -28.2894   22.9455 H   0  0  0  0  0  0
  -25.4269  -21.8647   18.0879 H   0  0  0  0  0  0
  -26.3491  -20.7097   17.2080 H   0  0  0  0  0  0
  -27.0808  -22.2552   17.6265 H   0  0  0  0  0  0
  -28.2774  -19.5136   17.2669 H   0  0  0  0  0  0
  -26.8244  -18.5484   17.6127 H   0  0  0  0  0  0
  -28.4139  -17.9546   18.0448 H   0  0  0  0  0  0
  -24.7919  -23.2099   21.3500 H   0  0  0  0  0  0
  -24.7064  -23.2246   19.6552 H   0  0  0  0  0  0
  -27.2382  -27.2709   23.1448 H   0  0  0  0  0  0
  -27.5983  -28.7367   22.4664 H   0  0  0  0  0  0
  -27.9403  -16.4284   20.7528 H   0  0  0  0  0  0
  1 25  1  0  0  0
  1 30  2  0  0  0
  1 87  1  0  0  0
  2  3  1  0  0  0
  2 25  1  0  0  0
  2 89  1  0  0  0
  2 90  1  0  0  0
  3  4  1  0  0  0
  3 91  1  0  0  0
  3 92  1  0  0  0
  4  5  1  0  0  0
  4 93  1  0  0  0
  4 94  1  0  0  0
  5  6  1  0  0  0
  5 26  1  0  0  0
  5 95  1  0  0  0
  6 25  1  0  0  0
  6 96  1  0  0  0
  6 97  1  0  0  0
  7  8  2  0  0  0
  7 26  1  0  0  0
  7 29  1  0  0  0
  8  9  1  0  0  0
  8 22  1  0  0  0
  9 10  1  0  0  0
  9 27  2  0  0  0
 10 11  2  0  0  0
 10 15  1  0  0  0
 11 12  1  0  0  0
 11 98  1  0  0  0
 12 13  2  0  0  0
 12 99  1  0  0  0
 13 14  1  0  0  0
 13 31  1  0  0  0
 14 15  2  0  0  0
 14100  1  0  0  0
 15101  1  0  0  0
 16 17  2  0  0  0
 16 21  1  0  0  0
 16 31  1  0  0  0
 17 18  1  0  0  0
 17102  1  0  0  0
 18 19  2  0  0  0
 18103  1  0  0  0
 19 20  1  0  0  0
 19 24  1  0  0  0
 20 21  2  0  0  0
 20104  1  0  0  0
 21 23  1  0  0  0
 22 28  1  0  0  0
 22 32  2  0  0  0
 26 27  1  0  0  0
 28105  1  0  0  0
 28106  1  0  0  0
 29107  1  0  0  0
 29108  1  0  0  0
 33 34  1  0  0  0
 33 66  1  0  0  0
 33 70  2  0  0  0
 34 36  1  0  0  0
 34 59  1  0  0  0
 34109  1  0  0  0
 35 44  2  0  0  0
 35 45  1  0  0  0
 35 68  1  0  0  0
 36 56  1  0  0  0
 36110  1  0  0  0
 37 39  1  0  0  0
 37 47  1  0  0  0
 37 66  1  0  0  0
 37111  1  0  0  0
 38 43  2  0  0  0
 38 46  1  0  0  0
 38 47  1  0  0  0
 39 64  1  0  0  0
 39 67  2  0  0  0
 40 52  1  0  0  0
 40 53  2  0  0  0
 40 58  1  0  0  0
 41112  1  0  0  0
 41113  1  0  0  0
 41114  1  0  0  0
 41 48  1  0  0  0
 42 43  1  0  0  0
 42 66  1  0  0  0
 42115  1  0  0  0
 42116  1  0  0  0
 43 44  1  0  0  0
 44117  1  0  0  0
 45 46  2  0  0  0
 45118  1  0  0  0
 46119  1  0  0  0
 47120  1  0  0  0
 47121  1  0  0  0
 48 56  1  0  0  0
 48 65  1  0  0  0
 48122  1  0  0  0
 49 50  1  0  0  0
 49 53  1  0  0  0
 49 64  1  0  0  0
 49123  1  0  0  0
 50 51  1  0  0  0
 50124  1  0  0  0
 50125  1  0  0  0
 51 52  1  0  0  0
 51126  1  0  0  0
 51127  1  0  0  0
 52128  1  0  0  0
 52129  1  0  0  0
 53 54  1  0  0  0
 54 55  2  0  0  0
 54130  1  0  0  0
 55 57  1  0  0  0
 55131  1  0  0  0
 56 69  2  0  0  0
 57 58  2  0  0  0
 57132  1  0  0  0
 58133  1  0  0  0
 59 60  1  0  0  0
 59 61  1  0  0  0
 59 62  1  0  0  0
 60134  1  0  0  0
 60135  1  0  0  0
 60136  1  0  0  0
 61137  1  0  0  0
 61138  1  0  0  0
 61139  1  0  0  0
 62140  1  0  0  0
 62141  1  0  0  0
 62142  1  0  0  0
 63 65  1  0  0  0
 63143  1  0  0  0
 63144  1  0  0  0
 63145  1  0  0  0
 64146  1  0  0  0
 65147  1  0  0  0
 68 85  1  0  0  0
 71 72  2  0  0  0
 71 73  1  0  0  0
 71148  1  0  0  0
 72 76  1  0  0  0
 72149  1  0  0  0
 73 74  2  0  0  0
 73 84  1  0  0  0
 74 75  1  0  0  0
 74 82  1  0  0  0
 75 76  2  0  0  0
 75 83  1  0  0  0
 76 87  1  0  0  0
 77 81  1  0  0  0
 77 86  1  0  0  0
 77 88  2  0  0  0
 78 79  1  0  0  0
 78 80  1  0  0  0
 78150  1  0  0  0
 78151  1  0  0  0
 79 81  1  0  0  0
 79152  1  0  0  0
 79153  1  0  0  0
 80 86  1  0  0  0
 80154  1  0  0  0
 80155  1  0  0  0
 81 85  1  0  0  0
 81156  1  0  0  0
 82157  1  0  0  0
 82158  1  0  0  0
 82159  1  0  0  0
 83160  1  0  0  0
 83161  1  0  0  0
 83162  1  0  0  0
 84 86  1  0  0  0
 84163  1  0  0  0
 84164  1  0  0  0
 85165  1  0  0  0
 85166  1  0  0  0
 87167  1  0  0  0
M  ISO  4   1 100  68 101  85 101  87 100
M  END
> <chiral flag>
0

> <version>
0

> <s_m_source_file>
/data/baiqing/PycharmProjects/Reinvent-master-3.2/result/LINK_invent/BTK/process_docking_weight1_custom_product_contain_oxygen_bond_distance_aromatic_linkinvent_7_9_3/rearranged_h_0050.sdf

> <i_m_source_file_index>
77

> <r_mmod_Potential_Energy-OPLS-2005>
12605.69921875

> <r_mmod_Stretch_Energy-OPLS-2005>
6614.9052734375

> <r_mmod_Bend_Energy-OPLS-2005>
1244.0751953125

> <r_mmod_Torsional_Energy-OPLS-2005>
596.458068847656

> <r_mmod_Improper_Torsional_Energy-OPLS-2005>
54.6035919189453

> <r_mmod_Van_der_Waal_Energy-OPLS-2005>
2453.11645507812

> <r_mmod_Electrostatic_Energy-OPLS-2005>
-386.583648681641

> <r_mmod_Solvation_Energy-OPLS-2005>
-229.447799682617

> <b_mmod_Minimization_Converged-OPLS-2005>
0

> <r_mmod_RMS_Derivative-OPLS-2005>
2.17582178115845

$$$$
77
                    3D
 Structure written by MMmdl.
155163  0  0  1  0            999 V2000
  -30.7214  -14.4103   20.5704 C   0  0  0  0  0  0
  -30.4139  -12.2674   19.4173 C   0  0  0  0  0  0
  -29.4912  -12.5061   18.2044 C   0  0  0  0  0  0
  -28.0107  -12.3756   18.6121 C   0  0  0  0  0  0
  -27.6633  -13.2035   19.8785 C   0  0  2  0  0  0
  -28.7024  -12.9607   20.9985 C   0  0  0  0  0  0
  -25.2568  -13.8140   20.5642 C   0  0  0  0  0  0
  -24.1834  -13.0425   20.9185 C   0  0  0  0  0  0
  -24.6389  -11.6894   20.8740 C   0  0  0  0  0  0
  -23.9056  -10.4285   21.0405 C   0  0  0  0  0  0
  -24.3612   -9.4204   21.9186 C   0  0  0  0  0  0
  -23.6288   -8.2240   22.0755 C   0  0  0  0  0  0
  -22.4269   -8.0281   21.3545 C   0  0  0  0  0  0
  -21.9901   -9.0253   20.4647 C   0  0  0  0  0  0
  -22.7227  -10.2134   20.3056 C   0  0  0  0  0  0
  -21.6851   -6.0736   22.5280 C   0  0  0  0  0  0
  -21.4012   -6.5639   23.8215 C   0  0  0  0  0  0
  -21.3661   -5.6795   24.9177 C   0  0  0  0  0  0
  -21.6042   -4.3056   24.7226 C   0  0  0  0  0  0
  -21.8819   -3.8149   23.4348 C   0  0  0  0  0  0
  -21.9192   -4.6966   22.3403 C   0  0  0  0  0  0
  -22.7859  -13.5229   21.1846 C   0  0  0  0  0  0
  -22.1658   -4.2152   21.0981 F   0  0  0  0  0  0
  -21.5632   -3.4538   25.7738 F   0  0  0  0  0  0
  -30.0429  -13.2405   20.4545 N   0  0  0  0  0  0
  -26.3021  -12.9316   20.3359 N   0  0  0  0  0  0
  -25.9315  -11.6478   20.5771 N   0  0  0  0  0  0
  -22.0497  -12.8227   22.0403 N   0  0  0  0  0  0
  -25.4242  -15.1843   20.3953 N   0  0  0  0  0  0
  -31.8572  -14.5747   20.1159 O   0  0  0  0  0  0
  -21.6634   -6.8877   21.4241 O   0  0  0  0  0  0
  -22.3549  -14.5541   20.6699 O   0  0  0  0  0  0
  -24.6104  -31.8705   23.2134 C   0  0  0  0  0  0
  -25.9014  -32.4837   23.8415 C   0  0  1  0  0  0
  -27.2370  -27.4802   20.0922 C   0  0  0  0  0  0
  -25.5881  -33.8634   24.2347 N   0  0  0  0  0  0
  -23.3962  -30.4932   21.5529 C   0  0  2  0  0  0
  -24.8427  -28.9617   20.1176 C   0  0  0  0  0  0
  -22.7387  -29.4670   22.5022 C   0  0  0  0  0  0
  -18.0265  -28.1373   22.8500 C   0  0  0  0  0  0
  -24.1482  -36.7328   23.2638 C   0  0  0  0  0  0
  -25.9192  -30.8511   21.3573 C   0  0  0  0  0  0
  -25.9997  -29.4878   20.7079 C   0  0  0  0  0  0
  -27.2031  -28.7543   20.6907 C   0  0  0  0  0  0
  -26.0694  -26.9551   19.4998 C   0  0  0  0  0  0
  -24.8700  -27.6918   19.5123 C   0  0  0  0  0  0
  -23.6013  -29.8225   20.1678 C   0  0  0  0  0  0
  -25.4101  -36.3124   24.0343 C   0  0  1  0  0  0
  -20.5850  -28.3651   23.1337 C   0  0  2  0  0  0
  -20.6750  -26.9389   22.5429 C   0  0  0  0  0  0
  -19.5732  -26.6383   21.5220 C   0  0  0  0  0  0
  -18.1909  -26.7925   22.1625 C   0  0  0  0  0  0
  -19.1512  -28.8829   23.2915 C   0  0  0  0  0  0
  -18.9442  -30.1440   23.8920 C   0  0  0  0  0  0
  -17.6445  -30.6581   24.0573 C   0  0  0  0  0  0
  -25.9024  -34.9484   23.5142 C   0  0  0  0  0  0
  -16.5336  -29.9086   23.6325 C   0  0  0  0  0  0
  -16.7255  -28.6503   23.0348 C   0  0  0  0  0  0
  -26.4460  -31.6605   25.0727 C   0  0  0  0  0  0
  -25.3751  -31.3698   26.1493 C   0  0  0  0  0  0
  -27.0282  -30.3056   24.6072 C   0  0  0  0  0  0
  -27.6046  -32.4318   25.7482 C   0  0  0  0  0  0
  -27.5583  -37.1811   24.8460 C   0  0  0  0  0  0
  -21.4120  -29.3027   22.3756 N   0  0  0  0  0  0
  -26.4291  -37.3804   23.9411 N   0  0  0  0  0  0
  -24.6602  -31.0844   22.1006 N   0  0  0  0  0  0
  -23.4177  -28.8216   23.3051 O   0  0  0  0  0  0
  -28.4074  -26.7693   20.0716 O   0  0  0  0  0  0
  -26.5592  -34.8932   22.4706 O   0  0  0  0  0  0
  -23.5308  -32.1433   23.7559 O   0  0  0  0  0  0
  -30.8258  -18.5451   19.1470 C   0  0  0  0  0  0
  -28.4155  -18.3627   19.4460 C   0  0  0  0  0  0
  -31.0099  -17.3937   19.9347 C   0  0  0  0  0  0
  -28.5989  -17.2084   20.2319 C   0  0  0  0  0  0
  -29.5265  -19.0113   18.8680 C   0  0  0  0  0  0
  -29.8918  -16.6826   20.4330 C   0  0  0  0  0  0
  -28.6785  -23.3539   19.7628 C   0  0  0  0  0  0
  -29.2004  -24.5066   20.2176 C   0  0  0  0  0  0
  -29.5205  -22.3518   19.1430 C   0  0  0  0  0  0
  -29.3244  -20.1949   17.9383 C   0  0  0  0  0  0
  -28.3852  -25.5944   20.8721 C   0  0  0  0  0  0
  -30.0116  -15.4265   21.0853 N   0  0  0  0  0  0
  -28.7922  -21.3565   18.6329 N   0  0  0  0  0  0
  -30.7515  -22.3885   19.0748 O   0  0  0  0  0  0
  -31.4605  -12.3479   19.1182 H   0  0  0  0  0  0
  -30.2922  -11.2519   19.7973 H   0  0  0  0  0  0
  -29.7231  -11.7986   17.4074 H   0  0  0  0  0  0
  -29.6729  -13.4996   17.7916 H   0  0  0  0  0  0
  -27.8078  -11.3192   18.7915 H   0  0  0  0  0  0
  -27.3659  -12.6710   17.7836 H   0  0  0  0  0  0
  -27.7150  -14.2545   19.5944 H   0  0  0  0  0  0
  -28.6607  -11.9229   21.3326 H   0  0  0  0  0  0
  -28.4721  -13.5576   21.8820 H   0  0  0  0  0  0
  -25.2758   -9.5679   22.4759 H   0  0  0  0  0  0
  -23.9999   -7.4627   22.7466 H   0  0  0  0  0  0
  -21.0836   -8.8765   19.8949 H   0  0  0  0  0  0
  -22.3684  -10.9674   19.6164 H   0  0  0  0  0  0
  -21.1999   -7.6145   23.9725 H   0  0  0  0  0  0
  -21.1484   -6.0520   25.9083 H   0  0  0  0  0  0
  -22.0595   -2.7611   23.2848 H   0  0  0  0  0  0
  -22.4099  -11.9885   22.4794 H   0  0  0  0  0  0
  -21.1126  -13.1277   22.2617 H   0  0  0  0  0  0
  -24.6426  -15.8269   20.4671 H   0  0  0  0  0  0
  -26.2439  -15.6037   19.9775 H   0  0  0  0  0  0
  -26.7095  -32.5565   23.1195 H   0  0  0  0  0  0
  -25.0045  -33.9805   25.0498 H   0  0  0  0  0  0
  -22.6843  -31.3093   21.4145 H   0  0  0  0  0  0
  -23.3741  -35.9662   23.3304 H   0  0  0  0  0  0
  -24.3581  -36.8939   22.2052 H   0  0  0  0  0  0
  -23.7233  -37.6535   23.6648 H   0  0  0  0  0  0
  -26.0230  -31.6181   20.5884 H   0  0  0  0  0  0
  -26.8101  -30.9080   21.9706 H   0  0  0  0  0  0
  -28.1008  -29.1586   21.1378 H   0  0  0  0  0  0
  -26.0918  -25.9829   19.0273 H   0  0  0  0  0  0
  -23.9801  -27.2810   19.0553 H   0  0  0  0  0  0
  -23.7045  -30.5954   19.4052 H   0  0  0  0  0  0
  -22.7272  -29.2370   19.8767 H   0  0  0  0  0  0
  -25.1277  -36.1998   25.0835 H   0  0  0  0  0  0
  -20.9945  -28.3204   24.1455 H   0  0  0  0  0  0
  -20.5644  -26.2257   23.3611 H   0  0  0  0  0  0
  -21.6622  -26.7431   22.1219 H   0  0  0  0  0  0
  -19.6888  -25.6301   21.1233 H   0  0  0  0  0  0
  -19.6677  -27.3212   20.6766 H   0  0  0  0  0  0
  -17.4184  -26.6692   21.4017 H   0  0  0  0  0  0
  -18.0294  -26.0055   22.9006 H   0  0  0  0  0  0
  -19.7919  -30.7253   24.2291 H   0  0  0  0  0  0
  -17.4999  -31.6262   24.5171 H   0  0  0  0  0  0
  -15.5339  -30.2995   23.7632 H   0  0  0  0  0  0
  -15.8653  -28.0831   22.7048 H   0  0  0  0  0  0
  -24.5916  -30.7047   25.7841 H   0  0  0  0  0  0
  -24.8953  -32.2848   26.4975 H   0  0  0  0  0  0
  -25.8125  -30.8850   27.0230 H   0  0  0  0  0  0
  -26.2808  -29.6823   24.1146 H   0  0  0  0  0  0
  -27.4088  -29.7284   25.4511 H   0  0  0  0  0  0
  -27.8627  -30.4392   23.9184 H   0  0  0  0  0  0
  -27.2670  -33.3599   26.2106 H   0  0  0  0  0  0
  -28.3827  -32.6905   25.0288 H   0  0  0  0  0  0
  -28.0745  -31.8414   26.5359 H   0  0  0  0  0  0
  -28.2599  -38.0111   24.7518 H   0  0  0  0  0  0
  -28.1081  -36.2645   24.6267 H   0  0  0  0  0  0
  -27.2309  -37.1443   25.8865 H   0  0  0  0  0  0
  -20.9274  -29.8760   21.6991 H   0  0  0  0  0  0
  -26.0187  -38.2881   24.1425 H   0  0  0  0  0  0
  -31.6882  -19.0504   18.7344 H   0  0  0  0  0  0
  -27.4152  -18.7275   19.2582 H   0  0  0  0  0  0
  -32.0174  -17.0450   20.1095 H   0  0  0  0  0  0
  -27.7336  -16.7056   20.6374 H   0  0  0  0  0  0
  -27.6162  -23.1795   19.8640 H   0  0  0  0  0  0
  -30.2594  -24.7068   20.1240 H   0  0  0  0  0  0
  -28.6192  -19.9071   17.1573 H   0  0  0  0  0  0
  -30.2552  -20.4381   17.4212 H   0  0  0  0  0  0
  -28.8158  -25.8222   21.8478 H   0  0  0  0  0  0
  -27.3741  -25.2256   21.0575 H   0  0  0  0  0  0
  -29.1728  -15.1127   21.5491 H   0  0  0  0  0  0
  -27.7881  -21.4119   18.7255 H   0  0  0  0  0  0
  1 25  1  0  0  0
  1 30  2  0  0  0
  1 82  1  0  0  0
  2  3  1  0  0  0
  2 25  1  0  0  0
  2 85  1  0  0  0
  2 86  1  0  0  0
  3  4  1  0  0  0
  3 87  1  0  0  0
  3 88  1  0  0  0
  4  5  1  0  0  0
  4 89  1  0  0  0
  4 90  1  0  0  0
  5  6  1  0  0  0
  5 26  1  0  0  0
  5 91  1  0  0  0
  6 25  1  0  0  0
  6 92  1  0  0  0
  6 93  1  0  0  0
  7  8  2  0  0  0
  7 26  1  0  0  0
  7 29  1  0  0  0
  8  9  1  0  0  0
  8 22  1  0  0  0
  9 10  1  0  0  0
  9 27  2  0  0  0
 10 11  2  0  0  0
 10 15  1  0  0  0
 11 12  1  0  0  0
 11 94  1  0  0  0
 12 13  2  0  0  0
 12 95  1  0  0  0
 13 14  1  0  0  0
 13 31  1  0  0  0
 14 15  2  0  0  0
 14 96  1  0  0  0
 15 97  1  0  0  0
 16 17  2  0  0  0
 16 21  1  0  0  0
 16 31  1  0  0  0
 17 18  1  0  0  0
 17 98  1  0  0  0
 18 19  2  0  0  0
 18 99  1  0  0  0
 19 20  1  0  0  0
 19 24  1  0  0  0
 20 21  2  0  0  0
 20100  1  0  0  0
 21 23  1  0  0  0
 22 28  1  0  0  0
 22 32  2  0  0  0
 26 27  1  0  0  0
 28101  1  0  0  0
 28102  1  0  0  0
 29103  1  0  0  0
 29104  1  0  0  0
 33 34  1  0  0  0
 33 66  1  0  0  0
 33 70  2  0  0  0
 34 36  1  0  0  0
 34 59  1  0  0  0
 34105  1  0  0  0
 35 44  2  0  0  0
 35 45  1  0  0  0
 35 68  1  0  0  0
 36 56  1  0  0  0
 36106  1  0  0  0
 37 39  1  0  0  0
 37 47  1  0  0  0
 37 66  1  0  0  0
 37107  1  0  0  0
 38 43  2  0  0  0
 38 46  1  0  0  0
 38 47  1  0  0  0
 39 64  1  0  0  0
 39 67  2  0  0  0
 40 52  1  0  0  0
 40 53  2  0  0  0
 40 58  1  0  0  0
 41108  1  0  0  0
 41109  1  0  0  0
 41110  1  0  0  0
 41 48  1  0  0  0
 42 43  1  0  0  0
 42 66  1  0  0  0
 42111  1  0  0  0
 42112  1  0  0  0
 43 44  1  0  0  0
 44113  1  0  0  0
 45 46  2  0  0  0
 45114  1  0  0  0
 46115  1  0  0  0
 47116  1  0  0  0
 47117  1  0  0  0
 48 56  1  0  0  0
 48 65  1  0  0  0
 48118  1  0  0  0
 49 50  1  0  0  0
 49 53  1  0  0  0
 49 64  1  0  0  0
 49119  1  0  0  0
 50 51  1  0  0  0
 50120  1  0  0  0
 50121  1  0  0  0
 51 52  1  0  0  0
 51122  1  0  0  0
 51123  1  0  0  0
 52124  1  0  0  0
 52125  1  0  0  0
 53 54  1  0  0  0
 54 55  2  0  0  0
 54126  1  0  0  0
 55 57  1  0  0  0
 55127  1  0  0  0
 56 69  2  0  0  0
 57 58  2  0  0  0
 57128  1  0  0  0
 58129  1  0  0  0
 59 60  1  0  0  0
 59 61  1  0  0  0
 59 62  1  0  0  0
 60130  1  0  0  0
 60131  1  0  0  0
 60132  1  0  0  0
 61133  1  0  0  0
 61134  1  0  0  0
 61135  1  0  0  0
 62136  1  0  0  0
 62137  1  0  0  0
 62138  1  0  0  0
 63 65  1  0  0  0
 63139  1  0  0  0
 63140  1  0  0  0
 63141  1  0  0  0
 64142  1  0  0  0
 65143  1  0  0  0
 68 81  1  0  0  0
 71 73  2  0  0  0
 71 75  1  0  0  0
 71144  1  0  0  0
 72 74  1  0  0  0
 72 75  2  0  0  0
 72145  1  0  0  0
 73 76  1  0  0  0
 73146  1  0  0  0
 74 76  2  0  0  0
 74147  1  0  0  0
 75 80  1  0  0  0
 76 82  1  0  0  0
 77 78  2  0  0  0
 77 79  1  0  0  0
 77148  1  0  0  0
 78 81  1  0  0  0
 78149  1  0  0  0
 79 83  1  0  0  0
 79 84  2  0  0  0
 80 83  1  0  0  0
 80150  1  0  0  0
 80151  1  0  0  0
 81152  1  0  0  0
 81153  1  0  0  0
 82154  1  0  0  0
 83155  1  0  0  0
M  ISO  4   1 100  68 101  81 101  82 100
M  END
> <chiral flag>
0

> <version>
0

> <s_m_source_file>
/data/baiqing/PycharmProjects/Reinvent-master-3.2/result/LINK_invent/BTK/process_docking_weight1_custom_product_contain_oxygen_bond_distance_aromatic_linkinvent_7_9_3/rearranged_h_0050.sdf

> <i_m_source_file_index>
78

> <r_mmod_Potential_Energy-OPLS-2005>
-169.844818115234

> <r_mmod_Stretch_Energy-OPLS-2005>
30.2333583831787

> <r_mmod_Bend_Energy-OPLS-2005>
83.0407257080078

> <r_mmod_Torsional_Energy-OPLS-2005>
248.093399047852

> <r_mmod_Improper_Torsional_Energy-OPLS-2005>
7.14622592926025

> <r_mmod_Van_der_Waal_Energy-OPLS-2005>
155.227676391602

> <r_mmod_Electrostatic_Energy-OPLS-2005>
-463.36962890625

> <r_mmod_Solvation_Energy-OPLS-2005>
-239.829605102539

> <b_mmod_Minimization_Converged-OPLS-2005>
0

> <r_mmod_RMS_Derivative-OPLS-2005>
0.807197093963623

$$$$
78
                    3D
 Structure written by MMmdl.
162171  0  0  1  0            999 V2000
  -30.6762  -14.5300   20.5472 C   0  0  0  0  0  0
  -30.4318  -12.3357   19.4350 C   0  0  0  0  0  0
  -29.5016  -12.5020   18.2144 C   0  0  0  0  0  0
  -28.0235  -12.3544   18.6284 C   0  0  0  0  0  0
  -27.6585  -13.2081   19.8717 C   0  0  2  0  0  0
  -28.7030  -13.0198   20.9957 C   0  0  0  0  0  0
  -25.2536  -13.8095   20.5643 C   0  0  0  0  0  0
  -24.1819  -13.0383   20.9201 C   0  0  0  0  0  0
  -24.6394  -11.6867   20.8756 C   0  0  0  0  0  0
  -23.9060  -10.4268   21.0413 C   0  0  0  0  0  0
  -24.3608   -9.4192   21.9198 C   0  0  0  0  0  0
  -23.6285   -8.2229   22.0756 C   0  0  0  0  0  0
  -22.4271   -8.0274   21.3541 C   0  0  0  0  0  0
  -21.9905   -9.0249   20.4649 C   0  0  0  0  0  0
  -22.7230  -10.2127   20.3063 C   0  0  0  0  0  0
  -21.6849   -6.0739   22.5278 C   0  0  0  0  0  0
  -21.4011   -6.5643   23.8213 C   0  0  0  0  0  0
  -21.3657   -5.6791   24.9174 C   0  0  0  0  0  0
  -21.6044   -4.3054   24.7220 C   0  0  0  0  0  0
  -21.8821   -3.8150   23.4342 C   0  0  0  0  0  0
  -21.9193   -4.6969   22.3401 C   0  0  0  0  0  0
  -22.7850  -13.5206   21.1858 C   0  0  0  0  0  0
  -22.1661   -4.2157   21.0977 F   0  0  0  0  0  0
  -21.5634   -3.4538   25.7736 F   0  0  0  0  0  0
  -30.0284  -13.3354   20.4372 N   0  0  0  0  0  0
  -26.3003  -12.9301   20.3348 N   0  0  0  0  0  0
  -25.9328  -11.6464   20.5793 N   0  0  0  0  0  0
  -22.0478  -12.8216   22.0416 N   0  0  0  0  0  0
  -25.4128  -15.1780   20.3920 N   0  0  0  0  0  0
  -31.8302  -14.6931   20.1386 O   0  0  0  0  0  0
  -21.6634   -6.8873   21.4235 O   0  0  0  0  0  0
  -22.3559  -14.5532   20.6726 O   0  0  0  0  0  0
  -24.6160  -31.8661   23.2065 C   0  0  0  0  0  0
  -25.9047  -32.4814   23.8367 C   0  0  1  0  0  0
  -27.2399  -27.4117   20.1093 C   0  0  0  0  0  0
  -25.5896  -33.8612   24.2311 N   0  0  0  0  0  0
  -23.4057  -30.4870   21.5473 C   0  0  2  0  0  0
  -24.8537  -28.9446   20.1169 C   0  0  0  0  0  0
  -22.7414  -29.4652   22.4979 C   0  0  0  0  0  0
  -18.0273  -28.1381   22.8498 C   0  0  0  0  0  0
  -24.1488  -36.7300   23.2640 C   0  0  0  0  0  0
  -25.9349  -30.8268   21.3593 C   0  0  0  0  0  0
  -26.0143  -29.4578   20.7087 C   0  0  0  0  0  0
  -27.2109  -28.7025   20.6925 C   0  0  0  0  0  0
  -26.0610  -26.9143   19.5118 C   0  0  0  0  0  0
  -24.8730  -27.6738   19.5134 C   0  0  0  0  0  0
  -23.6159  -29.8139   20.1637 C   0  0  0  0  0  0
  -25.4114  -36.3108   24.0336 C   0  0  1  0  0  0
  -20.5866  -28.3674   23.1322 C   0  0  2  0  0  0
  -20.6767  -26.9408   22.5425 C   0  0  0  0  0  0
  -19.5746  -26.6393   21.5219 C   0  0  0  0  0  0
  -18.1923  -26.7934   22.1627 C   0  0  0  0  0  0
  -19.1522  -28.8842   23.2910 C   0  0  0  0  0  0
  -18.9450  -30.1448   23.8924 C   0  0  0  0  0  0
  -17.6453  -30.6590   24.0570 C   0  0  0  0  0  0
  -25.9036  -34.9473   23.5124 C   0  0  0  0  0  0
  -16.5344  -29.9095   23.6324 C   0  0  0  0  0  0
  -16.7265  -28.6506   23.0359 C   0  0  0  0  0  0
  -26.4475  -31.6597   25.0698 C   0  0  0  0  0  0
  -25.3738  -31.3700   26.1442 C   0  0  0  0  0  0
  -27.0301  -30.3042   24.6064 C   0  0  0  0  0  0
  -27.6053  -32.4313   25.7462 C   0  0  0  0  0  0
  -27.5584  -37.1806   24.8470 C   0  0  0  0  0  0
  -21.4142  -29.3034   22.3716 N   0  0  0  0  0  0
  -26.4302  -37.3791   23.9406 N   0  0  0  0  0  0
  -24.6708  -31.0747   22.0965 N   0  0  0  0  0  0
  -23.4177  -28.8208   23.3038 O   0  0  0  0  0  0
  -28.4139  -26.6804   20.1129 O   0  0  0  0  0  0
  -26.5601  -34.8931   22.4688 O   0  0  0  0  0  0
  -23.5348  -32.1423   23.7448 O   0  0  0  0  0  0
  -31.6522  -18.8960   21.3592 C   0  0  0  0  0  0
  -31.4173  -17.5032   21.3510 C   0  0  0  0  0  0
  -29.4440  -19.3033   20.4770 C   0  0  0  0  0  0
  -29.1908  -17.9052   20.4899 C   0  0  0  0  0  0
  -30.6854  -19.8369   20.8988 C   0  0  0  0  0  0
  -30.1847  -16.9788   20.9088 C   0  0  0  0  0  0
  -30.1583  -23.6663   21.4588 C   0  0  0  0  0  0
  -32.2251  -21.7446   20.8282 C   0  0  0  0  0  0
  -29.5426  -24.8590   21.2462 C   0  0  0  0  0  0
  -31.3962  -23.6332   22.3236 C   0  0  0  0  0  0
  -29.8191  -22.2733   20.8791 C   0  0  0  0  0  0
  -32.5553  -23.0899   21.4849 C   0  0  0  0  0  0
  -27.8277  -17.4186   20.0458 C   0  0  0  0  0  0
  -28.3435  -25.2622   20.3919 C   0  0  0  0  0  0
  -30.9455  -21.2752   20.8951 N   0  0  0  0  0  0
  -29.9044  -15.5671   20.9538 N   0  0  0  0  0  0
  -33.1450  -21.1509   20.2553 O   0  0  0  0  0  0
  -31.4754  -12.4449   19.1337 H   0  0  0  0  0  0
  -30.3461  -11.3312   19.8526 H   0  0  0  0  0  0
  -29.7500  -11.7652   17.4495 H   0  0  0  0  0  0
  -29.6617  -13.4804   17.7583 H   0  0  0  0  0  0
  -27.8481  -11.3005   18.8462 H   0  0  0  0  0  0
  -27.3691  -12.6055   17.7928 H   0  0  0  0  0  0
  -27.6902  -14.2498   19.5545 H   0  0  0  0  0  0
  -28.6912  -11.9904   21.3562 H   0  0  0  0  0  0
  -28.4623  -13.6356   21.8634 H   0  0  0  0  0  0
  -25.2741   -9.5677   22.4788 H   0  0  0  0  0  0
  -24.0000   -7.4615   22.7467 H   0  0  0  0  0  0
  -21.0844   -8.8766   19.8951 H   0  0  0  0  0  0
  -22.3683  -10.9678   19.6188 H   0  0  0  0  0  0
  -21.2000   -7.6150   23.9722 H   0  0  0  0  0  0
  -21.1476   -6.0517   25.9078 H   0  0  0  0  0  0
  -22.0602   -2.7613   23.2835 H   0  0  0  0  0  0
  -22.4067  -11.9868   22.4811 H   0  0  0  0  0  0
  -21.1108  -13.1280   22.2621 H   0  0  0  0  0  0
  -24.6298  -15.8169   20.4730 H   0  0  0  0  0  0
  -26.2332  -15.6026   19.9827 H   0  0  0  0  0  0
  -26.7114  -32.5524   23.1126 H   0  0  0  0  0  0
  -25.0072  -33.9774   25.0473 H   0  0  0  0  0  0
  -22.6958  -31.3041   21.4042 H   0  0  0  0  0  0
  -23.3757  -35.9624   23.3316 H   0  0  0  0  0  0
  -24.3582  -36.8898   22.2051 H   0  0  0  0  0  0
  -23.7231  -37.6506   23.6641 H   0  0  0  0  0  0
  -26.0477  -31.5906   20.5888 H   0  0  0  0  0  0
  -26.8232  -30.8843   21.9768 H   0  0  0  0  0  0
  -28.1100  -29.0990   21.1435 H   0  0  0  0  0  0
  -26.0578  -25.9436   19.0367 H   0  0  0  0  0  0
  -23.9804  -27.2738   19.0521 H   0  0  0  0  0  0
  -23.7269  -30.5867   19.4023 H   0  0  0  0  0  0
  -22.7393  -29.2343   19.8680 H   0  0  0  0  0  0
  -25.1293  -36.1976   25.0829 H   0  0  0  0  0  0
  -20.9963  -28.3244   24.1442 H   0  0  0  0  0  0
  -20.5682  -26.2277   23.3614 H   0  0  0  0  0  0
  -21.6639  -26.7461   22.1210 H   0  0  0  0  0  0
  -19.6909  -25.6309   21.1239 H   0  0  0  0  0  0
  -19.6689  -27.3214   20.6758 H   0  0  0  0  0  0
  -17.4198  -26.6692   21.4023 H   0  0  0  0  0  0
  -18.0315  -26.0068   22.9012 H   0  0  0  0  0  0
  -19.7926  -30.7251   24.2313 H   0  0  0  0  0  0
  -17.5011  -31.6276   24.5162 H   0  0  0  0  0  0
  -15.5349  -30.3010   23.7631 H   0  0  0  0  0  0
  -15.8664  -28.0831   22.7076 H   0  0  0  0  0  0
  -24.5917  -30.7044   25.7779 H   0  0  0  0  0  0
  -24.8921  -32.2850   26.4895 H   0  0  0  0  0  0
  -25.8092  -30.8871   27.0198 H   0  0  0  0  0  0
  -26.2834  -29.6805   24.1135 H   0  0  0  0  0  0
  -27.4100  -29.7278   25.4510 H   0  0  0  0  0  0
  -27.8657  -30.4373   23.9188 H   0  0  0  0  0  0
  -27.2679  -33.3607   26.2065 H   0  0  0  0  0  0
  -28.3849  -32.6884   25.0277 H   0  0  0  0  0  0
  -28.0732  -31.8418   26.5357 H   0  0  0  0  0  0
  -28.2619  -38.0089   24.7516 H   0  0  0  0  0  0
  -28.1064  -36.2624   24.6304 H   0  0  0  0  0  0
  -27.2299  -37.1466   25.8874 H   0  0  0  0  0  0
  -20.9302  -29.8737   21.6922 H   0  0  0  0  0  0
  -26.0193  -38.2871   24.1406 H   0  0  0  0  0  0
  -32.6097  -19.2218   21.7398 H   0  0  0  0  0  0
  -32.1922  -16.8420   21.7136 H   0  0  0  0  0  0
  -28.6662  -19.9699   20.1315 H   0  0  0  0  0  0
  -29.9541  -25.7109   21.7692 H   0  0  0  0  0  0
  -31.2131  -22.9959   23.1906 H   0  0  0  0  0  0
  -31.6463  -24.6208   22.7129 H   0  0  0  0  0  0
  -28.9962  -21.8772   21.4740 H   0  0  0  0  0  0
  -29.4469  -22.3872   19.8605 H   0  0  0  0  0  0
  -32.8162  -23.8004   20.6997 H   0  0  0  0  0  0
  -33.4396  -22.9700   22.1109 H   0  0  0  0  0  0
  -27.3003  -17.0012   20.9024 H   0  0  0  0  0  0
  -27.9214  -16.6547   19.2742 H   0  0  0  0  0  0
  -27.2215  -18.2291   19.6396 H   0  0  0  0  0  0
  -28.3267  -24.6866   19.4655 H   0  0  0  0  0  0
  -27.4408  -25.0212   20.9556 H   0  0  0  0  0  0
  -28.9480  -15.3153   21.1459 H   0  0  0  0  0  0
  1 25  1  0  0  0
  1 30  2  0  0  0
  1 86  1  0  0  0
  2  3  1  0  0  0
  2 25  1  0  0  0
  2 88  1  0  0  0
  2 89  1  0  0  0
  3  4  1  0  0  0
  3 90  1  0  0  0
  3 91  1  0  0  0
  4  5  1  0  0  0
  4 92  1  0  0  0
  4 93  1  0  0  0
  5  6  1  0  0  0
  5 26  1  0  0  0
  5 94  1  0  0  0
  6 25  1  0  0  0
  6 95  1  0  0  0
  6 96  1  0  0  0
  7  8  2  0  0  0
  7 26  1  0  0  0
  7 29  1  0  0  0
  8  9  1  0  0  0
  8 22  1  0  0  0
  9 10  1  0  0  0
  9 27  2  0  0  0
 10 11  2  0  0  0
 10 15  1  0  0  0
 11 12  1  0  0  0
 11 97  1  0  0  0
 12 13  2  0  0  0
 12 98  1  0  0  0
 13 14  1  0  0  0
 13 31  1  0  0  0
 14 15  2  0  0  0
 14 99  1  0  0  0
 15100  1  0  0  0
 16 17  2  0  0  0
 16 21  1  0  0  0
 16 31  1  0  0  0
 17 18  1  0  0  0
 17101  1  0  0  0
 18 19  2  0  0  0
 18102  1  0  0  0
 19 20  1  0  0  0
 19 24  1  0  0  0
 20 21  2  0  0  0
 20103  1  0  0  0
 21 23  1  0  0  0
 22 28  1  0  0  0
 22 32  2  0  0  0
 26 27  1  0  0  0
 28104  1  0  0  0
 28105  1  0  0  0
 29106  1  0  0  0
 29107  1  0  0  0
 33 34  1  0  0  0
 33 66  1  0  0  0
 33 70  2  0  0  0
 34 36  1  0  0  0
 34 59  1  0  0  0
 34108  1  0  0  0
 35 44  2  0  0  0
 35 45  1  0  0  0
 35 68  1  0  0  0
 36 56  1  0  0  0
 36109  1  0  0  0
 37 39  1  0  0  0
 37 47  1  0  0  0
 37 66  1  0  0  0
 37110  1  0  0  0
 38 43  2  0  0  0
 38 46  1  0  0  0
 38 47  1  0  0  0
 39 64  1  0  0  0
 39 67  2  0  0  0
 40 52  1  0  0  0
 40 53  2  0  0  0
 40 58  1  0  0  0
 41111  1  0  0  0
 41112  1  0  0  0
 41113  1  0  0  0
 41 48  1  0  0  0
 42 43  1  0  0  0
 42 66  1  0  0  0
 42114  1  0  0  0
 42115  1  0  0  0
 43 44  1  0  0  0
 44116  1  0  0  0
 45 46  2  0  0  0
 45117  1  0  0  0
 46118  1  0  0  0
 47119  1  0  0  0
 47120  1  0  0  0
 48 56  1  0  0  0
 48 65  1  0  0  0
 48121  1  0  0  0
 49 50  1  0  0  0
 49 53  1  0  0  0
 49 64  1  0  0  0
 49122  1  0  0  0
 50 51  1  0  0  0
 50123  1  0  0  0
 50124  1  0  0  0
 51 52  1  0  0  0
 51125  1  0  0  0
 51126  1  0  0  0
 52127  1  0  0  0
 52128  1  0  0  0
 53 54  1  0  0  0
 54 55  2  0  0  0
 54129  1  0  0  0
 55 57  1  0  0  0
 55130  1  0  0  0
 56 69  2  0  0  0
 57 58  2  0  0  0
 57131  1  0  0  0
 58132  1  0  0  0
 59 60  1  0  0  0
 59 61  1  0  0  0
 59 62  1  0  0  0
 60133  1  0  0  0
 60134  1  0  0  0
 60135  1  0  0  0
 61136  1  0  0  0
 61137  1  0  0  0
 61138  1  0  0  0
 62139  1  0  0  0
 62140  1  0  0  0
 62141  1  0  0  0
 63 65  1  0  0  0
 63142  1  0  0  0
 63143  1  0  0  0
 63144  1  0  0  0
 64145  1  0  0  0
 65146  1  0  0  0
 68 84  1  0  0  0
 71 72  2  0  0  0
 71 75  1  0  0  0
 71147  1  0  0  0
 72 76  1  0  0  0
 72148  1  0  0  0
 73 74  1  0  0  0
 73 75  2  0  0  0
 73149  1  0  0  0
 74 76  2  0  0  0
 74 83  1  0  0  0
 75 85  1  0  0  0
 76 86  1  0  0  0
 77 79  2  0  0  0
 77 80  1  0  0  0
 77 81  1  0  0  0
 78 82  1  0  0  0
 78 85  1  0  0  0
 78 87  2  0  0  0
 79 84  1  0  0  0
 79150  1  0  0  0
 80 82  1  0  0  0
 80151  1  0  0  0
 80152  1  0  0  0
 81 85  1  0  0  0
 81153  1  0  0  0
 81154  1  0  0  0
 82155  1  0  0  0
 82156  1  0  0  0
 83157  1  0  0  0
 83158  1  0  0  0
 83159  1  0  0  0
 84160  1  0  0  0
 84161  1  0  0  0
 86162  1  0  0  0
M  ISO  4   1 100  68 101  84 101  86 100
M  END
> <chiral flag>
0

> <version>
0

> <s_m_source_file>
/data/baiqing/PycharmProjects/Reinvent-master-3.2/result/LINK_invent/BTK/process_docking_weight1_custom_product_contain_oxygen_bond_distance_aromatic_linkinvent_7_9_3/rearranged_h_0050.sdf

> <i_m_source_file_index>
79

> <r_mmod_Potential_Energy-OPLS-2005>
63.088321685791

> <r_mmod_Stretch_Energy-OPLS-2005>
53.902271270752

> <r_mmod_Bend_Energy-OPLS-2005>
116.838851928711

> <r_mmod_Torsional_Energy-OPLS-2005>
288.45556640625

> <r_mmod_Improper_Torsional_Energy-OPLS-2005>
5.25987529754639

> <r_mmod_Van_der_Waal_Energy-OPLS-2005>
172.517242431641

> <r_mmod_Electrostatic_Energy-OPLS-2005>
-371.384796142578

> <r_mmod_Solvation_Energy-OPLS-2005>
-221.382339477539

> <b_mmod_Minimization_Converged-OPLS-2005>
0

> <r_mmod_RMS_Derivative-OPLS-2005>
1.07405304908752

$$$$
79
                    3D
 Structure written by MMmdl.
160168  0  0  1  0            999 V2000
  -30.7087  -14.4685   20.6085 C   0  0  0  0  0  0
  -30.4177  -12.3185   19.4189 C   0  0  0  0  0  0
  -29.4934  -12.5209   18.2021 C   0  0  0  0  0  0
  -28.0131  -12.3782   18.6090 C   0  0  0  0  0  0
  -27.6587  -13.2098   19.8715 C   0  0  2  0  0  0
  -28.6985  -12.9858   20.9922 C   0  0  0  0  0  0
  -25.2565  -13.8177   20.5665 C   0  0  0  0  0  0
  -24.1816  -13.0443   20.9172 C   0  0  0  0  0  0
  -24.6372  -11.6912   20.8722 C   0  0  0  0  0  0
  -23.9041  -10.4291   21.0399 C   0  0  0  0  0  0
  -24.3595   -9.4217   21.9185 C   0  0  0  0  0  0
  -23.6275   -8.2249   22.0761 C   0  0  0  0  0  0
  -22.4260   -8.0274   21.3543 C   0  0  0  0  0  0
  -21.9886   -9.0252   20.4655 C   0  0  0  0  0  0
  -22.7210  -10.2135   20.3056 C   0  0  0  0  0  0
  -21.6858   -6.0719   22.5270 C   0  0  0  0  0  0
  -21.4026   -6.5623   23.8205 C   0  0  0  0  0  0
  -21.3668   -5.6775   24.9169 C   0  0  0  0  0  0
  -21.6044   -4.3035   24.7221 C   0  0  0  0  0  0
  -21.8824   -3.8129   23.4343 C   0  0  0  0  0  0
  -21.9197   -4.6947   22.3397 C   0  0  0  0  0  0
  -22.7835  -13.5252   21.1826 C   0  0  0  0  0  0
  -22.1657   -4.2130   21.0975 F   0  0  0  0  0  0
  -21.5633   -3.4524   25.7740 F   0  0  0  0  0  0
  -30.0259  -13.3015   20.4418 N   0  0  0  0  0  0
  -26.2996  -12.9352   20.3319 N   0  0  0  0  0  0
  -25.9298  -11.6513   20.5727 N   0  0  0  0  0  0
  -22.0450  -12.8274   22.0393 N   0  0  0  0  0  0
  -25.4294  -15.1895   20.4101 N   0  0  0  0  0  0
  -31.8222  -14.6610   20.1139 O   0  0  0  0  0  0
  -21.6636   -6.8863   21.4230 O   0  0  0  0  0  0
  -22.3526  -14.5550   20.6665 O   0  0  0  0  0  0
  -24.6152  -31.8681   23.2092 C   0  0  0  0  0  0
  -25.9052  -32.4827   23.8379 C   0  0  1  0  0  0
  -27.2334  -27.4152   20.1091 C   0  0  0  0  0  0
  -25.5905  -33.8615   24.2319 N   0  0  0  0  0  0
  -23.4043  -30.4888   21.5518 C   0  0  2  0  0  0
  -24.8526  -28.9478   20.1238 C   0  0  0  0  0  0
  -22.7428  -29.4627   22.5001 C   0  0  0  0  0  0
  -18.0277  -28.1341   22.8497 C   0  0  0  0  0  0
  -24.1494  -36.7303   23.2637 C   0  0  0  0  0  0
  -25.9334  -30.8285   21.3650 C   0  0  0  0  0  0
  -26.0119  -29.4581   20.7194 C   0  0  0  0  0  0
  -27.2062  -28.6981   20.7070 C   0  0  0  0  0  0
  -26.0593  -26.9258   19.5013 C   0  0  0  0  0  0
  -24.8712  -27.6833   19.5103 C   0  0  0  0  0  0
  -23.6157  -29.8185   20.1673 C   0  0  0  0  0  0
  -25.4120  -36.3109   24.0333 C   0  0  1  0  0  0
  -20.5857  -28.3620   23.1295 C   0  0  2  0  0  0
  -20.6776  -26.9360   22.5377 C   0  0  0  0  0  0
  -19.5701  -26.6271   21.5246 C   0  0  0  0  0  0
  -18.1911  -26.7851   22.1713 C   0  0  0  0  0  0
  -19.1532  -28.8805   23.2874 C   0  0  0  0  0  0
  -18.9473  -30.1417   23.8874 C   0  0  0  0  0  0
  -17.6478  -30.6558   24.0566 C   0  0  0  0  0  0
  -25.9037  -34.9478   23.5122 C   0  0  0  0  0  0
  -16.5375  -29.9057   23.6326 C   0  0  0  0  0  0
  -16.7272  -28.6464   23.0357 C   0  0  0  0  0  0
  -26.4469  -31.6594   25.0702 C   0  0  0  0  0  0
  -25.3728  -31.3701   26.1449 C   0  0  0  0  0  0
  -27.0283  -30.3030   24.6073 C   0  0  0  0  0  0
  -27.6048  -32.4314   25.7457 C   0  0  0  0  0  0
  -27.5591  -37.1812   24.8472 C   0  0  0  0  0  0
  -21.4156  -29.2996   22.3734 N   0  0  0  0  0  0
  -26.4312  -37.3792   23.9402 N   0  0  0  0  0  0
  -24.6696  -31.0764   22.1005 N   0  0  0  0  0  0
  -23.4201  -28.8162   23.3037 O   0  0  0  0  0  0
  -28.4119  -26.6978   20.0491 O   0  0  0  0  0  0
  -26.5603  -34.8937   22.4684 O   0  0  0  0  0  0
  -23.5342  -32.1445   23.7482 O   0  0  0  0  0  0
  -28.4755  -19.8564   22.1716 C   0  0  0  0  0  0
  -29.0842  -18.6044   22.4113 C   0  0  0  0  0  0
  -30.0379  -18.6547   20.1880 C   0  0  0  0  0  0
  -28.6508  -20.5492   20.9487 C   0  0  0  0  0  0
  -29.8890  -17.9958   21.4264 C   0  0  0  0  0  0
  -29.4288  -19.9116   19.9346 C   0  0  0  0  0  0
  -27.9349  -21.8795   20.7626 C   0  0  0  0  0  0
  -29.6297  -20.5244   18.5556 C   0  0  0  0  0  0
  -29.9558  -25.3019   21.1391 C   0  0  0  0  0  0
  -30.6700  -16.7103   21.7358 C   0  0  0  0  0  0
  -28.0579  -24.2104   19.8022 C   0  0  0  0  0  0
  -28.4869  -25.4123   20.7014 C   0  0  2  0  0  0
  -28.6093  -22.8954   20.1940 N   0  0  0  0  0  0
  -30.0702  -15.4403   21.2897 N   0  0  0  0  0  0
  -26.7757  -22.0098   21.1635 O   0  0  0  0  0  0
  -31.4626  -12.4170   19.1205 H   0  0  0  0  0  0
  -30.3154  -11.3049   19.8112 H   0  0  0  0  0  0
  -29.7368  -11.8020   17.4187 H   0  0  0  0  0  0
  -29.6627  -13.5105   17.7747 H   0  0  0  0  0  0
  -27.8201  -11.3210   18.7953 H   0  0  0  0  0  0
  -27.3652  -12.6601   17.7779 H   0  0  0  0  0  0
  -27.7059  -14.2594   19.5818 H   0  0  0  0  0  0
  -28.6785  -11.9457   21.3237 H   0  0  0  0  0  0
  -28.4547  -13.5754   21.8770 H   0  0  0  0  0  0
  -25.2739   -9.5703   22.4761 H   0  0  0  0  0  0
  -23.9987   -7.4650   22.7490 H   0  0  0  0  0  0
  -21.0815   -8.8768   19.8971 H   0  0  0  0  0  0
  -22.3658  -10.9672   19.6165 H   0  0  0  0  0  0
  -21.2017   -7.6135   23.9707 H   0  0  0  0  0  0
  -21.1488   -6.0504   25.9073 H   0  0  0  0  0  0
  -22.0600   -2.7594   23.2847 H   0  0  0  0  0  0
  -22.4022  -11.9925   22.4800 H   0  0  0  0  0  0
  -21.1087  -13.1374   22.2600 H   0  0  0  0  0  0
  -24.6667  -15.8489   20.5239 H   0  0  0  0  0  0
  -26.2877  -15.6292   20.0998 H   0  0  0  0  0  0
  -26.7117  -32.5553   23.1133 H   0  0  0  0  0  0
  -25.0075  -33.9765   25.0483 H   0  0  0  0  0  0
  -22.6907  -31.3049   21.4133 H   0  0  0  0  0  0
  -23.3761  -35.9633   23.3312 H   0  0  0  0  0  0
  -24.3582  -36.8902   22.2050 H   0  0  0  0  0  0
  -23.7251  -37.6510   23.6638 H   0  0  0  0  0  0
  -26.0439  -31.5936   20.5949 H   0  0  0  0  0  0
  -26.8180  -30.8858   21.9861 H   0  0  0  0  0  0
  -28.1097  -29.0905   21.1537 H   0  0  0  0  0  0
  -26.0600  -25.9752   18.9914 H   0  0  0  0  0  0
  -23.9817  -27.2898   19.0381 H   0  0  0  0  0  0
  -23.7298  -30.5931   19.4076 H   0  0  0  0  0  0
  -22.7394  -29.2399   19.8684 H   0  0  0  0  0  0
  -25.1298  -36.1978   25.0827 H   0  0  0  0  0  0
  -20.9941  -28.3138   24.1413 H   0  0  0  0  0  0
  -21.6640  -26.7454   22.1122 H   0  0  0  0  0  0
  -20.5788  -26.2223   23.3579 H   0  0  0  0  0  0
  -19.6835  -25.6149   21.1354 H   0  0  0  0  0  0
  -19.6573  -27.3004   20.6699 H   0  0  0  0  0  0
  -17.4147  -26.6487   21.4174 H   0  0  0  0  0  0
  -18.0348  -26.0048   22.9181 H   0  0  0  0  0  0
  -19.7967  -30.7196   24.2272 H   0  0  0  0  0  0
  -17.5046  -31.6234   24.5178 H   0  0  0  0  0  0
  -15.5377  -30.2949   23.7654 H   0  0  0  0  0  0
  -15.8663  -28.0766   22.7114 H   0  0  0  0  0  0
  -24.5901  -30.7064   25.7752 H   0  0  0  0  0  0
  -24.8929  -32.2866   26.4891 H   0  0  0  0  0  0
  -25.8069  -30.8848   27.0206 H   0  0  0  0  0  0
  -26.2810  -29.6807   24.1142 H   0  0  0  0  0  0
  -27.4050  -29.7255   25.4520 H   0  0  0  0  0  0
  -27.8648  -30.4302   23.9200 H   0  0  0  0  0  0
  -27.2662  -33.3603   26.2057 H   0  0  0  0  0  0
  -28.3831  -32.6907   25.0267 H   0  0  0  0  0  0
  -28.0751  -31.8440   26.5353 H   0  0  0  0  0  0
  -28.2608  -38.0106   24.7509 H   0  0  0  0  0  0
  -28.1076  -36.2636   24.6299 H   0  0  0  0  0  0
  -27.2301  -37.1466   25.8872 H   0  0  0  0  0  0
  -20.9325  -29.8769   21.6986 H   0  0  0  0  0  0
  -26.0201  -38.2868   24.1411 H   0  0  0  0  0  0
  -27.8699  -20.2994   22.9520 H   0  0  0  0  0  0
  -28.9506  -18.1240   23.3714 H   0  0  0  0  0  0
  -30.6508  -18.1913   19.4262 H   0  0  0  0  0  0
  -29.9786  -19.7792   17.8404 H   0  0  0  0  0  0
  -30.3733  -21.3207   18.5918 H   0  0  0  0  0  0
  -28.6972  -20.9279   18.1603 H   0  0  0  0  0  0
  -30.6213  -25.2675   20.2750 H   0  0  0  0  0  0
  -30.1377  -24.4101   21.7393 H   0  0  0  0  0  0
  -30.2430  -26.1637   21.7422 H   0  0  0  0  0  0
  -30.8075  -16.6406   22.8163 H   0  0  0  0  0  0
  -31.6770  -16.8314   21.3306 H   0  0  0  0  0  0
  -28.3912  -24.3980   18.7816 H   0  0  0  0  0  0
  -26.9708  -24.1516   19.7546 H   0  0  0  0  0  0
  -27.8679  -25.4244   21.6004 H   0  0  0  0  0  0
  -29.5696  -22.7123   19.9410 H   0  0  0  0  0  0
  -29.1415  -15.2303   21.6217 H   0  0  0  0  0  0
  1 25  1  0  0  0
  1 30  2  0  0  0
  1 84  1  0  0  0
  2  3  1  0  0  0
  2 25  1  0  0  0
  2 86  1  0  0  0
  2 87  1  0  0  0
  3  4  1  0  0  0
  3 88  1  0  0  0
  3 89  1  0  0  0
  4  5  1  0  0  0
  4 90  1  0  0  0
  4 91  1  0  0  0
  5  6  1  0  0  0
  5 26  1  0  0  0
  5 92  1  0  0  0
  6 25  1  0  0  0
  6 93  1  0  0  0
  6 94  1  0  0  0
  7  8  2  0  0  0
  7 26  1  0  0  0
  7 29  1  0  0  0
  8  9  1  0  0  0
  8 22  1  0  0  0
  9 10  1  0  0  0
  9 27  2  0  0  0
 10 11  2  0  0  0
 10 15  1  0  0  0
 11 12  1  0  0  0
 11 95  1  0  0  0
 12 13  2  0  0  0
 12 96  1  0  0  0
 13 14  1  0  0  0
 13 31  1  0  0  0
 14 15  2  0  0  0
 14 97  1  0  0  0
 15 98  1  0  0  0
 16 17  2  0  0  0
 16 21  1  0  0  0
 16 31  1  0  0  0
 17 18  1  0  0  0
 17 99  1  0  0  0
 18 19  2  0  0  0
 18100  1  0  0  0
 19 20  1  0  0  0
 19 24  1  0  0  0
 20 21  2  0  0  0
 20101  1  0  0  0
 21 23  1  0  0  0
 22 28  1  0  0  0
 22 32  2  0  0  0
 26 27  1  0  0  0
 28102  1  0  0  0
 28103  1  0  0  0
 29104  1  0  0  0
 29105  1  0  0  0
 33 34  1  0  0  0
 33 66  1  0  0  0
 33 70  2  0  0  0
 34 36  1  0  0  0
 34 59  1  0  0  0
 34106  1  0  0  0
 35 44  2  0  0  0
 35 45  1  0  0  0
 35 68  1  0  0  0
 36 56  1  0  0  0
 36107  1  0  0  0
 37 39  1  0  0  0
 37 47  1  0  0  0
 37 66  1  0  0  0
 37108  1  0  0  0
 38 43  2  0  0  0
 38 46  1  0  0  0
 38 47  1  0  0  0
 39 64  1  0  0  0
 39 67  2  0  0  0
 40 52  1  0  0  0
 40 53  2  0  0  0
 40 58  1  0  0  0
 41109  1  0  0  0
 41110  1  0  0  0
 41111  1  0  0  0
 41 48  1  0  0  0
 42 43  1  0  0  0
 42 66  1  0  0  0
 42112  1  0  0  0
 42113  1  0  0  0
 43 44  1  0  0  0
 44114  1  0  0  0
 45 46  2  0  0  0
 45115  1  0  0  0
 46116  1  0  0  0
 47117  1  0  0  0
 47118  1  0  0  0
 48 56  1  0  0  0
 48 65  1  0  0  0
 48119  1  0  0  0
 49 50  1  0  0  0
 49 53  1  0  0  0
 49 64  1  0  0  0
 49120  1  0  0  0
 50 51  1  0  0  0
 50121  1  0  0  0
 50122  1  0  0  0
 51 52  1  0  0  0
 51123  1  0  0  0
 51124  1  0  0  0
 52125  1  0  0  0
 52126  1  0  0  0
 53 54  1  0  0  0
 54 55  2  0  0  0
 54127  1  0  0  0
 55 57  1  0  0  0
 55128  1  0  0  0
 56 69  2  0  0  0
 57 58  2  0  0  0
 57129  1  0  0  0
 58130  1  0  0  0
 59 60  1  0  0  0
 59 61  1  0  0  0
 59 62  1  0  0  0
 60131  1  0  0  0
 60132  1  0  0  0
 60133  1  0  0  0
 61134  1  0  0  0
 61135  1  0  0  0
 61136  1  0  0  0
 62137  1  0  0  0
 62138  1  0  0  0
 62139  1  0  0  0
 63 65  1  0  0  0
 63140  1  0  0  0
 63141  1  0  0  0
 63142  1  0  0  0
 64143  1  0  0  0
 65144  1  0  0  0
 68 82  1  0  0  0
 71 72  2  0  0  0
 71 74  1  0  0  0
 71145  1  0  0  0
 72 75  1  0  0  0
 72146  1  0  0  0
 73 75  2  0  0  0
 73 76  1  0  0  0
 73147  1  0  0  0
 74 76  2  0  0  0
 74 77  1  0  0  0
 75 80  1  0  0  0
 76 78  1  0  0  0
 77 83  1  0  0  0
 77 85  2  0  0  0
 78148  1  0  0  0
 78149  1  0  0  0
 78150  1  0  0  0
 79151  1  0  0  0
 79152  1  0  0  0
 79153  1  0  0  0
 79 82  1  0  0  0
 80 84  1  0  0  0
 80154  1  0  0  0
 80155  1  0  0  0
 81 82  1  0  0  0
 81 83  1  0  0  0
 81156  1  0  0  0
 81157  1  0  0  0
 82158  1  0  0  0
 83159  1  0  0  0
 84160  1  0  0  0
M  ISO  4   1 100  68 101  82 101  84 100
M  END
> <chiral flag>
0

> <version>
0

> <s_m_source_file>
/data/baiqing/PycharmProjects/Reinvent-master-3.2/result/LINK_invent/BTK/process_docking_weight1_custom_product_contain_oxygen_bond_distance_aromatic_linkinvent_7_9_3/rearranged_h_0050.sdf

> <i_m_source_file_index>
80

> <r_mmod_Potential_Energy-OPLS-2005>
-157.244705200195

> <r_mmod_Stretch_Energy-OPLS-2005>
41.8507957458496

> <r_mmod_Bend_Energy-OPLS-2005>
104.500526428223

> <r_mmod_Torsional_Energy-OPLS-2005>
236.500091552734

> <r_mmod_Improper_Torsional_Energy-OPLS-2005>
2.93234324455261

> <r_mmod_Van_der_Waal_Energy-OPLS-2005>
151.401382446289

> <r_mmod_Electrostatic_Energy-OPLS-2005>
-485.060272216797

> <r_mmod_Solvation_Energy-OPLS-2005>
-221.37109375

> <b_mmod_Minimization_Converged-OPLS-2005>
0

> <r_mmod_RMS_Derivative-OPLS-2005>
2.4883291721344

$$$$
80
                    3D
 Structure written by MMmdl.
161169  0  0  1  0            999 V2000
  -30.7263  -14.4233   20.6394 C   0  0  0  0  0  0
  -30.4228  -12.3009   19.4065 C   0  0  0  0  0  0
  -29.4911  -12.5263   18.1998 C   0  0  0  0  0  0
  -28.0134  -12.3794   18.6133 C   0  0  0  0  0  0
  -27.6671  -13.2023   19.8829 C   0  0  2  0  0  0
  -28.7071  -12.9504   20.9967 C   0  0  0  0  0  0
  -25.2614  -13.8153   20.5683 C   0  0  0  0  0  0
  -24.1850  -13.0441   20.9169 C   0  0  0  0  0  0
  -24.6393  -11.6904   20.8729 C   0  0  0  0  0  0
  -23.9057  -10.4294   21.0403 C   0  0  0  0  0  0
  -24.3609   -9.4211   21.9183 C   0  0  0  0  0  0
  -23.6287   -8.2247   22.0755 C   0  0  0  0  0  0
  -22.4271   -8.0283   21.3544 C   0  0  0  0  0  0
  -21.9904   -9.0256   20.4648 C   0  0  0  0  0  0
  -22.7229  -10.2136   20.3054 C   0  0  0  0  0  0
  -21.6852   -6.0738   22.5280 C   0  0  0  0  0  0
  -21.4012   -6.5641   23.8214 C   0  0  0  0  0  0
  -21.3658   -5.6793   24.9177 C   0  0  0  0  0  0
  -21.6046   -4.3056   24.7227 C   0  0  0  0  0  0
  -21.8819   -3.8149   23.4348 C   0  0  0  0  0  0
  -21.9192   -4.6965   22.3404 C   0  0  0  0  0  0
  -22.7875  -13.5246   21.1834 C   0  0  0  0  0  0
  -22.1661   -4.2152   21.0981 F   0  0  0  0  0  0
  -21.5629   -3.4539   25.7739 F   0  0  0  0  0  0
  -30.0419  -13.2615   20.4525 N   0  0  0  0  0  0
  -26.3054  -12.9313   20.3402 N   0  0  0  0  0  0
  -25.9317  -11.6474   20.5763 N   0  0  0  0  0  0
  -22.0514  -12.8237   22.0392 N   0  0  0  0  0  0
  -25.4353  -15.1868   20.4087 N   0  0  0  0  0  0
  -31.7950  -14.6425   20.0677 O   0  0  0  0  0  0
  -21.6637   -6.8880   21.4242 O   0  0  0  0  0  0
  -22.3563  -14.5556   20.6693 O   0  0  0  0  0  0
  -24.6126  -31.8694   23.2117 C   0  0  0  0  0  0
  -25.9028  -32.4835   23.8407 C   0  0  1  0  0  0
  -27.2371  -27.4543   20.1032 C   0  0  0  0  0  0
  -25.5893  -33.8631   24.2340 N   0  0  0  0  0  0
  -23.4005  -30.4918   21.5511 C   0  0  2  0  0  0
  -24.8491  -28.9594   20.1162 C   0  0  0  0  0  0
  -22.7402  -29.4665   22.5003 C   0  0  0  0  0  0
  -18.0270  -28.1374   22.8498 C   0  0  0  0  0  0
  -24.1489  -36.7317   23.2637 C   0  0  0  0  0  0
  -25.9259  -30.8430   21.3609 C   0  0  0  0  0  0
  -26.0062  -29.4779   20.7123 C   0  0  0  0  0  0
  -27.2055  -28.7333   20.7044 C   0  0  0  0  0  0
  -26.0691  -26.9475   19.4984 C   0  0  0  0  0  0
  -24.8736  -27.6915   19.5073 C   0  0  0  0  0  0
  -23.6084  -29.8222   20.1660 C   0  0  0  0  0  0
  -25.4108  -36.3118   24.0339 C   0  0  1  0  0  0
  -20.5860  -28.3656   23.1327 C   0  0  2  0  0  0
  -20.6763  -26.9396   22.5419 C   0  0  0  0  0  0
  -19.5743  -26.6385   21.5215 C   0  0  0  0  0  0
  -18.1919  -26.7925   22.1623 C   0  0  0  0  0  0
  -19.1520  -28.8832   23.2910 C   0  0  0  0  0  0
  -18.9448  -30.1442   23.8917 C   0  0  0  0  0  0
  -17.6450  -30.6585   24.0566 C   0  0  0  0  0  0
  -25.9034  -34.9485   23.5137 C   0  0  0  0  0  0
  -16.5340  -29.9088   23.6325 C   0  0  0  0  0  0
  -16.7260  -28.6503   23.0349 C   0  0  0  0  0  0
  -26.4468  -31.6604   25.0723 C   0  0  0  0  0  0
  -25.3739  -31.3685   26.1472 C   0  0  0  0  0  0
  -27.0295  -30.3059   24.6062 C   0  0  0  0  0  0
  -27.6056  -32.4314   25.7477 C   0  0  0  0  0  0
  -27.5582  -37.1812   24.8465 C   0  0  0  0  0  0
  -21.4134  -29.3027   22.3736 N   0  0  0  0  0  0
  -26.4299  -37.3796   23.9407 N   0  0  0  0  0  0
  -24.6644  -31.0816   22.1003 N   0  0  0  0  0  0
  -23.4176  -28.8208   23.3044 O   0  0  0  0  0  0
  -28.3841  -26.6934   20.0585 O   0  0  0  0  0  0
  -26.5595  -34.8935   22.4696 O   0  0  0  0  0  0
  -23.5325  -32.1432   23.7525 O   0  0  0  0  0  0
  -28.0216  -20.2719   20.2133 C   0  0  0  0  0  0
  -28.2138  -19.1394   19.3959 C   0  0  0  0  0  0
  -29.4727  -19.2750   21.8937 C   0  0  0  0  0  0
  -28.6581  -20.3528   21.4683 C   0  0  0  0  0  0
  -29.6335  -18.1117   21.1001 C   0  0  0  0  0  0
  -29.0182  -18.0609   19.8218 C   0  0  0  0  0  0
  -28.4274  -21.4960   22.3686 C   0  0  0  0  0  0
  -28.7518  -25.9521   21.1624 C   0  0  0  0  0  0
  -30.5309  -16.8837   23.5622 C   0  0  0  0  0  0
  -29.5801  -24.7229   20.7976 C   0  0  0  0  0  0
  -28.7826  -23.3968   20.6854 C   0  0  0  0  0  0
  -28.4595  -26.2638   22.3569 N   0  0  0  0  0  0
  -30.0821  -15.3403   21.4775 N   0  0  0  0  0  0
  -28.1548  -21.2447   23.6459 N   0  0  0  0  0  0
  -28.4658  -22.7914   22.0018 N   0  3  0  0  0  0
  -32.0971  -17.1124   21.4432 O   0  0  0  0  0  0
  -30.6918  -16.7759   21.7415 S   0  0  1  0  0  0
  -29.2140  -16.7358   18.7283 Cl  0  0  0  0  0  0
  -31.4664  -12.3976   19.1018 H   0  0  0  0  0  0
  -30.3209  -11.2815   19.7824 H   0  0  0  0  0  0
  -29.7283  -11.8208   17.4027 H   0  0  0  0  0  0
  -29.6578  -13.5233   17.7883 H   0  0  0  0  0  0
  -27.8220  -11.3211   18.7949 H   0  0  0  0  0  0
  -27.3608  -12.6685   17.7887 H   0  0  0  0  0  0
  -27.7238  -14.2559   19.6099 H   0  0  0  0  0  0
  -28.6788  -11.9062   21.3112 H   0  0  0  0  0  0
  -28.4573  -13.5226   21.8907 H   0  0  0  0  0  0
  -25.2757   -9.5690   22.4755 H   0  0  0  0  0  0
  -24.0001   -7.4639   22.7472 H   0  0  0  0  0  0
  -21.0838   -8.8772   19.8952 H   0  0  0  0  0  0
  -22.3689  -10.9674   19.6162 H   0  0  0  0  0  0
  -21.2003   -7.6149   23.9719 H   0  0  0  0  0  0
  -21.1481   -6.0523   25.9080 H   0  0  0  0  0  0
  -22.0598   -2.7611   23.2847 H   0  0  0  0  0  0
  -22.4118  -11.9885   22.4764 H   0  0  0  0  0  0
  -21.1135  -13.1269   22.2604 H   0  0  0  0  0  0
  -24.6739  -15.8480   20.5149 H   0  0  0  0  0  0
  -26.3002  -15.6163   20.1063 H   0  0  0  0  0  0
  -26.7103  -32.5565   23.1180 H   0  0  0  0  0  0
  -25.0054  -33.9792   25.0492 H   0  0  0  0  0  0
  -22.6886  -31.3079   21.4122 H   0  0  0  0  0  0
  -23.3752  -35.9651   23.3312 H   0  0  0  0  0  0
  -24.3582  -36.8917   22.2049 H   0  0  0  0  0  0
  -23.7251  -37.6530   23.6642 H   0  0  0  0  0  0
  -26.0313  -31.6084   20.5904 H   0  0  0  0  0  0
  -26.8158  -30.8999   21.9761 H   0  0  0  0  0  0
  -28.1008  -29.1267   21.1652 H   0  0  0  0  0  0
  -26.0882  -25.9750   19.0266 H   0  0  0  0  0  0
  -23.9845  -27.2861   19.0447 H   0  0  0  0  0  0
  -23.7121  -30.5964   19.4049 H   0  0  0  0  0  0
  -22.7342  -29.2373   19.8741 H   0  0  0  0  0  0
  -25.1285  -36.1985   25.0833 H   0  0  0  0  0  0
  -20.9946  -28.3221   24.1449 H   0  0  0  0  0  0
  -20.5677  -26.2260   23.3600 H   0  0  0  0  0  0
  -21.6632  -26.7450   22.1202 H   0  0  0  0  0  0
  -19.6905  -25.6302   21.1230 H   0  0  0  0  0  0
  -19.6689  -27.3212   20.6759 H   0  0  0  0  0  0
  -17.4191  -26.6682   21.4021 H   0  0  0  0  0  0
  -18.0311  -26.0062   22.9013 H   0  0  0  0  0  0
  -19.7924  -30.7250   24.2298 H   0  0  0  0  0  0
  -17.5007  -31.6272   24.5159 H   0  0  0  0  0  0
  -15.5344  -30.2995   23.7645 H   0  0  0  0  0  0
  -15.8656  -28.0832   22.7050 H   0  0  0  0  0  0
  -24.5922  -30.7025   25.7799 H   0  0  0  0  0  0
  -24.8915  -32.2827   26.4942 H   0  0  0  0  0  0
  -25.8097  -30.8840   27.0217 H   0  0  0  0  0  0
  -26.2822  -29.6823   24.1141 H   0  0  0  0  0  0
  -27.4116  -29.7286   25.4490 H   0  0  0  0  0  0
  -27.8631  -30.4396   23.9163 H   0  0  0  0  0  0
  -27.2689  -33.3604   26.2087 H   0  0  0  0  0  0
  -28.3843  -32.6886   25.0284 H   0  0  0  0  0  0
  -28.0749  -31.8418   26.5360 H   0  0  0  0  0  0
  -28.2606  -38.0103   24.7511 H   0  0  0  0  0  0
  -28.1072  -36.2636   24.6292 H   0  0  0  0  0  0
  -27.2296  -37.1461   25.8868 H   0  0  0  0  0  0
  -20.9290  -29.8737   21.6953 H   0  0  0  0  0  0
  -26.0194  -38.2878   24.1405 H   0  0  0  0  0  0
  -27.3720  -21.0679   19.8771 H   0  0  0  0  0  0
  -27.7322  -19.0902   18.4298 H   0  0  0  0  0  0
  -29.9675  -19.3469   22.8487 H   0  0  0  0  0  0
  -29.4772  -16.9142   23.8311 H   0  0  0  0  0  0
  -31.0418  -17.7696   23.9302 H   0  0  0  0  0  0
  -30.9921  -16.0068   24.0097 H   0  0  0  0  0  0
  -30.3875  -24.6124   21.5219 H   0  0  0  0  0  0
  -30.0736  -24.9157   19.8443 H   0  0  0  0  0  0
  -29.3866  -22.6935   20.1100 H   0  0  0  0  0  0
  -27.8657  -23.5511   20.1137 H   0  0  0  0  0  0
  -28.8521  -25.6213   23.0343 H   0  0  0  0  0  0
  -28.0289  -20.2874   23.9397 H   0  0  0  0  0  0
  -28.0591  -21.9618   24.3466 H   0  0  0  0  0  0
  -28.0731  -23.4467   22.6615 H   0  0  0  0  0  0
  1 25  1  0  0  0
  1 30  2  0  0  0
  1 83  1  0  0  0
  2  3  1  0  0  0
  2 25  1  0  0  0
  2 89  1  0  0  0
  2 90  1  0  0  0
  3  4  1  0  0  0
  3 91  1  0  0  0
  3 92  1  0  0  0
  4  5  1  0  0  0
  4 93  1  0  0  0
  4 94  1  0  0  0
  5  6  1  0  0  0
  5 26  1  0  0  0
  5 95  1  0  0  0
  6 25  1  0  0  0
  6 96  1  0  0  0
  6 97  1  0  0  0
  7  8  2  0  0  0
  7 26  1  0  0  0
  7 29  1  0  0  0
  8  9  1  0  0  0
  8 22  1  0  0  0
  9 10  1  0  0  0
  9 27  2  0  0  0
 10 11  2  0  0  0
 10 15  1  0  0  0
 11 12  1  0  0  0
 11 98  1  0  0  0
 12 13  2  0  0  0
 12 99  1  0  0  0
 13 14  1  0  0  0
 13 31  1  0  0  0
 14 15  2  0  0  0
 14100  1  0  0  0
 15101  1  0  0  0
 16 17  2  0  0  0
 16 21  1  0  0  0
 16 31  1  0  0  0
 17 18  1  0  0  0
 17102  1  0  0  0
 18 19  2  0  0  0
 18103  1  0  0  0
 19 20  1  0  0  0
 19 24  1  0  0  0
 20 21  2  0  0  0
 20104  1  0  0  0
 21 23  1  0  0  0
 22 28  1  0  0  0
 22 32  2  0  0  0
 26 27  1  0  0  0
 28105  1  0  0  0
 28106  1  0  0  0
 29107  1  0  0  0
 29108  1  0  0  0
 33 34  1  0  0  0
 33 66  1  0  0  0
 33 70  2  0  0  0
 34 36  1  0  0  0
 34 59  1  0  0  0
 34109  1  0  0  0
 35 44  2  0  0  0
 35 45  1  0  0  0
 35 68  1  0  0  0
 36 56  1  0  0  0
 36110  1  0  0  0
 37 39  1  0  0  0
 37 47  1  0  0  0
 37 66  1  0  0  0
 37111  1  0  0  0
 38 43  2  0  0  0
 38 46  1  0  0  0
 38 47  1  0  0  0
 39 64  1  0  0  0
 39 67  2  0  0  0
 40 52  1  0  0  0
 40 53  2  0  0  0
 40 58  1  0  0  0
 41112  1  0  0  0
 41113  1  0  0  0
 41114  1  0  0  0
 41 48  1  0  0  0
 42 43  1  0  0  0
 42 66  1  0  0  0
 42115  1  0  0  0
 42116  1  0  0  0
 43 44  1  0  0  0
 44117  1  0  0  0
 45 46  2  0  0  0
 45118  1  0  0  0
 46119  1  0  0  0
 47120  1  0  0  0
 47121  1  0  0  0
 48 56  1  0  0  0
 48 65  1  0  0  0
 48122  1  0  0  0
 49 50  1  0  0  0
 49 53  1  0  0  0
 49 64  1  0  0  0
 49123  1  0  0  0
 50 51  1  0  0  0
 50124  1  0  0  0
 50125  1  0  0  0
 51 52  1  0  0  0
 51126  1  0  0  0
 51127  1  0  0  0
 52128  1  0  0  0
 52129  1  0  0  0
 53 54  1  0  0  0
 54 55  2  0  0  0
 54130  1  0  0  0
 55 57  1  0  0  0
 55131  1  0  0  0
 56 69  2  0  0  0
 57 58  2  0  0  0
 57132  1  0  0  0
 58133  1  0  0  0
 59 60  1  0  0  0
 59 61  1  0  0  0
 59 62  1  0  0  0
 60134  1  0  0  0
 60135  1  0  0  0
 60136  1  0  0  0
 61137  1  0  0  0
 61138  1  0  0  0
 61139  1  0  0  0
 62140  1  0  0  0
 62141  1  0  0  0
 62142  1  0  0  0
 63 65  1  0  0  0
 63143  1  0  0  0
 63144  1  0  0  0
 63145  1  0  0  0
 64146  1  0  0  0
 65147  1  0  0  0
 68 78  1  0  0  0
 71 72  2  0  0  0
 71 74  1  0  0  0
 71148  1  0  0  0
 72 76  1  0  0  0
 72149  1  0  0  0
 73 74  2  0  0  0
 73 75  1  0  0  0
 73150  1  0  0  0
 74 77  1  0  0  0
 75 76  2  0  0  0
 75 87  1  0  0  0
 76 88  1  0  0  0
 77 84  1  0  0  0
 77 85  2  0  0  0
 78 80  1  0  0  0
 78 82  2  0  0  0
 79151  1  0  0  0
 79152  1  0  0  0
 79153  1  0  0  0
 79 87  1  0  0  0
 80 81  1  0  0  0
 80154  1  0  0  0
 80155  1  0  0  0
 81 85  1  0  0  0
 81156  1  0  0  0
 81157  1  0  0  0
 82158  1  0  0  0
 83 87  2  0  0  0
 84159  1  0  0  0
 84160  1  0  0  0
 85161  1  0  0  0
 86 87  2  0  0  0
M  CHG  1  85   1
M  ISO  4   1 100  68 101  78 101  83 100
M  END
> <chiral flag>
0

> <version>
0

> <s_m_source_file>
/data/baiqing/PycharmProjects/Reinvent-master-3.2/result/LINK_invent/BTK/process_docking_weight1_custom_product_contain_oxygen_bond_distance_aromatic_linkinvent_7_9_3/rearranged_h_0050.sdf

> <i_m_source_file_index>
81

> <r_mmod_Potential_Energy-OPLS-2005>
-345.718536376953

> <r_mmod_Stretch_Energy-OPLS-2005>
37.4871864318848

> <r_mmod_Bend_Energy-OPLS-2005>
106.817512512207

> <r_mmod_Torsional_Energy-OPLS-2005>
180.826293945312

> <r_mmod_Improper_Torsional_Energy-OPLS-2005>
2.45170927047729

> <r_mmod_Van_der_Waal_Energy-OPLS-2005>
144.489227294922

> <r_mmod_Electrostatic_Energy-OPLS-2005>
-348.352386474609

> <r_mmod_Solvation_Energy-OPLS-2005>
-477.189514160156

> <b_mmod_Minimization_Converged-OPLS-2005>
0

> <r_mmod_RMS_Derivative-OPLS-2005>
0.661254525184631

$$$$
81
                    3D
 Structure written by MMmdl.
163172  0  0  1  0            999 V2000
  -29.4813  -16.5758   20.5229 C   0  0  0  0  0  0
  -30.1869  -13.8635   19.6855 C   0  0  0  0  0  0
  -29.5439  -12.9993   18.5148 C   0  0  0  0  0  0
  -28.2093  -12.3710   18.9222 C   0  0  0  0  0  0
  -27.5067  -13.3770   19.8430 C   0  0  2  0  0  0
  -28.3558  -13.9922   20.9906 C   0  0  0  0  0  0
  -25.1785  -13.8293   20.5847 C   0  0  0  0  0  0
  -24.1323  -13.0347   20.9332 C   0  0  0  0  0  0
  -24.6177  -11.6895   20.8769 C   0  0  0  0  0  0
  -23.8992  -10.4223   21.0400 C   0  0  0  0  0  0
  -24.3584   -9.4172   21.9186 C   0  0  0  0  0  0
  -23.6282   -8.2205   22.0752 C   0  0  0  0  0  0
  -22.4271   -8.0236   21.3539 C   0  0  0  0  0  0
  -21.9884   -9.0177   20.4626 C   0  0  0  0  0  0
  -22.7187  -10.2057   20.3029 C   0  0  0  0  0  0
  -21.6845   -6.0721   22.5286 C   0  0  0  0  0  0
  -21.4020   -6.5637   23.8216 C   0  0  0  0  0  0
  -21.3667   -5.6792   24.9178 C   0  0  0  0  0  0
  -21.6040   -4.3053   24.7228 C   0  0  0  0  0  0
  -21.8817   -3.8143   23.4350 C   0  0  0  0  0  0
  -21.9187   -4.6955   22.3406 C   0  0  0  0  0  0
  -22.7376  -13.5064   21.1998 C   0  0  0  0  0  0
  -22.1660   -4.2146   21.0980 F   0  0  0  0  0  0
  -21.5624   -3.4537   25.7738 F   0  0  0  0  0  0
  -29.2814  -15.0091   20.3754 N   0  0  0  0  0  0
  -26.2171  -12.9680   20.3224 N   0  0  0  0  0  0
  -25.9084  -11.6695   20.5617 N   0  0  0  0  0  0
  -22.0121  -12.8004   22.0577 N   0  0  0  0  0  0
  -25.3357  -15.2051   20.4343 N   0  0  0  0  0  0
  -30.7433  -16.5010   20.3000 O   0  0  0  0  0  0
  -21.6628   -6.8846   21.4247 O   0  0  0  0  0  0
  -22.3058  -14.5381   20.6868 O   0  0  0  0  0  0
  -24.6668  -31.5264   23.3134 C   0  0  0  0  0  0
  -25.8895  -32.3528   23.8750 C   0  0  1  0  0  0
  -28.0404  -27.1206   19.6119 C   0  0  0  0  0  0
  -25.5240  -33.7681   24.1797 N   0  0  0  0  0  0
  -23.3740  -29.5902   21.8402 C   0  0  2  0  0  0
  -25.2600  -28.1399   19.3664 C   0  0  0  0  0  0
  -22.6150  -29.0322   22.8761 C   0  0  0  0  0  0
  -17.9456  -28.1105   22.8461 C   0  0  0  0  0  0
  -24.1488  -36.6890   23.2615 C   0  0  0  0  0  0
  -26.4454  -30.2160   21.8701 C   0  0  0  0  0  0
  -26.8312  -29.2106   20.4204 C   0  0  0  0  0  0
  -28.1975  -28.5472   20.5060 C   0  0  0  0  0  0
  -26.7845  -26.0533   19.0749 C   0  0  0  0  0  0
  -25.4012  -26.7466   18.8774 C   0  0  0  0  0  0
  -23.4270  -28.4123   20.1550 C   0  0  0  0  0  0
  -25.4104  -36.2517   24.0242 C   0  0  1  0  0  0
  -20.4359  -28.1899   23.3015 C   0  0  2  0  0  0
  -20.5339  -26.7987   22.6347 C   0  0  0  0  0  0
  -19.5014  -26.5917   21.5360 C   0  0  0  0  0  0
  -18.1083  -26.7721   22.1421 C   0  0  0  0  0  0
  -19.0622  -28.8140   23.3440 C   0  0  0  0  0  0
  -18.8930  -30.0956   23.9181 C   0  0  0  0  0  0
  -17.6053  -30.6527   24.0350 C   0  0  0  0  0  0
  -25.8919  -34.8746   23.5000 C   0  0  0  0  0  0
  -16.4883  -29.9176   23.6024 C   0  0  0  0  0  0
  -16.6600  -28.6544   23.0113 C   0  0  0  0  0  0
  -26.4603  -31.6653   25.1754 C   0  0  0  0  0  0
  -25.3627  -31.4151   26.2318 C   0  0  0  0  0  0
  -27.1208  -30.2978   24.9160 C   0  0  0  0  0  0
  -27.5774  -32.5305   25.7972 C   0  0  0  0  0  0
  -27.5543  -37.1502   24.8435 C   0  0  0  0  0  0
  -21.3190  -29.0679   22.6355 N   0  0  0  0  0  0
  -26.4260  -37.3290   23.9321 N   0  0  0  0  0  0
  -24.8405  -30.3756   22.5398 N   0  0  0  0  0  0
  -23.2027  -28.5258   23.8156 O   0  0  0  0  0  0
  -28.7274  -27.4440   18.6284 O   0  0  0  0  0  0
  -26.5905  -34.8301   22.4843 O   0  0  0  0  0  0
  -23.5442  -31.9520   23.6302 O   0  0  0  0  0  0
  -25.2407  -24.6094   20.8007 C   0  0  0  0  0  0
  -26.4738  -24.8866   22.3003 C   0  0  0  0  0  0
  -25.8638  -23.0642   20.5766 C   0  0  0  0  0  0
  -27.0050  -22.0940   21.1803 C   0  0  0  0  0  0
  -25.4968  -26.0167   21.5940 C   0  0  0  0  0  0
  -27.1139  -23.3694   22.1300 C   0  0  0  0  0  0
  -24.8447  -30.1867   20.1523 C   0  0  0  0  0  0
  -24.2234  -31.4470   20.1712 C   0  0  0  0  0  0
  -25.6445  -30.4599   18.5903 C   0  0  0  0  0  0
  -27.0064  -29.5978   17.9592 C   0  0  0  0  0  0
  -26.4568  -27.1171   21.1415 C   0  0  0  0  0  0
  -27.4584  -28.0273   18.5334 C   0  0  2  0  0  0
  -25.1711  -22.3642   19.4216 C   0  0  0  0  0  0
  -28.1196  -20.1766   20.8216 C   0  0  0  0  0  0
  -25.2338  -27.9674   21.5783 N   0  0  0  0  0  0
  -28.5083  -18.0815   20.7484 N   0  0  0  0  0  0
  -28.0229  -23.1310   23.1043 F   0  0  0  0  0  0
  -31.0566  -14.3581   19.2538 H   0  0  0  0  0  0
  -30.6225  -13.2133   20.4471 H   0  0  0  0  0  0
  -30.2458  -12.2373   18.1739 H   0  0  0  0  0  0
  -29.3659  -13.6591   17.6638 H   0  0  0  0  0  0
  -28.3926  -11.4367   19.4591 H   0  0  0  0  0  0
  -27.6021  -12.1274   18.0501 H   0  0  0  0  0  0
  -27.2818  -14.1950   19.1565 H   0  0  0  0  0  0
  -28.8351  -13.2193   21.5941 H   0  0  0  0  0  0
  -27.7104  -14.5190   21.6936 H   0  0  0  0  0  0
  -25.2729   -9.5678   22.4756 H   0  0  0  0  0  0
  -24.0001   -7.4596   22.7469 H   0  0  0  0  0  0
  -21.0829   -8.8672   19.8917 H   0  0  0  0  0  0
  -22.3658  -10.9584   19.6120 H   0  0  0  0  0  0
  -21.2032   -7.6150   23.9717 H   0  0  0  0  0  0
  -21.1496   -6.0528   25.9079 H   0  0  0  0  0  0
  -22.0592   -2.7607   23.2842 H   0  0  0  0  0  0
  -22.3834  -11.9677   22.4911 H   0  0  0  0  0  0
  -21.0724  -13.0935   22.2854 H   0  0  0  0  0  0
  -24.5699  -15.8594   20.5587 H   0  0  0  0  0  0
  -26.1770  -15.6372   20.0775 H   0  0  0  0  0  0
  -26.7034  -32.4146   23.1620 H   0  0  0  0  0  0
  -24.9079  -33.8980   24.9693 H   0  0  0  0  0  0
  -22.6832  -30.3987   21.6040 H   0  0  0  0  0  0
  -23.3758  -35.9206   23.3114 H   0  0  0  0  0  0
  -24.3604  -36.8700   22.2066 H   0  0  0  0  0  0
  -23.7232  -37.6021   23.6802 H   0  0  0  0  0  0
  -26.8035  -31.1969   21.5571 H   0  0  0  0  0  0
  -27.1746  -29.8476   22.5649 H   0  0  0  0  0  0
  -29.1039  -29.0322   20.8432 H   0  0  0  0  0  0
  -26.9882  -25.1308   18.5516 H   0  0  0  0  0  0
  -24.5549  -26.2178   18.4670 H   0  0  0  0  0  0
  -22.7663  -28.8305   19.3949 H   0  0  0  0  0  0
  -22.9939  -27.4376   20.3899 H   0  0  0  0  0  0
  -25.1318  -36.1351   25.0739 H   0  0  0  0  0  0
  -20.7432  -28.0818   24.3473 H   0  0  0  0  0  0
  -20.3253  -26.0517   23.3996 H   0  0  0  0  0  0
  -21.5399  -26.5580   22.2832 H   0  0  0  0  0  0
  -19.5947  -25.5871   21.1123 H   0  0  0  0  0  0
  -19.6657  -27.2971   20.7207 H   0  0  0  0  0  0
  -17.3465  -26.6603   21.3703 H   0  0  0  0  0  0
  -17.9226  -25.9861   22.8755 H   0  0  0  0  0  0
  -19.7486  -30.6441   24.2884 H   0  0  0  0  0  0
  -17.4739  -31.6342   24.4697 H   0  0  0  0  0  0
  -15.4917  -30.3270   23.7104 H   0  0  0  0  0  0
  -15.7958  -28.1019   22.6646 H   0  0  0  0  0  0
  -24.6426  -30.6588   25.9150 H   0  0  0  0  0  0
  -24.8044  -32.3248   26.4564 H   0  0  0  0  0  0
  -25.7877  -31.0623   27.1721 H   0  0  0  0  0  0
  -26.4434  -29.5614   24.4876 H   0  0  0  0  0  0
  -27.4372  -29.8466   25.8584 H   0  0  0  0  0  0
  -28.0398  -30.3961   24.3352 H   0  0  0  0  0  0
  -27.1972  -33.4778   26.1803 H   0  0  0  0  0  0
  -28.3563  -32.7633   25.0701 H   0  0  0  0  0  0
  -28.0579  -32.0288   26.6392 H   0  0  0  0  0  0
  -28.2463  -37.9880   24.7503 H   0  0  0  0  0  0
  -28.1135  -36.2396   24.6264 H   0  0  0  0  0  0
  -27.2233  -37.1101   25.8822 H   0  0  0  0  0  0
  -20.9724  -29.5580   21.8245 H   0  0  0  0  0  0
  -26.0089  -38.2359   24.1202 H   0  0  0  0  0  0
  -24.4146  -24.7690   20.1261 H   0  0  0  0  0  0
  -26.9828  -25.3254   23.1454 H   0  0  0  0  0  0
  -24.2632  -32.1335   19.3403 H   0  0  0  0  0  0
  -23.6519  -31.9177   20.9509 H   0  0  0  0  0  0
  -25.9830  -31.4933   18.5101 H   0  0  0  0  0  0
  -24.8500  -30.3595   17.8470 H   0  0  0  0  0  0
  -27.8708  -30.2404   18.1146 H   0  0  0  0  0  0
  -26.9015  -29.5678   16.8738 H   0  0  0  0  0  0
  -26.7593  -27.6887   22.0553 H   0  0  0  0  0  0
  -27.3837  -26.8073   21.7166 H   0  0  0  0  0  0
  -27.1648  -27.6214   17.5364 H   0  0  0  0  0  0
  -25.8193  -22.3870   18.5444 H   0  0  0  0  0  0
  -24.2153  -22.8161   19.1512 H   0  0  0  0  0  0
  -24.9675  -21.3235   19.6740 H   0  0  0  0  0  0
  -29.1004  -20.4950   21.1909 H   0  0  0  0  0  0
  -28.2029  -20.3396   19.7431 H   0  0  0  0  0  0
  -27.5888  -17.7131   20.9382 H   0  0  0  0  0  0
  1 25  1  0  0  0
  1 30  2  0  0  0
  1 86  1  0  0  0
  2  3  1  0  0  0
  2 25  1  0  0  0
  2 88  1  0  0  0
  2 89  1  0  0  0
  3  4  1  0  0  0
  3 90  1  0  0  0
  3 91  1  0  0  0
  4  5  1  0  0  0
  4 92  1  0  0  0
  4 93  1  0  0  0
  5  6  1  0  0  0
  5 26  1  0  0  0
  5 94  1  0  0  0
  6 25  1  0  0  0
  6 95  1  0  0  0
  6 96  1  0  0  0
  7  8  2  0  0  0
  7 26  1  0  0  0
  7 29  1  0  0  0
  8  9  1  0  0  0
  8 22  1  0  0  0
  9 10  1  0  0  0
  9 27  2  0  0  0
 10 11  2  0  0  0
 10 15  1  0  0  0
 11 12  1  0  0  0
 11 97  1  0  0  0
 12 13  2  0  0  0
 12 98  1  0  0  0
 13 14  1  0  0  0
 13 31  1  0  0  0
 14 15  2  0  0  0
 14 99  1  0  0  0
 15100  1  0  0  0
 16 17  2  0  0  0
 16 21  1  0  0  0
 16 31  1  0  0  0
 17 18  1  0  0  0
 17101  1  0  0  0
 18 19  2  0  0  0
 18102  1  0  0  0
 19 20  1  0  0  0
 19 24  1  0  0  0
 20 21  2  0  0  0
 20103  1  0  0  0
 21 23  1  0  0  0
 22 28  1  0  0  0
 22 32  2  0  0  0
 26 27  1  0  0  0
 28104  1  0  0  0
 28105  1  0  0  0
 29106  1  0  0  0
 29107  1  0  0  0
 33 34  1  0  0  0
 33 66  1  0  0  0
 33 70  2  0  0  0
 34 36  1  0  0  0
 34 59  1  0  0  0
 34108  1  0  0  0
 35 44  2  0  0  0
 35 45  1  0  0  0
 35 68  1  0  0  0
 36 56  1  0  0  0
 36109  1  0  0  0
 37 39  1  0  0  0
 37 47  1  0  0  0
 37 66  1  0  0  0
 37110  1  0  0  0
 38 43  2  0  0  0
 38 46  1  0  0  0
 38 47  1  0  0  0
 39 64  1  0  0  0
 39 67  2  0  0  0
 40 52  1  0  0  0
 40 53  2  0  0  0
 40 58  1  0  0  0
 41111  1  0  0  0
 41112  1  0  0  0
 41113  1  0  0  0
 41 48  1  0  0  0
 42 43  1  0  0  0
 42 66  1  0  0  0
 42114  1  0  0  0
 42115  1  0  0  0
 43 44  1  0  0  0
 44116  1  0  0  0
 45 46  2  0  0  0
 45117  1  0  0  0
 46118  1  0  0  0
 47119  1  0  0  0
 47120  1  0  0  0
 48 56  1  0  0  0
 48 65  1  0  0  0
 48121  1  0  0  0
 49 50  1  0  0  0
 49 53  1  0  0  0
 49 64  1  0  0  0
 49122  1  0  0  0
 50 51  1  0  0  0
 50123  1  0  0  0
 50124  1  0  0  0
 51 52  1  0  0  0
 51125  1  0  0  0
 51126  1  0  0  0
 52127  1  0  0  0
 52128  1  0  0  0
 53 54  1  0  0  0
 54 55  2  0  0  0
 54129  1  0  0  0
 55 57  1  0  0  0
 55130  1  0  0  0
 56 69  2  0  0  0
 57 58  2  0  0  0
 57131  1  0  0  0
 58132  1  0  0  0
 59 60  1  0  0  0
 59 61  1  0  0  0
 59 62  1  0  0  0
 60133  1  0  0  0
 60134  1  0  0  0
 60135  1  0  0  0
 61136  1  0  0  0
 61137  1  0  0  0
 61138  1  0  0  0
 62139  1  0  0  0
 62140  1  0  0  0
 62141  1  0  0  0
 63 65  1  0  0  0
 63142  1  0  0  0
 63143  1  0  0  0
 63144  1  0  0  0
 64145  1  0  0  0
 65146  1  0  0  0
 68 82  1  0  0  0
 71 73  2  0  0  0
 71 75  1  0  0  0
 71147  1  0  0  0
 72 75  2  0  0  0
 72 76  1  0  0  0
 72148  1  0  0  0
 73 74  1  0  0  0
 73 83  1  0  0  0
 74 76  2  0  0  0
 74 84  1  0  0  0
 75 85  1  0  0  0
 76 87  1  0  0  0
 77 78  2  0  0  0
 77 79  1  0  0  0
 77 85  1  0  0  0
 78149  1  0  0  0
 78150  1  0  0  0
 79 80  1  0  0  0
 79151  1  0  0  0
 79152  1  0  0  0
 80 82  1  0  0  0
 80153  1  0  0  0
 80154  1  0  0  0
 81 82  1  0  0  0
 81 85  1  0  0  0
 81155  1  0  0  0
 81156  1  0  0  0
 82157  1  0  0  0
 83158  1  0  0  0
 83159  1  0  0  0
 83160  1  0  0  0
 84 86  1  0  0  0
 84161  1  0  0  0
 84162  1  0  0  0
 86163  1  0  0  0
M  ISO  4   1 100  68 101  82 101  86 100
M  END
> <chiral flag>
0

> <version>
0

> <s_m_source_file>
/data/baiqing/PycharmProjects/Reinvent-master-3.2/result/LINK_invent/BTK/process_docking_weight1_custom_product_contain_oxygen_bond_distance_aromatic_linkinvent_7_9_3/rearranged_h_0050.sdf

> <i_m_source_file_index>
82

> <r_mmod_Potential_Energy-OPLS-2005>
21822.142578125

> <r_mmod_Stretch_Energy-OPLS-2005>
11563.119140625

> <r_mmod_Bend_Energy-OPLS-2005>
2464.60498046875

> <r_mmod_Torsional_Energy-OPLS-2005>
552.402709960938

> <r_mmod_Improper_Torsional_Energy-OPLS-2005>
49.8747825622559

> <r_mmod_Van_der_Waal_Energy-OPLS-2005>
4232.435546875

> <r_mmod_Electrostatic_Energy-OPLS-2005>
-375.823669433594

> <r_mmod_Solvation_Energy-OPLS-2005>
-215.55322265625

> <b_mmod_Minimization_Converged-OPLS-2005>
0

> <r_mmod_RMS_Derivative-OPLS-2005>
11.330623626709

$$$$
82
                    3D
 Structure written by MMmdl.
158166  0  0  1  0            999 V2000
  -29.0239  -16.1142   20.4563 C   0  0  0  0  0  0
  -30.1227  -13.6056   19.6264 C   0  0  0  0  0  0
  -29.4770  -12.8353   18.4165 C   0  0  0  0  0  0
  -28.0959  -12.2744   18.7840 C   0  0  0  0  0  0
  -27.4289  -13.2470   19.7739 C   0  0  2  0  0  0
  -28.2785  -13.6178   20.9742 C   0  0  0  0  0  0
  -25.1528  -13.7961   20.5648 C   0  0  0  0  0  0
  -24.1047  -13.0160   20.9302 C   0  0  0  0  0  0
  -24.5770  -11.6670   20.8791 C   0  0  0  0  0  0
  -23.8666  -10.4085   21.0477 C   0  0  0  0  0  0
  -24.3385   -9.4074   21.9224 C   0  0  0  0  0  0
  -23.6148   -8.2083   22.0759 C   0  0  0  0  0  0
  -22.4139   -8.0111   21.3541 C   0  0  0  0  0  0
  -21.9694   -9.0018   20.4634 C   0  0  0  0  0  0
  -22.6914  -10.1923   20.3055 C   0  0  0  0  0  0
  -21.6802   -6.0632   22.5290 C   0  0  0  0  0  0
  -21.3977   -6.5580   23.8209 C   0  0  0  0  0  0
  -21.3652   -5.6761   24.9193 C   0  0  0  0  0  0
  -21.6059   -4.3022   24.7262 C   0  0  0  0  0  0
  -21.8813   -3.8083   23.4391 C   0  0  0  0  0  0
  -21.9166   -4.6876   22.3435 C   0  0  0  0  0  0
  -22.7207  -13.5021   21.2082 C   0  0  0  0  0  0
  -22.1646   -4.2074   21.1011 F   0  0  0  0  0  0
  -21.5639   -3.4512   25.7782 F   0  0  0  0  0  0
  -29.1192  -14.6033   20.3486 N   0  0  0  0  0  0
  -26.1533  -12.9024   20.2622 N   0  0  0  0  0  0
  -25.8521  -11.6203   20.5358 N   0  0  0  0  0  0
  -21.9961  -12.8028   22.0699 N   0  0  0  0  0  0
  -25.3293  -15.1749   20.4458 N   0  0  0  0  0  0
  -30.2938  -16.2874   20.3368 O   0  0  0  0  0  0
  -21.6552   -6.8707   21.4221 O   0  0  0  0  0  0
  -22.2986  -14.5375   20.6948 O   0  0  0  0  0  0
  -24.7015  -31.9751   23.1585 C   0  0  0  0  0  0
  -25.9728  -32.5231   23.8530 C   0  0  1  0  0  0
  -26.7882  -27.3346   20.7111 C   0  0  0  0  0  0
  -25.6471  -33.8894   24.2598 N   0  0  0  0  0  0
  -23.5739  -30.7838   21.3446 C   0  0  2  0  0  0
  -24.9224  -29.1378   19.9626 C   0  0  0  0  0  0
  -23.0103  -29.7139   22.1997 C   0  0  0  0  0  0
  -18.4113  -27.3356   22.8853 C   0  0  0  0  0  0
  -24.1513  -36.7379   23.2598 C   0  0  0  0  0  0
  -26.0592  -30.9555   21.2941 C   0  0  0  0  0  0
  -26.0575  -29.5699   20.6590 C   0  0  0  0  0  0
  -27.1127  -28.6821   20.8872 C   0  0  0  0  0  0
  -25.8909  -26.9357   19.7046 C   0  0  0  0  0  0
  -24.8627  -27.8405   19.4067 C   0  0  0  0  0  0
  -23.7998  -30.1368   19.9344 C   0  0  0  0  0  0
  -25.4145  -36.3258   24.0341 C   0  0  1  0  0  0
  -21.3703  -28.0746   22.0981 C   0  0  2  0  0  0
  -22.4089  -25.8488   22.1059 C   0  0  0  0  0  0
  -20.5213  -24.2929   23.0041 C   0  0  0  0  0  0
  -18.5814  -25.4262   23.0857 C   0  0  0  0  0  0
  -19.5642  -28.4053   22.6231 C   0  0  0  0  0  0
  -19.2469  -29.7330   23.1941 C   0  0  0  0  0  0
  -17.9712  -30.2100   23.6298 C   0  0  0  0  0  0
  -25.9176  -34.9678   23.5163 C   0  0  0  0  0  0
  -16.8748  -29.3452   23.5157 C   0  0  0  0  0  0
  -17.1193  -27.9726   23.1786 C   0  0  0  0  0  0
  -26.4549  -31.6608   25.0751 C   0  0  0  0  0  0
  -25.3501  -31.3760   26.1177 C   0  0  0  0  0  0
  -27.0197  -30.3048   24.5917 C   0  0  0  0  0  0
  -27.6116  -32.4074   25.7784 C   0  0  0  0  0  0
  -27.5616  -37.1912   24.8456 C   0  0  0  0  0  0
  -21.9206  -29.2417   21.6685 N   0  0  0  0  0  0
  -26.4317  -37.3945   23.9410 N   0  0  0  0  0  0
  -24.7969  -31.2729   21.9920 N   0  0  0  0  0  0
  -23.5412  -29.3053   23.2275 O   0  0  0  0  0  0
  -26.6224  -26.7357   21.9595 O   0  0  0  0  0  0
  -26.5514  -34.9094   22.4581 O   0  0  0  0  0  0
  -23.6021  -32.2220   23.6826 O   0  0  0  0  0  0
  -23.7308  -21.4748   21.0724 C   0  0  0  0  0  0
  -23.6885  -23.2533   19.5163 C   0  0  0  0  0  0
  -25.4290  -21.2773   19.4238 C   0  0  0  0  0  0
  -22.8426  -22.9460   20.6169 C   0  0  0  0  0  0
  -25.1229  -20.4819   20.5745 C   0  0  0  0  0  0
  -24.8065  -22.5117   18.9693 C   0  0  0  0  0  0
  -22.4831  -26.8446   24.3110 C   0  0  0  0  0  0
  -23.9818  -26.8327   23.9089 C   0  0  0  0  0  0
  -20.8522  -26.4813   23.7538 C   0  0  0  0  0  0
  -21.2006  -24.3478   20.6853 C   0  0  0  0  0  0
  -26.4882  -18.8540   20.9730 C   0  0  0  0  0  0
  -25.1632  -26.3202   22.6264 C   0  0  0  0  0  0
  -20.3125  -26.0490   21.7261 N   0  0  0  0  0  0
  -27.7317  -17.3057   20.4000 N   0  0  0  0  0  0
  -20.1199  -26.5634   24.7546 O   0  0  0  0  0  0
  -25.3440  -23.0612   17.8549 F   0  0  0  0  0  0
  -30.9755  -14.1663   19.2482 H   0  0  0  0  0  0
  -30.5655  -12.9030   20.3379 H   0  0  0  0  0  0
  -30.1345  -12.0480   18.0488 H   0  0  0  0  0  0
  -29.3539  -13.5408   17.5930 H   0  0  0  0  0  0
  -28.2097  -11.2937   19.2450 H   0  0  0  0  0  0
  -27.4828  -12.1365   17.8932 H   0  0  0  0  0  0
  -27.2291  -14.1237   19.1497 H   0  0  0  0  0  0
  -28.7658  -12.7483   21.4232 H   0  0  0  0  0  0
  -27.7007  -14.0927   21.7701 H   0  0  0  0  0  0
  -25.2507   -9.5648   22.4797 H   0  0  0  0  0  0
  -23.9899   -7.4474   22.7459 H   0  0  0  0  0  0
  -21.0637   -8.8443   19.8939 H   0  0  0  0  0  0
  -22.3323  -10.9453   19.6180 H   0  0  0  0  0  0
  -21.1960   -7.6087   23.9698 H   0  0  0  0  0  0
  -21.1504   -6.0503   25.9104 H   0  0  0  0  0  0
  -22.0612   -2.7537   23.2913 H   0  0  0  0  0  0
  -22.3586  -11.9648   22.5007 H   0  0  0  0  0  0
  -21.0629  -13.1088   22.3051 H   0  0  0  0  0  0
  -24.5654  -15.8121   20.6476 H   0  0  0  0  0  0
  -26.1897  -15.6607   20.2253 H   0  0  0  0  0  0
  -26.8087  -32.5964   23.1630 H   0  0  0  0  0  0
  -25.0891  -34.0008   25.0935 H   0  0  0  0  0  0
  -22.8507  -31.5995   21.2527 H   0  0  0  0  0  0
  -23.3800  -35.9678   23.3268 H   0  0  0  0  0  0
  -24.3661  -36.8971   22.2015 H   0  0  0  0  0  0
  -23.7217  -37.6577   23.6580 H   0  0  0  0  0  0
  -26.2222  -31.6933   20.5071 H   0  0  0  0  0  0
  -26.9341  -31.0002   21.9262 H   0  0  0  0  0  0
  -27.8595  -28.9638   21.6184 H   0  0  0  0  0  0
  -25.7113  -25.8908   19.5009 H   0  0  0  0  0  0
  -24.0036  -27.5121   18.8351 H   0  0  0  0  0  0
  -22.9131  -29.7062   19.4716 H   0  0  0  0  0  0
  -24.1036  -30.9166   19.2357 H   0  0  0  0  0  0
  -25.1270  -36.2164   25.0831 H   0  0  0  0  0  0
  -21.4089  -28.5519   23.0818 H   0  0  0  0  0  0
  -23.0707  -25.2227   22.6946 H   0  0  0  0  0  0
  -22.8558  -25.7828   21.1098 H   0  0  0  0  0  0
  -20.7736  -24.0059   24.0264 H   0  0  0  0  0  0
  -20.3908  -23.2815   22.6134 H   0  0  0  0  0  0
  -17.9116  -24.9989   22.3347 H   0  0  0  0  0  0
  -18.0829  -25.1771   24.0283 H   0  0  0  0  0  0
  -20.0511  -30.4545   23.2268 H   0  0  0  0  0  0
  -17.8484  -31.2299   23.9707 H   0  0  0  0  0  0
  -15.8793  -29.6820   23.7814 H   0  0  0  0  0  0
  -16.2725  -27.3063   23.2845 H   0  0  0  0  0  0
  -24.5559  -30.7514   25.7063 H   0  0  0  0  0  0
  -24.8889  -32.2965   26.4742 H   0  0  0  0  0  0
  -25.7427  -30.8513   26.9887 H   0  0  0  0  0  0
  -26.2722  -29.7145   24.0598 H   0  0  0  0  0  0
  -27.3613  -29.6958   25.4280 H   0  0  0  0  0  0
  -27.8736  -30.4307   23.9272 H   0  0  0  0  0  0
  -27.2809  -33.3344   26.2460 H   0  0  0  0  0  0
  -28.4046  -32.6669   25.0765 H   0  0  0  0  0  0
  -28.0624  -31.8051   26.5655 H   0  0  0  0  0  0
  -28.2558  -38.0278   24.7588 H   0  0  0  0  0  0
  -28.1195  -36.2818   24.6175 H   0  0  0  0  0  0
  -27.2336  -37.1404   25.8853 H   0  0  0  0  0  0
  -21.5407  -29.6690   20.8386 H   0  0  0  0  0  0
  -26.0211  -38.3004   24.1495 H   0  0  0  0  0  0
  -23.2450  -21.0144   21.9218 H   0  0  0  0  0  0
  -23.4227  -24.1575   18.9891 H   0  0  0  0  0  0
  -26.2576  -20.9346   18.8238 H   0  0  0  0  0  0
  -22.3989  -27.2918   25.2937 H   0  0  0  0  0  0
  -24.5709  -27.2677   24.7087 H   0  0  0  0  0  0
  -20.3410  -23.6912   20.5020 H   0  0  0  0  0  0
  -21.3014  -24.8065   19.7045 H   0  0  0  0  0  0
  -26.0951  -18.4703   21.9340 H   0  0  0  0  0  0
  -27.2828  -19.5292   21.3403 H   0  0  0  0  0  0
  -24.7479  -25.8155   21.7671 H   0  0  0  0  0  0
  -25.5390  -25.4641   23.1884 H   0  0  0  0  0  0
  -19.3151  -26.1552   21.5603 H   0  0  0  0  0  0
  -28.1710  -17.8220   19.6452 H   0  0  0  0  0  0
  1 25  1  0  0  0
  1 30  2  0  0  0
  1 84  1  0  0  0
  2  3  1  0  0  0
  2 25  1  0  0  0
  2 87  1  0  0  0
  2 88  1  0  0  0
  3  4  1  0  0  0
  3 89  1  0  0  0
  3 90  1  0  0  0
  4  5  1  0  0  0
  4 91  1  0  0  0
  4 92  1  0  0  0
  5  6  1  0  0  0
  5 26  1  0  0  0
  5 93  1  0  0  0
  6 25  1  0  0  0
  6 94  1  0  0  0
  6 95  1  0  0  0
  7  8  2  0  0  0
  7 26  1  0  0  0
  7 29  1  0  0  0
  8  9  1  0  0  0
  8 22  1  0  0  0
  9 10  1  0  0  0
  9 27  2  0  0  0
 10 11  2  0  0  0
 10 15  1  0  0  0
 11 12  1  0  0  0
 11 96  1  0  0  0
 12 13  2  0  0  0
 12 97  1  0  0  0
 13 14  1  0  0  0
 13 31  1  0  0  0
 14 15  2  0  0  0
 14 98  1  0  0  0
 15 99  1  0  0  0
 16 17  2  0  0  0
 16 21  1  0  0  0
 16 31  1  0  0  0
 17 18  1  0  0  0
 17100  1  0  0  0
 18 19  2  0  0  0
 18101  1  0  0  0
 19 20  1  0  0  0
 19 24  1  0  0  0
 20 21  2  0  0  0
 20102  1  0  0  0
 21 23  1  0  0  0
 22 28  1  0  0  0
 22 32  2  0  0  0
 26 27  1  0  0  0
 28103  1  0  0  0
 28104  1  0  0  0
 29105  1  0  0  0
 29106  1  0  0  0
 33 34  1  0  0  0
 33 66  1  0  0  0
 33 70  2  0  0  0
 34 36  1  0  0  0
 34 59  1  0  0  0
 34107  1  0  0  0
 35 44  2  0  0  0
 35 45  1  0  0  0
 35 68  1  0  0  0
 36 56  1  0  0  0
 36108  1  0  0  0
 37 39  1  0  0  0
 37 47  1  0  0  0
 37 66  1  0  0  0
 37109  1  0  0  0
 38 43  2  0  0  0
 38 46  1  0  0  0
 38 47  1  0  0  0
 39 64  1  0  0  0
 39 67  2  0  0  0
 40 52  1  0  0  0
 40 53  2  0  0  0
 40 58  1  0  0  0
 41110  1  0  0  0
 41111  1  0  0  0
 41112  1  0  0  0
 41 48  1  0  0  0
 42 43  1  0  0  0
 42 66  1  0  0  0
 42113  1  0  0  0
 42114  1  0  0  0
 43 44  1  0  0  0
 44115  1  0  0  0
 45 46  2  0  0  0
 45116  1  0  0  0
 46117  1  0  0  0
 47118  1  0  0  0
 47119  1  0  0  0
 48 56  1  0  0  0
 48 65  1  0  0  0
 48120  1  0  0  0
 49 50  1  0  0  0
 49 53  1  0  0  0
 49 64  1  0  0  0
 49121  1  0  0  0
 50 51  1  0  0  0
 50122  1  0  0  0
 50123  1  0  0  0
 51 52  1  0  0  0
 51124  1  0  0  0
 51125  1  0  0  0
 52126  1  0  0  0
 52127  1  0  0  0
 53 54  1  0  0  0
 54 55  2  0  0  0
 54128  1  0  0  0
 55 57  1  0  0  0
 55129  1  0  0  0
 56 69  2  0  0  0
 57 58  2  0  0  0
 57130  1  0  0  0
 58131  1  0  0  0
 59 60  1  0  0  0
 59 61  1  0  0  0
 59 62  1  0  0  0
 60132  1  0  0  0
 60133  1  0  0  0
 60134  1  0  0  0
 61135  1  0  0  0
 61136  1  0  0  0
 61137  1  0  0  0
 62138  1  0  0  0
 62139  1  0  0  0
 62140  1  0  0  0
 63 65  1  0  0  0
 63141  1  0  0  0
 63142  1  0  0  0
 63143  1  0  0  0
 64144  1  0  0  0
 65145  1  0  0  0
 68 82  1  0  0  0
 71 74  2  0  0  0
 71 75  1  0  0  0
 71146  1  0  0  0
 72 74  1  0  0  0
 72 76  2  0  0  0
 72147  1  0  0  0
 73 75  2  0  0  0
 73 76  1  0  0  0
 73148  1  0  0  0
 74 80  1  0  0  0
 75 81  1  0  0  0
 76 86  1  0  0  0
 77 78  2  0  0  0
 77 79  1  0  0  0
 77149  1  0  0  0
 78 82  1  0  0  0
 78150  1  0  0  0
 79 83  1  0  0  0
 79 85  2  0  0  0
 80 83  1  0  0  0
 80151  1  0  0  0
 80152  1  0  0  0
 81 84  1  0  0  0
 81153  1  0  0  0
 81154  1  0  0  0
 82155  1  0  0  0
 82156  1  0  0  0
 83157  1  0  0  0
 84158  1  0  0  0
M  ISO  4   1 100  68 101  82 101  84 100
M  END
> <chiral flag>
0

> <version>
0

> <s_m_source_file>
/data/baiqing/PycharmProjects/Reinvent-master-3.2/result/LINK_invent/BTK/process_docking_weight1_custom_product_contain_oxygen_bond_distance_aromatic_linkinvent_7_9_3/rearranged_h_0050.sdf

> <i_m_source_file_index>
83

> <r_mmod_Potential_Energy-OPLS-2005>
17871.880859375

> <r_mmod_Stretch_Energy-OPLS-2005>
8718.1318359375

> <r_mmod_Bend_Energy-OPLS-2005>
1787.91748046875

> <r_mmod_Torsional_Energy-OPLS-2005>
500.496368408203

> <r_mmod_Improper_Torsional_Energy-OPLS-2005>
43.3716735839844

> <r_mmod_Van_der_Waal_Energy-OPLS-2005>
2717.28564453125

> <r_mmod_Electrostatic_Energy-OPLS-2005>
-466.963104248047

> <r_mmod_Solvation_Energy-OPLS-2005>
-234.792739868164

> <b_mmod_Minimization_Converged-OPLS-2005>
0

> <r_mmod_RMS_Derivative-OPLS-2005>
15.3699426651001

$$$$
83
                    3D
 Structure written by MMmdl.
151159  0  0  1  0            999 V2000
  -30.6001  -14.7477   20.4672 C   0  0  0  0  0  0
  -30.4355  -12.4596   19.4642 C   0  0  0  0  0  0
  -29.5100  -12.5066   18.2290 C   0  0  0  0  0  0
  -28.0367  -12.3261   18.6454 C   0  0  0  0  0  0
  -27.6400  -13.2265   19.8462 C   0  0  2  0  0  0
  -28.6863  -13.1601   20.9793 C   0  0  0  0  0  0
  -25.2509  -13.8180   20.5681 C   0  0  0  0  0  0
  -24.1802  -13.0432   20.9210 C   0  0  0  0  0  0
  -24.6384  -11.6908   20.8745 C   0  0  0  0  0  0
  -23.9059  -10.4288   21.0404 C   0  0  0  0  0  0
  -24.3612   -9.4206   21.9183 C   0  0  0  0  0  0
  -23.6290   -8.2239   22.0752 C   0  0  0  0  0  0
  -22.4274   -8.0272   21.3540 C   0  0  0  0  0  0
  -21.9905   -9.0246   20.4646 C   0  0  0  0  0  0
  -22.7230  -10.2128   20.3055 C   0  0  0  0  0  0
  -21.6856   -6.0729   22.5277 C   0  0  0  0  0  0
  -21.4017   -6.5634   23.8210 C   0  0  0  0  0  0
  -21.3662   -5.6787   24.9172 C   0  0  0  0  0  0
  -21.6044   -4.3050   24.7225 C   0  0  0  0  0  0
  -21.8820   -3.8141   23.4347 C   0  0  0  0  0  0
  -21.9195   -4.6957   22.3400 C   0  0  0  0  0  0
  -22.7826  -13.5222   21.1865 C   0  0  0  0  0  0
  -22.1661   -4.2141   21.0980 F   0  0  0  0  0  0
  -21.5629   -3.4534   25.7738 F   0  0  0  0  0  0
  -29.9819  -13.5199   20.3916 N   0  0  0  0  0  0
  -26.2927  -12.9376   20.3257 N   0  0  0  0  0  0
  -25.9313  -11.6525   20.5741 N   0  0  0  0  0  0
  -22.0464  -12.8222   22.0422 N   0  0  0  0  0  0
  -25.4183  -15.1907   20.4084 N   0  0  0  0  0  0
  -31.7999  -14.8434   20.1919 O   0  0  0  0  0  0
  -21.6642   -6.8870   21.4238 O   0  0  0  0  0  0
  -22.3514  -14.5523   20.6697 O   0  0  0  0  0  0
  -24.6313  -31.8553   23.1965 C   0  0  0  0  0  0
  -25.9138  -32.4754   23.8323 C   0  0  1  0  0  0
  -27.2216  -27.2630   20.1422 C   0  0  0  0  0  0
  -25.5937  -33.8555   24.2254 N   0  0  0  0  0  0
  -23.4281  -30.4745   21.5408 C   0  0  2  0  0  0
  -24.8758  -28.9143   20.1158 C   0  0  0  0  0  0
  -22.7498  -29.4600   22.4929 C   0  0  0  0  0  0
  -18.0292  -28.1378   22.8492 C   0  0  0  0  0  0
  -24.1492  -36.7280   23.2639 C   0  0  0  0  0  0
  -25.9721  -30.7702   21.3735 C   0  0  0  0  0  0
  -26.0468  -29.3900   20.7201 C   0  0  0  0  0  0
  -27.2263  -28.5790   20.7147 C   0  0  0  0  0  0
  -26.0299  -26.8460   19.5163 C   0  0  0  0  0  0
  -24.8723  -27.6513   19.5006 C   0  0  0  0  0  0
  -23.6456  -29.8010   20.1595 C   0  0  0  0  0  0
  -25.4120  -36.3071   24.0327 C   0  0  1  0  0  0
  -20.5895  -28.3693   23.1277 C   0  0  2  0  0  0
  -20.6784  -26.9415   22.5408 C   0  0  0  0  0  0
  -19.5759  -26.6379   21.5214 C   0  0  0  0  0  0
  -18.1938  -26.7922   22.1623 C   0  0  0  0  0  0
  -19.1544  -28.8853   23.2878 C   0  0  0  0  0  0
  -18.9462  -30.1453   23.8898 C   0  0  0  0  0  0
  -17.6461  -30.6586   24.0555 C   0  0  0  0  0  0
  -25.9061  -34.9439   23.5096 C   0  0  0  0  0  0
  -16.5354  -29.9080   23.6327 C   0  0  0  0  0  0
  -16.7277  -28.6489   23.0367 C   0  0  0  0  0  0
  -26.4504  -31.6575   25.0711 C   0  0  0  0  0  0
  -25.3720  -31.3726   26.1425 C   0  0  0  0  0  0
  -27.0347  -30.2994   24.6187 C   0  0  0  0  0  0
  -27.6063  -32.4308   25.7484 C   0  0  0  0  0  0
  -27.5582  -37.1797   24.8465 C   0  0  0  0  0  0
  -21.4207  -29.3037   22.3664 N   0  0  0  0  0  0
  -26.4295  -37.3768   23.9406 N   0  0  0  0  0  0
  -24.6963  -31.0517   22.0935 N   0  0  0  0  0  0
  -23.4196  -28.8158   23.3044 O   0  0  0  0  0  0
  -28.3265  -26.3866   20.1446 O   0  0  0  0  0  0
  -26.5631  -34.8916   22.4664 O   0  0  0  0  0  0
  -23.5464  -32.1366   23.7268 O   0  0  0  0  0  0
  -29.3001  -18.4380   20.3277 C   0  0  0  0  0  0
  -30.8072  -20.0782   21.3054 C   0  0  0  0  0  0
  -31.2849  -17.6696   21.4976 C   0  0  0  0  0  0
  -29.6257  -19.8419   20.5705 C   0  0  0  0  0  0
  -30.1232  -17.3178   20.7734 C   0  0  0  0  0  0
  -31.6143  -19.0165   21.7616 C   0  0  0  0  0  0
  -28.8475  -21.0585   19.9742 C   0  0  0  0  0  0
  -28.6362  -23.6818   19.7894 C   0  0  0  0  0  0
  -28.1743  -24.9763   20.6509 C   0  0  0  0  0  0
  -29.7936  -15.8771   20.5846 N   0  0  0  0  0  0
  -28.9849  -22.3478   20.4690 N   0  0  0  0  0  0
  -28.1164  -20.8511   19.0049 O   0  0  0  0  0  0
  -32.7380  -19.2979   22.4629 F   0  0  0  0  0  0
  -31.4754  -12.5938   19.1607 H   0  0  0  0  0  0
  -30.3860  -11.4825   19.9477 H   0  0  0  0  0  0
  -29.7947  -11.7348   17.5125 H   0  0  0  0  0  0
  -29.6325  -13.4613   17.7151 H   0  0  0  0  0  0
  -27.8983  -11.2774   18.9104 H   0  0  0  0  0  0
  -27.3778  -12.5134   17.7968 H   0  0  0  0  0  0
  -27.6322  -14.2474   19.4645 H   0  0  0  0  0  0
  -28.7271  -12.1600   21.4131 H   0  0  0  0  0  0
  -28.4219  -13.8375   21.7933 H   0  0  0  0  0  0
  -25.2757   -9.5688   22.4758 H   0  0  0  0  0  0
  -24.0001   -7.4635   22.7473 H   0  0  0  0  0  0
  -21.0835   -8.8762   19.8956 H   0  0  0  0  0  0
  -22.3681  -10.9666   19.6165 H   0  0  0  0  0  0
  -21.2008   -7.6142   23.9711 H   0  0  0  0  0  0
  -21.1485   -6.0517   25.9074 H   0  0  0  0  0  0
  -22.0599   -2.7602   23.2850 H   0  0  0  0  0  0
  -22.4079  -11.9896   22.4833 H   0  0  0  0  0  0
  -21.1078  -13.1248   22.2608 H   0  0  0  0  0  0
  -24.6438  -15.8375   20.5130 H   0  0  0  0  0  0
  -26.2521  -15.6329   20.0452 H   0  0  0  0  0  0
  -26.7206  -32.5409   23.1067 H   0  0  0  0  0  0
  -25.0085  -33.9687   25.0403 H   0  0  0  0  0  0
  -22.7245  -31.2962   21.3916 H   0  0  0  0  0  0
  -23.3760  -35.9607   23.3296 H   0  0  0  0  0  0
  -24.3584  -36.8905   22.2053 H   0  0  0  0  0  0
  -23.7236  -37.6477   23.6664 H   0  0  0  0  0  0
  -26.1071  -31.5295   20.6021 H   0  0  0  0  0  0
  -26.8505  -30.8232   22.0049 H   0  0  0  0  0  0
  -28.1287  -28.9423   21.1866 H   0  0  0  0  0  0
  -25.9886  -25.8751   19.0436 H   0  0  0  0  0  0
  -23.9757  -27.2823   19.0220 H   0  0  0  0  0  0
  -23.7663  -30.5723   19.3980 H   0  0  0  0  0  0
  -22.7649  -29.2300   19.8603 H   0  0  0  0  0  0
  -25.1302  -36.1920   25.0820 H   0  0  0  0  0  0
  -20.9984  -28.3268   24.1400 H   0  0  0  0  0  0
  -20.5697  -26.2301   23.3608 H   0  0  0  0  0  0
  -21.6652  -26.7451   22.1194 H   0  0  0  0  0  0
  -19.6925  -25.6288   21.1251 H   0  0  0  0  0  0
  -19.6696  -27.3183   20.6740 H   0  0  0  0  0  0
  -17.4210  -26.6675   21.4020 H   0  0  0  0  0  0
  -18.0336  -26.0056   22.9013 H   0  0  0  0  0  0
  -19.7938  -30.7266   24.2276 H   0  0  0  0  0  0
  -17.5015  -31.6270   24.5146 H   0  0  0  0  0  0
  -15.5354  -30.2982   23.7646 H   0  0  0  0  0  0
  -15.8674  -28.0793   22.7108 H   0  0  0  0  0  0
  -24.5896  -30.7080   25.7739 H   0  0  0  0  0  0
  -24.8911  -32.2897   26.4840 H   0  0  0  0  0  0
  -25.8026  -30.8898   27.0207 H   0  0  0  0  0  0
  -26.2927  -29.6738   24.1212 H   0  0  0  0  0  0
  -27.4034  -29.7258   25.4701 H   0  0  0  0  0  0
  -27.8803  -30.4267   23.9423 H   0  0  0  0  0  0
  -27.2683  -33.3613   26.2055 H   0  0  0  0  0  0
  -28.3882  -32.6854   25.0317 H   0  0  0  0  0  0
  -28.0723  -31.8432   26.5403 H   0  0  0  0  0  0
  -28.2599  -38.0094   24.7518 H   0  0  0  0  0  0
  -28.1080  -36.2628   24.6292 H   0  0  0  0  0  0
  -27.2300  -37.1442   25.8867 H   0  0  0  0  0  0
  -20.9404  -29.8729   21.6835 H   0  0  0  0  0  0
  -26.0177  -38.2845   24.1400 H   0  0  0  0  0  0
  -28.4040  -18.2232   19.7624 H   0  0  0  0  0  0
  -31.1307  -21.0885   21.5087 H   0  0  0  0  0  0
  -31.9428  -16.9037   21.8813 H   0  0  0  0  0  0
  -29.5370  -23.9684   19.2467 H   0  0  0  0  0  0
  -27.8879  -23.5017   19.0169 H   0  0  0  0  0  0
  -28.7560  -24.9603   21.5727 H   0  0  0  0  0  0
  -27.1475  -24.8153   20.9818 H   0  0  0  0  0  0
  -28.8081  -15.6681   20.5531 H   0  0  0  0  0  0
  -29.5344  -22.4278   21.3133 H   0  0  0  0  0  0
  1 25  1  0  0  0
  1 30  2  0  0  0
  1 80  1  0  0  0
  2  3  1  0  0  0
  2 25  1  0  0  0
  2 84  1  0  0  0
  2 85  1  0  0  0
  3  4  1  0  0  0
  3 86  1  0  0  0
  3 87  1  0  0  0
  4  5  1  0  0  0
  4 88  1  0  0  0
  4 89  1  0  0  0
  5  6  1  0  0  0
  5 26  1  0  0  0
  5 90  1  0  0  0
  6 25  1  0  0  0
  6 91  1  0  0  0
  6 92  1  0  0  0
  7  8  2  0  0  0
  7 26  1  0  0  0
  7 29  1  0  0  0
  8  9  1  0  0  0
  8 22  1  0  0  0
  9 10  1  0  0  0
  9 27  2  0  0  0
 10 11  2  0  0  0
 10 15  1  0  0  0
 11 12  1  0  0  0
 11 93  1  0  0  0
 12 13  2  0  0  0
 12 94  1  0  0  0
 13 14  1  0  0  0
 13 31  1  0  0  0
 14 15  2  0  0  0
 14 95  1  0  0  0
 15 96  1  0  0  0
 16 17  2  0  0  0
 16 21  1  0  0  0
 16 31  1  0  0  0
 17 18  1  0  0  0
 17 97  1  0  0  0
 18 19  2  0  0  0
 18 98  1  0  0  0
 19 20  1  0  0  0
 19 24  1  0  0  0
 20 21  2  0  0  0
 20 99  1  0  0  0
 21 23  1  0  0  0
 22 28  1  0  0  0
 22 32  2  0  0  0
 26 27  1  0  0  0
 28100  1  0  0  0
 28101  1  0  0  0
 29102  1  0  0  0
 29103  1  0  0  0
 33 34  1  0  0  0
 33 66  1  0  0  0
 33 70  2  0  0  0
 34 36  1  0  0  0
 34 59  1  0  0  0
 34104  1  0  0  0
 35 44  2  0  0  0
 35 45  1  0  0  0
 35 68  1  0  0  0
 36 56  1  0  0  0
 36105  1  0  0  0
 37 39  1  0  0  0
 37 47  1  0  0  0
 37 66  1  0  0  0
 37106  1  0  0  0
 38 43  2  0  0  0
 38 46  1  0  0  0
 38 47  1  0  0  0
 39 64  1  0  0  0
 39 67  2  0  0  0
 40 52  1  0  0  0
 40 53  2  0  0  0
 40 58  1  0  0  0
 41107  1  0  0  0
 41108  1  0  0  0
 41109  1  0  0  0
 41 48  1  0  0  0
 42 43  1  0  0  0
 42 66  1  0  0  0
 42110  1  0  0  0
 42111  1  0  0  0
 43 44  1  0  0  0
 44112  1  0  0  0
 45 46  2  0  0  0
 45113  1  0  0  0
 46114  1  0  0  0
 47115  1  0  0  0
 47116  1  0  0  0
 48 56  1  0  0  0
 48 65  1  0  0  0
 48117  1  0  0  0
 49 50  1  0  0  0
 49 53  1  0  0  0
 49 64  1  0  0  0
 49118  1  0  0  0
 50 51  1  0  0  0
 50119  1  0  0  0
 50120  1  0  0  0
 51 52  1  0  0  0
 51121  1  0  0  0
 51122  1  0  0  0
 52123  1  0  0  0
 52124  1  0  0  0
 53 54  1  0  0  0
 54 55  2  0  0  0
 54125  1  0  0  0
 55 57  1  0  0  0
 55126  1  0  0  0
 56 69  2  0  0  0
 57 58  2  0  0  0
 57127  1  0  0  0
 58128  1  0  0  0
 59 60  1  0  0  0
 59 61  1  0  0  0
 59 62  1  0  0  0
 60129  1  0  0  0
 60130  1  0  0  0
 60131  1  0  0  0
 61132  1  0  0  0
 61133  1  0  0  0
 61134  1  0  0  0
 62135  1  0  0  0
 62136  1  0  0  0
 62137  1  0  0  0
 63 65  1  0  0  0
 63138  1  0  0  0
 63139  1  0  0  0
 63140  1  0  0  0
 64141  1  0  0  0
 65142  1  0  0  0
 68 79  1  0  0  0
 71 74  2  0  0  0
 71 75  1  0  0  0
 71143  1  0  0  0
 72 74  1  0  0  0
 72 76  2  0  0  0
 72144  1  0  0  0
 73 75  2  0  0  0
 73 76  1  0  0  0
 73145  1  0  0  0
 74 77  1  0  0  0
 75 80  1  0  0  0
 76 83  1  0  0  0
 77 81  1  0  0  0
 77 82  2  0  0  0
 78 79  1  0  0  0
 78 81  1  0  0  0
 78146  1  0  0  0
 78147  1  0  0  0
 79148  1  0  0  0
 79149  1  0  0  0
 80150  1  0  0  0
 81151  1  0  0  0
M  ISO  4   1 100  68 101  79 101  80 100
M  END
> <chiral flag>
0

> <version>
0

> <s_m_source_file>
/data/baiqing/PycharmProjects/Reinvent-master-3.2/result/LINK_invent/BTK/process_docking_weight1_custom_product_contain_oxygen_bond_distance_aromatic_linkinvent_7_9_3/rearranged_h_0050.sdf

> <i_m_source_file_index>
84

> <r_mmod_Potential_Energy-OPLS-2005>
60.7303504943848

> <r_mmod_Stretch_Energy-OPLS-2005>
122.420455932617

> <r_mmod_Bend_Energy-OPLS-2005>
156.156188964844

> <r_mmod_Torsional_Energy-OPLS-2005>
250.382125854492

> <r_mmod_Improper_Torsional_Energy-OPLS-2005>
7.31215286254883

> <r_mmod_Van_der_Waal_Energy-OPLS-2005>
135.224075317383

> <r_mmod_Electrostatic_Energy-OPLS-2005>
-460.997772216797

> <r_mmod_Solvation_Energy-OPLS-2005>
-233.964981079102

> <b_mmod_Minimization_Converged-OPLS-2005>
0

> <r_mmod_RMS_Derivative-OPLS-2005>
0.799551904201508

$$$$
84
                    3D
 Structure written by MMmdl.
161170  0  0  1  0            999 V2000
  -30.6675  -14.5289   20.5541 C   0  0  0  0  0  0
  -30.4341  -12.3379   19.4245 C   0  0  0  0  0  0
  -29.5011  -12.5101   18.2056 C   0  0  0  0  0  0
  -28.0228  -12.3601   18.6199 C   0  0  0  0  0  0
  -27.6588  -13.2077   19.8674 C   0  0  2  0  0  0
  -28.7036  -13.0084   20.9900 C   0  0  0  0  0  0
  -25.2572  -13.8138   20.5653 C   0  0  0  0  0  0
  -24.1832  -13.0417   20.9190 C   0  0  0  0  0  0
  -24.6394  -11.6892   20.8757 C   0  0  0  0  0  0
  -23.9059  -10.4278   21.0409 C   0  0  0  0  0  0
  -24.3604   -9.4192   21.9180 C   0  0  0  0  0  0
  -23.6282   -8.2228   22.0739 C   0  0  0  0  0  0
  -22.4271   -8.0269   21.3529 C   0  0  0  0  0  0
  -21.9907   -9.0243   20.4631 C   0  0  0  0  0  0
  -22.7240  -10.2116   20.3042 C   0  0  0  0  0  0
  -21.6840   -6.0728   22.5291 C   0  0  0  0  0  0
  -21.4012   -6.5641   23.8222 C   0  0  0  0  0  0
  -21.3659   -5.6785   24.9185 C   0  0  0  0  0  0
  -21.6043   -4.3042   24.7225 C   0  0  0  0  0  0
  -21.8816   -3.8136   23.4345 C   0  0  0  0  0  0
  -21.9186   -4.6956   22.3408 C   0  0  0  0  0  0
  -22.7855  -13.5220   21.1864 C   0  0  0  0  0  0
  -22.1653   -4.2143   21.0983 F   0  0  0  0  0  0
  -21.5626   -3.4516   25.7728 F   0  0  0  0  0  0
  -30.0301  -13.3289   20.4346 N   0  0  0  0  0  0
  -26.3008  -12.9317   20.3328 N   0  0  0  0  0  0
  -25.9318  -11.6482   20.5763 N   0  0  0  0  0  0
  -22.0481  -12.8205   22.0408 N   0  0  0  0  0  0
  -25.4300  -15.1854   20.4016 N   0  0  0  0  0  0
  -31.8186  -14.7144   20.1504 O   0  0  0  0  0  0
  -21.6631   -6.8867   21.4251 O   0  0  0  0  0  0
  -22.3565  -14.5544   20.6730 O   0  0  0  0  0  0
  -24.6178  -31.8668   23.2116 C   0  0  0  0  0  0
  -25.9077  -32.4800   23.8401 C   0  0  1  0  0  0
  -27.2185  -27.3907   20.0905 C   0  0  0  0  0  0
  -25.5943  -33.8603   24.2319 N   0  0  0  0  0  0
  -23.4041  -30.4959   21.5531 C   0  0  2  0  0  0
  -24.8468  -28.9675   20.1116 C   0  0  0  0  0  0
  -22.7413  -29.4687   22.4996 C   0  0  0  0  0  0
  -18.0262  -28.1384   22.8511 C   0  0  0  0  0  0
  -24.1509  -36.7282   23.2645 C   0  0  0  0  0  0
  -25.9430  -30.8171   21.3775 C   0  0  0  0  0  0
  -26.0143  -29.4543   20.7131 C   0  0  0  0  0  0
  -27.2009  -28.6734   20.7023 C   0  0  0  0  0  0
  -26.0219  -26.9470   19.4704 C   0  0  0  0  0  0
  -24.8492  -27.7148   19.4865 C   0  0  0  0  0  0
  -23.6087  -29.8329   20.1675 C   0  0  0  0  0  0
  -25.4139  -36.3083   24.0333 C   0  0  1  0  0  0
  -20.5851  -28.3696   23.1308 C   0  0  2  0  0  0
  -20.6763  -26.9436   22.5406 C   0  0  0  0  0  0
  -19.5735  -26.6391   21.5222 C   0  0  0  0  0  0
  -18.1915  -26.7938   22.1622 C   0  0  0  0  0  0
  -19.1508  -28.8853   23.2904 C   0  0  0  0  0  0
  -18.9433  -30.1464   23.8907 C   0  0  0  0  0  0
  -17.6435  -30.6601   24.0561 C   0  0  0  0  0  0
  -25.9069  -34.9457   23.5114 C   0  0  0  0  0  0
  -16.5326  -29.9088   23.6349 C   0  0  0  0  0  0
  -16.7252  -28.6490   23.0400 C   0  0  0  0  0  0
  -26.4476  -31.6613   25.0755 C   0  0  0  0  0  0
  -25.3734  -31.3708   26.1489 C   0  0  0  0  0  0
  -27.0313  -30.3049   24.6190 C   0  0  0  0  0  0
  -27.6022  -32.4385   25.7505 C   0  0  0  0  0  0
  -27.5588  -37.1816   24.8463 C   0  0  0  0  0  0
  -21.4131  -29.3059   22.3725 N   0  0  0  0  0  0
  -26.4305  -37.3780   23.9401 N   0  0  0  0  0  0
  -24.6727  -31.0751   22.1029 N   0  0  0  0  0  0
  -23.4179  -28.8245   23.3059 O   0  0  0  0  0  0
  -28.3653  -26.5963   20.1261 O   0  0  0  0  0  0
  -26.5608  -34.8906   22.4658 O   0  0  0  0  0  0
  -23.5371  -32.1438   23.7508 O   0  0  0  0  0  0
  -31.4060  -18.9050   21.8176 C   0  0  0  0  0  0
  -31.3071  -17.5154   21.5483 C   0  0  0  0  0  0
  -29.0116  -17.8372   20.8394 C   0  0  0  0  0  0
  -30.3018  -19.7737   21.6281 C   0  0  0  0  0  0
  -30.0934  -16.9556   21.0841 C   0  0  0  0  0  0
  -29.1115  -19.2251   21.1006 C   0  0  0  0  0  0
  -29.3138  -23.1890   20.9688 C   0  0  0  0  0  0
  -31.7788  -23.5897   19.4375 C   0  0  0  0  0  0
  -30.7779  -24.7483   19.5406 C   0  0  0  0  0  0
  -31.7194  -22.6581   20.6649 C   0  0  0  0  0  0
  -29.3716  -24.1904   19.7778 C   0  0  2  0  0  0
  -30.3473  -21.2283   22.1425 C   0  0  0  0  0  0
  -28.2174  -25.2372   19.6337 C   0  0  0  0  0  0
  -30.3642  -22.3356   21.1503 N   0  0  0  0  0  0
  -29.8632  -15.5406   20.9597 N   0  0  0  0  0  0
  -28.2958  -23.1349   21.6658 O   0  0  0  0  0  0
  -28.0349  -20.0200   20.8948 F   0  0  0  0  0  0
  -31.4765  -12.4552   19.1241 H   0  0  0  0  0  0
  -30.3506  -11.3292   19.8327 H   0  0  0  0  0  0
  -29.7489  -11.7793   17.4338 H   0  0  0  0  0  0
  -29.6574  -13.4929   17.7577 H   0  0  0  0  0  0
  -27.8452  -11.3057   18.8307 H   0  0  0  0  0  0
  -27.3687  -12.6152   17.7850 H   0  0  0  0  0  0
  -27.6933  -14.2514   19.5550 H   0  0  0  0  0  0
  -28.6921  -11.9763   21.3421 H   0  0  0  0  0  0
  -28.4593  -13.6133   21.8654 H   0  0  0  0  0  0
  -25.2738   -9.5660   22.4764 H   0  0  0  0  0  0
  -23.9980   -7.4614   22.7462 H   0  0  0  0  0  0
  -21.0827   -8.8761   19.8947 H   0  0  0  0  0  0
  -22.3706  -10.9642   19.6138 H   0  0  0  0  0  0
  -21.2016   -7.6149   23.9732 H   0  0  0  0  0  0
  -21.1484   -6.0508   25.9089 H   0  0  0  0  0  0
  -22.0593   -2.7597   23.2840 H   0  0  0  0  0  0
  -22.4046  -11.9810   22.4734 H   0  0  0  0  0  0
  -21.1109  -13.1246   22.2631 H   0  0  0  0  0  0
  -24.6554  -15.8335   20.4884 H   0  0  0  0  0  0
  -26.2647  -15.6121   20.0210 H   0  0  0  0  0  0
  -26.7166  -32.5470   23.1178 H   0  0  0  0  0  0
  -25.0194  -33.9762   25.0533 H   0  0  0  0  0  0
  -22.6944  -31.3155   21.4172 H   0  0  0  0  0  0
  -23.3773  -35.9615   23.3289 H   0  0  0  0  0  0
  -24.3615  -36.8895   22.2064 H   0  0  0  0  0  0
  -23.7253  -37.6475   23.6670 H   0  0  0  0  0  0
  -26.0827  -31.5933   20.6236 H   0  0  0  0  0  0
  -26.8205  -30.8465   22.0119 H   0  0  0  0  0  0
  -28.0946  -29.0425   21.1846 H   0  0  0  0  0  0
  -25.9413  -25.9981   18.9632 H   0  0  0  0  0  0
  -23.9542  -27.3343   19.0139 H   0  0  0  0  0  0
  -23.7001  -30.6031   19.4014 H   0  0  0  0  0  0
  -22.7346  -29.2429   19.8845 H   0  0  0  0  0  0
  -25.1341  -36.1925   25.0831 H   0  0  0  0  0  0
  -20.9960  -28.3255   24.1421 H   0  0  0  0  0  0
  -20.5683  -26.2320   23.3600 H   0  0  0  0  0  0
  -21.6626  -26.7493   22.1175 H   0  0  0  0  0  0
  -19.6891  -25.6290   21.1271 H   0  0  0  0  0  0
  -19.6679  -27.3186   20.6747 H   0  0  0  0  0  0
  -17.4206  -26.6729   21.4000 H   0  0  0  0  0  0
  -18.0293  -26.0056   22.8984 H   0  0  0  0  0  0
  -19.7912  -30.7280   24.2278 H   0  0  0  0  0  0
  -17.4991  -31.6281   24.5156 H   0  0  0  0  0  0
  -15.5327  -30.2989   23.7677 H   0  0  0  0  0  0
  -15.8651  -28.0791   22.7168 H   0  0  0  0  0  0
  -24.5923  -30.7049   25.7791 H   0  0  0  0  0  0
  -24.8915  -32.2856   26.4956 H   0  0  0  0  0  0
  -25.8087  -30.8843   27.0231 H   0  0  0  0  0  0
  -26.2867  -29.6832   24.1209 H   0  0  0  0  0  0
  -27.3988  -29.7292   25.4687 H   0  0  0  0  0  0
  -27.8759  -30.4320   23.9422 H   0  0  0  0  0  0
  -27.2602  -33.3706   26.2022 H   0  0  0  0  0  0
  -28.3833  -32.6928   25.0331 H   0  0  0  0  0  0
  -28.0695  -31.8571   26.5455 H   0  0  0  0  0  0
  -28.2595  -38.0124   24.7531 H   0  0  0  0  0  0
  -28.1077  -36.2648   24.6270 H   0  0  0  0  0  0
  -27.2294  -37.1436   25.8858 H   0  0  0  0  0  0
  -20.9326  -29.8766   21.6908 H   0  0  0  0  0  0
  -26.0162  -38.2849   24.1369 H   0  0  0  0  0  0
  -32.3274  -19.2906   22.2307 H   0  0  0  0  0  0
  -32.1544  -16.8774   21.7592 H   0  0  0  0  0  0
  -28.0693  -17.4548   20.4762 H   0  0  0  0  0  0
  -32.7905  -23.9799   19.3159 H   0  0  0  0  0  0
  -31.5685  -23.0121   18.5357 H   0  0  0  0  0  0
  -30.7962  -25.3246   18.6141 H   0  0  0  0  0  0
  -31.0513  -25.4355   20.3416 H   0  0  0  0  0  0
  -32.2513  -23.1391   21.4874 H   0  0  0  0  0  0
  -32.2619  -21.7368   20.4465 H   0  0  0  0  0  0
  -29.1894  -23.5101   18.9442 H   0  0  0  0  0  0
  -31.2197  -21.3381   22.7890 H   0  0  0  0  0  0
  -29.5060  -21.3378   22.8293 H   0  0  0  0  0  0
  -27.3245  -24.7943   20.0781 H   0  0  0  0  0  0
  -28.0168  -25.3153   18.5638 H   0  0  0  0  0  0
  -28.9125  -15.2460   21.1134 H   0  0  0  0  0  0
  1 25  1  0  0  0
  1 30  2  0  0  0
  1 85  1  0  0  0
  2  3  1  0  0  0
  2 25  1  0  0  0
  2 88  1  0  0  0
  2 89  1  0  0  0
  3  4  1  0  0  0
  3 90  1  0  0  0
  3 91  1  0  0  0
  4  5  1  0  0  0
  4 92  1  0  0  0
  4 93  1  0  0  0
  5  6  1  0  0  0
  5 26  1  0  0  0
  5 94  1  0  0  0
  6 25  1  0  0  0
  6 95  1  0  0  0
  6 96  1  0  0  0
  7  8  2  0  0  0
  7 26  1  0  0  0
  7 29  1  0  0  0
  8  9  1  0  0  0
  8 22  1  0  0  0
  9 10  1  0  0  0
  9 27  2  0  0  0
 10 11  2  0  0  0
 10 15  1  0  0  0
 11 12  1  0  0  0
 11 97  1  0  0  0
 12 13  2  0  0  0
 12 98  1  0  0  0
 13 14  1  0  0  0
 13 31  1  0  0  0
 14 15  2  0  0  0
 14 99  1  0  0  0
 15100  1  0  0  0
 16 17  2  0  0  0
 16 21  1  0  0  0
 16 31  1  0  0  0
 17 18  1  0  0  0
 17101  1  0  0  0
 18 19  2  0  0  0
 18102  1  0  0  0
 19 20  1  0  0  0
 19 24  1  0  0  0
 20 21  2  0  0  0
 20103  1  0  0  0
 21 23  1  0  0  0
 22 28  1  0  0  0
 22 32  2  0  0  0
 26 27  1  0  0  0
 28104  1  0  0  0
 28105  1  0  0  0
 29106  1  0  0  0
 29107  1  0  0  0
 33 34  1  0  0  0
 33 66  1  0  0  0
 33 70  2  0  0  0
 34 36  1  0  0  0
 34 59  1  0  0  0
 34108  1  0  0  0
 35 44  2  0  0  0
 35 45  1  0  0  0
 35 68  1  0  0  0
 36 56  1  0  0  0
 36109  1  0  0  0
 37 39  1  0  0  0
 37 47  1  0  0  0
 37 66  1  0  0  0
 37110  1  0  0  0
 38 43  2  0  0  0
 38 46  1  0  0  0
 38 47  1  0  0  0
 39 64  1  0  0  0
 39 67  2  0  0  0
 40 52  1  0  0  0
 40 53  2  0  0  0
 40 58  1  0  0  0
 41111  1  0  0  0
 41112  1  0  0  0
 41113  1  0  0  0
 41 48  1  0  0  0
 42 43  1  0  0  0
 42 66  1  0  0  0
 42114  1  0  0  0
 42115  1  0  0  0
 43 44  1  0  0  0
 44116  1  0  0  0
 45 46  2  0  0  0
 45117  1  0  0  0
 46118  1  0  0  0
 47119  1  0  0  0
 47120  1  0  0  0
 48 56  1  0  0  0
 48 65  1  0  0  0
 48121  1  0  0  0
 49 50  1  0  0  0
 49 53  1  0  0  0
 49 64  1  0  0  0
 49122  1  0  0  0
 50 51  1  0  0  0
 50123  1  0  0  0
 50124  1  0  0  0
 51 52  1  0  0  0
 51125  1  0  0  0
 51126  1  0  0  0
 52127  1  0  0  0
 52128  1  0  0  0
 53 54  1  0  0  0
 54 55  2  0  0  0
 54129  1  0  0  0
 55 57  1  0  0  0
 55130  1  0  0  0
 56 69  2  0  0  0
 57 58  2  0  0  0
 57131  1  0  0  0
 58132  1  0  0  0
 59 60  1  0  0  0
 59 61  1  0  0  0
 59 62  1  0  0  0
 60133  1  0  0  0
 60134  1  0  0  0
 60135  1  0  0  0
 61136  1  0  0  0
 61137  1  0  0  0
 61138  1  0  0  0
 62139  1  0  0  0
 62140  1  0  0  0
 62141  1  0  0  0
 63 65  1  0  0  0
 63142  1  0  0  0
 63143  1  0  0  0
 63144  1  0  0  0
 64145  1  0  0  0
 65146  1  0  0  0
 68 83  1  0  0  0
 71 72  2  0  0  0
 71 74  1  0  0  0
 71147  1  0  0  0
 72 75  1  0  0  0
 72148  1  0  0  0
 73 75  2  0  0  0
 73 76  1  0  0  0
 73149  1  0  0  0
 74 76  2  0  0  0
 74 82  1  0  0  0
 75 85  1  0  0  0
 76 87  1  0  0  0
 77 81  1  0  0  0
 77 84  1  0  0  0
 77 86  2  0  0  0
 78 79  1  0  0  0
 78 80  1  0  0  0
 78150  1  0  0  0
 78151  1  0  0  0
 79 81  1  0  0  0
 79152  1  0  0  0
 79153  1  0  0  0
 80 84  1  0  0  0
 80154  1  0  0  0
 80155  1  0  0  0
 81 83  1  0  0  0
 81156  1  0  0  0
 82 84  1  0  0  0
 82157  1  0  0  0
 82158  1  0  0  0
 83159  1  0  0  0
 83160  1  0  0  0
 85161  1  0  0  0
M  ISO  4   1 100  68 101  83 101  85 100
M  END
> <chiral flag>
0

> <version>
0

> <s_m_source_file>
/data/baiqing/PycharmProjects/Reinvent-master-3.2/result/LINK_invent/BTK/process_docking_weight1_custom_product_contain_oxygen_bond_distance_aromatic_linkinvent_7_9_3/rearranged_h_0050.sdf

> <i_m_source_file_index>
85

> <r_mmod_Potential_Energy-OPLS-2005>
54.3350791931152

> <r_mmod_Stretch_Energy-OPLS-2005>
50.6816749572754

> <r_mmod_Bend_Energy-OPLS-2005>
128.652084350586

> <r_mmod_Torsional_Energy-OPLS-2005>
242.790237426758

> <r_mmod_Improper_Torsional_Energy-OPLS-2005>
7.09937334060669

> <r_mmod_Van_der_Waal_Energy-OPLS-2005>
167.611602783203

> <r_mmod_Electrostatic_Energy-OPLS-2005>
-336.935607910156

> <r_mmod_Solvation_Energy-OPLS-2005>
-228.154861450195

> <b_mmod_Minimization_Converged-OPLS-2005>
0

> <r_mmod_RMS_Derivative-OPLS-2005>
2.68882346153259

$$$$
85
                    3D
 Structure written by MMmdl.
157165  0  0  1  0            999 V2000
  -30.7174  -14.4368   20.5734 C   0  0  0  0  0  0
  -30.4426  -12.2840   19.3964 C   0  0  0  0  0  0
  -29.5062  -12.4758   18.1846 C   0  0  0  0  0  0
  -28.0298  -12.3350   18.6100 C   0  0  0  0  0  0
  -27.6712  -13.1911   19.8567 C   0  0  2  0  0  0
  -28.7126  -12.9578   20.9742 C   0  0  0  0  0  0
  -25.2657  -13.8129   20.5701 C   0  0  0  0  0  0
  -24.1861  -13.0450   20.9132 C   0  0  0  0  0  0
  -24.6355  -11.6892   20.8609 C   0  0  0  0  0  0
  -23.9005  -10.4311   21.0329 C   0  0  0  0  0  0
  -24.3571   -9.4248   21.9132 C   0  0  0  0  0  0
  -23.6259   -8.2277   22.0750 C   0  0  0  0  0  0
  -22.4242   -8.0271   21.3556 C   0  0  0  0  0  0
  -21.9852   -9.0225   20.4636 C   0  0  0  0  0  0
  -22.7153  -10.2125   20.3016 C   0  0  0  0  0  0
  -21.6859   -6.0699   22.5280 C   0  0  0  0  0  0
  -21.3994   -6.5600   23.8204 C   0  0  0  0  0  0
  -21.3671   -5.6763   24.9173 C   0  0  0  0  0  0
  -21.6070   -4.3025   24.7233 C   0  0  0  0  0  0
  -21.8808   -3.8108   23.4349 C   0  0  0  0  0  0
  -21.9188   -4.6927   22.3407 C   0  0  0  0  0  0
  -22.7869  -13.5247   21.1831 C   0  0  0  0  0  0
  -22.1648   -4.2100   21.0993 F   0  0  0  0  0  0
  -21.5672   -3.4524   25.7767 F   0  0  0  0  0  0
  -30.0546  -13.2576   20.4279 N   0  0  0  0  0  0
  -26.3069  -12.9278   20.3242 N   0  0  0  0  0  0
  -25.9295  -11.6449   20.5616 N   0  0  0  0  0  0
  -22.0464  -12.8284   22.0384 N   0  0  0  0  0  0
  -25.4474  -15.1872   20.4410 N   0  0  0  0  0  0
  -31.8120  -14.6677   20.0504 O   0  0  0  0  0  0
  -21.6639   -6.8855   21.4249 O   0  0  0  0  0  0
  -22.3571  -14.5563   20.6680 O   0  0  0  0  0  0
  -24.6156  -31.8673   23.2070 C   0  0  0  0  0  0
  -25.9026  -32.4817   23.8369 C   0  0  1  0  0  0
  -27.2497  -27.4307   20.1034 C   0  0  0  0  0  0
  -25.5883  -33.8629   24.2305 N   0  0  0  0  0  0
  -23.4046  -30.4850   21.5489 C   0  0  2  0  0  0
  -24.8565  -28.9383   20.1271 C   0  0  0  0  0  0
  -22.7388  -29.4646   22.4999 C   0  0  0  0  0  0
  -18.0248  -28.1375   22.8489 C   0  0  0  0  0  0
  -24.1489  -36.7300   23.2631 C   0  0  0  0  0  0
  -25.9318  -30.8277   21.3629 C   0  0  0  0  0  0
  -26.0157  -29.4575   20.7174 C   0  0  0  0  0  0
  -27.2176  -28.7107   20.7061 C   0  0  0  0  0  0
  -26.0772  -26.9191   19.5176 C   0  0  0  0  0  0
  -24.8811  -27.6669   19.5266 C   0  0  0  0  0  0
  -23.6191  -29.8098   20.1688 C   0  0  0  0  0  0
  -25.4114  -36.3106   24.0344 C   0  0  1  0  0  0
  -20.5831  -28.3653   23.1308 C   0  0  2  0  0  0
  -20.6753  -26.9401   22.5397 C   0  0  0  0  0  0
  -19.5744  -26.6389   21.5182 C   0  0  0  0  0  0
  -18.1920  -26.7921   22.1603 C   0  0  0  0  0  0
  -19.1507  -28.8832   23.2889 C   0  0  0  0  0  0
  -18.9465  -30.1437   23.8902 C   0  0  0  0  0  0
  -17.6481  -30.6588   24.0561 C   0  0  0  0  0  0
  -25.9052  -34.9479   23.5135 C   0  0  0  0  0  0
  -16.5358  -29.9107   23.6337 C   0  0  0  0  0  0
  -16.7251  -28.6505   23.0368 C   0  0  0  0  0  0
  -26.4469  -31.6615   25.0702 C   0  0  0  0  0  0
  -25.3735  -31.3786   26.1469 C   0  0  0  0  0  0
  -27.0314  -30.3056   24.6089 C   0  0  0  0  0  0
  -27.6014  -32.4381   25.7479 C   0  0  0  0  0  0
  -27.5594  -37.1794   24.8461 C   0  0  0  0  0  0
  -21.4104  -29.3019   22.3740 N   0  0  0  0  0  0
  -26.4291  -37.3819   23.9446 N   0  0  0  0  0  0
  -24.6684  -31.0758   22.0982 N   0  0  0  0  0  0
  -23.4146  -28.8202   23.3063 O   0  0  0  0  0  0
  -28.4014  -26.6729   20.0605 O   0  0  0  0  0  0
  -26.5613  -34.8938   22.4691 O   0  0  0  0  0  0
  -23.5357  -32.1419   23.7473 O   0  0  0  0  0  0
  -31.1405  -18.9672   21.0438 C   0  0  0  0  0  0
  -31.1549  -17.5669   20.8329 C   0  0  0  0  0  0
  -29.1739  -17.3685   22.2239 C   0  0  0  0  0  0
  -30.1473  -19.5820   21.8438 C   0  0  0  0  0  0
  -29.1575  -18.7622   22.4470 C   0  0  0  0  0  0
  -30.1612  -16.7542   21.4315 C   0  0  0  0  0  0
  -30.2214  -21.0593   22.1432 C   0  0  0  0  0  0
  -28.0851  -19.3289   23.3646 C   0  0  0  0  0  0
  -28.9115  -24.2727   20.6172 C   0  0  0  0  0  0
  -29.1650  -23.2792   21.7845 C   0  0  0  0  0  0
  -28.5298  -25.7023   21.1134 C   0  0  0  0  0  0
  -30.0408  -15.3417   21.2979 N   0  0  0  0  0  0
  -29.4784  -21.8915   21.3878 N   0  0  0  0  0  0
  -30.8920  -21.4416   23.1051 O   0  0  0  0  0  0
  -31.4851  -12.3860   19.0861 H   0  0  0  0  0  0
  -30.3527  -11.2669   19.7845 H   0  0  0  0  0  0
  -29.7405  -11.7331   17.4215 H   0  0  0  0  0  0
  -29.6749  -13.4493   17.7223 H   0  0  0  0  0  0
  -27.8585  -11.2807   18.8311 H   0  0  0  0  0  0
  -27.3726  -12.5777   17.7751 H   0  0  0  0  0  0
  -27.7216  -14.2367   19.5506 H   0  0  0  0  0  0
  -28.6847  -11.9196   21.3046 H   0  0  0  0  0  0
  -28.4596  -13.5446   21.8573 H   0  0  0  0  0  0
  -25.2708   -9.5758   22.4705 H   0  0  0  0  0  0
  -23.9971   -7.4690   22.7483 H   0  0  0  0  0  0
  -21.0785   -8.8678   19.8967 H   0  0  0  0  0  0
  -22.3524  -10.9642   19.6126 H   0  0  0  0  0  0
  -21.1933   -7.6092   23.9695 H   0  0  0  0  0  0
  -21.1536   -6.0490   25.9087 H   0  0  0  0  0  0
  -22.0583   -2.7564   23.2862 H   0  0  0  0  0  0
  -22.3977  -11.9947   22.4859 H   0  0  0  0  0  0
  -21.1098  -13.1390   22.2541 H   0  0  0  0  0  0
  -24.7098  -15.8498   20.6570 H   0  0  0  0  0  0
  -26.3312  -15.6375   20.2329 H   0  0  0  0  0  0
  -26.7085  -32.5534   23.1127 H   0  0  0  0  0  0
  -25.0057  -33.9809   25.0467 H   0  0  0  0  0  0
  -22.6954  -31.3005   21.4040 H   0  0  0  0  0  0
  -23.3771  -35.9604   23.3297 H   0  0  0  0  0  0
  -24.3564  -36.8904   22.2035 H   0  0  0  0  0  0
  -23.7222  -37.6504   23.6644 H   0  0  0  0  0  0
  -26.0417  -31.5887   20.5877 H   0  0  0  0  0  0
  -26.8177  -30.8853   21.9834 H   0  0  0  0  0  0
  -28.1140  -29.1109   21.1614 H   0  0  0  0  0  0
  -26.0919  -25.9389   19.0565 H   0  0  0  0  0  0
  -23.9886  -27.2536   19.0778 H   0  0  0  0  0  0
  -23.7343  -30.5791   19.4056 H   0  0  0  0  0  0
  -22.7427  -29.2323   19.8700 H   0  0  0  0  0  0
  -25.1297  -36.1951   25.0835 H   0  0  0  0  0  0
  -20.9906  -28.3211   24.1433 H   0  0  0  0  0  0
  -20.5645  -26.2269   23.3587 H   0  0  0  0  0  0
  -21.6643  -26.7470   22.1210 H   0  0  0  0  0  0
  -19.6935  -25.6297   21.1230 H   0  0  0  0  0  0
  -19.6699  -27.3169   20.6696 H   0  0  0  0  0  0
  -17.4196  -26.6627   21.4001 H   0  0  0  0  0  0
  -18.0350  -26.0042   22.8989 H   0  0  0  0  0  0
  -19.7964  -30.7216   24.2279 H   0  0  0  0  0  0
  -17.5081  -31.6276   24.5158 H   0  0  0  0  0  0
  -15.5385  -30.3051   23.7677 H   0  0  0  0  0  0
  -15.8620  -28.0853   22.7134 H   0  0  0  0  0  0
  -24.5842  -30.7198   25.7843 H   0  0  0  0  0  0
  -24.9019  -32.2984   26.4936 H   0  0  0  0  0  0
  -25.8066  -30.8952   27.0218 H   0  0  0  0  0  0
  -26.2864  -29.6816   24.1139 H   0  0  0  0  0  0
  -27.4079  -29.7312   25.4552 H   0  0  0  0  0  0
  -27.8692  -30.4401   23.9243 H   0  0  0  0  0  0
  -27.2560  -33.3649   26.2095 H   0  0  0  0  0  0
  -28.3789  -32.7017   25.0288 H   0  0  0  0  0  0
  -28.0709  -31.8501   26.5378 H   0  0  0  0  0  0
  -28.2596  -38.0118   24.7593 H   0  0  0  0  0  0
  -28.1117  -36.2662   24.6191 H   0  0  0  0  0  0
  -27.2321  -37.1315   25.8861 H   0  0  0  0  0  0
  -20.9275  -29.8774   21.6979 H   0  0  0  0  0  0
  -26.0173  -38.2886   24.1489 H   0  0  0  0  0  0
  -31.9127  -19.5750   20.5950 H   0  0  0  0  0  0
  -31.9371  -17.1383   20.2189 H   0  0  0  0  0  0
  -28.4115  -16.7509   22.6761 H   0  0  0  0  0  0
  -27.3115  -18.5868   23.5676 H   0  0  0  0  0  0
  -27.5924  -20.1969   22.9210 H   0  0  0  0  0  0
  -28.5221  -19.6098   24.3264 H   0  0  0  0  0  0
  -28.1132  -23.8885   19.9812 H   0  0  0  0  0  0
  -29.8128  -24.3263   20.0038 H   0  0  0  0  0  0
  -28.2842  -23.2322   22.4255 H   0  0  0  0  0  0
  -29.9669  -23.6804   22.4074 H   0  0  0  0  0  0
  -27.6149  -25.6420   21.7079 H   0  0  0  0  0  0
  -29.3046  -26.0715   21.7888 H   0  0  0  0  0  0
  -29.2123  -14.9459   21.7153 H   0  0  0  0  0  0
  -28.9746  -21.4867   20.6102 H   0  0  0  0  0  0
  1 25  1  0  0  0
  1 30  2  0  0  0
  1 82  1  0  0  0
  2  3  1  0  0  0
  2 25  1  0  0  0
  2 85  1  0  0  0
  2 86  1  0  0  0
  3  4  1  0  0  0
  3 87  1  0  0  0
  3 88  1  0  0  0
  4  5  1  0  0  0
  4 89  1  0  0  0
  4 90  1  0  0  0
  5  6  1  0  0  0
  5 26  1  0  0  0
  5 91  1  0  0  0
  6 25  1  0  0  0
  6 92  1  0  0  0
  6 93  1  0  0  0
  7  8  2  0  0  0
  7 26  1  0  0  0
  7 29  1  0  0  0
  8  9  1  0  0  0
  8 22  1  0  0  0
  9 10  1  0  0  0
  9 27  2  0  0  0
 10 11  2  0  0  0
 10 15  1  0  0  0
 11 12  1  0  0  0
 11 94  1  0  0  0
 12 13  2  0  0  0
 12 95  1  0  0  0
 13 14  1  0  0  0
 13 31  1  0  0  0
 14 15  2  0  0  0
 14 96  1  0  0  0
 15 97  1  0  0  0
 16 17  2  0  0  0
 16 21  1  0  0  0
 16 31  1  0  0  0
 17 18  1  0  0  0
 17 98  1  0  0  0
 18 19  2  0  0  0
 18 99  1  0  0  0
 19 20  1  0  0  0
 19 24  1  0  0  0
 20 21  2  0  0  0
 20100  1  0  0  0
 21 23  1  0  0  0
 22 28  1  0  0  0
 22 32  2  0  0  0
 26 27  1  0  0  0
 28101  1  0  0  0
 28102  1  0  0  0
 29103  1  0  0  0
 29104  1  0  0  0
 33 34  1  0  0  0
 33 66  1  0  0  0
 33 70  2  0  0  0
 34 36  1  0  0  0
 34 59  1  0  0  0
 34105  1  0  0  0
 35 44  2  0  0  0
 35 45  1  0  0  0
 35 68  1  0  0  0
 36 56  1  0  0  0
 36106  1  0  0  0
 37 39  1  0  0  0
 37 47  1  0  0  0
 37 66  1  0  0  0
 37107  1  0  0  0
 38 43  2  0  0  0
 38 46  1  0  0  0
 38 47  1  0  0  0
 39 64  1  0  0  0
 39 67  2  0  0  0
 40 52  1  0  0  0
 40 53  2  0  0  0
 40 58  1  0  0  0
 41108  1  0  0  0
 41109  1  0  0  0
 41110  1  0  0  0
 41 48  1  0  0  0
 42 43  1  0  0  0
 42 66  1  0  0  0
 42111  1  0  0  0
 42112  1  0  0  0
 43 44  1  0  0  0
 44113  1  0  0  0
 45 46  2  0  0  0
 45114  1  0  0  0
 46115  1  0  0  0
 47116  1  0  0  0
 47117  1  0  0  0
 48 56  1  0  0  0
 48 65  1  0  0  0
 48118  1  0  0  0
 49 50  1  0  0  0
 49 53  1  0  0  0
 49 64  1  0  0  0
 49119  1  0  0  0
 50 51  1  0  0  0
 50120  1  0  0  0
 50121  1  0  0  0
 51 52  1  0  0  0
 51122  1  0  0  0
 51123  1  0  0  0
 52124  1  0  0  0
 52125  1  0  0  0
 53 54  1  0  0  0
 54 55  2  0  0  0
 54126  1  0  0  0
 55 57  1  0  0  0
 55127  1  0  0  0
 56 69  2  0  0  0
 57 58  2  0  0  0
 57128  1  0  0  0
 58129  1  0  0  0
 59 60  1  0  0  0
 59 61  1  0  0  0
 59 62  1  0  0  0
 60130  1  0  0  0
 60131  1  0  0  0
 60132  1  0  0  0
 61133  1  0  0  0
 61134  1  0  0  0
 61135  1  0  0  0
 62136  1  0  0  0
 62137  1  0  0  0
 62138  1  0  0  0
 63 65  1  0  0  0
 63139  1  0  0  0
 63140  1  0  0  0
 63141  1  0  0  0
 64142  1  0  0  0
 65143  1  0  0  0
 68 81  1  0  0  0
 71 72  2  0  0  0
 71 74  1  0  0  0
 71144  1  0  0  0
 72 76  1  0  0  0
 72145  1  0  0  0
 73 75  1  0  0  0
 73 76  2  0  0  0
 73146  1  0  0  0
 74 75  2  0  0  0
 74 77  1  0  0  0
 75 78  1  0  0  0
 76 82  1  0  0  0
 77 83  1  0  0  0
 77 84  2  0  0  0
 78147  1  0  0  0
 78148  1  0  0  0
 78149  1  0  0  0
 79 80  1  0  0  0
 79 81  1  0  0  0
 79150  1  0  0  0
 79151  1  0  0  0
 80 83  1  0  0  0
 80152  1  0  0  0
 80153  1  0  0  0
 81154  1  0  0  0
 81155  1  0  0  0
 82156  1  0  0  0
 83157  1  0  0  0
M  ISO  4   1 100  68 101  81 101  82 100
M  END
> <chiral flag>
0

> <version>
0

> <s_m_source_file>
/data/baiqing/PycharmProjects/Reinvent-master-3.2/result/LINK_invent/BTK/process_docking_weight1_custom_product_contain_oxygen_bond_distance_aromatic_linkinvent_7_9_3/rearranged_h_0050.sdf

> <i_m_source_file_index>
86

> <r_mmod_Potential_Energy-OPLS-2005>
-42.2014579772949

> <r_mmod_Stretch_Energy-OPLS-2005>
39.1100196838379

> <r_mmod_Bend_Energy-OPLS-2005>
105.970497131348

> <r_mmod_Torsional_Energy-OPLS-2005>
263.374114990234

> <r_mmod_Improper_Torsional_Energy-OPLS-2005>
3.51730465888977

> <r_mmod_Van_der_Waal_Energy-OPLS-2005>
150.279678344727

> <r_mmod_Electrostatic_Energy-OPLS-2005>
-384.442565917969

> <r_mmod_Solvation_Energy-OPLS-2005>
-231.75309753418

> <b_mmod_Minimization_Converged-OPLS-2005>
0

> <r_mmod_RMS_Derivative-OPLS-2005>
5.17419767379761

$$$$
86
                    3D
 Structure written by MMmdl.
162170  0  0  1  0            999 V2000
  -30.7029  -14.4024   20.6814 C   0  0  0  0  0  0
  -30.4388  -12.3058   19.3915 C   0  0  0  0  0  0
  -29.4973  -12.5439   18.1936 C   0  0  0  0  0  0
  -28.0179  -12.3989   18.6032 C   0  0  0  0  0  0
  -27.6751  -13.1974   19.8871 C   0  0  2  0  0  0
  -28.7118  -12.8922   20.9887 C   0  0  0  0  0  0
  -25.2644  -13.8141   20.5646 C   0  0  0  0  0  0
  -24.1872  -13.0434   20.9131 C   0  0  0  0  0  0
  -24.6412  -11.6894   20.8708 C   0  0  0  0  0  0
  -23.9064  -10.4291   21.0394 C   0  0  0  0  0  0
  -24.3601   -9.4203   21.9178 C   0  0  0  0  0  0
  -23.6267   -8.2248   22.0764 C   0  0  0  0  0  0
  -22.4248   -8.0293   21.3549 C   0  0  0  0  0  0
  -21.9885   -9.0270   20.4659 C   0  0  0  0  0  0
  -22.7231  -10.2141   20.3055 C   0  0  0  0  0  0
  -21.6851   -6.0729   22.5270 C   0  0  0  0  0  0
  -21.4021   -6.5624   23.8206 C   0  0  0  0  0  0
  -21.3656   -5.6774   24.9163 C   0  0  0  0  0  0
  -21.6046   -4.3040   24.7208 C   0  0  0  0  0  0
  -21.8821   -3.8141   23.4329 C   0  0  0  0  0  0
  -21.9194   -4.6961   22.3388 C   0  0  0  0  0  0
  -22.7899  -13.5262   21.1797 C   0  0  0  0  0  0
  -22.1662   -4.2148   21.0962 F   0  0  0  0  0  0
  -21.5623   -3.4521   25.7723 F   0  0  0  0  0  0
  -30.0544  -13.2254   20.4708 N   0  0  0  0  0  0
  -26.3097  -12.9300   20.3400 N   0  0  0  0  0  0
  -25.9342  -11.6463   20.5742 N   0  0  0  0  0  0
  -22.0515  -12.8299   22.0367 N   0  0  0  0  0  0
  -25.4364  -15.1848   20.4023 N   0  0  0  0  0  0
  -31.7265  -14.7330   20.0706 O   0  0  0  0  0  0
  -21.6628   -6.8877   21.4238 O   0  0  0  0  0  0
  -22.3594  -14.5568   20.6645 O   0  0  0  0  0  0
  -24.6135  -31.8681   23.2100 C   0  0  0  0  0  0
  -25.9034  -32.4824   23.8394 C   0  0  1  0  0  0
  -27.2433  -27.4457   20.0729 C   0  0  0  0  0  0
  -25.5891  -33.8621   24.2330 N   0  0  0  0  0  0
  -23.4008  -30.4914   21.5506 C   0  0  2  0  0  0
  -24.8470  -28.9591   20.1140 C   0  0  0  0  0  0
  -22.7399  -29.4662   22.4995 C   0  0  0  0  0  0
  -18.0271  -28.1375   22.8490 C   0  0  0  0  0  0
  -24.1489  -36.7315   23.2633 C   0  0  0  0  0  0
  -25.9290  -30.8348   21.3627 C   0  0  0  0  0  0
  -26.0053  -29.4694   20.7097 C   0  0  0  0  0  0
  -27.1997  -28.7151   20.6950 C   0  0  0  0  0  0
  -26.0549  -26.9405   19.4914 C   0  0  0  0  0  0
  -24.8654  -27.6919   19.5084 C   0  0  0  0  0  0
  -23.6077  -29.8221   20.1654 C   0  0  0  0  0  0
  -25.4103  -36.3109   24.0340 C   0  0  1  0  0  0
  -20.5857  -28.3661   23.1316 C   0  0  2  0  0  0
  -20.6760  -26.9401   22.5409 C   0  0  0  0  0  0
  -19.5741  -26.6389   21.5200 C   0  0  0  0  0  0
  -18.1920  -26.7926   22.1615 C   0  0  0  0  0  0
  -19.1519  -28.8836   23.2906 C   0  0  0  0  0  0
  -18.9448  -30.1442   23.8919 C   0  0  0  0  0  0
  -17.6451  -30.6584   24.0562 C   0  0  0  0  0  0
  -25.9031  -34.9474   23.5133 C   0  0  0  0  0  0
  -16.5344  -29.9086   23.6323 C   0  0  0  0  0  0
  -16.7261  -28.6499   23.0354 C   0  0  0  0  0  0
  -26.4469  -31.6600   25.0717 C   0  0  0  0  0  0
  -25.3746  -31.3707   26.1477 C   0  0  0  0  0  0
  -27.0286  -30.3044   24.6082 C   0  0  0  0  0  0
  -27.6069  -32.4301   25.7462 C   0  0  0  0  0  0
  -27.5588  -37.1795   24.8456 C   0  0  0  0  0  0
  -21.4129  -29.3035   22.3731 N   0  0  0  0  0  0
  -26.4289  -37.3792   23.9418 N   0  0  0  0  0  0
  -24.6661  -31.0788   22.0998 N   0  0  0  0  0  0
  -23.4174  -28.8205   23.3034 O   0  0  0  0  0  0
  -28.4371  -26.7503   20.1058 O   0  0  0  0  0  0
  -26.5591  -34.8922   22.4693 O   0  0  0  0  0  0
  -23.5331  -32.1434   23.7499 O   0  0  0  0  0  0
  -28.9683  -19.2096   21.7601 C   0  0  0  0  0  0
  -28.2609  -18.2209   22.4629 C   0  0  0  0  0  0
  -30.5383  -17.5159   20.9643 C   0  0  0  0  0  0
  -30.1127  -18.8664   21.0079 C   0  0  0  0  0  0
  -29.8215  -16.5132   21.6654 C   0  0  0  0  0  0
  -28.6866  -16.8814   22.4248 C   0  0  0  0  0  0
  -30.7100  -20.2333   16.3788 C   0  0  0  0  0  0
  -29.2660  -23.3058   19.6319 C   0  0  0  0  0  0
  -30.1537  -21.0863   17.2517 C   0  0  0  0  0  0
  -29.5503  -24.6205   19.7497 C   0  0  0  0  0  0
  -30.1108  -22.2963   20.2705 C   0  0  0  0  0  0
  -30.9023  -19.9433   20.2654 C   0  0  0  0  0  0
  -29.3792  -20.6575   18.4846 C   0  0  0  0  0  0
  -28.7336  -25.7433   19.1328 C   0  0  0  0  0  0
  -30.1732  -15.1344   21.6717 N   0  0  0  0  0  0
  -30.0843  -21.0478   19.7185 N   0  0  0  0  0  0
  -30.8033  -22.5529   21.2610 O   0  0  0  0  0  0
  -27.7932  -15.7006   23.3177 Cl  0  0  0  0  0  0
  -31.4793  -12.4360   19.0879 H   0  0  0  0  0  0
  -30.3609  -11.2743   19.7386 H   0  0  0  0  0  0
  -29.7318  -11.8493   17.3866 H   0  0  0  0  0  0
  -29.6686  -13.5446   17.7927 H   0  0  0  0  0  0
  -27.8154  -11.3390   18.7605 H   0  0  0  0  0  0
  -27.3706  -12.7137   17.7840 H   0  0  0  0  0  0
  -27.7452  -14.2579   19.6428 H   0  0  0  0  0  0
  -28.6850  -11.8312   21.2412 H   0  0  0  0  0  0
  -28.4466  -13.3981   21.9147 H   0  0  0  0  0  0
  -25.2745   -9.5675   22.4755 H   0  0  0  0  0  0
  -23.9970   -7.4639   22.7478 H   0  0  0  0  0  0
  -21.0818   -8.8791   19.8956 H   0  0  0  0  0  0
  -22.3686  -10.9679   19.6162 H   0  0  0  0  0  0
  -21.2019   -7.6136   23.9709 H   0  0  0  0  0  0
  -21.1474   -6.0501   25.9062 H   0  0  0  0  0  0
  -22.0607   -2.7604   23.2830 H   0  0  0  0  0  0
  -22.4068  -11.9949   22.4790 H   0  0  0  0  0  0
  -21.1156  -13.1397   22.2548 H   0  0  0  0  0  0
  -24.6784  -15.8474   20.5233 H   0  0  0  0  0  0
  -26.3072  -15.6243   20.1369 H   0  0  0  0  0  0
  -26.7105  -32.5537   23.1158 H   0  0  0  0  0  0
  -25.0060  -33.9782   25.0489 H   0  0  0  0  0  0
  -22.6898  -31.3080   21.4103 H   0  0  0  0  0  0
  -23.3745  -35.9654   23.3300 H   0  0  0  0  0  0
  -24.3598  -36.8920   22.2048 H   0  0  0  0  0  0
  -23.7250  -37.6526   23.6643 H   0  0  0  0  0  0
  -26.0382  -31.6011   20.5936 H   0  0  0  0  0  0
  -26.8183  -30.8901   21.9785 H   0  0  0  0  0  0
  -28.0950  -29.1061   21.1584 H   0  0  0  0  0  0
  -26.0010  -25.9628   19.0409 H   0  0  0  0  0  0
  -23.9693  -27.2851   19.0611 H   0  0  0  0  0  0
  -23.7129  -30.5942   19.4026 H   0  0  0  0  0  0
  -22.7338  -29.2372   19.8734 H   0  0  0  0  0  0
  -25.1273  -36.1971   25.0832 H   0  0  0  0  0  0
  -20.9950  -28.3224   24.1433 H   0  0  0  0  0  0
  -20.5650  -26.2267   23.3589 H   0  0  0  0  0  0
  -21.6634  -26.7442   22.1210 H   0  0  0  0  0  0
  -19.6899  -25.6301   21.1228 H   0  0  0  0  0  0
  -19.6680  -27.3199   20.6730 H   0  0  0  0  0  0
  -17.4184  -26.6672   21.4023 H   0  0  0  0  0  0
  -18.0330  -26.0064   22.9007 H   0  0  0  0  0  0
  -19.7925  -30.7248   24.2301 H   0  0  0  0  0  0
  -17.5010  -31.6268   24.5159 H   0  0  0  0  0  0
  -15.5349  -30.2997   23.7635 H   0  0  0  0  0  0
  -15.8657  -28.0818   22.7074 H   0  0  0  0  0  0
  -24.5911  -30.7060   25.7819 H   0  0  0  0  0  0
  -24.8943  -32.2864   26.4941 H   0  0  0  0  0  0
  -25.8106  -30.8868   27.0226 H   0  0  0  0  0  0
  -26.2811  -29.6806   24.1166 H   0  0  0  0  0  0
  -27.4092  -29.7280   25.4525 H   0  0  0  0  0  0
  -27.8635  -30.4362   23.9194 H   0  0  0  0  0  0
  -27.2723  -33.3598   26.2073 H   0  0  0  0  0  0
  -28.3855  -32.6858   25.0263 H   0  0  0  0  0  0
  -28.0766  -31.8400   26.5342 H   0  0  0  0  0  0
  -28.2583  -38.0113   24.7539 H   0  0  0  0  0  0
  -28.1105  -36.2651   24.6227 H   0  0  0  0  0  0
  -27.2319  -37.1382   25.8859 H   0  0  0  0  0  0
  -20.9283  -29.8767   21.6966 H   0  0  0  0  0  0
  -26.0180  -38.2866   24.1442 H   0  0  0  0  0  0
  -28.6253  -20.2335   21.8147 H   0  0  0  0  0  0
  -27.3890  -18.4898   23.0409 H   0  0  0  0  0  0
  -31.4204  -17.2596   20.3960 H   0  0  0  0  0  0
  -31.2532  -20.5941   15.5166 H   0  0  0  0  0  0
  -30.6368  -19.1628   16.5100 H   0  0  0  0  0  0
  -28.3900  -23.0263   19.0692 H   0  0  0  0  0  0
  -30.2527  -22.1508   17.0852 H   0  0  0  0  0  0
  -30.4207  -24.9358   20.3096 H   0  0  0  0  0  0
  -31.4452  -19.4777   19.4417 H   0  0  0  0  0  0
  -31.6845  -20.3032   20.9357 H   0  0  0  0  0  0
  -29.2470  -19.5744   18.4591 H   0  0  0  0  0  0
  -28.3617  -21.0444   18.4452 H   0  0  0  0  0  0
  -27.8767  -25.3056   18.6292 H   0  0  0  0  0  0
  -29.3363  -26.2079   18.3519 H   0  0  0  0  0  0
  -29.5423  -14.5896   22.2412 H   0  0  0  0  0  0
  1 25  1  0  0  0
  1 30  2  0  0  0
  1 85  1  0  0  0
  2  3  1  0  0  0
  2 25  1  0  0  0
  2 89  1  0  0  0
  2 90  1  0  0  0
  3  4  1  0  0  0
  3 91  1  0  0  0
  3 92  1  0  0  0
  4  5  1  0  0  0
  4 93  1  0  0  0
  4 94  1  0  0  0
  5  6  1  0  0  0
  5 26  1  0  0  0
  5 95  1  0  0  0
  6 25  1  0  0  0
  6 96  1  0  0  0
  6 97  1  0  0  0
  7  8  2  0  0  0
  7 26  1  0  0  0
  7 29  1  0  0  0
  8  9  1  0  0  0
  8 22  1  0  0  0
  9 10  1  0  0  0
  9 27  2  0  0  0
 10 11  2  0  0  0
 10 15  1  0  0  0
 11 12  1  0  0  0
 11 98  1  0  0  0
 12 13  2  0  0  0
 12 99  1  0  0  0
 13 14  1  0  0  0
 13 31  1  0  0  0
 14 15  2  0  0  0
 14100  1  0  0  0
 15101  1  0  0  0
 16 17  2  0  0  0
 16 21  1  0  0  0
 16 31  1  0  0  0
 17 18  1  0  0  0
 17102  1  0  0  0
 18 19  2  0  0  0
 18103  1  0  0  0
 19 20  1  0  0  0
 19 24  1  0  0  0
 20 21  2  0  0  0
 20104  1  0  0  0
 21 23  1  0  0  0
 22 28  1  0  0  0
 22 32  2  0  0  0
 26 27  1  0  0  0
 28105  1  0  0  0
 28106  1  0  0  0
 29107  1  0  0  0
 29108  1  0  0  0
 33 34  1  0  0  0
 33 66  1  0  0  0
 33 70  2  0  0  0
 34 36  1  0  0  0
 34 59  1  0  0  0
 34109  1  0  0  0
 35 44  2  0  0  0
 35 45  1  0  0  0
 35 68  1  0  0  0
 36 56  1  0  0  0
 36110  1  0  0  0
 37 39  1  0  0  0
 37 47  1  0  0  0
 37 66  1  0  0  0
 37111  1  0  0  0
 38 43  2  0  0  0
 38 46  1  0  0  0
 38 47  1  0  0  0
 39 64  1  0  0  0
 39 67  2  0  0  0
 40 52  1  0  0  0
 40 53  2  0  0  0
 40 58  1  0  0  0
 41112  1  0  0  0
 41113  1  0  0  0
 41114  1  0  0  0
 41 48  1  0  0  0
 42 43  1  0  0  0
 42 66  1  0  0  0
 42115  1  0  0  0
 42116  1  0  0  0
 43 44  1  0  0  0
 44117  1  0  0  0
 45 46  2  0  0  0
 45118  1  0  0  0
 46119  1  0  0  0
 47120  1  0  0  0
 47121  1  0  0  0
 48 56  1  0  0  0
 48 65  1  0  0  0
 48122  1  0  0  0
 49 50  1  0  0  0
 49 53  1  0  0  0
 49 64  1  0  0  0
 49123  1  0  0  0
 50 51  1  0  0  0
 50124  1  0  0  0
 50125  1  0  0  0
 51 52  1  0  0  0
 51126  1  0  0  0
 51127  1  0  0  0
 52128  1  0  0  0
 52129  1  0  0  0
 53 54  1  0  0  0
 54 55  2  0  0  0
 54130  1  0  0  0
 55 57  1  0  0  0
 55131  1  0  0  0
 56 69  2  0  0  0
 57 58  2  0  0  0
 57132  1  0  0  0
 58133  1  0  0  0
 59 60  1  0  0  0
 59 61  1  0  0  0
 59 62  1  0  0  0
 60134  1  0  0  0
 60135  1  0  0  0
 60136  1  0  0  0
 61137  1  0  0  0
 61138  1  0  0  0
 61139  1  0  0  0
 62140  1  0  0  0
 62141  1  0  0  0
 62142  1  0  0  0
 63 65  1  0  0  0
 63143  1  0  0  0
 63144  1  0  0  0
 63145  1  0  0  0
 64146  1  0  0  0
 65147  1  0  0  0
 68 84  1  0  0  0
 71 72  2  0  0  0
 71 74  1  0  0  0
 71148  1  0  0  0
 72 76  1  0  0  0
 72149  1  0  0  0
 73 74  2  0  0  0
 73 75  1  0  0  0
 73150  1  0  0  0
 74 82  1  0  0  0
 75 76  2  0  0  0
 75 85  1  0  0  0
 76 88  1  0  0  0
 77 79  2  0  0  0
 77151  1  0  0  0
 77152  1  0  0  0
 78 80  2  0  0  0
 78 81  1  0  0  0
 78153  1  0  0  0
 79 83  1  0  0  0
 79154  1  0  0  0
 80 84  1  0  0  0
 80155  1  0  0  0
 81 86  1  0  0  0
 81 87  2  0  0  0
 82 86  1  0  0  0
 82156  1  0  0  0
 82157  1  0  0  0
 83 86  1  0  0  0
 83158  1  0  0  0
 83159  1  0  0  0
 84160  1  0  0  0
 84161  1  0  0  0
 85162  1  0  0  0
M  ISO  4   1 100  68 101  84 101  85 100
M  END
> <chiral flag>
0

> <version>
0

> <s_m_source_file>
/data/baiqing/PycharmProjects/Reinvent-master-3.2/result/LINK_invent/BTK/process_docking_weight1_custom_product_contain_oxygen_bond_distance_aromatic_linkinvent_7_9_3/rearranged_h_0050.sdf

> <i_m_source_file_index>
87

> <r_mmod_Potential_Energy-OPLS-2005>
-72.3181457519531

> <r_mmod_Stretch_Energy-OPLS-2005>
38.8130340576172

> <r_mmod_Bend_Energy-OPLS-2005>
112.913520812988

> <r_mmod_Torsional_Energy-OPLS-2005>
226.304290771484

> <r_mmod_Improper_Torsional_Energy-OPLS-2005>
5.14454174041748

> <r_mmod_Van_der_Waal_Energy-OPLS-2005>
165.858856201172

> <r_mmod_Electrostatic_Energy-OPLS-2005>
-416.958770751953

> <r_mmod_Solvation_Energy-OPLS-2005>
-214.674423217773

> <b_mmod_Minimization_Converged-OPLS-2005>
0

> <r_mmod_RMS_Derivative-OPLS-2005>
1.49482595920563

$$$$
87
                    3D
 Structure written by MMmdl.
164172  0  0  1  0            999 V2000
  -30.7952  -14.4391   20.6277 C   0  0  0  0  0  0
  -30.3944  -12.3187   19.4364 C   0  0  0  0  0  0
  -29.4841  -12.5269   18.2135 C   0  0  0  0  0  0
  -28.0109  -12.3776   18.6282 C   0  0  0  0  0  0
  -27.6562  -13.2268   19.8822 C   0  0  2  0  0  0
  -28.6966  -13.0261   21.0064 C   0  0  0  0  0  0
  -25.2500  -13.8319   20.5757 C   0  0  0  0  0  0
  -24.1807  -13.0496   20.9311 C   0  0  0  0  0  0
  -24.6382  -11.6981   20.8801 C   0  0  0  0  0  0
  -23.9069  -10.4321   21.0446 C   0  0  0  0  0  0
  -24.3634   -9.4212   21.9204 C   0  0  0  0  0  0
  -23.6299   -8.2246   22.0764 C   0  0  0  0  0  0
  -22.4305   -8.0275   21.3540 C   0  0  0  0  0  0
  -21.9951   -9.0248   20.4629 C   0  0  0  0  0  0
  -22.7265  -10.2143   20.3053 C   0  0  0  0  0  0
  -21.6839   -6.0727   22.5288 C   0  0  0  0  0  0
  -21.4002   -6.5639   23.8207 C   0  0  0  0  0  0
  -21.3678   -5.6813   24.9190 C   0  0  0  0  0  0
  -21.6055   -4.3076   24.7254 C   0  0  0  0  0  0
  -21.8811   -3.8143   23.4378 C   0  0  0  0  0  0
  -21.9194   -4.6946   22.3415 C   0  0  0  0  0  0
  -22.7806  -13.5237   21.1913 C   0  0  0  0  0  0
  -22.1625   -4.2119   21.0987 F   0  0  0  0  0  0
  -21.5662   -3.4577   25.7770 F   0  0  0  0  0  0
  -30.0293  -13.3199   20.4621 N   0  0  0  0  0  0
  -26.2972  -12.9493   20.3470 N   0  0  0  0  0  0
  -25.9313  -11.6618   20.5835 N   0  0  0  0  0  0
  -22.0418  -12.8171   22.0406 N   0  0  0  0  0  0
  -25.3952  -15.2078   20.3780 N   0  0  0  0  0  0
  -31.8291  -14.6166   19.9856 O   0  0  0  0  0  0
  -21.6629   -6.8893   21.4252 O   0  0  0  0  0  0
  -22.3539  -14.5515   20.6718 O   0  0  0  0  0  0
  -24.6159  -31.8665   23.2091 C   0  0  0  0  0  0
  -25.9055  -32.4814   23.8388 C   0  0  1  0  0  0
  -27.2265  -27.4209   20.1143 C   0  0  0  0  0  0
  -25.5926  -33.8622   24.2325 N   0  0  0  0  0  0
  -23.4045  -30.4903   21.5485 C   0  0  2  0  0  0
  -24.8535  -28.9603   20.1075 C   0  0  0  0  0  0
  -22.7421  -29.4634   22.4959 C   0  0  0  0  0  0
  -18.0269  -28.1371   22.8501 C   0  0  0  0  0  0
  -24.1480  -36.7307   23.2631 C   0  0  0  0  0  0
  -25.9350  -30.8322   21.3633 C   0  0  0  0  0  0
  -26.0129  -29.4650   20.7121 C   0  0  0  0  0  0
  -27.2063  -28.7034   20.7109 C   0  0  0  0  0  0
  -26.0580  -26.9438   19.4821 C   0  0  0  0  0  0
  -24.8719  -27.7006   19.4842 C   0  0  0  0  0  0
  -23.6152  -29.8249   20.1624 C   0  0  0  0  0  0
  -25.4106  -36.3095   24.0324 C   0  0  1  0  0  0
  -20.5856  -28.3663   23.1314 C   0  0  2  0  0  0
  -20.6761  -26.9402   22.5407 C   0  0  0  0  0  0
  -19.5738  -26.6382   21.5215 C   0  0  0  0  0  0
  -18.1919  -26.7918   22.1631 C   0  0  0  0  0  0
  -19.1515  -28.8838   23.2907 C   0  0  0  0  0  0
  -18.9441  -30.1442   23.8922 C   0  0  0  0  0  0
  -17.6443  -30.6582   24.0567 C   0  0  0  0  0  0
  -25.9041  -34.9467   23.5116 C   0  0  0  0  0  0
  -16.5337  -29.9083   23.6325 C   0  0  0  0  0  0
  -16.7256  -28.6492   23.0363 C   0  0  0  0  0  0
  -26.4500  -31.6593   25.0708 C   0  0  0  0  0  0
  -25.3761  -31.3689   26.1437 C   0  0  0  0  0  0
  -27.0341  -30.3036   24.6085 C   0  0  0  0  0  0
  -27.6063  -32.4315   25.7495 C   0  0  0  0  0  0
  -27.5570  -37.1807   24.8473 C   0  0  0  0  0  0
  -21.4140  -29.3035   22.3724 N   0  0  0  0  0  0
  -26.4288  -37.3778   23.9405 N   0  0  0  0  0  0
  -24.6701  -31.0760   22.1003 N   0  0  0  0  0  0
  -23.4189  -28.8160   23.2979 O   0  0  0  0  0  0
  -28.3516  -26.6224   20.1613 O   0  0  0  0  0  0
  -26.5579  -34.8914   22.4662 O   0  0  0  0  0  0
  -23.5350  -32.1422   23.7489 O   0  0  0  0  0  0
  -27.2510  -17.5668   23.1830 C   0  0  0  0  0  0
  -28.9657  -15.8494   23.3197 C   0  0  0  0  0  0
  -27.5914  -17.8084   21.8402 C   0  0  0  0  0  0
  -28.6349  -17.0557   21.2154 C   0  0  0  0  0  0
  -29.3174  -16.0516   21.9690 C   0  0  0  0  0  0
  -27.9379  -16.5930   23.9211 C   0  0  0  0  0  0
  -26.7526  -18.8005   21.1078 C   0  0  0  0  0  0
  -26.4039  -21.0806   20.3593 C   0  0  0  0  0  0
  -26.9528  -22.4315   19.8611 C   0  0  0  0  0  0
  -29.0223  -17.3732   19.7743 C   0  0  0  0  0  0
  -24.8773  -21.0175   20.2235 C   0  0  0  0  0  0
  -28.7554  -24.1356   20.0563 C   0  0  0  0  0  0
  -28.1447  -25.3465   20.8118 C   0  0  0  0  0  0
  -27.1249  -20.1117   20.8455 N   0  0  0  0  0  0
  -30.5091  -15.3880   21.5419 N   0  0  0  0  0  0
  -28.1133  -22.8477   20.3967 N   0  0  0  0  0  0
  -25.6226  -18.2864   20.7177 N   0  3  0  0  0  0
  -26.3479  -23.1082   19.0238 O   0  0  0  0  0  0
  -27.6150  -16.3713   25.2193 F   0  0  0  0  0  0
  -31.4429  -12.3742   19.1380 H   0  0  0  0  0  0
  -30.2715  -11.3113   19.8359 H   0  0  0  0  0  0
  -29.7326  -11.8130   17.4269 H   0  0  0  0  0  0
  -29.6527  -13.5189   17.7930 H   0  0  0  0  0  0
  -27.8328  -11.3217   18.8351 H   0  0  0  0  0  0
  -27.3585  -12.6412   17.7954 H   0  0  0  0  0  0
  -27.6923  -14.2731   19.5779 H   0  0  0  0  0  0
  -28.6768  -11.9951   21.3604 H   0  0  0  0  0  0
  -28.4481  -13.6279   21.8756 H   0  0  0  0  0  0
  -25.2741   -9.5705   22.4827 H   0  0  0  0  0  0
  -23.9947   -7.4660   22.7541 H   0  0  0  0  0  0
  -21.0882   -8.8799   19.8924 H   0  0  0  0  0  0
  -22.3769  -10.9684   19.6142 H   0  0  0  0  0  0
  -21.1934   -7.6137   23.9713 H   0  0  0  0  0  0
  -21.1514   -6.0543   25.9111 H   0  0  0  0  0  0
  -22.0570   -2.7605   23.2902 H   0  0  0  0  0  0
  -22.4122  -11.9869   22.4773 H   0  0  0  0  0  0
  -21.1008  -13.1137   22.2570 H   0  0  0  0  0  0
  -24.4732  -15.5112   20.0726 H   0  0  0  0  0  0
  -26.0707  -15.3498   19.6369 H   0  0  0  0  0  0
  -26.7128  -32.5533   23.1159 H   0  0  0  0  0  0
  -25.0160  -33.9803   25.0526 H   0  0  0  0  0  0
  -22.6911  -31.3063   21.4079 H   0  0  0  0  0  0
  -23.3734  -35.9649   23.3314 H   0  0  0  0  0  0
  -24.3574  -36.8908   22.2041 H   0  0  0  0  0  0
  -23.7249  -37.6521   23.6651 H   0  0  0  0  0  0
  -26.0448  -31.5950   20.5909 H   0  0  0  0  0  0
  -26.8255  -30.8892   21.9777 H   0  0  0  0  0  0
  -28.0969  -29.0834   21.1932 H   0  0  0  0  0  0
  -26.0568  -25.9751   19.0015 H   0  0  0  0  0  0
  -23.9832  -27.3123   19.0039 H   0  0  0  0  0  0
  -23.7200  -30.6007   19.4032 H   0  0  0  0  0  0
  -22.7419  -29.2409   19.8668 H   0  0  0  0  0  0
  -25.1283  -36.1961   25.0817 H   0  0  0  0  0  0
  -20.9954  -28.3229   24.1430 H   0  0  0  0  0  0
  -20.5693  -26.2271   23.3589 H   0  0  0  0  0  0
  -21.6630  -26.7461   22.1185 H   0  0  0  0  0  0
  -19.6912  -25.6302   21.1230 H   0  0  0  0  0  0
  -19.6681  -27.3205   20.6754 H   0  0  0  0  0  0
  -17.4193  -26.6679   21.4028 H   0  0  0  0  0  0
  -18.0321  -26.0055   22.9019 H   0  0  0  0  0  0
  -19.7918  -30.7249   24.2308 H   0  0  0  0  0  0
  -17.5000  -31.6272   24.5154 H   0  0  0  0  0  0
  -15.5341  -30.3000   23.7630 H   0  0  0  0  0  0
  -15.8650  -28.0813   22.7079 H   0  0  0  0  0  0
  -24.5934  -30.7043   25.7765 H   0  0  0  0  0  0
  -24.8944  -32.2835   26.4898 H   0  0  0  0  0  0
  -25.8092  -30.8841   27.0189 H   0  0  0  0  0  0
  -26.2885  -29.6777   24.1155 H   0  0  0  0  0  0
  -27.4147  -29.7282   25.4537 H   0  0  0  0  0  0
  -27.8708  -30.4365   23.9214 H   0  0  0  0  0  0
  -27.2673  -33.3598   26.2111 H   0  0  0  0  0  0
  -28.3874  -32.6909   25.0335 H   0  0  0  0  0  0
  -28.0746  -31.8420   26.5388 H   0  0  0  0  0  0
  -28.2601  -38.0086   24.7489 H   0  0  0  0  0  0
  -28.1043  -36.2614   24.6341 H   0  0  0  0  0  0
  -27.2281  -37.1507   25.8873 H   0  0  0  0  0  0
  -20.9295  -29.8777   21.6967 H   0  0  0  0  0  0
  -26.0170  -38.2855   24.1400 H   0  0  0  0  0  0
  -26.4604  -18.1316   23.6521 H   0  0  0  0  0  0
  -29.5087  -15.1287   23.9158 H   0  0  0  0  0  0
  -29.4652  -18.3680   19.7200 H   0  0  0  0  0  0
  -28.1395  -17.3733   19.1361 H   0  0  0  0  0  0
  -29.7301  -16.6701   19.3461 H   0  0  0  0  0  0
  -24.4343  -22.0110   20.1404 H   0  0  0  0  0  0
  -24.4224  -20.5755   21.1081 H   0  0  0  0  0  0
  -24.5972  -20.4557   19.3347 H   0  0  0  0  0  0
  -29.8225  -24.0737   20.2707 H   0  0  0  0  0  0
  -28.6833  -24.3000   18.9790 H   0  0  0  0  0  0
  -28.5969  -25.4026   21.8027 H   0  0  0  0  0  0
  -27.0895  -25.1539   21.0087 H   0  0  0  0  0  0
  -31.3283  -15.9709   21.6417 H   0  0  0  0  0  0
  -28.5469  -22.2470   21.0852 H   0  0  0  0  0  0
  -25.4095  -17.2904   20.8552 H   0  0  0  0  0  0
  -24.8996  -18.8162   20.2446 H   0  0  0  0  0  0
  1 25  1  0  0  0
  1 30  2  0  0  0
  1 85  1  0  0  0
  2  3  1  0  0  0
  2 25  1  0  0  0
  2 90  1  0  0  0
  2 91  1  0  0  0
  3  4  1  0  0  0
  3 92  1  0  0  0
  3 93  1  0  0  0
  4  5  1  0  0  0
  4 94  1  0  0  0
  4 95  1  0  0  0
  5  6  1  0  0  0
  5 26  1  0  0  0
  5 96  1  0  0  0
  6 25  1  0  0  0
  6 97  1  0  0  0
  6 98  1  0  0  0
  7  8  2  0  0  0
  7 26  1  0  0  0
  7 29  1  0  0  0
  8  9  1  0  0  0
  8 22  1  0  0  0
  9 10  1  0  0  0
  9 27  2  0  0  0
 10 11  2  0  0  0
 10 15  1  0  0  0
 11 12  1  0  0  0
 11 99  1  0  0  0
 12 13  2  0  0  0
 12100  1  0  0  0
 13 14  1  0  0  0
 13 31  1  0  0  0
 14 15  2  0  0  0
 14101  1  0  0  0
 15102  1  0  0  0
 16 17  2  0  0  0
 16 21  1  0  0  0
 16 31  1  0  0  0
 17 18  1  0  0  0
 17103  1  0  0  0
 18 19  2  0  0  0
 18104  1  0  0  0
 19 20  1  0  0  0
 19 24  1  0  0  0
 20 21  2  0  0  0
 20105  1  0  0  0
 21 23  1  0  0  0
 22 28  1  0  0  0
 22 32  2  0  0  0
 26 27  1  0  0  0
 28106  1  0  0  0
 28107  1  0  0  0
 29108  1  0  0  0
 29109  1  0  0  0
 33 34  1  0  0  0
 33 66  1  0  0  0
 33 70  2  0  0  0
 34 36  1  0  0  0
 34 59  1  0  0  0
 34110  1  0  0  0
 35 44  2  0  0  0
 35 45  1  0  0  0
 35 68  1  0  0  0
 36 56  1  0  0  0
 36111  1  0  0  0
 37 39  1  0  0  0
 37 47  1  0  0  0
 37 66  1  0  0  0
 37112  1  0  0  0
 38 43  2  0  0  0
 38 46  1  0  0  0
 38 47  1  0  0  0
 39 64  1  0  0  0
 39 67  2  0  0  0
 40 52  1  0  0  0
 40 53  2  0  0  0
 40 58  1  0  0  0
 41113  1  0  0  0
 41114  1  0  0  0
 41115  1  0  0  0
 41 48  1  0  0  0
 42 43  1  0  0  0
 42 66  1  0  0  0
 42116  1  0  0  0
 42117  1  0  0  0
 43 44  1  0  0  0
 44118  1  0  0  0
 45 46  2  0  0  0
 45119  1  0  0  0
 46120  1  0  0  0
 47121  1  0  0  0
 47122  1  0  0  0
 48 56  1  0  0  0
 48 65  1  0  0  0
 48123  1  0  0  0
 49 50  1  0  0  0
 49 53  1  0  0  0
 49 64  1  0  0  0
 49124  1  0  0  0
 50 51  1  0  0  0
 50125  1  0  0  0
 50126  1  0  0  0
 51 52  1  0  0  0
 51127  1  0  0  0
 51128  1  0  0  0
 52129  1  0  0  0
 52130  1  0  0  0
 53 54  1  0  0  0
 54 55  2  0  0  0
 54131  1  0  0  0
 55 57  1  0  0  0
 55132  1  0  0  0
 56 69  2  0  0  0
 57 58  2  0  0  0
 57133  1  0  0  0
 58134  1  0  0  0
 59 60  1  0  0  0
 59 61  1  0  0  0
 59 62  1  0  0  0
 60135  1  0  0  0
 60136  1  0  0  0
 60137  1  0  0  0
 61138  1  0  0  0
 61139  1  0  0  0
 61140  1  0  0  0
 62141  1  0  0  0
 62142  1  0  0  0
 62143  1  0  0  0
 63 65  1  0  0  0
 63144  1  0  0  0
 63145  1  0  0  0
 63146  1  0  0  0
 64147  1  0  0  0
 65148  1  0  0  0
 68 83  1  0  0  0
 71 73  2  0  0  0
 71 76  1  0  0  0
 71149  1  0  0  0
 72 75  1  0  0  0
 72 76  2  0  0  0
 72150  1  0  0  0
 73 74  1  0  0  0
 73 77  1  0  0  0
 74 75  2  0  0  0
 74 80  1  0  0  0
 75 85  1  0  0  0
 76 89  1  0  0  0
 77 84  1  0  0  0
 77 87  2  0  0  0
 78 79  1  0  0  0
 78 81  1  0  0  0
 78 84  2  0  0  0
 79 86  1  0  0  0
 79 88  2  0  0  0
 80151  1  0  0  0
 80152  1  0  0  0
 80153  1  0  0  0
 81154  1  0  0  0
 81155  1  0  0  0
 81156  1  0  0  0
 82 83  1  0  0  0
 82 86  1  0  0  0
 82157  1  0  0  0
 82158  1  0  0  0
 83159  1  0  0  0
 83160  1  0  0  0
 85161  1  0  0  0
 86162  1  0  0  0
 87163  1  0  0  0
 87164  1  0  0  0
M  CHG  1  87   1
M  ISO  4   1 100  68 101  83 101  85 100
M  END
> <chiral flag>
0

> <version>
0

> <s_m_source_file>
/data/baiqing/PycharmProjects/Reinvent-master-3.2/result/LINK_invent/BTK/process_docking_weight1_custom_product_contain_oxygen_bond_distance_aromatic_linkinvent_7_9_3/rearranged_h_0050.sdf

> <i_m_source_file_index>
88

> <r_mmod_Potential_Energy-OPLS-2005>
38.0059394836426

> <r_mmod_Stretch_Energy-OPLS-2005>
56.4273147583008

> <r_mmod_Bend_Energy-OPLS-2005>
161.553817749023

> <r_mmod_Torsional_Energy-OPLS-2005>
313.107147216797

> <r_mmod_Improper_Torsional_Energy-OPLS-2005>
12.1590433120728

> <r_mmod_Van_der_Waal_Energy-OPLS-2005>
160.79264831543

> <r_mmod_Electrostatic_Energy-OPLS-2005>
-213.40283203125

> <r_mmod_Solvation_Energy-OPLS-2005>
-468.627960205078

> <b_mmod_Minimization_Converged-OPLS-2005>
0

> <r_mmod_RMS_Derivative-OPLS-2005>
4.73326921463013

$$$$
88
                    3D
 Structure written by MMmdl.
161169  0  0  1  0            999 V2000
  -30.6260  -14.6325   20.5133 C   0  0  0  0  0  0
  -30.4408  -12.3899   19.4528 C   0  0  0  0  0  0
  -29.5092  -12.5111   18.2259 C   0  0  0  0  0  0
  -28.0318  -12.3496   18.6367 C   0  0  0  0  0  0
  -27.6567  -13.2158   19.8684 C   0  0  2  0  0  0
  -28.7012  -13.0598   20.9973 C   0  0  0  0  0  0
  -25.2575  -13.8174   20.5692 C   0  0  0  0  0  0
  -24.1837  -13.0439   20.9187 C   0  0  0  0  0  0
  -24.6405  -11.6909   20.8740 C   0  0  0  0  0  0
  -23.9071  -10.4292   21.0407 C   0  0  0  0  0  0
  -24.3621   -9.4207   21.9186 C   0  0  0  0  0  0
  -23.6295   -8.2244   22.0755 C   0  0  0  0  0  0
  -22.4277   -8.0286   21.3546 C   0  0  0  0  0  0
  -21.9914   -9.0260   20.4647 C   0  0  0  0  0  0
  -22.7243  -10.2137   20.3057 C   0  0  0  0  0  0
  -21.6852   -6.0739   22.5279 C   0  0  0  0  0  0
  -21.4013   -6.5642   23.8214 C   0  0  0  0  0  0
  -21.3659   -5.6795   24.9175 C   0  0  0  0  0  0
  -21.6043   -4.3058   24.7225 C   0  0  0  0  0  0
  -21.8820   -3.8150   23.4346 C   0  0  0  0  0  0
  -21.9192   -4.6967   22.3402 C   0  0  0  0  0  0
  -22.7858  -13.5232   21.1850 C   0  0  0  0  0  0
  -22.1661   -4.2153   21.0980 F   0  0  0  0  0  0
  -21.5628   -3.4542   25.7737 F   0  0  0  0  0  0
  -30.0191  -13.4051   20.4388 N   0  0  0  0  0  0
  -26.3008  -12.9352   20.3342 N   0  0  0  0  0  0
  -25.9335  -11.6506   20.5766 N   0  0  0  0  0  0
  -22.0498  -12.8223   22.0407 N   0  0  0  0  0  0
  -25.4292  -15.1893   20.4108 N   0  0  0  0  0  0
  -31.7762  -14.8042   20.0979 O   0  0  0  0  0  0
  -21.6638   -6.8884   21.4242 O   0  0  0  0  0  0
  -22.3543  -14.5538   20.6700 O   0  0  0  0  0  0
  -24.6263  -31.8605   23.2039 C   0  0  0  0  0  0
  -25.9116  -32.4780   23.8362 C   0  0  1  0  0  0
  -27.2244  -27.3222   20.1107 C   0  0  0  0  0  0
  -25.5936  -33.8580   24.2289 N   0  0  0  0  0  0
  -23.4195  -30.4851   21.5470 C   0  0  2  0  0  0
  -24.8661  -28.9452   20.1089 C   0  0  0  0  0  0
  -22.7477  -29.4624   22.4943 C   0  0  0  0  0  0
  -18.0285  -28.1383   22.8485 C   0  0  0  0  0  0
  -24.1491  -36.7291   23.2638 C   0  0  0  0  0  0
  -25.9612  -30.7911   21.3765 C   0  0  0  0  0  0
  -26.0354  -29.4201   20.7161 C   0  0  0  0  0  0
  -27.2165  -28.6194   20.7105 C   0  0  0  0  0  0
  -26.0318  -26.9089   19.4679 C   0  0  0  0  0  0
  -24.8663  -27.6947   19.4762 C   0  0  0  0  0  0
  -23.6333  -29.8235   20.1611 C   0  0  0  0  0  0
  -25.4112  -36.3082   24.0330 C   0  0  1  0  0  0
  -20.5884  -28.3689   23.1284 C   0  0  2  0  0  0
  -20.6776  -26.9411   22.5412 C   0  0  0  0  0  0
  -19.5751  -26.6382   21.5215 C   0  0  0  0  0  0
  -18.1929  -26.7928   22.1620 C   0  0  0  0  0  0
  -19.1537  -28.8853   23.2877 C   0  0  0  0  0  0
  -18.9461  -30.1455   23.8892 C   0  0  0  0  0  0
  -17.6462  -30.6588   24.0561 C   0  0  0  0  0  0
  -25.9051  -34.9451   23.5107 C   0  0  0  0  0  0
  -16.5352  -29.9085   23.6331 C   0  0  0  0  0  0
  -16.7272  -28.6502   23.0354 C   0  0  0  0  0  0
  -26.4500  -31.6589   25.0730 C   0  0  0  0  0  0
  -25.3736  -31.3731   26.1461 C   0  0  0  0  0  0
  -27.0342  -30.3011   24.6188 C   0  0  0  0  0  0
  -27.6059  -32.4329   25.7498 C   0  0  0  0  0  0
  -27.5585  -37.1793   24.8457 C   0  0  0  0  0  0
  -21.4190  -29.3043   22.3686 N   0  0  0  0  0  0
  -26.4286  -37.3780   23.9417 N   0  0  0  0  0  0
  -24.6878  -31.0616   22.0991 N   0  0  0  0  0  0
  -23.4204  -28.8158   23.3016 O   0  0  0  0  0  0
  -28.3358  -26.4626   20.1758 O   0  0  0  0  0  0
  -26.5613  -34.8920   22.4668 O   0  0  0  0  0  0
  -23.5427  -32.1403   23.7367 O   0  0  0  0  0  0
  -28.9883  -19.3334   21.5040 C   0  0  0  0  0  0
  -28.9835  -17.9106   21.5544 C   0  0  0  0  0  0
  -30.8209  -17.8373   20.0108 C   0  0  0  0  0  0
  -29.9104  -20.0606   20.7087 C   0  0  0  0  0  0
  -30.8201  -19.2697   19.9359 C   0  0  0  0  0  0
  -29.9130  -17.1180   20.8321 C   0  0  0  0  0  0
  -27.4861  -22.5745   17.0756 C   0  0  0  0  0  0
  -28.2322  -22.0055   18.0344 C   0  0  0  0  0  0
  -29.1689  -23.9915   20.4683 C   0  0  0  0  0  0
  -30.0265  -21.6342   20.8458 C   0  0  0  0  0  0
  -27.9084  -22.0570   19.5149 C   0  0  0  0  0  0
  -28.0920  -25.0174   19.9321 C   0  0  0  0  0  0
  -31.8518  -19.9412   19.0373 C   0  0  0  0  0  0
  -29.8347  -15.6608   20.9513 N   0  0  0  0  0  0
  -29.0235  -22.6208   20.2888 N   0  0  0  0  0  0
  -30.1442  -24.4499   21.0732 O   0  0  0  0  0  0
  -32.2130  -19.1504   18.0260 F   0  0  0  0  0  0
  -32.9327  -20.2629   19.7477 F   0  0  0  0  0  0
  -31.4815  -12.5170   19.1499 H   0  0  0  0  0  0
  -30.3774  -11.3916   19.8885 H   0  0  0  0  0  0
  -29.7719  -11.7627   17.4771 H   0  0  0  0  0  0
  -29.6524  -13.4826   17.7500 H   0  0  0  0  0  0
  -27.8664  -11.2957   18.8638 H   0  0  0  0  0  0
  -27.3776  -12.5849   17.7964 H   0  0  0  0  0  0
  -27.6790  -14.2534   19.5344 H   0  0  0  0  0  0
  -28.7111  -12.0343   21.3696 H   0  0  0  0  0  0
  -28.4443  -13.6811   21.8563 H   0  0  0  0  0  0
  -25.2767   -9.5680   22.4761 H   0  0  0  0  0  0
  -24.0002   -7.4634   22.7475 H   0  0  0  0  0  0
  -21.0845   -8.8782   19.8954 H   0  0  0  0  0  0
  -22.3707  -10.9679   19.6167 H   0  0  0  0  0  0
  -21.2007   -7.6152   23.9717 H   0  0  0  0  0  0
  -21.1480   -6.0526   25.9077 H   0  0  0  0  0  0
  -22.0599   -2.7613   23.2845 H   0  0  0  0  0  0
  -22.4110  -11.9881   22.4790 H   0  0  0  0  0  0
  -21.1119  -13.1254   22.2616 H   0  0  0  0  0  0
  -24.6620  -15.8441   20.5170 H   0  0  0  0  0  0
  -26.2795  -15.6283   20.0804 H   0  0  0  0  0  0
  -26.7187  -32.5450   23.1112 H   0  0  0  0  0  0
  -25.0101  -33.9725   25.0447 H   0  0  0  0  0  0
  -22.7130  -31.3054   21.4059 H   0  0  0  0  0  0
  -23.3759  -35.9614   23.3275 H   0  0  0  0  0  0
  -24.3589  -36.8935   22.2057 H   0  0  0  0  0  0
  -23.7231  -37.6481   23.6673 H   0  0  0  0  0  0
  -26.0943  -31.5562   20.6104 H   0  0  0  0  0  0
  -26.8412  -30.8371   22.0064 H   0  0  0  0  0  0
  -28.1112  -28.9764   21.2016 H   0  0  0  0  0  0
  -25.9636  -25.9604   18.9566 H   0  0  0  0  0  0
  -23.9717  -27.3281   18.9910 H   0  0  0  0  0  0
  -23.7502  -30.6016   19.4057 H   0  0  0  0  0  0
  -22.7536  -29.2521   19.8592 H   0  0  0  0  0  0
  -25.1288  -36.1929   25.0821 H   0  0  0  0  0  0
  -20.9969  -28.3265   24.1408 H   0  0  0  0  0  0
  -20.5679  -26.2299   23.3613 H   0  0  0  0  0  0
  -21.6646  -26.7445   22.1204 H   0  0  0  0  0  0
  -19.6912  -25.6292   21.1248 H   0  0  0  0  0  0
  -19.6692  -27.3195   20.6746 H   0  0  0  0  0  0
  -17.4203  -26.6685   21.4018 H   0  0  0  0  0  0
  -18.0311  -26.0066   22.9008 H   0  0  0  0  0  0
  -19.7938  -30.7267   24.2267 H   0  0  0  0  0  0
  -17.5019  -31.6267   24.5165 H   0  0  0  0  0  0
  -15.5353  -30.2986   23.7663 H   0  0  0  0  0  0
  -15.8669  -28.0821   22.7075 H   0  0  0  0  0  0
  -24.5913  -30.7073   25.7798 H   0  0  0  0  0  0
  -24.8922  -32.2900   26.4878 H   0  0  0  0  0  0
  -25.8062  -30.8921   27.0243 H   0  0  0  0  0  0
  -26.2913  -29.6760   24.1221 H   0  0  0  0  0  0
  -27.4047  -29.7271   25.4692 H   0  0  0  0  0  0
  -27.8783  -30.4290   23.9405 H   0  0  0  0  0  0
  -27.2670  -33.3636   26.2061 H   0  0  0  0  0  0
  -28.3876  -32.6881   25.0330 H   0  0  0  0  0  0
  -28.0723  -31.8465   26.5426 H   0  0  0  0  0  0
  -28.2578  -38.0118   24.7546 H   0  0  0  0  0  0
  -28.1109  -36.2650   24.6225 H   0  0  0  0  0  0
  -27.2312  -37.1370   25.8862 H   0  0  0  0  0  0
  -20.9369  -29.8773   21.6905 H   0  0  0  0  0  0
  -26.0165  -38.2846   24.1446 H   0  0  0  0  0  0
  -28.2857  -19.8750   22.1224 H   0  0  0  0  0  0
  -28.2550  -17.4269   22.1902 H   0  0  0  0  0  0
  -31.5429  -17.2871   19.4248 H   0  0  0  0  0  0
  -27.7669  -22.4997   16.0346 H   0  0  0  0  0  0
  -26.5844  -23.1227   17.3100 H   0  0  0  0  0  0
  -29.1242  -21.4610   17.7559 H   0  0  0  0  0  0
  -31.0121  -21.9438   20.4999 H   0  0  0  0  0  0
  -30.0617  -21.8222   21.9203 H   0  0  0  0  0  0
  -27.6709  -21.0473   19.8441 H   0  0  0  0  0  0
  -26.9850  -22.6121   19.6800 H   0  0  0  0  0  0
  -27.1569  -24.7321   20.4152 H   0  0  0  0  0  0
  -27.9787  -24.8628   18.8591 H   0  0  0  0  0  0
  -31.4655  -20.8526   18.5800 H   0  0  0  0  0  0
  -28.9768  -15.3271   21.3633 H   0  0  0  0  0  0
  1 25  1  0  0  0
  1 30  2  0  0  0
  1 84  1  0  0  0
  2  3  1  0  0  0
  2 25  1  0  0  0
  2 89  1  0  0  0
  2 90  1  0  0  0
  3  4  1  0  0  0
  3 91  1  0  0  0
  3 92  1  0  0  0
  4  5  1  0  0  0
  4 93  1  0  0  0
  4 94  1  0  0  0
  5  6  1  0  0  0
  5 26  1  0  0  0
  5 95  1  0  0  0
  6 25  1  0  0  0
  6 96  1  0  0  0
  6 97  1  0  0  0
  7  8  2  0  0  0
  7 26  1  0  0  0
  7 29  1  0  0  0
  8  9  1  0  0  0
  8 22  1  0  0  0
  9 10  1  0  0  0
  9 27  2  0  0  0
 10 11  2  0  0  0
 10 15  1  0  0  0
 11 12  1  0  0  0
 11 98  1  0  0  0
 12 13  2  0  0  0
 12 99  1  0  0  0
 13 14  1  0  0  0
 13 31  1  0  0  0
 14 15  2  0  0  0
 14100  1  0  0  0
 15101  1  0  0  0
 16 17  2  0  0  0
 16 21  1  0  0  0
 16 31  1  0  0  0
 17 18  1  0  0  0
 17102  1  0  0  0
 18 19  2  0  0  0
 18103  1  0  0  0
 19 20  1  0  0  0
 19 24  1  0  0  0
 20 21  2  0  0  0
 20104  1  0  0  0
 21 23  1  0  0  0
 22 28  1  0  0  0
 22 32  2  0  0  0
 26 27  1  0  0  0
 28105  1  0  0  0
 28106  1  0  0  0
 29107  1  0  0  0
 29108  1  0  0  0
 33 34  1  0  0  0
 33 66  1  0  0  0
 33 70  2  0  0  0
 34 36  1  0  0  0
 34 59  1  0  0  0
 34109  1  0  0  0
 35 44  2  0  0  0
 35 45  1  0  0  0
 35 68  1  0  0  0
 36 56  1  0  0  0
 36110  1  0  0  0
 37 39  1  0  0  0
 37 47  1  0  0  0
 37 66  1  0  0  0
 37111  1  0  0  0
 38 43  2  0  0  0
 38 46  1  0  0  0
 38 47  1  0  0  0
 39 64  1  0  0  0
 39 67  2  0  0  0
 40 52  1  0  0  0
 40 53  2  0  0  0
 40 58  1  0  0  0
 41112  1  0  0  0
 41113  1  0  0  0
 41114  1  0  0  0
 41 48  1  0  0  0
 42 43  1  0  0  0
 42 66  1  0  0  0
 42115  1  0  0  0
 42116  1  0  0  0
 43 44  1  0  0  0
 44117  1  0  0  0
 45 46  2  0  0  0
 45118  1  0  0  0
 46119  1  0  0  0
 47120  1  0  0  0
 47121  1  0  0  0
 48 56  1  0  0  0
 48 65  1  0  0  0
 48122  1  0  0  0
 49 50  1  0  0  0
 49 53  1  0  0  0
 49 64  1  0  0  0
 49123  1  0  0  0
 50 51  1  0  0  0
 50124  1  0  0  0
 50125  1  0  0  0
 51 52  1  0  0  0
 51126  1  0  0  0
 51127  1  0  0  0
 52128  1  0  0  0
 52129  1  0  0  0
 53 54  1  0  0  0
 54 55  2  0  0  0
 54130  1  0  0  0
 55 57  1  0  0  0
 55131  1  0  0  0
 56 69  2  0  0  0
 57 58  2  0  0  0
 57132  1  0  0  0
 58133  1  0  0  0
 59 60  1  0  0  0
 59 61  1  0  0  0
 59 62  1  0  0  0
 60134  1  0  0  0
 60135  1  0  0  0
 60136  1  0  0  0
 61137  1  0  0  0
 61138  1  0  0  0
 61139  1  0  0  0
 62140  1  0  0  0
 62141  1  0  0  0
 62142  1  0  0  0
 63 65  1  0  0  0
 63143  1  0  0  0
 63144  1  0  0  0
 63145  1  0  0  0
 64146  1  0  0  0
 65147  1  0  0  0
 68 82  1  0  0  0
 71 72  2  0  0  0
 71 74  1  0  0  0
 71148  1  0  0  0
 72 76  1  0  0  0
 72149  1  0  0  0
 73 75  1  0  0  0
 73 76  2  0  0  0
 73150  1  0  0  0
 74 75  2  0  0  0
 74 80  1  0  0  0
 75 83  1  0  0  0
 76 84  1  0  0  0
 77 78  2  0  0  0
 77151  1  0  0  0
 77152  1  0  0  0
 78 81  1  0  0  0
 78153  1  0  0  0
 79 82  1  0  0  0
 79 85  1  0  0  0
 79 86  2  0  0  0
 80 85  1  0  0  0
 80154  1  0  0  0
 80155  1  0  0  0
 81 85  1  0  0  0
 81156  1  0  0  0
 81157  1  0  0  0
 82158  1  0  0  0
 82159  1  0  0  0
 83 87  1  0  0  0
 83 88  1  0  0  0
 83160  1  0  0  0
 84161  1  0  0  0
M  ISO  4   1 100  68 101  82 101  84 100
M  END
> <chiral flag>
0

> <version>
0

> <s_m_source_file>
/data/baiqing/PycharmProjects/Reinvent-master-3.2/result/LINK_invent/BTK/process_docking_weight1_custom_product_contain_oxygen_bond_distance_aromatic_linkinvent_7_9_3/rearranged_h_0050.sdf

> <i_m_source_file_index>
89

> <r_mmod_Potential_Energy-OPLS-2005>
87.1510848999023

> <r_mmod_Stretch_Energy-OPLS-2005>
85.9773330688477

> <r_mmod_Bend_Energy-OPLS-2005>
142.708587646484

> <r_mmod_Torsional_Energy-OPLS-2005>
226.289962768555

> <r_mmod_Improper_Torsional_Energy-OPLS-2005>
4.09523916244507

> <r_mmod_Van_der_Waal_Energy-OPLS-2005>
151.391754150391

> <r_mmod_Electrostatic_Energy-OPLS-2005>
-333.808288574219

> <r_mmod_Solvation_Energy-OPLS-2005>
-236.927841186523

> <b_mmod_Minimization_Converged-OPLS-2005>
0

> <r_mmod_RMS_Derivative-OPLS-2005>
0.550998866558075

$$$$
89
                    3D
 Structure written by MMmdl.
167176  0  0  1  0            999 V2000
  -30.6385  -14.6138   20.5689 C   0  0  0  0  0  0
  -30.4395  -12.3936   19.4537 C   0  0  0  0  0  0
  -29.5116  -12.5154   18.2232 C   0  0  0  0  0  0
  -28.0323  -12.3473   18.6306 C   0  0  0  0  0  0
  -27.6471  -13.2185   19.8558 C   0  0  2  0  0  0
  -28.6870  -13.0693   20.9901 C   0  0  0  0  0  0
  -25.2513  -13.8177   20.5683 C   0  0  0  0  0  0
  -24.1788  -13.0439   20.9208 C   0  0  0  0  0  0
  -24.6382  -11.6909   20.8733 C   0  0  0  0  0  0
  -23.9064  -10.4296   21.0420 C   0  0  0  0  0  0
  -24.3617   -9.4199   21.9190 C   0  0  0  0  0  0
  -23.6282   -8.2230   22.0738 C   0  0  0  0  0  0
  -22.4241   -8.0295   21.3554 C   0  0  0  0  0  0
  -21.9902   -9.0274   20.4650 C   0  0  0  0  0  0
  -22.7254  -10.2140   20.3054 C   0  0  0  0  0  0
  -21.6847   -6.0745   22.5307 C   0  0  0  0  0  0
  -21.4034   -6.5640   23.8249 C   0  0  0  0  0  0
  -21.3654   -5.6777   24.9202 C   0  0  0  0  0  0
  -21.6020   -4.3039   24.7231 C   0  0  0  0  0  0
  -21.8811   -3.8147   23.4358 C   0  0  0  0  0  0
  -21.9184   -4.6974   22.3417 C   0  0  0  0  0  0
  -22.7819  -13.5216   21.1883 C   0  0  0  0  0  0
  -22.1647   -4.2166   21.0998 F   0  0  0  0  0  0
  -21.5624   -3.4521   25.7745 F   0  0  0  0  0  0
  -30.0032  -13.4094   20.4318 N   0  0  0  0  0  0
  -26.2922  -12.9368   20.3239 N   0  0  0  0  0  0
  -25.9293  -11.6520   20.5680 N   0  0  0  0  0  0
  -22.0434  -12.8230   22.0443 N   0  0  0  0  0  0
  -25.4200  -15.1913   20.4146 N   0  0  0  0  0  0
  -31.8027  -14.7762   20.1945 O   0  0  0  0  0  0
  -21.6616   -6.8883   21.4249 O   0  0  0  0  0  0
  -22.3503  -14.5519   20.6744 O   0  0  0  0  0  0
  -24.6170  -31.8629   23.2033 C   0  0  0  0  0  0
  -25.9030  -32.4808   23.8359 C   0  0  1  0  0  0
  -27.2385  -27.3764   20.1193 C   0  0  0  0  0  0
  -25.5853  -33.8608   24.2290 N   0  0  0  0  0  0
  -23.4114  -30.4815   21.5437 C   0  0  2  0  0  0
  -24.8629  -28.9387   20.1074 C   0  0  0  0  0  0
  -22.7436  -29.4608   22.4955 C   0  0  0  0  0  0
  -18.0280  -28.1377   22.8496 C   0  0  0  0  0  0
  -24.1470  -36.7287   23.2651 C   0  0  0  0  0  0
  -25.9434  -30.8082   21.3695 C   0  0  0  0  0  0
  -26.0188  -29.4378   20.7185 C   0  0  0  0  0  0
  -27.2033  -28.6587   20.7293 C   0  0  0  0  0  0
  -26.0670  -26.9069   19.4873 C   0  0  0  0  0  0
  -24.8837  -27.6756   19.4887 C   0  0  0  0  0  0
  -23.6252  -29.8087   20.1596 C   0  0  0  0  0  0
  -25.4102  -36.3114   24.0354 C   0  0  1  0  0  0
  -20.5870  -28.3652   23.1322 C   0  0  2  0  0  0
  -20.6751  -26.9376   22.5443 C   0  0  0  0  0  0
  -19.5744  -26.6378   21.5218 C   0  0  0  0  0  0
  -18.1913  -26.7924   22.1614 C   0  0  0  0  0  0
  -19.1532  -28.8839   23.2899 C   0  0  0  0  0  0
  -18.9463  -30.1439   23.8927 C   0  0  0  0  0  0
  -17.6464  -30.6583   24.0580 C   0  0  0  0  0  0
  -25.9033  -34.9479   23.5135 C   0  0  0  0  0  0
  -16.5351  -29.9095   23.6323 C   0  0  0  0  0  0
  -16.7267  -28.6504   23.0351 C   0  0  0  0  0  0
  -26.4444  -31.6624   25.0722 C   0  0  0  0  0  0
  -25.3693  -31.3755   26.1467 C   0  0  0  0  0  0
  -27.0304  -30.3073   24.6139 C   0  0  0  0  0  0
  -27.6012  -32.4376   25.7461 C   0  0  0  0  0  0
  -27.5580  -37.1798   24.8470 C   0  0  0  0  0  0
  -21.4153  -29.3005   22.3704 N   0  0  0  0  0  0
  -26.4289  -37.3801   23.9421 N   0  0  0  0  0  0
  -24.6750  -31.0685   22.0957 N   0  0  0  0  0  0
  -23.4188  -28.8169   23.3029 O   0  0  0  0  0  0
  -28.3804  -26.5930   20.2292 O   0  0  0  0  0  0
  -26.5619  -34.8939   22.4715 O   0  0  0  0  0  0
  -23.5347  -32.1402   23.7390 O   0  0  0  0  0  0
  -29.5112  -18.1764   20.8646 C   0  0  0  0  0  0
  -31.3199  -18.5221   22.9578 C   0  0  0  0  0  0
  -29.7268  -19.5065   21.3752 C   0  0  0  0  0  0
  -31.0750  -17.2176   22.4819 C   0  0  0  0  0  0
  -30.1848  -17.0148   21.3894 C   0  0  0  0  0  0
  -30.6587  -19.6451   22.4283 C   0  0  0  0  0  0
  -30.3548  -21.6643   19.0529 C   0  0  0  0  0  0
  -31.6207  -21.2377   18.9161 C   0  0  0  0  0  0
  -29.3766  -22.0164   17.9501 C   0  0  0  0  0  0
  -29.0556  -23.5121   17.9768 C   0  0  0  0  0  0
  -29.2706  -23.3531   20.5595 C   0  0  0  0  0  0
  -28.5582  -24.0668   19.3387 C   0  0  1  0  0  0
  -31.7402  -16.0710   23.2272 C   0  0  0  0  0  0
  -28.9206  -20.7731   20.9073 C   0  0  0  0  0  0
  -28.7425  -25.6391   19.2066 C   0  0  0  0  0  0
  -29.8443  -15.6712   20.9347 N   0  0  0  0  0  0
  -29.7517  -21.9218   20.3804 N   0  3  1  0  0  0
  -30.9996  -21.1906   23.1240 Cl  0  0  0  0  0  0
  -31.4840  -12.5223   19.1625 H   0  0  0  0  0  0
  -30.3726  -11.3973   19.8955 H   0  0  0  0  0  0
  -29.7842  -11.7742   17.4710 H   0  0  0  0  0  0
  -29.6541  -13.4912   17.7569 H   0  0  0  0  0  0
  -27.8700  -11.2940   18.8631 H   0  0  0  0  0  0
  -27.3810  -12.5730   17.7842 H   0  0  0  0  0  0
  -27.6667  -14.2517   19.5089 H   0  0  0  0  0  0
  -28.6921  -12.0462   21.3684 H   0  0  0  0  0  0
  -28.4254  -13.6973   21.8424 H   0  0  0  0  0  0
  -25.2771   -9.5654   22.4736 H   0  0  0  0  0  0
  -24.0022   -7.4591   22.7422 H   0  0  0  0  0  0
  -21.0849   -8.8793   19.8937 H   0  0  0  0  0  0
  -22.3745  -10.9668   19.6132 H   0  0  0  0  0  0
  -21.2052   -7.6148   23.9771 H   0  0  0  0  0  0
  -21.1471   -6.0500   25.9106 H   0  0  0  0  0  0
  -22.0587   -2.7610   23.2849 H   0  0  0  0  0  0
  -22.4024  -11.9905   22.4880 H   0  0  0  0  0  0
  -21.1045  -13.1255   22.2604 H   0  0  0  0  0  0
  -24.6483  -15.8383   20.5332 H   0  0  0  0  0  0
  -26.2562  -15.6371   20.0632 H   0  0  0  0  0  0
  -26.7096  -32.5511   23.1114 H   0  0  0  0  0  0
  -24.9967  -33.9751   25.0414 H   0  0  0  0  0  0
  -22.7009  -31.2982   21.3989 H   0  0  0  0  0  0
  -23.3763  -35.9587   23.3328 H   0  0  0  0  0  0
  -24.3555  -36.8891   22.2061 H   0  0  0  0  0  0
  -23.7180  -37.6478   23.6660 H   0  0  0  0  0  0
  -26.0701  -31.5702   20.5995 H   0  0  0  0  0  0
  -26.8251  -30.8604   21.9969 H   0  0  0  0  0  0
  -28.0903  -29.0287   21.2241 H   0  0  0  0  0  0
  -26.0476  -25.9291   19.0285 H   0  0  0  0  0  0
  -23.9920  -27.2844   19.0185 H   0  0  0  0  0  0
  -23.7344  -30.5803   19.3970 H   0  0  0  0  0  0
  -22.7499  -29.2272   19.8652 H   0  0  0  0  0  0
  -25.1278  -36.1982   25.0849 H   0  0  0  0  0  0
  -20.9969  -28.3238   24.1444 H   0  0  0  0  0  0
  -20.5613  -26.2266   23.3642 H   0  0  0  0  0  0
  -21.6628  -26.7388   22.1270 H   0  0  0  0  0  0
  -19.6889  -25.6291   21.1243 H   0  0  0  0  0  0
  -19.6698  -27.3207   20.6765 H   0  0  0  0  0  0
  -17.4184  -26.6707   21.3998 H   0  0  0  0  0  0
  -18.0284  -26.0059   22.9005 H   0  0  0  0  0  0
  -19.7941  -30.7233   24.2322 H   0  0  0  0  0  0
  -17.5027  -31.6262   24.5177 H   0  0  0  0  0  0
  -15.5354  -30.3009   23.7636 H   0  0  0  0  0  0
  -15.8660  -28.0832   22.7062 H   0  0  0  0  0  0
  -24.5828  -30.7147   25.7797 H   0  0  0  0  0  0
  -24.8918  -32.2926   26.4934 H   0  0  0  0  0  0
  -25.8018  -30.8891   27.0220 H   0  0  0  0  0  0
  -26.2874  -29.6822   24.1175 H   0  0  0  0  0  0
  -27.4059  -29.7329   25.4615 H   0  0  0  0  0  0
  -27.8708  -30.4414   23.9327 H   0  0  0  0  0  0
  -27.2616  -33.3667   26.2057 H   0  0  0  0  0  0
  -28.3778  -32.6968   25.0251 H   0  0  0  0  0  0
  -28.0734  -31.8507   26.5352 H   0  0  0  0  0  0
  -28.2626  -38.0068   24.7526 H   0  0  0  0  0  0
  -28.1048  -36.2612   24.6290 H   0  0  0  0  0  0
  -27.2306  -37.1452   25.8873 H   0  0  0  0  0  0
  -20.9321  -29.8711   21.6905 H   0  0  0  0  0  0
  -26.0191  -38.2886   24.1424 H   0  0  0  0  0  0
  -28.7872  -18.0401   20.0742 H   0  0  0  0  0  0
  -32.0031  -18.6732   23.7824 H   0  0  0  0  0  0
  -32.0531  -21.0842   17.9384 H   0  0  0  0  0  0
  -32.2483  -21.0412   19.7730 H   0  0  0  0  0  0
  -28.4641  -21.4271   18.0455 H   0  0  0  0  0  0
  -29.8123  -21.7529   16.9852 H   0  0  0  0  0  0
  -28.3213  -23.7385   17.2029 H   0  0  0  0  0  0
  -29.9645  -24.0379   17.6779 H   0  0  0  0  0  0
  -28.6562  -23.4456   21.4569 H   0  0  0  0  0  0
  -30.1689  -23.9302   20.7833 H   0  0  0  0  0  0
  -27.4932  -23.8452   19.4194 H   0  0  0  0  0  0
  -32.6585  -15.7630   22.7289 H   0  0  0  0  0  0
  -31.0861  -15.2054   23.3035 H   0  0  0  0  0  0
  -31.9897  -16.3578   24.2511 H   0  0  0  0  0  0
  -28.3664  -21.1210   21.7800 H   0  0  0  0  0  0
  -28.1569  -20.4965   20.1782 H   0  0  0  0  0  0
  -28.3018  -25.9670   18.2632 H   0  0  0  0  0  0
  -29.8099  -25.8207   19.0728 H   0  0  0  0  0  0
  -28.8609  -15.4542   20.9469 H   0  0  0  0  0  0
  -30.5072  -21.9059   21.0505 H   0  0  0  0  0  0
  1 25  1  0  0  0
  1 30  2  0  0  0
  1 86  1  0  0  0
  2  3  1  0  0  0
  2 25  1  0  0  0
  2 89  1  0  0  0
  2 90  1  0  0  0
  3  4  1  0  0  0
  3 91  1  0  0  0
  3 92  1  0  0  0
  4  5  1  0  0  0
  4 93  1  0  0  0
  4 94  1  0  0  0
  5  6  1  0  0  0
  5 26  1  0  0  0
  5 95  1  0  0  0
  6 25  1  0  0  0
  6 96  1  0  0  0
  6 97  1  0  0  0
  7  8  2  0  0  0
  7 26  1  0  0  0
  7 29  1  0  0  0
  8  9  1  0  0  0
  8 22  1  0  0  0
  9 10  1  0  0  0
  9 27  2  0  0  0
 10 11  2  0  0  0
 10 15  1  0  0  0
 11 12  1  0  0  0
 11 98  1  0  0  0
 12 13  2  0  0  0
 12 99  1  0  0  0
 13 14  1  0  0  0
 13 31  1  0  0  0
 14 15  2  0  0  0
 14100  1  0  0  0
 15101  1  0  0  0
 16 17  2  0  0  0
 16 21  1  0  0  0
 16 31  1  0  0  0
 17 18  1  0  0  0
 17102  1  0  0  0
 18 19  2  0  0  0
 18103  1  0  0  0
 19 20  1  0  0  0
 19 24  1  0  0  0
 20 21  2  0  0  0
 20104  1  0  0  0
 21 23  1  0  0  0
 22 28  1  0  0  0
 22 32  2  0  0  0
 26 27  1  0  0  0
 28105  1  0  0  0
 28106  1  0  0  0
 29107  1  0  0  0
 29108  1  0  0  0
 33 34  1  0  0  0
 33 66  1  0  0  0
 33 70  2  0  0  0
 34 36  1  0  0  0
 34 59  1  0  0  0
 34109  1  0  0  0
 35 44  2  0  0  0
 35 45  1  0  0  0
 35 68  1  0  0  0
 36 56  1  0  0  0
 36110  1  0  0  0
 37 39  1  0  0  0
 37 47  1  0  0  0
 37 66  1  0  0  0
 37111  1  0  0  0
 38 43  2  0  0  0
 38 46  1  0  0  0
 38 47  1  0  0  0
 39 64  1  0  0  0
 39 67  2  0  0  0
 40 52  1  0  0  0
 40 53  2  0  0  0
 40 58  1  0  0  0
 41112  1  0  0  0
 41113  1  0  0  0
 41114  1  0  0  0
 41 48  1  0  0  0
 42 43  1  0  0  0
 42 66  1  0  0  0
 42115  1  0  0  0
 42116  1  0  0  0
 43 44  1  0  0  0
 44117  1  0  0  0
 45 46  2  0  0  0
 45118  1  0  0  0
 46119  1  0  0  0
 47120  1  0  0  0
 47121  1  0  0  0
 48 56  1  0  0  0
 48 65  1  0  0  0
 48122  1  0  0  0
 49 50  1  0  0  0
 49 53  1  0  0  0
 49 64  1  0  0  0
 49123  1  0  0  0
 50 51  1  0  0  0
 50124  1  0  0  0
 50125  1  0  0  0
 51 52  1  0  0  0
 51126  1  0  0  0
 51127  1  0  0  0
 52128  1  0  0  0
 52129  1  0  0  0
 53 54  1  0  0  0
 54 55  2  0  0  0
 54130  1  0  0  0
 55 57  1  0  0  0
 55131  1  0  0  0
 56 69  2  0  0  0
 57 58  2  0  0  0
 57132  1  0  0  0
 58133  1  0  0  0
 59 60  1  0  0  0
 59 61  1  0  0  0
 59 62  1  0  0  0
 60134  1  0  0  0
 60135  1  0  0  0
 60136  1  0  0  0
 61137  1  0  0  0
 61138  1  0  0  0
 61139  1  0  0  0
 62140  1  0  0  0
 62141  1  0  0  0
 62142  1  0  0  0
 63 65  1  0  0  0
 63143  1  0  0  0
 63144  1  0  0  0
 63145  1  0  0  0
 64146  1  0  0  0
 65147  1  0  0  0
 68 85  1  0  0  0
 71 73  2  0  0  0
 71 75  1  0  0  0
 71148  1  0  0  0
 72 74  1  0  0  0
 72 76  2  0  0  0
 72149  1  0  0  0
 73 76  1  0  0  0
 73 84  1  0  0  0
 74 75  2  0  0  0
 74 83  1  0  0  0
 75 86  1  0  0  0
 76 88  1  0  0  0
 77 78  2  0  0  0
 77 79  1  0  0  0
 77 87  1  0  0  0
 78150  1  0  0  0
 78151  1  0  0  0
 79 80  1  0  0  0
 79152  1  0  0  0
 79153  1  0  0  0
 80 82  1  0  0  0
 80154  1  0  0  0
 80155  1  0  0  0
 81 82  1  0  0  0
 81 87  1  0  0  0
 81156  1  0  0  0
 81157  1  0  0  0
 82 85  1  0  0  0
 82158  1  0  0  0
 83159  1  0  0  0
 83160  1  0  0  0
 83161  1  0  0  0
 84162  1  0  0  0
 84163  1  0  0  0
 84 87  1  0  0  0
 85164  1  0  0  0
 85165  1  0  0  0
 86166  1  0  0  0
 87167  1  0  0  0
M  CHG  1  87   1
M  ISO  4   1 100  68 101  85 101  86 100
M  END
> <chiral flag>
0

> <version>
0

> <s_m_source_file>
/data/baiqing/PycharmProjects/Reinvent-master-3.2/result/LINK_invent/BTK/process_docking_weight1_custom_product_contain_oxygen_bond_distance_aromatic_linkinvent_7_9_3/rearranged_h_0050.sdf

> <i_m_source_file_index>
90

> <r_mmod_Potential_Energy-OPLS-2005>
-65.6426086425781

> <r_mmod_Stretch_Energy-OPLS-2005>
70.3363494873047

> <r_mmod_Bend_Energy-OPLS-2005>
161.417861938477

> <r_mmod_Torsional_Energy-OPLS-2005>
264.427429199219

> <r_mmod_Improper_Torsional_Energy-OPLS-2005>
5.89799356460571

> <r_mmod_Van_der_Waal_Energy-OPLS-2005>
143.505340576172

> <r_mmod_Electrostatic_Energy-OPLS-2005>
-326.067504882812

> <r_mmod_Solvation_Energy-OPLS-2005>
-423.533569335938

> <b_mmod_Minimization_Converged-OPLS-2005>
0

> <r_mmod_RMS_Derivative-OPLS-2005>
3.97183656692505

$$$$
90
                    3D
 Structure written by MMmdl.
159167  0  0  1  0            999 V2000
  -29.5618  -15.9326   20.2948 C   0  0  0  0  0  0
  -30.2733  -13.3593   19.5661 C   0  0  0  0  0  0
  -29.5050  -12.7152   18.3709 C   0  0  0  0  0  0
  -28.1047  -12.2490   18.7977 C   0  0  0  0  0  0
  -27.4965  -13.2652   19.7805 C   0  0  2  0  0  0
  -28.4138  -13.6435   20.9372 C   0  0  0  0  0  0
  -25.1873  -13.8132   20.5683 C   0  0  0  0  0  0
  -24.1325  -13.0339   20.9307 C   0  0  0  0  0  0
  -24.6000  -11.6826   20.8793 C   0  0  0  0  0  0
  -23.8805  -10.4222   21.0464 C   0  0  0  0  0  0
  -24.3460   -9.4183   21.9223 C   0  0  0  0  0  0
  -23.6217   -8.2174   22.0748 C   0  0  0  0  0  0
  -22.4199   -8.0183   21.3533 C   0  0  0  0  0  0
  -21.9783   -9.0120   20.4636 C   0  0  0  0  0  0
  -22.7021  -10.2037   20.3078 C   0  0  0  0  0  0
  -21.6821   -6.0679   22.5279 C   0  0  0  0  0  0
  -21.4006   -6.5604   23.8210 C   0  0  0  0  0  0
  -21.3663   -5.6766   24.9185 C   0  0  0  0  0  0
  -21.6044   -4.3027   24.7238 C   0  0  0  0  0  0
  -21.8808   -3.8108   23.4363 C   0  0  0  0  0  0
  -21.9193   -4.6919   22.3417 C   0  0  0  0  0  0
  -22.7417  -13.5126   21.2056 C   0  0  0  0  0  0
  -22.1645   -4.2087   21.1004 F   0  0  0  0  0  0
  -21.5636   -3.4536   25.7772 F   0  0  0  0  0  0
  -29.4230  -14.4528   20.2757 N   0  0  0  0  0  0
  -26.2050  -12.9271   20.2882 N   0  0  0  0  0  0
  -25.8841  -11.6408   20.5546 N   0  0  0  0  0  0
  -22.0112  -12.8110   22.0616 N   0  0  0  0  0  0
  -25.3688  -15.1889   20.4244 N   0  0  0  0  0  0
  -30.8171  -16.0436   20.1572 O   0  0  0  0  0  0
  -21.6589   -6.8779   21.4212 O   0  0  0  0  0  0
  -22.3150  -14.5448   20.6915 O   0  0  0  0  0  0
  -24.7740  -31.7424   22.7115 C   0  0  0  0  0  0
  -26.0018  -32.3679   23.5701 C   0  0  1  0  0  0
  -26.3634  -28.2116   21.7228 C   0  0  0  0  0  0
  -25.6381  -33.7447   24.0347 N   0  0  0  0  0  0
  -24.0731  -29.2553   20.8923 C   0  0  2  0  0  0
  -25.5888  -28.9635   19.3734 C   0  0  0  0  0  0
  -23.6084  -27.4981   22.3055 C   0  0  0  0  0  0
  -18.1584  -28.1116   22.8079 C   0  0  0  0  0  0
  -24.1638  -36.6697   23.2777 C   0  0  0  0  0  0
  -25.9672  -31.1061   20.6806 C   0  0  0  0  0  0
  -26.4501  -29.7619   20.2045 C   0  0  0  0  0  0
  -27.2607  -29.0691   21.1059 C   0  0  0  0  0  0
  -26.1801  -27.1391   20.6876 C   0  0  0  0  0  0
  -25.7578  -27.5630   19.4020 C   0  0  0  0  0  0
  -24.1668  -29.3631   19.4098 C   0  0  0  0  0  0
  -25.4356  -36.2280   24.0221 C   0  0  1  0  0  0
  -20.7334  -27.5700   23.3152 C   0  0  2  0  0  0
  -20.3330  -26.2728   22.6355 C   0  0  0  0  0  0
  -19.3338  -26.3415   21.4931 C   0  0  0  0  0  0
  -18.0294  -26.7862   22.0988 C   0  0  0  0  0  0
  -19.4373  -28.6288   23.2644 C   0  0  0  0  0  0
  -19.2962  -29.9265   23.8777 C   0  0  0  0  0  0
  -18.0301  -30.5856   24.0388 C   0  0  0  0  0  0
  -25.9387  -34.8906   23.4147 C   0  0  0  0  0  0
  -16.8237  -29.9758   23.6461 C   0  0  0  0  0  0
  -16.9034  -28.7341   23.0162 C   0  0  0  0  0  0
  -26.4239  -31.5996   24.9243 C   0  0  0  0  0  0
  -25.2903  -31.3740   25.9578 C   0  0  0  0  0  0
  -27.0765  -30.2322   24.6399 C   0  0  0  0  0  0
  -27.5255  -32.4125   25.6778 C   0  0  0  0  0  0
  -27.5629  -37.1524   24.8513 C   0  0  0  0  0  0
  -22.3093  -27.3867   23.0890 N   0  0  0  0  0  0
  -26.4275  -37.3237   23.9507 N   0  0  0  0  0  0
  -24.7615  -30.8904   21.4591 N   0  0  0  0  0  0
  -24.2431  -27.1079   23.2491 O   0  0  0  0  0  0
  -25.3191  -29.0287   22.6879 O   0  0  0  0  0  0
  -26.6040  -34.9001   22.3798 O   0  0  0  0  0  0
  -23.7388  -32.1536   23.2980 O   0  0  0  0  0  0
  -25.1813  -20.4946   20.4566 C   0  0  0  0  0  0
  -26.0418  -19.1634   20.4996 C   0  0  0  0  0  0
  -27.8012  -20.2777   20.1028 C   0  0  0  0  0  0
  -25.4513  -21.9865   20.2263 C   0  0  0  0  0  0
  -26.9435  -21.6251   20.0348 C   0  0  0  0  0  0
  -27.5168  -18.7788   20.3077 C   0  0  0  0  0  0
  -23.2140  -25.3008   20.4836 C   0  0  0  0  0  0
  -27.7906  -22.8189   19.6357 C   0  0  0  0  0  0
  -21.2512  -29.4070   19.8468 C   0  0  0  0  0  0
  -24.3095  -23.6261   19.8812 C   0  0  0  0  0  0
  -23.0455  -29.6735   22.7866 C   0  0  0  0  0  0
  -21.8629  -28.4922   20.9709 C   0  0  2  0  0  0
  -22.5318  -26.7195   20.1510 N   0  0  0  0  0  0
  -28.4277  -17.1470   20.3216 N   0  0  0  0  0  0
  -31.1866  -13.8049   19.1769 H   0  0  0  0  0  0
  -30.6073  -12.6001   20.2750 H   0  0  0  0  0  0
  -30.0642  -11.8956   17.9289 H   0  0  0  0  0  0
  -29.3857  -13.4609   17.5865 H   0  0  0  0  0  0
  -28.1878  -11.2775   19.2937 H   0  0  0  0  0  0
  -27.4560  -12.0949   17.9312 H   0  0  0  0  0  0
  -27.3252  -14.1480   19.1569 H   0  0  0  0  0  0
  -28.7971  -12.7742   21.4738 H   0  0  0  0  0  0
  -27.8885  -14.2638   21.6661 H   0  0  0  0  0  0
  -25.2588   -9.5712   22.4813 H   0  0  0  0  0  0
  -23.9950   -7.4552   22.7465 H   0  0  0  0  0  0
  -21.0713   -8.8574   19.8954 H   0  0  0  0  0  0
  -22.3430  -10.9561   19.6200 H   0  0  0  0  0  0
  -21.1989   -7.6118   23.9680 H   0  0  0  0  0  0
  -21.1501   -6.0530   25.9083 H   0  0  0  0  0  0
  -22.0604   -2.7567   23.2889 H   0  0  0  0  0  0
  -22.3703  -11.9742   22.4962 H   0  0  0  0  0  0
  -21.0771  -13.1155   22.2893 H   0  0  0  0  0  0
  -24.6203  -15.8578   20.5755 H   0  0  0  0  0  0
  -26.2412  -15.6273   20.1398 H   0  0  0  0  0  0
  -26.9059  -32.4397   22.9693 H   0  0  0  0  0  0
  -25.0990  -33.7930   24.8855 H   0  0  0  0  0  0
  -24.2645  -28.2314   20.8900 H   0  0  0  0  0  0
  -23.3949  -35.8908   23.3107 H   0  0  0  0  0  0
  -24.3799  -36.8698   22.2231 H   0  0  0  0  0  0
  -23.7329  -37.5704   23.7210 H   0  0  0  0  0  0
  -25.7374  -31.6834   19.7842 H   0  0  0  0  0  0
  -26.7944  -31.6364   21.1371 H   0  0  0  0  0  0
  -27.8524  -29.6886   21.7670 H   0  0  0  0  0  0
  -25.9645  -26.1122   20.9819 H   0  0  0  0  0  0
  -25.2109  -26.8767   18.7800 H   0  0  0  0  0  0
  -24.0550  -30.3784   19.0255 H   0  0  0  0  0  0
  -23.5408  -28.7040   18.8147 H   0  0  0  0  0  0
  -25.1683  -36.0600   25.0698 H   0  0  0  0  0  0
  -20.7300  -27.3611   24.3901 H   0  0  0  0  0  0
  -19.8526  -25.6776   23.4122 H   0  0  0  0  0  0
  -21.1492  -25.6285   22.3344 H   0  0  0  0  0  0
  -19.1946  -25.3455   21.0708 H   0  0  0  0  0  0
  -19.6079  -26.9388   20.6308 H   0  0  0  0  0  0
  -17.2711  -26.8421   21.3146 H   0  0  0  0  0  0
  -17.6384  -26.0569   22.8139 H   0  0  0  0  0  0
  -20.1687  -30.4060   24.2872 H   0  0  0  0  0  0
  -17.9934  -31.5489   24.5299 H   0  0  0  0  0  0
  -15.8760  -30.4738   23.8020 H   0  0  0  0  0  0
  -15.9896  -28.2635   22.6872 H   0  0  0  0  0  0
  -24.4752  -30.7755   25.5343 H   0  0  0  0  0  0
  -24.8554  -32.3166   26.2926 H   0  0  0  0  0  0
  -25.6460  -30.8405   26.8436 H   0  0  0  0  0  0
  -26.3665  -29.4033   24.6746 H   0  0  0  0  0  0
  -27.8133  -29.9457   25.3906 H   0  0  0  0  0  0
  -27.5995  -30.2335   23.6898 H   0  0  0  0  0  0
  -27.1771  -33.3969   25.9883 H   0  0  0  0  0  0
  -28.3985  -32.5530   25.0422 H   0  0  0  0  0  0
  -27.8576  -31.9109   26.5897 H   0  0  0  0  0  0
  -28.2338  -38.0066   24.7640 H   0  0  0  0  0  0
  -28.1441  -36.2581   24.6208 H   0  0  0  0  0  0
  -27.2503  -37.0931   25.8947 H   0  0  0  0  0  0
  -22.6251  -26.7754   23.8333 H   0  0  0  0  0  0
  -25.9882  -38.2164   24.1475 H   0  0  0  0  0  0
  -24.1275  -20.3054   20.5910 H   0  0  0  0  0  0
  -25.4321  -18.2993   20.7243 H   0  0  0  0  0  0
  -28.8631  -20.4649   19.9672 H   0  0  0  0  0  0
  -23.0204  -25.0293   21.5259 H   0  0  0  0  0  0
  -28.5700  -22.5096   18.9395 H   0  0  0  0  0  0
  -28.2737  -23.2518   20.5097 H   0  0  0  0  0  0
  -27.2033  -23.5898   19.1381 H   0  0  0  0  0  0
  -20.3869  -29.9739   20.1928 H   0  0  0  0  0  0
  -20.9040  -28.7993   19.0080 H   0  0  0  0  0  0
  -21.8786  -30.2055   19.4523 H   0  0  0  0  0  0
  -23.5717  -23.1264   19.2472 H   0  0  0  0  0  0
  -24.9532  -24.0892   19.1365 H   0  0  0  0  0  0
  -22.7904  -29.4820   23.8499 H   0  0  0  0  0  0
  -22.4675  -30.5831   22.6931 H   0  0  0  0  0  0
  -20.8486  -28.3643   21.2445 H   0  0  0  0  0  0
  -29.2925  -17.6514   20.1694 H   0  0  0  0  0  0
  1 25  1  0  0  0
  1 30  2  0  0  0
  1 84  1  0  0  0
  2  3  1  0  0  0
  2 25  1  0  0  0
  2 85  1  0  0  0
  2 86  1  0  0  0
  3  4  1  0  0  0
  3 87  1  0  0  0
  3 88  1  0  0  0
  4  5  1  0  0  0
  4 89  1  0  0  0
  4 90  1  0  0  0
  5  6  1  0  0  0
  5 26  1  0  0  0
  5 91  1  0  0  0
  6 25  1  0  0  0
  6 92  1  0  0  0
  6 93  1  0  0  0
  7  8  2  0  0  0
  7 26  1  0  0  0
  7 29  1  0  0  0
  8  9  1  0  0  0
  8 22  1  0  0  0
  9 10  1  0  0  0
  9 27  2  0  0  0
 10 11  2  0  0  0
 10 15  1  0  0  0
 11 12  1  0  0  0
 11 94  1  0  0  0
 12 13  2  0  0  0
 12 95  1  0  0  0
 13 14  1  0  0  0
 13 31  1  0  0  0
 14 15  2  0  0  0
 14 96  1  0  0  0
 15 97  1  0  0  0
 16 17  2  0  0  0
 16 21  1  0  0  0
 16 31  1  0  0  0
 17 18  1  0  0  0
 17 98  1  0  0  0
 18 19  2  0  0  0
 18 99  1  0  0  0
 19 20  1  0  0  0
 19 24  1  0  0  0
 20 21  2  0  0  0
 20100  1  0  0  0
 21 23  1  0  0  0
 22 28  1  0  0  0
 22 32  2  0  0  0
 26 27  1  0  0  0
 28101  1  0  0  0
 28102  1  0  0  0
 29103  1  0  0  0
 29104  1  0  0  0
 33 34  1  0  0  0
 33 66  1  0  0  0
 33 70  2  0  0  0
 34 36  1  0  0  0
 34 59  1  0  0  0
 34105  1  0  0  0
 35 44  2  0  0  0
 35 45  1  0  0  0
 35 68  1  0  0  0
 36 56  1  0  0  0
 36106  1  0  0  0
 37 39  1  0  0  0
 37 47  1  0  0  0
 37 66  1  0  0  0
 37107  1  0  0  0
 38 43  2  0  0  0
 38 46  1  0  0  0
 38 47  1  0  0  0
 39 64  1  0  0  0
 39 67  2  0  0  0
 40 52  1  0  0  0
 40 53  2  0  0  0
 40 58  1  0  0  0
 41108  1  0  0  0
 41109  1  0  0  0
 41110  1  0  0  0
 41 48  1  0  0  0
 42 43  1  0  0  0
 42 66  1  0  0  0
 42111  1  0  0  0
 42112  1  0  0  0
 43 44  1  0  0  0
 44113  1  0  0  0
 45 46  2  0  0  0
 45114  1  0  0  0
 46115  1  0  0  0
 47116  1  0  0  0
 47117  1  0  0  0
 48 56  1  0  0  0
 48 65  1  0  0  0
 48118  1  0  0  0
 49 50  1  0  0  0
 49 53  1  0  0  0
 49 64  1  0  0  0
 49119  1  0  0  0
 50 51  1  0  0  0
 50120  1  0  0  0
 50121  1  0  0  0
 51 52  1  0  0  0
 51122  1  0  0  0
 51123  1  0  0  0
 52124  1  0  0  0
 52125  1  0  0  0
 53 54  1  0  0  0
 54 55  2  0  0  0
 54126  1  0  0  0
 55 57  1  0  0  0
 55127  1  0  0  0
 56 69  2  0  0  0
 57 58  2  0  0  0
 57128  1  0  0  0
 58129  1  0  0  0
 59 60  1  0  0  0
 59 61  1  0  0  0
 59 62  1  0  0  0
 60130  1  0  0  0
 60131  1  0  0  0
 60132  1  0  0  0
 61133  1  0  0  0
 61134  1  0  0  0
 61135  1  0  0  0
 62136  1  0  0  0
 62137  1  0  0  0
 62138  1  0  0  0
 63 65  1  0  0  0
 63139  1  0  0  0
 63140  1  0  0  0
 63141  1  0  0  0
 64142  1  0  0  0
 65143  1  0  0  0
 68 81  1  0  0  0
 71 72  2  0  0  0
 71 74  1  0  0  0
 71144  1  0  0  0
 72 76  1  0  0  0
 72145  1  0  0  0
 73 75  1  0  0  0
 73 76  2  0  0  0
 73146  1  0  0  0
 74 75  2  0  0  0
 74 80  1  0  0  0
 75 78  1  0  0  0
 76 84  1  0  0  0
 77 80  1  0  0  0
 77 83  2  0  0  0
 77147  1  0  0  0
 78148  1  0  0  0
 78149  1  0  0  0
 78150  1  0  0  0
 79151  1  0  0  0
 79152  1  0  0  0
 79153  1  0  0  0
 79 82  1  0  0  0
 80154  1  0  0  0
 80155  1  0  0  0
 81 82  1  0  0  0
 81156  1  0  0  0
 81157  1  0  0  0
 82 83  1  0  0  0
 82158  1  0  0  0
 84159  1  0  0  0
M  ISO  4   1 100  68 101  81 101  84 100
M  END
> <chiral flag>
0

> <version>
0

> <s_m_source_file>
/data/baiqing/PycharmProjects/Reinvent-master-3.2/result/LINK_invent/BTK/process_docking_weight1_custom_product_contain_oxygen_bond_distance_aromatic_linkinvent_7_9_3/rearranged_h_0050.sdf

> <i_m_source_file_index>
91

> <r_mmod_Potential_Energy-OPLS-2005>
16923.220703125

> <r_mmod_Stretch_Energy-OPLS-2005>
6118.50146484375

> <r_mmod_Bend_Energy-OPLS-2005>
2347.67065429688

> <r_mmod_Torsional_Energy-OPLS-2005>
658.723876953125

> <r_mmod_Improper_Torsional_Energy-OPLS-2005>
102.064025878906

> <r_mmod_Van_der_Waal_Energy-OPLS-2005>
2138.96240234375

> <r_mmod_Electrostatic_Energy-OPLS-2005>
-409.597045898438

> <r_mmod_Solvation_Energy-OPLS-2005>
-188.268798828125

> <b_mmod_Minimization_Converged-OPLS-2005>
0

> <r_mmod_RMS_Derivative-OPLS-2005>
23.1306114196777

$$$$
91
                    3D
 Structure written by MMmdl.
164173  0  0  1  0            999 V2000
  -30.6753  -14.5387   20.5275 C   0  0  0  0  0  0
  -30.4292  -12.3324   19.4480 C   0  0  0  0  0  0
  -29.5054  -12.5085   18.2237 C   0  0  0  0  0  0
  -28.0232  -12.3693   18.6280 C   0  0  0  0  0  0
  -27.6615  -13.2053   19.8852 C   0  0  2  0  0  0
  -28.7076  -13.0237   21.0092 C   0  0  0  0  0  0
  -25.2615  -13.8152   20.5737 C   0  0  0  0  0  0
  -24.1863  -13.0444   20.9198 C   0  0  0  0  0  0
  -24.6411  -11.6908   20.8766 C   0  0  0  0  0  0
  -23.9081  -10.4307   21.0427 C   0  0  0  0  0  0
  -24.3637   -9.4232   21.9197 C   0  0  0  0  0  0
  -23.6326   -8.2264   22.0752 C   0  0  0  0  0  0
  -22.4302   -8.0302   21.3549 C   0  0  0  0  0  0
  -21.9938   -9.0274   20.4650 C   0  0  0  0  0  0
  -22.7261  -10.2159   20.3071 C   0  0  0  0  0  0
  -21.6860   -6.0765   22.5292 C   0  0  0  0  0  0
  -21.4004   -6.5650   23.8234 C   0  0  0  0  0  0
  -21.3663   -5.6795   24.9190 C   0  0  0  0  0  0
  -21.6053   -4.3069   24.7235 C   0  0  0  0  0  0
  -21.8822   -3.8170   23.4348 C   0  0  0  0  0  0
  -21.9195   -4.6984   22.3413 C   0  0  0  0  0  0
  -22.7892  -13.5260   21.1860 C   0  0  0  0  0  0
  -22.1674   -4.2193   21.0980 F   0  0  0  0  0  0
  -21.5639   -3.4537   25.7735 F   0  0  0  0  0  0
  -30.0344  -13.3353   20.4526 N   0  0  0  0  0  0
  -26.3042  -12.9299   20.3443 N   0  0  0  0  0  0
  -25.9334  -11.6463   20.5807 N   0  0  0  0  0  0
  -22.0542  -12.8239   22.0397 N   0  0  0  0  0  0
  -25.4354  -15.1877   20.4160 N   0  0  0  0  0  0
  -31.8161  -14.7088   20.0854 O   0  0  0  0  0  0
  -21.6649   -6.8910   21.4254 O   0  0  0  0  0  0
  -22.3596  -14.5591   20.6739 O   0  0  0  0  0  0
  -24.6180  -31.8660   23.2096 C   0  0  0  0  0  0
  -25.9071  -32.4807   23.8390 C   0  0  1  0  0  0
  -27.2249  -27.3875   20.1069 C   0  0  0  0  0  0
  -25.5920  -33.8610   24.2320 N   0  0  0  0  0  0
  -23.4049  -30.4916   21.5518 C   0  0  2  0  0  0
  -24.8505  -28.9574   20.1125 C   0  0  0  0  0  0
  -22.7404  -29.4651   22.4983 C   0  0  0  0  0  0
  -18.0269  -28.1379   22.8491 C   0  0  0  0  0  0
  -24.1487  -36.7292   23.2636 C   0  0  0  0  0  0
  -25.9398  -30.8154   21.3748 C   0  0  0  0  0  0
  -26.0128  -29.4496   20.7158 C   0  0  0  0  0  0
  -27.1994  -28.6721   20.7110 C   0  0  0  0  0  0
  -26.0432  -26.9330   19.4743 C   0  0  0  0  0  0
  -24.8633  -27.7003   19.4874 C   0  0  0  0  0  0
  -23.6142  -29.8299   20.1642 C   0  0  0  0  0  0
  -25.4113  -36.3098   24.0334 C   0  0  1  0  0  0
  -20.5855  -28.3667   23.1310 C   0  0  2  0  0  0
  -20.6776  -26.9407   22.5420 C   0  0  0  0  0  0
  -19.5751  -26.6391   21.5223 C   0  0  0  0  0  0
  -18.1920  -26.7927   22.1621 C   0  0  0  0  0  0
  -19.1520  -28.8840   23.2894 C   0  0  0  0  0  0
  -18.9450  -30.1449   23.8896 C   0  0  0  0  0  0
  -17.6455  -30.6589   24.0565 C   0  0  0  0  0  0
  -25.9043  -34.9469   23.5122 C   0  0  0  0  0  0
  -16.5343  -29.9086   23.6345 C   0  0  0  0  0  0
  -16.7261  -28.6509   23.0358 C   0  0  0  0  0  0
  -26.4493  -31.6601   25.0736 C   0  0  0  0  0  0
  -25.3747  -31.3727   26.1470 C   0  0  0  0  0  0
  -27.0359  -30.3032   24.6189 C   0  0  0  0  0  0
  -27.6054  -32.4341   25.7493 C   0  0  0  0  0  0
  -27.5580  -37.1804   24.8462 C   0  0  0  0  0  0
  -21.4134  -29.3028   22.3711 N   0  0  0  0  0  0
  -26.4297  -37.3790   23.9406 N   0  0  0  0  0  0
  -24.6717  -31.0727   22.1021 N   0  0  0  0  0  0
  -23.4173  -28.8207   23.3045 O   0  0  0  0  0  0
  -28.3836  -26.6185   20.1616 O   0  0  0  0  0  0
  -26.5598  -34.8911   22.4676 O   0  0  0  0  0  0
  -23.5365  -32.1440   23.7474 O   0  0  0  0  0  0
  -28.7883  -17.9608   18.3276 C   0  0  0  0  0  0
  -29.0673  -16.7802   19.0347 C   0  0  0  0  0  0
  -30.1505  -18.0886   20.7768 C   0  0  0  0  0  0
  -29.2132  -19.2124   18.8139 C   0  0  0  0  0  0
  -29.9059  -19.2978   20.0507 C   0  0  0  0  0  0
  -29.7531  -16.8159   20.2668 C   0  0  0  0  0  0
  -29.8395  -23.0392   20.1781 C   0  0  0  0  0  0
  -27.8454  -22.8594   22.2753 C   0  0  0  0  0  0
  -28.7500  -24.0955   22.2424 C   0  0  0  0  0  0
  -28.6053  -21.6007   21.8166 C   0  0  0  0  0  0
  -29.2931  -24.3527   20.8243 C   0  0  2  0  0  0
  -28.9440  -20.4321   17.9525 C   0  0  0  0  0  0
  -30.5041  -20.6437   20.5414 C   0  0  0  0  0  0
  -28.3041  -25.1810   19.9357 C   0  0  0  0  0  0
  -29.6093  -21.8208   20.7618 N   0  0  0  0  0  0
  -29.9396  -15.5811   20.9836 N   0  0  0  0  0  0
  -30.5666  -23.1551   19.1872 O   0  0  0  0  0  0
  -31.4743  -12.4306   19.1498 H   0  0  0  0  0  0
  -30.3313  -11.3257   19.8588 H   0  0  0  0  0  0
  -29.7572  -11.7759   17.4572 H   0  0  0  0  0  0
  -29.6761  -13.4882   17.7751 H   0  0  0  0  0  0
  -27.8257  -11.3132   18.8130 H   0  0  0  0  0  0
  -27.3834  -12.6523   17.7920 H   0  0  0  0  0  0
  -27.6871  -14.2478   19.5829 H   0  0  0  0  0  0
  -28.7025  -11.9975   21.3800 H   0  0  0  0  0  0
  -28.4664  -13.6509   21.8685 H   0  0  0  0  0  0
  -25.2777   -9.5731   22.4768 H   0  0  0  0  0  0
  -24.0064   -7.4643   22.7436 H   0  0  0  0  0  0
  -21.0892   -8.8807   19.8922 H   0  0  0  0  0  0
  -22.3731  -10.9718   19.6206 H   0  0  0  0  0  0
  -21.1975   -7.6156   23.9748 H   0  0  0  0  0  0
  -21.1483   -6.0523   25.9099 H   0  0  0  0  0  0
  -22.0590   -2.7629   23.2833 H   0  0  0  0  0  0
  -22.4134  -11.9861   22.4737 H   0  0  0  0  0  0
  -21.1162  -13.1275   22.2617 H   0  0  0  0  0  0
  -24.6744  -15.8470   20.5323 H   0  0  0  0  0  0
  -26.2943  -15.6307   20.1172 H   0  0  0  0  0  0
  -26.7124  -32.5497   23.1129 H   0  0  0  0  0  0
  -25.0117  -33.9783   25.0491 H   0  0  0  0  0  0
  -22.6948  -31.3104   21.4169 H   0  0  0  0  0  0
  -23.3764  -35.9609   23.3310 H   0  0  0  0  0  0
  -24.3575  -36.8900   22.2046 H   0  0  0  0  0  0
  -23.7234  -37.6493   23.6651 H   0  0  0  0  0  0
  -26.0706  -31.5895   20.6176 H   0  0  0  0  0  0
  -26.8162  -30.8522   22.0097 H   0  0  0  0  0  0
  -28.0888  -29.0450   21.1981 H   0  0  0  0  0  0
  -26.0029  -25.9852   18.9582 H   0  0  0  0  0  0
  -23.9717  -27.3221   19.0074 H   0  0  0  0  0  0
  -23.7179  -30.6096   19.4085 H   0  0  0  0  0  0
  -22.7351  -29.2548   19.8679 H   0  0  0  0  0  0
  -25.1302  -36.1958   25.0834 H   0  0  0  0  0  0
  -20.9942  -28.3248   24.1431 H   0  0  0  0  0  0
  -20.5714  -26.2271   23.3605 H   0  0  0  0  0  0
  -21.6641  -26.7476   22.1186 H   0  0  0  0  0  0
  -19.6919  -25.6311   21.1237 H   0  0  0  0  0  0
  -19.6695  -27.3211   20.6762 H   0  0  0  0  0  0
  -17.4202  -26.6684   21.4014 H   0  0  0  0  0  0
  -18.0301  -26.0061   22.9004 H   0  0  0  0  0  0
  -19.7932  -30.7270   24.2252 H   0  0  0  0  0  0
  -17.5017  -31.6272   24.5166 H   0  0  0  0  0  0
  -15.5347  -30.2990   23.7687 H   0  0  0  0  0  0
  -15.8656  -28.0839   22.7072 H   0  0  0  0  0  0
  -24.5894  -30.7114   25.7789 H   0  0  0  0  0  0
  -24.8975  -32.2896   26.4937 H   0  0  0  0  0  0
  -25.8069  -30.8859   27.0220 H   0  0  0  0  0  0
  -26.2946  -29.6753   24.1232 H   0  0  0  0  0  0
  -27.4080  -29.7317   25.4706 H   0  0  0  0  0  0
  -27.8797  -30.4322   23.9405 H   0  0  0  0  0  0
  -27.2660  -33.3623   26.2096 H   0  0  0  0  0  0
  -28.3841  -32.6936   25.0312 H   0  0  0  0  0  0
  -28.0753  -31.8468   26.5390 H   0  0  0  0  0  0
  -28.2601  -38.0098   24.7527 H   0  0  0  0  0  0
  -28.1076  -36.2638   24.6281 H   0  0  0  0  0  0
  -27.2292  -37.1438   25.8860 H   0  0  0  0  0  0
  -20.9293  -29.8714   21.6895 H   0  0  0  0  0  0
  -26.0184  -38.2863   24.1424 H   0  0  0  0  0  0
  -28.2579  -17.8946   17.3860 H   0  0  0  0  0  0
  -28.7471  -15.8436   18.6055 H   0  0  0  0  0  0
  -30.6678  -18.1384   21.7264 H   0  0  0  0  0  0
  -26.9793  -23.0210   21.6343 H   0  0  0  0  0  0
  -27.4477  -22.7050   23.2797 H   0  0  0  0  0  0
  -29.5830  -23.9465   22.9325 H   0  0  0  0  0  0
  -28.2159  -24.9751   22.6021 H   0  0  0  0  0  0
  -27.8911  -20.8524   21.4710 H   0  0  0  0  0  0
  -29.1138  -21.1668   22.6776 H   0  0  0  0  0  0
  -30.1755  -24.9838   20.9344 H   0  0  0  0  0  0
  -28.5694  -20.1486   16.9670 H   0  0  0  0  0  0
  -29.8531  -21.0118   17.7958 H   0  0  0  0  0  0
  -28.1977  -21.0698   18.4232 H   0  0  0  0  0  0
  -31.3012  -20.8966   19.8403 H   0  0  0  0  0  0
  -31.0354  -20.4604   21.4766 H   0  0  0  0  0  0
  -27.3068  -24.7968   20.1448 H   0  0  0  0  0  0
  -28.4881  -24.9976   18.8771 H   0  0  0  0  0  0
  -29.1155  -15.2681   21.4762 H   0  0  0  0  0  0
  1 25  1  0  0  0
  1 30  2  0  0  0
  1 86  1  0  0  0
  2  3  1  0  0  0
  2 25  1  0  0  0
  2 88  1  0  0  0
  2 89  1  0  0  0
  3  4  1  0  0  0
  3 90  1  0  0  0
  3 91  1  0  0  0
  4  5  1  0  0  0
  4 92  1  0  0  0
  4 93  1  0  0  0
  5  6  1  0  0  0
  5 26  1  0  0  0
  5 94  1  0  0  0
  6 25  1  0  0  0
  6 95  1  0  0  0
  6 96  1  0  0  0
  7  8  2  0  0  0
  7 26  1  0  0  0
  7 29  1  0  0  0
  8  9  1  0  0  0
  8 22  1  0  0  0
  9 10  1  0  0  0
  9 27  2  0  0  0
 10 11  2  0  0  0
 10 15  1  0  0  0
 11 12  1  0  0  0
 11 97  1  0  0  0
 12 13  2  0  0  0
 12 98  1  0  0  0
 13 14  1  0  0  0
 13 31  1  0  0  0
 14 15  2  0  0  0
 14 99  1  0  0  0
 15100  1  0  0  0
 16 17  2  0  0  0
 16 21  1  0  0  0
 16 31  1  0  0  0
 17 18  1  0  0  0
 17101  1  0  0  0
 18 19  2  0  0  0
 18102  1  0  0  0
 19 20  1  0  0  0
 19 24  1  0  0  0
 20 21  2  0  0  0
 20103  1  0  0  0
 21 23  1  0  0  0
 22 28  1  0  0  0
 22 32  2  0  0  0
 26 27  1  0  0  0
 28104  1  0  0  0
 28105  1  0  0  0
 29106  1  0  0  0
 29107  1  0  0  0
 33 34  1  0  0  0
 33 66  1  0  0  0
 33 70  2  0  0  0
 34 36  1  0  0  0
 34 59  1  0  0  0
 34108  1  0  0  0
 35 44  2  0  0  0
 35 45  1  0  0  0
 35 68  1  0  0  0
 36 56  1  0  0  0
 36109  1  0  0  0
 37 39  1  0  0  0
 37 47  1  0  0  0
 37 66  1  0  0  0
 37110  1  0  0  0
 38 43  2  0  0  0
 38 46  1  0  0  0
 38 47  1  0  0  0
 39 64  1  0  0  0
 39 67  2  0  0  0
 40 52  1  0  0  0
 40 53  2  0  0  0
 40 58  1  0  0  0
 41111  1  0  0  0
 41112  1  0  0  0
 41113  1  0  0  0
 41 48  1  0  0  0
 42 43  1  0  0  0
 42 66  1  0  0  0
 42114  1  0  0  0
 42115  1  0  0  0
 43 44  1  0  0  0
 44116  1  0  0  0
 45 46  2  0  0  0
 45117  1  0  0  0
 46118  1  0  0  0
 47119  1  0  0  0
 47120  1  0  0  0
 48 56  1  0  0  0
 48 65  1  0  0  0
 48121  1  0  0  0
 49 50  1  0  0  0
 49 53  1  0  0  0
 49 64  1  0  0  0
 49122  1  0  0  0
 50 51  1  0  0  0
 50123  1  0  0  0
 50124  1  0  0  0
 51 52  1  0  0  0
 51125  1  0  0  0
 51126  1  0  0  0
 52127  1  0  0  0
 52128  1  0  0  0
 53 54  1  0  0  0
 54 55  2  0  0  0
 54129  1  0  0  0
 55 57  1  0  0  0
 55130  1  0  0  0
 56 69  2  0  0  0
 57 58  2  0  0  0
 57131  1  0  0  0
 58132  1  0  0  0
 59 60  1  0  0  0
 59 61  1  0  0  0
 59 62  1  0  0  0
 60133  1  0  0  0
 60134  1  0  0  0
 60135  1  0  0  0
 61136  1  0  0  0
 61137  1  0  0  0
 61138  1  0  0  0
 62139  1  0  0  0
 62140  1  0  0  0
 62141  1  0  0  0
 63 65  1  0  0  0
 63142  1  0  0  0
 63143  1  0  0  0
 63144  1  0  0  0
 64145  1  0  0  0
 65146  1  0  0  0
 68 84  1  0  0  0
 71 72  2  0  0  0
 71 74  1  0  0  0
 71147  1  0  0  0
 72 76  1  0  0  0
 72148  1  0  0  0
 73 75  1  0  0  0
 73 76  2  0  0  0
 73149  1  0  0  0
 74 75  2  0  0  0
 74 82  1  0  0  0
 75 83  1  0  0  0
 76 86  1  0  0  0
 77 81  1  0  0  0
 77 85  1  0  0  0
 77 87  2  0  0  0
 78 79  1  0  0  0
 78 80  1  0  0  0
 78150  1  0  0  0
 78151  1  0  0  0
 79 81  1  0  0  0
 79152  1  0  0  0
 79153  1  0  0  0
 80 85  1  0  0  0
 80154  1  0  0  0
 80155  1  0  0  0
 81 84  1  0  0  0
 81156  1  0  0  0
 82157  1  0  0  0
 82158  1  0  0  0
 82159  1  0  0  0
 83 85  1  0  0  0
 83160  1  0  0  0
 83161  1  0  0  0
 84162  1  0  0  0
 84163  1  0  0  0
 86164  1  0  0  0
M  ISO  4   1 100  68 101  84 101  86 100
M  END
> <chiral flag>
0

> <version>
0

> <s_m_source_file>
/data/baiqing/PycharmProjects/Reinvent-master-3.2/result/LINK_invent/BTK/process_docking_weight1_custom_product_contain_oxygen_bond_distance_aromatic_linkinvent_7_9_3/rearranged_h_0050.sdf

> <i_m_source_file_index>
92

> <r_mmod_Potential_Energy-OPLS-2005>
55.5764007568359

> <r_mmod_Stretch_Energy-OPLS-2005>
55.4550437927246

> <r_mmod_Bend_Energy-OPLS-2005>
116.716972351074

> <r_mmod_Torsional_Energy-OPLS-2005>
287.849212646484

> <r_mmod_Improper_Torsional_Energy-OPLS-2005>
8.02126502990723

> <r_mmod_Van_der_Waal_Energy-OPLS-2005>
155.983337402344

> <r_mmod_Electrostatic_Energy-OPLS-2005>
-367.160919189453

> <r_mmod_Solvation_Energy-OPLS-2005>
-224.261352539062

> <b_mmod_Minimization_Converged-OPLS-2005>
0

> <r_mmod_RMS_Derivative-OPLS-2005>
3.19482016563416

$$$$
92
                    3D
 Structure written by MMmdl.
161170  0  0  1  0            999 V2000
  -31.8543  -15.0076   19.6741 C   0  0  0  0  0  0
  -30.7403  -13.0211   20.1785 C   0  0  0  0  0  0
  -29.5072  -11.8279   19.6556 C   0  0  0  0  0  0
  -27.9084  -12.0440   18.9788 C   0  0  0  0  0  0
  -26.9858  -13.5489   19.0726 C   0  0  2  0  0  0
  -27.8190  -15.3665   18.9864 C   0  0  0  0  0  0
  -25.0807  -13.9692   20.6218 C   0  0  0  0  0  0
  -24.0887  -13.1219   21.0155 C   0  0  0  0  0  0
  -24.5907  -11.7904   20.9339 C   0  0  0  0  0  0
  -23.9135  -10.4878   21.0730 C   0  0  0  0  0  0
  -24.3837   -9.4659   21.9285 C   0  0  0  0  0  0
  -23.6595   -8.2582   22.0687 C   0  0  0  0  0  0
  -22.4555   -8.0588   21.3563 C   0  0  0  0  0  0
  -22.0245   -9.0591   20.4638 C   0  0  0  0  0  0
  -22.7455  -10.2551   20.3209 C   0  0  0  0  0  0
  -21.7001   -6.0926   22.5294 C   0  0  0  0  0  0
  -21.4111   -6.5759   23.8246 C   0  0  0  0  0  0
  -21.3668   -5.6850   24.9179 C   0  0  0  0  0  0
  -21.6052   -4.3125   24.7194 C   0  0  0  0  0  0
  -21.8800   -3.8254   23.4290 C   0  0  0  0  0  0
  -21.9247   -4.7128   22.3386 C   0  0  0  0  0  0
  -22.6882  -13.5439   21.2503 C   0  0  0  0  0  0
  -22.1679   -4.2279   21.0955 F   0  0  0  0  0  0
  -21.5603   -3.4564   25.7692 F   0  0  0  0  0  0
  -30.6052  -14.7860   19.9652 N   0  0  0  0  0  0
  -26.0680  -13.1767   20.1623 N   0  0  0  0  0  0
  -25.8356  -11.8617   20.5274 N   0  0  0  0  0  0
  -21.9633  -12.8148   22.0763 N   0  0  0  0  0  0
  -25.1556  -15.3421   20.4777 N   0  0  0  0  0  0
  -32.6857  -14.8860   20.5218 O   0  0  0  0  0  0
  -21.6874   -6.9147   21.4296 O   0  0  0  0  0  0
  -22.2389  -14.5613   20.7241 O   0  0  0  0  0  0
  -24.6832  -31.8029   23.1444 C   0  0  0  0  0  0
  -25.9446  -32.4434   23.7966 C   0  0  1  0  0  0
  -27.0309  -26.5895   20.3511 C   0  0  0  0  0  0
  -25.6047  -33.8260   24.1885 N   0  0  0  0  0  0
  -23.4992  -30.4122   21.5018 C   0  0  2  0  0  0
  -24.9240  -28.7467   20.1098 C   0  0  0  0  0  0
  -22.7732  -29.4347   22.4683 C   0  0  0  0  0  0
  -18.0342  -28.1419   22.8459 C   0  0  0  0  0  0
  -24.1505  -36.7150   23.2638 C   0  0  0  0  0  0
  -26.0751  -30.5039   21.4122 C   0  0  0  0  0  0
  -26.1052  -29.0594   20.7899 C   0  0  0  0  0  0
  -27.1593  -28.0062   20.8741 C   0  0  0  0  0  0
  -25.8666  -26.5167   19.5540 C   0  0  0  0  0  0
  -24.8537  -27.5127   19.4470 C   0  0  0  0  0  0
  -23.7409  -29.7213   20.1305 C   0  0  0  0  0  0
  -25.4156  -36.2866   24.0253 C   0  0  1  0  0  0
  -20.5961  -28.3765   23.1139 C   0  0  2  0  0  0
  -20.6797  -26.9436   22.5387 C   0  0  0  0  0  0
  -19.5771  -26.6373   21.5199 C   0  0  0  0  0  0
  -18.1965  -26.7940   22.1622 C   0  0  0  0  0  0
  -19.1610  -28.8919   23.2772 C   0  0  0  0  0  0
  -18.9518  -30.1500   23.8816 C   0  0  0  0  0  0
  -17.6511  -30.6605   24.0545 C   0  0  0  0  0  0
  -25.9153  -34.9268   23.4903 C   0  0  0  0  0  0
  -16.5394  -29.9091   23.6362 C   0  0  0  0  0  0
  -16.7317  -28.6512   23.0375 C   0  0  0  0  0  0
  -26.4599  -31.6423   25.0570 C   0  0  0  0  0  0
  -25.3652  -31.3756   26.1171 C   0  0  0  0  0  0
  -27.0465  -30.2756   24.6393 C   0  0  0  0  0  0
  -27.6069  -32.4202   25.7421 C   0  0  0  0  0  0
  -27.5560  -37.1725   24.8472 C   0  0  0  0  0  0
  -21.4380  -29.3016   22.3442 N   0  0  0  0  0  0
  -26.4278  -37.3637   23.9398 N   0  0  0  0  0  0
  -24.7780  -30.9458   22.0707 N   0  0  0  0  0  0
  -23.4198  -28.7964   23.3038 O   0  0  0  0  0  0
  -27.8668  -25.2886   20.5180 O   0  0  0  0  0  0
  -26.5804  -34.8859   22.4529 O   0  0  0  0  0  0
  -23.5872  -32.1144   23.6432 O   0  0  0  0  0  0
  -29.3124  -13.9175   18.4632 C   0  0  0  0  0  0
  -28.6388  -14.3585   20.6726 C   0  0  0  0  0  0
  -29.8821  -16.5937   18.2932 C   0  0  0  0  0  0
  -29.8888  -15.1795   17.6922 C   0  0  0  0  0  0
  -28.8685  -16.2422   20.8886 C   0  0  0  0  0  0
  -29.5698  -17.0313   19.7308 C   0  0  0  0  0  0
  -27.6722  -20.4379   20.0518 C   0  0  0  0  0  0
  -27.7020  -22.1590   19.7652 C   0  0  0  0  0  0
  -28.1960  -22.5439   21.9288 C   0  0  0  0  0  0
  -27.9664  -20.8378   22.2082 C   0  0  0  0  0  0
  -27.5239  -23.5502   20.7644 C   0  0  1  0  0  0
  -28.0916  -17.8319   21.5258 C   0  0  0  0  0  0
  -31.2765  -14.9391   17.1789 C   0  0  0  0  0  0
  -28.0677  -19.6283   21.1767 N   0  0  0  0  0  0
  -32.1677  -15.1343   18.3564 N   0  0  0  0  0  0
  -27.2639  -19.8030   19.0798 O   0  0  0  0  0  0
  -30.5238  -18.4254   20.1512 Cl  0  0  0  0  0  0
  -31.6712  -12.6364   19.7579 H   0  0  0  0  0  0
  -30.8860  -12.8807   21.2513 H   0  0  0  0  0  0
  -29.3469  -11.2140   20.5385 H   0  0  0  0  0  0
  -30.0207  -11.1410   18.9728 H   0  0  0  0  0  0
  -27.3994  -11.1043   19.1131 H   0  0  0  0  0  0
  -27.9839  -11.8799   17.8960 H   0  0  0  0  0  0
  -26.3478  -13.5653   18.1874 H   0  0  0  0  0  0
  -27.1702  -16.1451   19.4157 H   0  0  0  0  0  0
  -27.6353  -15.7045   17.9494 H   0  0  0  0  0  0
  -25.3014   -9.6169   22.4795 H   0  0  0  0  0  0
  -24.0448   -7.4946   22.7274 H   0  0  0  0  0  0
  -21.1260   -8.9174   19.8785 H   0  0  0  0  0  0
  -22.4018  -11.0170   19.6308 H   0  0  0  0  0  0
  -21.2122   -7.6243   23.9812 H   0  0  0  0  0  0
  -21.1455   -6.0533   25.9077 H   0  0  0  0  0  0
  -22.0533   -2.7705   23.2762 H   0  0  0  0  0  0
  -22.3732  -12.0267   22.5512 H   0  0  0  0  0  0
  -20.9889  -13.0435   22.2111 H   0  0  0  0  0  0
  -25.8170  -15.8168   19.8724 H   0  0  0  0  0  0
  -24.3411  -15.9082   20.6933 H   0  0  0  0  0  0
  -26.7522  -32.4870   23.0650 H   0  0  0  0  0  0
  -25.0039  -33.9266   24.9936 H   0  0  0  0  0  0
  -22.8262  -31.2534   21.3214 H   0  0  0  0  0  0
  -23.3776  -35.9478   23.3243 H   0  0  0  0  0  0
  -24.3562  -36.8885   22.2068 H   0  0  0  0  0  0
  -23.7276  -37.6307   23.6771 H   0  0  0  0  0  0
  -26.2725  -31.2024   20.5983 H   0  0  0  0  0  0
  -26.9391  -30.5837   22.0589 H   0  0  0  0  0  0
  -28.0377  -28.2337   21.4600 H   0  0  0  0  0  0
  -25.6636  -25.5777   19.0643 H   0  0  0  0  0  0
  -23.9628  -27.2713   18.8831 H   0  0  0  0  0  0
  -23.9279  -30.4777   19.3681 H   0  0  0  0  0  0
  -22.8367  -29.2006   19.8074 H   0  0  0  0  0  0
  -25.1375  -36.1599   25.0746 H   0  0  0  0  0  0
  -21.0059  -28.3398   24.1248 H   0  0  0  0  0  0
  -20.5658  -26.2407   23.3646 H   0  0  0  0  0  0
  -21.6670  -26.7381   22.1207 H   0  0  0  0  0  0
  -19.6932  -25.6267   21.1277 H   0  0  0  0  0  0
  -19.6703  -27.3148   20.6700 H   0  0  0  0  0  0
  -17.4220  -26.6664   21.4037 H   0  0  0  0  0  0
  -18.0371  -26.0096   22.9042 H   0  0  0  0  0  0
  -19.7995  -30.7334   24.2154 H   0  0  0  0  0  0
  -17.5065  -31.6274   24.5163 H   0  0  0  0  0  0
  -15.5396  -30.2968   23.7718 H   0  0  0  0  0  0
  -15.8708  -28.0789   22.7144 H   0  0  0  0  0  0
  -24.5878  -30.7057   25.7465 H   0  0  0  0  0  0
  -24.8786  -32.2986   26.4344 H   0  0  0  0  0  0
  -25.7814  -30.9075   27.0105 H   0  0  0  0  0  0
  -26.3181  -29.6487   24.1231 H   0  0  0  0  0  0
  -27.3769  -29.7035   25.5075 H   0  0  0  0  0  0
  -27.9213  -30.3881   23.9976 H   0  0  0  0  0  0
  -27.2649  -33.3567   26.1844 H   0  0  0  0  0  0
  -28.4006  -32.6643   25.0337 H   0  0  0  0  0  0
  -28.0599  -31.8385   26.5468 H   0  0  0  0  0  0
  -28.2565  -38.0025   24.7489 H   0  0  0  0  0  0
  -28.1063  -36.2548   24.6347 H   0  0  0  0  0  0
  -27.2257  -37.1418   25.8868 H   0  0  0  0  0  0
  -20.9688  -29.8642   21.6472 H   0  0  0  0  0  0
  -26.0091  -38.2681   24.1403 H   0  0  0  0  0  0
  -29.5303  -13.0896   17.8104 H   0  0  0  0  0  0
  -28.2119  -13.6565   21.3760 H   0  0  0  0  0  0
  -30.4513  -17.3378   17.7561 H   0  0  0  0  0  0
  -26.9283  -22.2932   19.0073 H   0  0  0  0  0  0
  -28.6404  -22.3124   19.2298 H   0  0  0  0  0  0
  -27.9408  -23.0384   22.8669 H   0  0  0  0  0  0
  -29.2635  -22.7122   21.8365 H   0  0  0  0  0  0
  -26.9492  -20.7666   22.6075 H   0  0  0  0  0  0
  -28.6187  -20.5563   23.0433 H   0  0  0  0  0  0
  -26.4552  -23.5903   20.9954 H   0  0  0  0  0  0
  -28.2609  -17.7750   22.6026 H   0  0  0  0  0  0
  -27.0330  -17.5989   21.4362 H   0  0  0  0  0  0
  -31.3908  -13.9401   16.7744 H   0  0  0  0  0  0
  -31.5174  -15.6333   16.3780 H   0  0  0  0  0  0
  -33.1354  -15.3510   18.1432 H   0  0  0  0  0  0
  1 25  1  0  0  0
  1 30  2  0  0  0
  1 85  1  0  0  0
  2  3  1  0  0  0
  2 25  1  0  0  0
  2 88  1  0  0  0
  2 89  1  0  0  0
  3  4  1  0  0  0
  3 90  1  0  0  0
  3 91  1  0  0  0
  4  5  1  0  0  0
  4 92  1  0  0  0
  4 93  1  0  0  0
  5  6  1  0  0  0
  5 26  1  0  0  0
  5 94  1  0  0  0
  6 25  1  0  0  0
  6 95  1  0  0  0
  6 96  1  0  0  0
  7  8  2  0  0  0
  7 26  1  0  0  0
  7 29  1  0  0  0
  8  9  1  0  0  0
  8 22  1  0  0  0
  9 10  1  0  0  0
  9 27  2  0  0  0
 10 11  2  0  0  0
 10 15  1  0  0  0
 11 12  1  0  0  0
 11 97  1  0  0  0
 12 13  2  0  0  0
 12 98  1  0  0  0
 13 14  1  0  0  0
 13 31  1  0  0  0
 14 15  2  0  0  0
 14 99  1  0  0  0
 15100  1  0  0  0
 16 17  2  0  0  0
 16 21  1  0  0  0
 16 31  1  0  0  0
 17 18  1  0  0  0
 17101  1  0  0  0
 18 19  2  0  0  0
 18102  1  0  0  0
 19 20  1  0  0  0
 19 24  1  0  0  0
 20 21  2  0  0  0
 20103  1  0  0  0
 21 23  1  0  0  0
 22 28  1  0  0  0
 22 32  2  0  0  0
 26 27  1  0  0  0
 28104  1  0  0  0
 28105  1  0  0  0
 29106  1  0  0  0
 29107  1  0  0  0
 33 34  1  0  0  0
 33 66  1  0  0  0
 33 70  2  0  0  0
 34 36  1  0  0  0
 34 59  1  0  0  0
 34108  1  0  0  0
 35 44  2  0  0  0
 35 45  1  0  0  0
 35 68  1  0  0  0
 36 56  1  0  0  0
 36109  1  0  0  0
 37 39  1  0  0  0
 37 47  1  0  0  0
 37 66  1  0  0  0
 37110  1  0  0  0
 38 43  2  0  0  0
 38 46  1  0  0  0
 38 47  1  0  0  0
 39 64  1  0  0  0
 39 67  2  0  0  0
 40 52  1  0  0  0
 40 53  2  0  0  0
 40 58  1  0  0  0
 41111  1  0  0  0
 41112  1  0  0  0
 41113  1  0  0  0
 41 48  1  0  0  0
 42 43  1  0  0  0
 42 66  1  0  0  0
 42114  1  0  0  0
 42115  1  0  0  0
 43 44  1  0  0  0
 44116  1  0  0  0
 45 46  2  0  0  0
 45117  1  0  0  0
 46118  1  0  0  0
 47119  1  0  0  0
 47120  1  0  0  0
 48 56  1  0  0  0
 48 65  1  0  0  0
 48121  1  0  0  0
 49 50  1  0  0  0
 49 53  1  0  0  0
 49 64  1  0  0  0
 49122  1  0  0  0
 50 51  1  0  0  0
 50123  1  0  0  0
 50124  1  0  0  0
 51 52  1  0  0  0
 51125  1  0  0  0
 51126  1  0  0  0
 52127  1  0  0  0
 52128  1  0  0  0
 53 54  1  0  0  0
 54 55  2  0  0  0
 54129  1  0  0  0
 55 57  1  0  0  0
 55130  1  0  0  0
 56 69  2  0  0  0
 57 58  2  0  0  0
 57131  1  0  0  0
 58132  1  0  0  0
 59 60  1  0  0  0
 59 61  1  0  0  0
 59 62  1  0  0  0
 60133  1  0  0  0
 60134  1  0  0  0
 60135  1  0  0  0
 61136  1  0  0  0
 61137  1  0  0  0
 61138  1  0  0  0
 62139  1  0  0  0
 62140  1  0  0  0
 62141  1  0  0  0
 63 65  1  0  0  0
 63142  1  0  0  0
 63143  1  0  0  0
 63144  1  0  0  0
 64145  1  0  0  0
 65146  1  0  0  0
 68 81  1  0  0  0
 71 72  2  0  0  0
 71 74  1  0  0  0
 71147  1  0  0  0
 72 75  1  0  0  0
 72148  1  0  0  0
 73 74  2  0  0  0
 73 76  1  0  0  0
 73149  1  0  0  0
 74 83  1  0  0  0
 75 76  2  0  0  0
 75 82  1  0  0  0
 76 87  1  0  0  0
 77 78  1  0  0  0
 77 84  1  0  0  0
 77 86  2  0  0  0
 78 81  1  0  0  0
 78150  1  0  0  0
 78151  1  0  0  0
 79 80  1  0  0  0
 79 81  1  0  0  0
 79152  1  0  0  0
 79153  1  0  0  0
 80 84  1  0  0  0
 80154  1  0  0  0
 80155  1  0  0  0
 81156  1  0  0  0
 82 84  1  0  0  0
 82157  1  0  0  0
 82158  1  0  0  0
 83 85  1  0  0  0
 83159  1  0  0  0
 83160  1  0  0  0
 85161  1  0  0  0
M  ISO  4   1 100  68 101  81 101  85 100
M  END
> <chiral flag>
0

> <version>
0

> <s_m_source_file>
/data/baiqing/PycharmProjects/Reinvent-master-3.2/result/LINK_invent/BTK/process_docking_weight1_custom_product_contain_oxygen_bond_distance_aromatic_linkinvent_7_9_3/rearranged_h_0050.sdf

> <i_m_source_file_index>
93

> <r_mmod_Potential_Energy-OPLS-2005>
14571.2373046875

> <r_mmod_Stretch_Energy-OPLS-2005>
7506.9150390625

> <r_mmod_Bend_Energy-OPLS-2005>
1106.19567871094

> <r_mmod_Torsional_Energy-OPLS-2005>
542.026489257812

> <r_mmod_Improper_Torsional_Energy-OPLS-2005>
47.8796691894531

> <r_mmod_Van_der_Waal_Energy-OPLS-2005>
3169.67553710938

> <r_mmod_Electrostatic_Energy-OPLS-2005>
-423.376037597656

> <r_mmod_Solvation_Energy-OPLS-2005>
-225.583389282227

> <b_mmod_Minimization_Converged-OPLS-2005>
0

> <r_mmod_RMS_Derivative-OPLS-2005>
29.5984840393066

$$$$
93
                    3D
 Structure written by MMmdl.
161169  0  0  1  0            999 V2000
  -30.7153  -14.4593   20.5067 C   0  0  0  0  0  0
  -30.4083  -12.2762   19.4447 C   0  0  0  0  0  0
  -29.4964  -12.4871   18.2179 C   0  0  0  0  0  0
  -28.0162  -12.3594   18.6261 C   0  0  0  0  0  0
  -27.6591  -13.2099   19.8747 C   0  0  2  0  0  0
  -28.6996  -13.0271   21.0053 C   0  0  0  0  0  0
  -25.2581  -13.8168   20.5683 C   0  0  0  0  0  0
  -24.1836  -13.0437   20.9168 C   0  0  0  0  0  0
  -24.6392  -11.6904   20.8738 C   0  0  0  0  0  0
  -23.9064  -10.4286   21.0404 C   0  0  0  0  0  0
  -24.3613   -9.4197   21.9183 C   0  0  0  0  0  0
  -23.6283   -8.2241   22.0756 C   0  0  0  0  0  0
  -22.4268   -8.0279   21.3544 C   0  0  0  0  0  0
  -21.9902   -9.0253   20.4651 C   0  0  0  0  0  0
  -22.7237  -10.2128   20.3055 C   0  0  0  0  0  0
  -21.6849   -6.0732   22.5274 C   0  0  0  0  0  0
  -21.4020   -6.5639   23.8204 C   0  0  0  0  0  0
  -21.3659   -5.6786   24.9168 C   0  0  0  0  0  0
  -21.6041   -4.3049   24.7214 C   0  0  0  0  0  0
  -21.8825   -3.8142   23.4333 C   0  0  0  0  0  0
  -21.9193   -4.6963   22.3391 C   0  0  0  0  0  0
  -22.7861  -13.5240   21.1832 C   0  0  0  0  0  0
  -22.1666   -4.2151   21.0966 F   0  0  0  0  0  0
  -21.5622   -3.4530   25.7724 F   0  0  0  0  0  0
  -30.0334  -13.2871   20.4460 N   0  0  0  0  0  0
  -26.3016  -12.9341   20.3373 N   0  0  0  0  0  0
  -25.9322  -11.6497   20.5781 N   0  0  0  0  0  0
  -22.0511  -12.8224   22.0390 N   0  0  0  0  0  0
  -25.4298  -15.1885   20.4083 N   0  0  0  0  0  0
  -31.8819  -14.5489   20.1389 O   0  0  0  0  0  0
  -21.6640   -6.8871   21.4233 O   0  0  0  0  0  0
  -22.3544  -14.5556   20.6695 O   0  0  0  0  0  0
  -24.6115  -31.8698   23.2124 C   0  0  0  0  0  0
  -25.9016  -32.4837   23.8420 C   0  0  1  0  0  0
  -27.2348  -27.4526   20.1049 C   0  0  0  0  0  0
  -25.5889  -33.8633   24.2348 N   0  0  0  0  0  0
  -23.4001  -30.4933   21.5508 C   0  0  2  0  0  0
  -24.8503  -28.9583   20.1195 C   0  0  0  0  0  0
  -22.7398  -29.4673   22.5000 C   0  0  0  0  0  0
  -18.0284  -28.1378   22.8508 C   0  0  0  0  0  0
  -24.1486  -36.7322   23.2642 C   0  0  0  0  0  0
  -25.9264  -30.8391   21.3664 C   0  0  0  0  0  0
  -26.0056  -29.4706   20.7249 C   0  0  0  0  0  0
  -27.2020  -28.7201   20.7279 C   0  0  0  0  0  0
  -26.0727  -26.9562   19.4838 C   0  0  0  0  0  0
  -24.8758  -27.6968   19.4989 C   0  0  0  0  0  0
  -23.6104  -29.8224   20.1665 C   0  0  0  0  0  0
  -25.4108  -36.3122   24.0343 C   0  0  1  0  0  0
  -20.5870  -28.3659   23.1332 C   0  0  2  0  0  0
  -20.6773  -26.9399   22.5426 C   0  0  0  0  0  0
  -19.5746  -26.6386   21.5226 C   0  0  0  0  0  0
  -18.1928  -26.7932   22.1635 C   0  0  0  0  0  0
  -19.1532  -28.8834   23.2921 C   0  0  0  0  0  0
  -18.9455  -30.1449   23.8917 C   0  0  0  0  0  0
  -17.6458  -30.6585   24.0576 C   0  0  0  0  0  0
  -25.9026  -34.9484   23.5142 C   0  0  0  0  0  0
  -16.5350  -29.9088   23.6332 C   0  0  0  0  0  0
  -16.7274  -28.6506   23.0352 C   0  0  0  0  0  0
  -26.4457  -31.6605   25.0730 C   0  0  0  0  0  0
  -25.3733  -31.3703   26.1487 C   0  0  0  0  0  0
  -27.0292  -30.3060   24.6077 C   0  0  0  0  0  0
  -27.6050  -32.4308   25.7481 C   0  0  0  0  0  0
  -27.5583  -37.1816   24.8468 C   0  0  0  0  0  0
  -21.4132  -29.3029   22.3727 N   0  0  0  0  0  0
  -26.4296  -37.3801   23.9409 N   0  0  0  0  0  0
  -24.6637  -31.0817   22.1019 N   0  0  0  0  0  0
  -23.4177  -28.8226   23.3045 O   0  0  0  0  0  0
  -28.3701  -26.6817   20.0443 O   0  0  0  0  0  0
  -26.5589  -34.8929   22.4701 O   0  0  0  0  0  0
  -23.5306  -32.1444   23.7517 O   0  0  0  0  0  0
  -32.5238  -19.7070   20.7490 C   0  0  0  0  0  0
  -33.6913  -19.2138   20.1438 C   0  0  0  0  0  0
  -32.4454  -17.2753   19.3946 C   0  0  0  0  0  0
  -31.3013  -18.9913   20.6981 C   0  0  0  0  0  0
  -31.2783  -17.7074   20.0711 C   0  0  0  0  0  0
  -33.6439  -18.0043   19.4383 C   0  0  0  0  0  0
  -30.0801  -19.6884   21.1620 C   0  0  0  0  0  0
  -29.9042  -21.0238   21.0283 C   0  0  0  0  0  0
  -28.6997  -21.7056   21.4708 C   0  0  0  0  0  0
  -30.0142  -16.8294   19.9749 C   0  0  0  0  0  0
  -28.0019  -25.2638   22.0559 C   0  0  0  0  0  0
  -27.6224  -23.9652   21.3094 C   0  0  0  0  0  0
  -28.9156  -26.2522   21.2927 C   0  0  0  0  0  0
  -28.7331  -23.0158   21.1712 N   0  0  0  0  0  0
  -29.9585  -15.5505   20.7209 N   0  0  0  0  0  0
  -27.7381  -21.1675   22.0224 O   0  0  0  0  0  0
  -35.0458  -17.4224   18.6176 Cl  0  0  0  0  0  0
  -31.4588  -12.3354   19.1521 H   0  0  0  0  0  0
  -30.2688  -11.2743   19.8551 H   0  0  0  0  0  0
  -29.7317  -11.7556   17.4441 H   0  0  0  0  0  0
  -29.6786  -13.4680   17.7740 H   0  0  0  0  0  0
  -27.8247  -11.3054   18.8320 H   0  0  0  0  0  0
  -27.3679  -12.6292   17.7915 H   0  0  0  0  0  0
  -27.6919  -14.2524   19.5587 H   0  0  0  0  0  0
  -28.6620  -12.0122   21.4025 H   0  0  0  0  0  0
  -28.4787  -13.6845   21.8484 H   0  0  0  0  0  0
  -25.2761   -9.5668   22.4752 H   0  0  0  0  0  0
  -23.9991   -7.4633   22.7477 H   0  0  0  0  0  0
  -21.0832   -8.8771   19.8958 H   0  0  0  0  0  0
  -22.3698  -10.9665   19.6162 H   0  0  0  0  0  0
  -21.2026   -7.6150   23.9706 H   0  0  0  0  0  0
  -21.1476   -6.0520   25.9068 H   0  0  0  0  0  0
  -22.0608   -2.7607   23.2826 H   0  0  0  0  0  0
  -22.4127  -11.9874   22.4757 H   0  0  0  0  0  0
  -21.1147  -13.1265   22.2641 H   0  0  0  0  0  0
  -24.6615  -15.8430   20.5112 H   0  0  0  0  0  0
  -26.2782  -15.6257   20.0714 H   0  0  0  0  0  0
  -26.7094  -32.5572   23.1197 H   0  0  0  0  0  0
  -25.0054  -33.9811   25.0498 H   0  0  0  0  0  0
  -22.6886  -31.3098   21.4098 H   0  0  0  0  0  0
  -23.3741  -35.9663   23.3320 H   0  0  0  0  0  0
  -24.3586  -36.8911   22.2054 H   0  0  0  0  0  0
  -23.7241  -37.6537   23.6633 H   0  0  0  0  0  0
  -26.0327  -31.5984   20.5900 H   0  0  0  0  0  0
  -26.8164  -30.9001   21.9815 H   0  0  0  0  0  0
  -28.0935  -29.1177   21.1921 H   0  0  0  0  0  0
  -26.0930  -25.9915   18.9968 H   0  0  0  0  0  0
  -23.9900  -27.2956   19.0269 H   0  0  0  0  0  0
  -23.7208  -30.5937   19.4044 H   0  0  0  0  0  0
  -22.7359  -29.2408   19.8688 H   0  0  0  0  0  0
  -25.1280  -36.2005   25.0836 H   0  0  0  0  0  0
  -20.9982  -28.3220   24.1447 H   0  0  0  0  0  0
  -20.5697  -26.2261   23.3608 H   0  0  0  0  0  0
  -21.6640  -26.7463   22.1199 H   0  0  0  0  0  0
  -19.6903  -25.6301   21.1238 H   0  0  0  0  0  0
  -19.6677  -27.3217   20.6772 H   0  0  0  0  0  0
  -17.4205  -26.6711   21.4031 H   0  0  0  0  0  0
  -18.0315  -26.0060   22.9012 H   0  0  0  0  0  0
  -19.7930  -30.7273   24.2278 H   0  0  0  0  0  0
  -17.5011  -31.6268   24.5176 H   0  0  0  0  0  0
  -15.5349  -30.2997   23.7635 H   0  0  0  0  0  0
  -15.8680  -28.0830   22.7044 H   0  0  0  0  0  0
  -24.5903  -30.7048   25.7828 H   0  0  0  0  0  0
  -24.8923  -32.2854   26.4950 H   0  0  0  0  0  0
  -25.8095  -30.8867   27.0236 H   0  0  0  0  0  0
  -26.2832  -29.6822   24.1138 H   0  0  0  0  0  0
  -27.4098  -29.7290   25.4517 H   0  0  0  0  0  0
  -27.8646  -30.4410   23.9204 H   0  0  0  0  0  0
  -27.2691  -33.3598   26.2102 H   0  0  0  0  0  0
  -28.3834  -32.6879   25.0282 H   0  0  0  0  0  0
  -28.0745  -31.8401   26.5357 H   0  0  0  0  0  0
  -28.2616  -38.0101   24.7506 H   0  0  0  0  0  0
  -28.1063  -36.2633   24.6300 H   0  0  0  0  0  0
  -27.2302  -37.1479   25.8873 H   0  0  0  0  0  0
  -20.9291  -29.8731   21.6933 H   0  0  0  0  0  0
  -26.0192  -38.2884   24.1399 H   0  0  0  0  0  0
  -32.5770  -20.6675   21.2411 H   0  0  0  0  0  0
  -34.6085  -19.7840   20.1822 H   0  0  0  0  0  0
  -32.4366  -16.3725   18.8044 H   0  0  0  0  0  0
  -29.3140  -19.0908   21.6376 H   0  0  0  0  0  0
  -30.6801  -21.6086   20.5554 H   0  0  0  0  0  0
  -29.1260  -17.3991   20.2429 H   0  0  0  0  0  0
  -29.8671  -16.5886   18.9206 H   0  0  0  0  0  0
  -28.4733  -25.0020   23.0031 H   0  0  0  0  0  0
  -27.0845  -25.7842   22.3325 H   0  0  0  0  0  0
  -27.2448  -24.2048   20.3152 H   0  0  0  0  0  0
  -26.7876  -23.4989   21.8361 H   0  0  0  0  0  0
  -29.8752  -25.7755   21.0917 H   0  0  0  0  0  0
  -29.1362  -27.1136   21.9238 H   0  0  0  0  0  0
  -29.5668  -23.3550   20.7112 H   0  0  0  0  0  0
  -29.0507  -15.3406   21.1062 H   0  0  0  0  0  0
  1 25  1  0  0  0
  1 30  2  0  0  0
  1 85  1  0  0  0
  2  3  1  0  0  0
  2 25  1  0  0  0
  2 88  1  0  0  0
  2 89  1  0  0  0
  3  4  1  0  0  0
  3 90  1  0  0  0
  3 91  1  0  0  0
  4  5  1  0  0  0
  4 92  1  0  0  0
  4 93  1  0  0  0
  5  6  1  0  0  0
  5 26  1  0  0  0
  5 94  1  0  0  0
  6 25  1  0  0  0
  6 95  1  0  0  0
  6 96  1  0  0  0
  7  8  2  0  0  0
  7 26  1  0  0  0
  7 29  1  0  0  0
  8  9  1  0  0  0
  8 22  1  0  0  0
  9 10  1  0  0  0
  9 27  2  0  0  0
 10 11  2  0  0  0
 10 15  1  0  0  0
 11 12  1  0  0  0
 11 97  1  0  0  0
 12 13  2  0  0  0
 12 98  1  0  0  0
 13 14  1  0  0  0
 13 31  1  0  0  0
 14 15  2  0  0  0
 14 99  1  0  0  0
 15100  1  0  0  0
 16 17  2  0  0  0
 16 21  1  0  0  0
 16 31  1  0  0  0
 17 18  1  0  0  0
 17101  1  0  0  0
 18 19  2  0  0  0
 18102  1  0  0  0
 19 20  1  0  0  0
 19 24  1  0  0  0
 20 21  2  0  0  0
 20103  1  0  0  0
 21 23  1  0  0  0
 22 28  1  0  0  0
 22 32  2  0  0  0
 26 27  1  0  0  0
 28104  1  0  0  0
 28105  1  0  0  0
 29106  1  0  0  0
 29107  1  0  0  0
 33 34  1  0  0  0
 33 66  1  0  0  0
 33 70  2  0  0  0
 34 36  1  0  0  0
 34 59  1  0  0  0
 34108  1  0  0  0
 35 44  2  0  0  0
 35 45  1  0  0  0
 35 68  1  0  0  0
 36 56  1  0  0  0
 36109  1  0  0  0
 37 39  1  0  0  0
 37 47  1  0  0  0
 37 66  1  0  0  0
 37110  1  0  0  0
 38 43  2  0  0  0
 38 46  1  0  0  0
 38 47  1  0  0  0
 39 64  1  0  0  0
 39 67  2  0  0  0
 40 52  1  0  0  0
 40 53  2  0  0  0
 40 58  1  0  0  0
 41111  1  0  0  0
 41112  1  0  0  0
 41113  1  0  0  0
 41 48  1  0  0  0
 42 43  1  0  0  0
 42 66  1  0  0  0
 42114  1  0  0  0
 42115  1  0  0  0
 43 44  1  0  0  0
 44116  1  0  0  0
 45 46  2  0  0  0
 45117  1  0  0  0
 46118  1  0  0  0
 47119  1  0  0  0
 47120  1  0  0  0
 48 56  1  0  0  0
 48 65  1  0  0  0
 48121  1  0  0  0
 49 50  1  0  0  0
 49 53  1  0  0  0
 49 64  1  0  0  0
 49122  1  0  0  0
 50 51  1  0  0  0
 50123  1  0  0  0
 50124  1  0  0  0
 51 52  1  0  0  0
 51125  1  0  0  0
 51126  1  0  0  0
 52127  1  0  0  0
 52128  1  0  0  0
 53 54  1  0  0  0
 54 55  2  0  0  0
 54129  1  0  0  0
 55 57  1  0  0  0
 55130  1  0  0  0
 56 69  2  0  0  0
 57 58  2  0  0  0
 57131  1  0  0  0
 58132  1  0  0  0
 59 60  1  0  0  0
 59 61  1  0  0  0
 59 62  1  0  0  0
 60133  1  0  0  0
 60134  1  0  0  0
 60135  1  0  0  0
 61136  1  0  0  0
 61137  1  0  0  0
 61138  1  0  0  0
 62139  1  0  0  0
 62140  1  0  0  0
 62141  1  0  0  0
 63 65  1  0  0  0
 63142  1  0  0  0
 63143  1  0  0  0
 63144  1  0  0  0
 64145  1  0  0  0
 65146  1  0  0  0
 68 83  1  0  0  0
 71 72  2  0  0  0
 71 74  1  0  0  0
 71147  1  0  0  0
 72 76  1  0  0  0
 72148  1  0  0  0
 73 75  1  0  0  0
 73 76  2  0  0  0
 73149  1  0  0  0
 74 75  2  0  0  0
 74 77  1  0  0  0
 75 80  1  0  0  0
 76 87  1  0  0  0
 77 78  2  0  0  0
 77150  1  0  0  0
 78 79  1  0  0  0
 78151  1  0  0  0
 79 84  1  0  0  0
 79 86  2  0  0  0
 80 85  1  0  0  0
 80152  1  0  0  0
 80153  1  0  0  0
 81 82  1  0  0  0
 81 83  1  0  0  0
 81154  1  0  0  0
 81155  1  0  0  0
 82 84  1  0  0  0
 82156  1  0  0  0
 82157  1  0  0  0
 83158  1  0  0  0
 83159  1  0  0  0
 84160  1  0  0  0
 85161  1  0  0  0
M  ISO  4   1 100  68 101  83 101  85 100
M  END
> <chiral flag>
0

> <version>
0

> <s_m_source_file>
/data/baiqing/PycharmProjects/Reinvent-master-3.2/result/LINK_invent/BTK/process_docking_weight1_custom_product_contain_oxygen_bond_distance_aromatic_linkinvent_7_9_3/rearranged_h_0050.sdf

> <i_m_source_file_index>
94

> <r_mmod_Potential_Energy-OPLS-2005>
-132.712631225586

> <r_mmod_Stretch_Energy-OPLS-2005>
37.0406074523926

> <r_mmod_Bend_Energy-OPLS-2005>
103.008514404297

> <r_mmod_Torsional_Energy-OPLS-2005>
256.698577880859

> <r_mmod_Improper_Torsional_Energy-OPLS-2005>
10.0755195617676

> <r_mmod_Van_der_Waal_Energy-OPLS-2005>
157.907028198242

> <r_mmod_Electrostatic_Energy-OPLS-2005>
-472.19482421875

> <r_mmod_Solvation_Energy-OPLS-2005>
-240.802993774414

> <b_mmod_Minimization_Converged-OPLS-2005>
0

> <r_mmod_RMS_Derivative-OPLS-2005>
1.4706426858902

$$$$
