0
                    3D
 Structure written by MMmdl.
155164  0  0  1  0            999 V2000
  -30.6125  -14.6509   20.5026 C   0  0  0  0  0  0
  -30.4434  -12.3989   19.4540 C   0  0  0  0  0  0
  -29.5114  -12.5090   18.2255 C   0  0  0  0  0  0
  -28.0340  -12.3422   18.6359 C   0  0  0  0  0  0
  -27.6546  -13.2131   19.8627 C   0  0  2  0  0  0
  -28.6991  -13.0655   20.9928 C   0  0  0  0  0  0
  -25.2575  -13.8160   20.5678 C   0  0  0  0  0  0
  -24.1833  -13.0436   20.9182 C   0  0  0  0  0  0
  -24.6392  -11.6902   20.8733 C   0  0  0  0  0  0
  -23.9058  -10.4290   21.0403 C   0  0  0  0  0  0
  -24.3612   -9.4209   21.9184 C   0  0  0  0  0  0
  -23.6291   -8.2244   22.0755 C   0  0  0  0  0  0
  -22.4273   -8.0282   21.3546 C   0  0  0  0  0  0
  -21.9906   -9.0251   20.4647 C   0  0  0  0  0  0
  -22.7230  -10.2132   20.3054 C   0  0  0  0  0  0
  -21.6853   -6.0739   22.5284 C   0  0  0  0  0  0
  -21.4012   -6.5642   23.8218 C   0  0  0  0  0  0
  -21.3658   -5.6794   24.9180 C   0  0  0  0  0  0
  -21.6043   -4.3056   24.7228 C   0  0  0  0  0  0
  -21.8818   -3.8149   23.4347 C   0  0  0  0  0  0
  -21.9191   -4.6967   22.3405 C   0  0  0  0  0  0
  -22.7858  -13.5243   21.1842 C   0  0  0  0  0  0
  -22.1661   -4.2153   21.0981 F   0  0  0  0  0  0
  -21.5627   -3.4540   25.7739 F   0  0  0  0  0  0
  -30.0149  -13.4174   20.4333 N   0  0  0  0  0  0
  -26.2995  -12.9330   20.3307 N   0  0  0  0  0  0
  -25.9320  -11.6490   20.5744 N   0  0  0  0  0  0
  -22.0487  -12.8243   22.0396 N   0  0  0  0  0  0
  -25.4301  -15.1883   20.4094 N   0  0  0  0  0  0
  -31.7708  -14.8237   20.1104 O   0  0  0  0  0  0
  -21.6639   -6.8879   21.4244 O   0  0  0  0  0  0
  -22.3547  -14.5554   20.6694 O   0  0  0  0  0  0
  -24.6297  -31.8600   23.2043 C   0  0  0  0  0  0
  -25.9143  -32.4779   23.8364 C   0  0  1  0  0  0
  -27.2144  -27.3005   20.1112 C   0  0  0  0  0  0
  -25.5956  -33.8578   24.2291 N   0  0  0  0  0  0
  -23.4227  -30.4898   21.5465 C   0  0  2  0  0  0
  -24.8665  -28.9504   20.1081 C   0  0  0  0  0  0
  -22.7484  -29.4653   22.4903 C   0  0  0  0  0  0
  -18.0293  -28.1403   22.8488 C   0  0  0  0  0  0
  -24.1491  -36.7291   23.2633 C   0  0  0  0  0  0
  -25.9683  -30.7855   21.3793 C   0  0  0  0  0  0
  -26.0399  -29.4139   20.7170 C   0  0  0  0  0  0
  -27.2172  -28.6016   20.7103 C   0  0  0  0  0  0
  -26.0136  -26.9078   19.4676 C   0  0  0  0  0  0
  -24.8571  -27.7027   19.4747 C   0  0  0  0  0  0
  -23.6381  -29.8350   20.1589 C   0  0  0  0  0  0
  -25.4110  -36.3079   24.0330 C   0  0  1  0  0  0
  -20.5897  -28.3721   23.1262 C   0  0  2  0  0  0
  -20.6792  -26.9441   22.5398 C   0  0  0  0  0  0
  -19.5760  -26.6395   21.5214 C   0  0  0  0  0  0
  -18.1937  -26.7944   22.1625 C   0  0  0  0  0  0
  -19.1547  -28.8872   23.2878 C   0  0  0  0  0  0
  -18.9474  -30.1467   23.8905 C   0  0  0  0  0  0
  -17.6477  -30.6605   24.0570 C   0  0  0  0  0  0
  -25.9056  -34.9454   23.5105 C   0  0  0  0  0  0
  -16.5367  -29.9108   23.6333 C   0  0  0  0  0  0
  -16.7280  -28.6523   23.0356 C   0  0  0  0  0  0
  -26.4515  -31.6582   25.0733 C   0  0  0  0  0  0
  -25.3743  -31.3735   26.1455 C   0  0  0  0  0  0
  -27.0354  -30.2998   24.6199 C   0  0  0  0  0  0
  -27.6076  -32.4305   25.7510 C   0  0  0  0  0  0
  -27.5589  -37.1785   24.8454 C   0  0  0  0  0  0
  -21.4192  -29.3083   22.3652 N   0  0  0  0  0  0
  -26.4282  -37.3780   23.9430 N   0  0  0  0  0  0
  -24.6928  -31.0609   22.1002 N   0  0  0  0  0  0
  -23.4202  -28.8169   23.2968 O   0  0  0  0  0  0
  -28.3063  -26.4066   20.1739 O   0  0  0  0  0  0
  -26.5610  -34.8926   22.4661 O   0  0  0  0  0  0
  -23.5456  -32.1402   23.7363 O   0  0  0  0  0  0
  -30.8371  -19.3332   20.0983 C   0  0  0  0  0  0
  -28.6622  -19.3201   21.1083 C   0  0  0  0  0  0
  -30.9018  -17.9053   20.1893 C   0  0  0  0  0  0
  -28.7271  -17.8985   21.2018 C   0  0  0  0  0  0
  -29.7184  -20.0975   20.5577 C   0  0  0  0  0  0
  -29.8426  -17.1421   20.7512 C   0  0  0  0  0  0
  -30.2681  -23.7792   20.6293 C   0  0  0  0  0  0
  -28.9759  -23.7874   20.2810 C   0  0  0  0  0  0
  -30.7152  -22.3980   20.7772 C   0  0  0  0  0  0
  -28.5836  -22.3661   20.2034 C   0  0  0  0  0  0
  -31.2017  -24.9605   20.8301 C   0  0  0  0  0  0
  -27.9897  -24.9664   19.9477 C   0  0  0  0  0  0
  -29.6674  -21.5834   20.5011 N   0  0  0  0  0  0
  -29.7933  -15.6815   20.8873 N   0  0  0  0  0  0
  -31.8491  -22.0302   21.1094 O   0  0  0  0  0  0
  -27.4637  -21.9358   19.9020 O   0  0  0  0  0  0
  -31.4837  -12.5313   19.1528 H   0  0  0  0  0  0
  -30.3852  -11.4023   19.8951 H   0  0  0  0  0  0
  -29.7800  -11.7582   17.4812 H   0  0  0  0  0  0
  -29.6490  -13.4786   17.7439 H   0  0  0  0  0  0
  -27.8741  -11.2886   18.8685 H   0  0  0  0  0  0
  -27.3796  -12.5678   17.7930 H   0  0  0  0  0  0
  -27.6730  -14.2482   19.5208 H   0  0  0  0  0  0
  -28.7129  -12.0406   21.3670 H   0  0  0  0  0  0
  -28.4392  -13.6881   21.8498 H   0  0  0  0  0  0
  -25.2756   -9.5692   22.4759 H   0  0  0  0  0  0
  -24.0005   -7.4637   22.7472 H   0  0  0  0  0  0
  -21.0838   -8.8763   19.8949 H   0  0  0  0  0  0
  -22.3686  -10.9670   19.6162 H   0  0  0  0  0  0
  -21.2005   -7.6150   23.9726 H   0  0  0  0  0  0
  -21.1481   -6.0523   25.9084 H   0  0  0  0  0  0
  -22.0596   -2.7612   23.2848 H   0  0  0  0  0  0
  -22.4090  -11.9905   22.4795 H   0  0  0  0  0  0
  -21.1109  -13.1284   22.2589 H   0  0  0  0  0  0
  -24.6601  -15.8408   20.5076 H   0  0  0  0  0  0
  -26.2764  -15.6256   20.0677 H   0  0  0  0  0  0
  -26.7209  -32.5439   23.1108 H   0  0  0  0  0  0
  -25.0127  -33.9718   25.0453 H   0  0  0  0  0  0
  -22.7189  -31.3131   21.4072 H   0  0  0  0  0  0
  -23.3768  -35.9605   23.3248 H   0  0  0  0  0  0
  -24.3603  -36.8951   22.2059 H   0  0  0  0  0  0
  -23.7221  -37.6472   23.6675 H   0  0  0  0  0  0
  -26.1037  -31.5510   20.6137 H   0  0  0  0  0  0
  -26.8479  -30.8294   22.0101 H   0  0  0  0  0  0
  -28.1138  -28.9517   21.2027 H   0  0  0  0  0  0
  -25.9190  -25.9629   18.9562 H   0  0  0  0  0  0
  -23.9606  -27.3423   18.9887 H   0  0  0  0  0  0
  -23.7651  -30.6188   19.4109 H   0  0  0  0  0  0
  -22.7548  -29.2744   19.8472 H   0  0  0  0  0  0
  -25.1281  -36.1920   25.0818 H   0  0  0  0  0  0
  -21.0002  -28.3307   24.1379 H   0  0  0  0  0  0
  -20.5717  -26.2336   23.3604 H   0  0  0  0  0  0
  -21.6655  -26.7479   22.1178 H   0  0  0  0  0  0
  -19.6930  -25.6302   21.1258 H   0  0  0  0  0  0
  -19.6701  -27.3196   20.6736 H   0  0  0  0  0  0
  -17.4209  -26.6697   21.4026 H   0  0  0  0  0  0
  -18.0336  -26.0083   22.9019 H   0  0  0  0  0  0
  -19.7953  -30.7278   24.2280 H   0  0  0  0  0  0
  -17.5041  -31.6290   24.5167 H   0  0  0  0  0  0
  -15.5371  -30.3029   23.7651 H   0  0  0  0  0  0
  -15.8673  -28.0853   22.7073 H   0  0  0  0  0  0
  -24.5924  -30.7069   25.7794 H   0  0  0  0  0  0
  -24.8935  -32.2912   26.4855 H   0  0  0  0  0  0
  -25.8069  -30.8939   27.0244 H   0  0  0  0  0  0
  -26.2935  -29.6745   24.1219 H   0  0  0  0  0  0
  -27.4038  -29.7253   25.4711 H   0  0  0  0  0  0
  -27.8812  -30.4269   23.9436 H   0  0  0  0  0  0
  -27.2694  -33.3608   26.2081 H   0  0  0  0  0  0
  -28.3906  -32.6847   25.0354 H   0  0  0  0  0  0
  -28.0718  -31.8424   26.5437 H   0  0  0  0  0  0
  -28.2543  -38.0144   24.7578 H   0  0  0  0  0  0
  -28.1145  -36.2679   24.6165 H   0  0  0  0  0  0
  -27.2324  -37.1289   25.8856 H   0  0  0  0  0  0
  -20.9354  -29.8841   21.6904 H   0  0  0  0  0  0
  -26.0155  -38.2838   24.1484 H   0  0  0  0  0  0
  -31.6845  -19.8432   19.6611 H   0  0  0  0  0  0
  -27.7779  -19.8127   21.4882 H   0  0  0  0  0  0
  -31.7852  -17.4055   19.8179 H   0  0  0  0  0  0
  -27.8836  -17.3834   21.6403 H   0  0  0  0  0  0
  -30.6924  -25.9129   20.6967 H   0  0  0  0  0  0
  -32.0260  -24.9128   20.1182 H   0  0  0  0  0  0
  -31.6213  -24.9387   21.8360 H   0  0  0  0  0  0
  -27.0828  -24.7299   20.5078 H   0  0  0  0  0  0
  -27.7535  -24.8380   18.8907 H   0  0  0  0  0  0
  -28.9124  -15.3361   21.2361 H   0  0  0  0  0  0
  1 25  1  0  0  0
  1 30  2  0  0  0
  1 84  1  0  0  0
  2  3  1  0  0  0
  2 25  1  0  0  0
  2 87  1  0  0  0
  2 88  1  0  0  0
  3  4  1  0  0  0
  3 89  1  0  0  0
  3 90  1  0  0  0
  4  5  1  0  0  0
  4 91  1  0  0  0
  4 92  1  0  0  0
  5  6  1  0  0  0
  5 26  1  0  0  0
  5 93  1  0  0  0
  6 25  1  0  0  0
  6 94  1  0  0  0
  6 95  1  0  0  0
  7  8  2  0  0  0
  7 26  1  0  0  0
  7 29  1  0  0  0
  8  9  1  0  0  0
  8 22  1  0  0  0
  9 10  1  0  0  0
  9 27  2  0  0  0
 10 11  2  0  0  0
 10 15  1  0  0  0
 11 12  1  0  0  0
 11 96  1  0  0  0
 12 13  2  0  0  0
 12 97  1  0  0  0
 13 14  1  0  0  0
 13 31  1  0  0  0
 14 15  2  0  0  0
 14 98  1  0  0  0
 15 99  1  0  0  0
 16 17  2  0  0  0
 16 21  1  0  0  0
 16 31  1  0  0  0
 17 18  1  0  0  0
 17100  1  0  0  0
 18 19  2  0  0  0
 18101  1  0  0  0
 19 20  1  0  0  0
 19 24  1  0  0  0
 20 21  2  0  0  0
 20102  1  0  0  0
 21 23  1  0  0  0
 22 28  1  0  0  0
 22 32  2  0  0  0
 26 27  1  0  0  0
 28103  1  0  0  0
 28104  1  0  0  0
 29105  1  0  0  0
 29106  1  0  0  0
 33 34  1  0  0  0
 33 66  1  0  0  0
 33 70  2  0  0  0
 34 36  1  0  0  0
 34 59  1  0  0  0
 34107  1  0  0  0
 35 44  2  0  0  0
 35 45  1  0  0  0
 35 68  1  0  0  0
 36 56  1  0  0  0
 36108  1  0  0  0
 37 39  1  0  0  0
 37 47  1  0  0  0
 37 66  1  0  0  0
 37109  1  0  0  0
 38 43  2  0  0  0
 38 46  1  0  0  0
 38 47  1  0  0  0
 39 64  1  0  0  0
 39 67  2  0  0  0
 40 52  1  0  0  0
 40 53  2  0  0  0
 40 58  1  0  0  0
 41110  1  0  0  0
 41111  1  0  0  0
 41112  1  0  0  0
 41 48  1  0  0  0
 42 43  1  0  0  0
 42 66  1  0  0  0
 42113  1  0  0  0
 42114  1  0  0  0
 43 44  1  0  0  0
 44115  1  0  0  0
 45 46  2  0  0  0
 45116  1  0  0  0
 46117  1  0  0  0
 47118  1  0  0  0
 47119  1  0  0  0
 48 56  1  0  0  0
 48 65  1  0  0  0
 48120  1  0  0  0
 49 50  1  0  0  0
 49 53  1  0  0  0
 49 64  1  0  0  0
 49121  1  0  0  0
 50 51  1  0  0  0
 50122  1  0  0  0
 50123  1  0  0  0
 51 52  1  0  0  0
 51124  1  0  0  0
 51125  1  0  0  0
 52126  1  0  0  0
 52127  1  0  0  0
 53 54  1  0  0  0
 54 55  2  0  0  0
 54128  1  0  0  0
 55 57  1  0  0  0
 55129  1  0  0  0
 56 69  2  0  0  0
 57 58  2  0  0  0
 57130  1  0  0  0
 58131  1  0  0  0
 59 60  1  0  0  0
 59 61  1  0  0  0
 59 62  1  0  0  0
 60132  1  0  0  0
 60133  1  0  0  0
 60134  1  0  0  0
 61135  1  0  0  0
 61136  1  0  0  0
 61137  1  0  0  0
 62138  1  0  0  0
 62139  1  0  0  0
 62140  1  0  0  0
 63 65  1  0  0  0
 63141  1  0  0  0
 63142  1  0  0  0
 63143  1  0  0  0
 64144  1  0  0  0
 65145  1  0  0  0
 68 82  1  0  0  0
 71 73  2  0  0  0
 71 75  1  0  0  0
 71146  1  0  0  0
 72 74  1  0  0  0
 72 75  2  0  0  0
 72147  1  0  0  0
 73 76  1  0  0  0
 73148  1  0  0  0
 74 76  2  0  0  0
 74149  1  0  0  0
 75 83  1  0  0  0
 76 84  1  0  0  0
 77 78  2  0  0  0
 77 79  1  0  0  0
 77 81  1  0  0  0
 78 80  1  0  0  0
 78 82  1  0  0  0
 79 83  1  0  0  0
 79 85  2  0  0  0
 80 83  1  0  0  0
 80 86  2  0  0  0
 81150  1  0  0  0
 81151  1  0  0  0
 81152  1  0  0  0
 82153  1  0  0  0
 82154  1  0  0  0
 84155  1  0  0  0
M  ISO  4   1 100  68 101  82 101  84 100
M  END
> <chiral flag>
0

> <version>
0

> <s_m_source_file>
/data/baiqing/PycharmProjects/Reinvent-master-3.2/result/LINK_invent/BTK/process_docking_weight1_custom_product_contain_oxygen_bond_distance_aromatic_linkinvent_7_9_3/rearranged_h_0083.sdf

> <i_m_source_file_index>
1

> <r_mmod_Potential_Energy-OPLS-2005>
120.74308013916

> <r_mmod_Stretch_Energy-OPLS-2005>
87.6622848510742

> <r_mmod_Bend_Energy-OPLS-2005>
191.86701965332

> <r_mmod_Torsional_Energy-OPLS-2005>
229.122512817383

> <r_mmod_Improper_Torsional_Energy-OPLS-2005>
3.83277416229248

> <r_mmod_Van_der_Waal_Energy-OPLS-2005>
147.978134155273

> <r_mmod_Electrostatic_Energy-OPLS-2005>
-366.893981933594

> <r_mmod_Solvation_Energy-OPLS-2005>
-230.043518066406

> <b_mmod_Minimization_Converged-OPLS-2005>
0

> <r_mmod_RMS_Derivative-OPLS-2005>
0.836747407913208

$$$$
1
                    3D
 Structure written by MMmdl.
152161  0  0  1  0            999 V2000
  -30.6130  -14.6499   20.5056 C   0  0  0  0  0  0
  -30.4430  -12.3996   19.4520 C   0  0  0  0  0  0
  -29.5094  -12.5124   18.2252 C   0  0  0  0  0  0
  -28.0314  -12.3486   18.6349 C   0  0  0  0  0  0
  -27.6545  -13.2158   19.8655 C   0  0  2  0  0  0
  -28.6994  -13.0623   20.9935 C   0  0  0  0  0  0
  -25.2560  -13.8173   20.5692 C   0  0  0  0  0  0
  -24.1822  -13.0441   20.9192 C   0  0  0  0  0  0
  -24.6388  -11.6913   20.8747 C   0  0  0  0  0  0
  -23.9059  -10.4293   21.0407 C   0  0  0  0  0  0
  -24.3613   -9.4208   21.9180 C   0  0  0  0  0  0
  -23.6294   -8.2245   22.0746 C   0  0  0  0  0  0
  -22.4275   -8.0281   21.3541 C   0  0  0  0  0  0
  -21.9908   -9.0253   20.4641 C   0  0  0  0  0  0
  -22.7235  -10.2134   20.3052 C   0  0  0  0  0  0
  -21.6851   -6.0742   22.5285 C   0  0  0  0  0  0
  -21.4012   -6.5643   23.8220 C   0  0  0  0  0  0
  -21.3659   -5.6792   24.9181 C   0  0  0  0  0  0
  -21.6044   -4.3055   24.7226 C   0  0  0  0  0  0
  -21.8817   -3.8151   23.4345 C   0  0  0  0  0  0
  -21.9189   -4.6971   22.3406 C   0  0  0  0  0  0
  -22.7843  -13.5239   21.1856 C   0  0  0  0  0  0
  -22.1658   -4.2160   21.0981 F   0  0  0  0  0  0
  -21.5627   -3.4535   25.7735 F   0  0  0  0  0  0
  -30.0156  -13.4158   20.4357 N   0  0  0  0  0  0
  -26.2993  -12.9352   20.3326 N   0  0  0  0  0  0
  -25.9315  -11.6509   20.5756 N   0  0  0  0  0  0
  -22.0474  -12.8239   22.0411 N   0  0  0  0  0  0
  -25.4279  -15.1896   20.4115 N   0  0  0  0  0  0
  -31.7676  -14.8244   20.1043 O   0  0  0  0  0  0
  -21.6637   -6.8882   21.4244 O   0  0  0  0  0  0
  -22.3534  -14.5552   20.6710 O   0  0  0  0  0  0
  -24.6299  -31.8600   23.2056 C   0  0  0  0  0  0
  -25.9146  -32.4778   23.8379 C   0  0  1  0  0  0
  -27.2169  -27.2994   20.1109 C   0  0  0  0  0  0
  -25.5966  -33.8578   24.2312 N   0  0  0  0  0  0
  -23.4252  -30.4906   21.5456 C   0  0  2  0  0  0
  -24.8710  -28.9531   20.1073 C   0  0  0  0  0  0
  -22.7501  -29.4653   22.4886 C   0  0  0  0  0  0
  -18.0307  -28.1400   22.8487 C   0  0  0  0  0  0
  -24.1493  -36.7275   23.2635 C   0  0  0  0  0  0
  -25.9716  -30.7843   21.3838 C   0  0  0  0  0  0
  -26.0433  -29.4129   20.7207 C   0  0  0  0  0  0
  -27.2191  -28.5977   20.7168 C   0  0  0  0  0  0
  -26.0185  -26.9159   19.4563 C   0  0  0  0  0  0
  -24.8621  -27.7106   19.4652 C   0  0  0  0  0  0
  -23.6434  -29.8375   20.1575 C   0  0  0  0  0  0
  -25.4111  -36.3077   24.0341 C   0  0  1  0  0  0
  -20.5913  -28.3725   23.1253 C   0  0  2  0  0  0
  -20.6803  -26.9442   22.5393 C   0  0  0  0  0  0
  -19.5776  -26.6394   21.5210 C   0  0  0  0  0  0
  -18.1956  -26.7946   22.1622 C   0  0  0  0  0  0
  -19.1558  -28.8874   23.2873 C   0  0  0  0  0  0
  -18.9480  -30.1468   23.8903 C   0  0  0  0  0  0
  -17.6479  -30.6598   24.0574 C   0  0  0  0  0  0
  -25.9054  -34.9449   23.5116 C   0  0  0  0  0  0
  -16.5370  -29.9101   23.6331 C   0  0  0  0  0  0
  -16.7292  -28.6518   23.0353 C   0  0  0  0  0  0
  -26.4522  -31.6571   25.0735 C   0  0  0  0  0  0
  -25.3753  -31.3714   26.1456 C   0  0  0  0  0  0
  -27.0354  -30.2991   24.6186 C   0  0  0  0  0  0
  -27.6108  -32.4273   25.7488 C   0  0  0  0  0  0
  -27.5590  -37.1785   24.8463 C   0  0  0  0  0  0
  -21.4209  -29.3078   22.3633 N   0  0  0  0  0  0
  -26.4282  -37.3780   23.9433 N   0  0  0  0  0  0
  -24.6945  -31.0610   22.1017 N   0  0  0  0  0  0
  -23.4217  -28.8171   23.2956 O   0  0  0  0  0  0
  -28.3037  -26.3973   20.1762 O   0  0  0  0  0  0
  -26.5598  -34.8920   22.4667 O   0  0  0  0  0  0
  -23.5451  -32.1401   23.7367 O   0  0  0  0  0  0
  -30.8040  -19.3318   20.0734 C   0  0  0  0  0  0
  -28.6562  -19.3138   21.1394 C   0  0  0  0  0  0
  -30.8774  -17.9043   20.1691 C   0  0  0  0  0  0
  -28.7304  -17.8927   21.2391 C   0  0  0  0  0  0
  -29.6951  -20.0937   20.5589 C   0  0  0  0  0  0
  -29.8379  -17.1388   20.7641 C   0  0  0  0  0  0
  -30.2284  -23.7745   20.6108 C   0  0  0  0  0  0
  -28.9380  -23.7751   20.2762 C   0  0  0  0  0  0
  -30.6865  -22.4012   20.7552 C   0  0  0  0  0  0
  -28.5469  -22.3545   20.2089 C   0  0  0  0  0  0
  -27.9677  -24.9628   19.9418 C   0  0  0  0  0  0
  -29.6382  -21.5789   20.4974 N   0  0  0  0  0  0
  -29.7994  -15.6782   20.9094 N   0  0  0  0  0  0
  -31.8284  -22.0433   21.0673 O   0  0  0  0  0  0
  -27.4252  -21.9192   19.9225 O   0  0  0  0  0  0
  -31.4822  -12.5350   19.1474 H   0  0  0  0  0  0
  -30.3891  -11.4014   19.8893 H   0  0  0  0  0  0
  -29.7753  -11.7617   17.4796 H   0  0  0  0  0  0
  -29.6485  -13.4822   17.7448 H   0  0  0  0  0  0
  -27.8665  -11.2947   18.8608 H   0  0  0  0  0  0
  -27.3787  -12.5830   17.7931 H   0  0  0  0  0  0
  -27.6733  -14.2527   19.5298 H   0  0  0  0  0  0
  -28.7115  -12.0355   21.3621 H   0  0  0  0  0  0
  -28.4402  -13.6796   21.8545 H   0  0  0  0  0  0
  -25.2757   -9.5691   22.4757 H   0  0  0  0  0  0
  -24.0006   -7.4632   22.7459 H   0  0  0  0  0  0
  -21.0843   -8.8774   19.8942 H   0  0  0  0  0  0
  -22.3695  -10.9677   19.6166 H   0  0  0  0  0  0
  -21.2005   -7.6150   23.9733 H   0  0  0  0  0  0
  -21.1482   -6.0516   25.9086 H   0  0  0  0  0  0
  -22.0596   -2.7615   23.2838 H   0  0  0  0  0  0
  -22.4080  -11.9901   22.4815 H   0  0  0  0  0  0
  -21.1093  -13.1270   22.2603 H   0  0  0  0  0  0
  -24.6589  -15.8430   20.5148 H   0  0  0  0  0  0
  -26.2767  -15.6301   20.0809 H   0  0  0  0  0  0
  -26.7212  -32.5449   23.1125 H   0  0  0  0  0  0
  -25.0184  -33.9726   25.0507 H   0  0  0  0  0  0
  -22.7216  -31.3136   21.4046 H   0  0  0  0  0  0
  -23.3779  -35.9580   23.3250 H   0  0  0  0  0  0
  -24.3615  -36.8922   22.2061 H   0  0  0  0  0  0
  -23.7201  -37.6452   23.6666 H   0  0  0  0  0  0
  -26.1093  -31.5509   20.6201 H   0  0  0  0  0  0
  -26.8501  -30.8279   22.0155 H   0  0  0  0  0  0
  -28.1127  -28.9422   21.2188 H   0  0  0  0  0  0
  -25.9243  -25.9789   18.9308 H   0  0  0  0  0  0
  -23.9681  -27.3581   18.9691 H   0  0  0  0  0  0
  -23.7744  -30.6211   19.4100 H   0  0  0  0  0  0
  -22.7618  -29.2758   19.8437 H   0  0  0  0  0  0
  -25.1278  -36.1923   25.0830 H   0  0  0  0  0  0
  -21.0020  -28.3312   24.1368 H   0  0  0  0  0  0
  -20.5731  -26.2340   23.3602 H   0  0  0  0  0  0
  -21.6670  -26.7488   22.1168 H   0  0  0  0  0  0
  -19.6949  -25.6301   21.1252 H   0  0  0  0  0  0
  -19.6716  -27.3196   20.6736 H   0  0  0  0  0  0
  -17.4229  -26.6701   21.4017 H   0  0  0  0  0  0
  -18.0356  -26.0081   22.9012 H   0  0  0  0  0  0
  -19.7955  -30.7281   24.2277 H   0  0  0  0  0  0
  -17.5039  -31.6280   24.5172 H   0  0  0  0  0  0
  -15.5375  -30.3015   23.7647 H   0  0  0  0  0  0
  -15.8693  -28.0841   22.7063 H   0  0  0  0  0  0
  -24.5963  -30.7019   25.7789 H   0  0  0  0  0  0
  -24.8907  -32.2876   26.4839 H   0  0  0  0  0  0
  -25.8079  -30.8936   27.0253 H   0  0  0  0  0  0
  -26.2926  -29.6729   24.1230 H   0  0  0  0  0  0
  -27.4076  -29.7247   25.4678 H   0  0  0  0  0  0
  -27.8791  -30.4267   23.9402 H   0  0  0  0  0  0
  -27.2779  -33.3604   26.2041 H   0  0  0  0  0  0
  -28.3942  -32.6756   25.0315 H   0  0  0  0  0  0
  -28.0746  -31.8389   26.5413 H   0  0  0  0  0  0
  -28.2557  -38.0132   24.7572 H   0  0  0  0  0  0
  -28.1130  -36.2664   24.6189 H   0  0  0  0  0  0
  -27.2328  -37.1311   25.8868 H   0  0  0  0  0  0
  -20.9380  -29.8822   21.6862 H   0  0  0  0  0  0
  -26.0155  -38.2838   24.1486 H   0  0  0  0  0  0
  -31.6365  -19.8435   19.6110 H   0  0  0  0  0  0
  -27.7791  -19.8035   21.5391 H   0  0  0  0  0  0
  -31.7534  -17.4080   19.7761 H   0  0  0  0  0  0
  -27.9011  -17.3765   21.7024 H   0  0  0  0  0  0
  -30.8483  -24.6484   20.7322 H   0  0  0  0  0  0
  -27.0538  -24.7343   20.4940 H   0  0  0  0  0  0
  -27.7419  -24.8423   18.8815 H   0  0  0  0  0  0
  -28.9289  -15.3308   21.2808 H   0  0  0  0  0  0
  1 25  1  0  0  0
  1 30  2  0  0  0
  1 83  1  0  0  0
  2  3  1  0  0  0
  2 25  1  0  0  0
  2 86  1  0  0  0
  2 87  1  0  0  0
  3  4  1  0  0  0
  3 88  1  0  0  0
  3 89  1  0  0  0
  4  5  1  0  0  0
  4 90  1  0  0  0
  4 91  1  0  0  0
  5  6  1  0  0  0
  5 26  1  0  0  0
  5 92  1  0  0  0
  6 25  1  0  0  0
  6 93  1  0  0  0
  6 94  1  0  0  0
  7  8  2  0  0  0
  7 26  1  0  0  0
  7 29  1  0  0  0
  8  9  1  0  0  0
  8 22  1  0  0  0
  9 10  1  0  0  0
  9 27  2  0  0  0
 10 11  2  0  0  0
 10 15  1  0  0  0
 11 12  1  0  0  0
 11 95  1  0  0  0
 12 13  2  0  0  0
 12 96  1  0  0  0
 13 14  1  0  0  0
 13 31  1  0  0  0
 14 15  2  0  0  0
 14 97  1  0  0  0
 15 98  1  0  0  0
 16 17  2  0  0  0
 16 21  1  0  0  0
 16 31  1  0  0  0
 17 18  1  0  0  0
 17 99  1  0  0  0
 18 19  2  0  0  0
 18100  1  0  0  0
 19 20  1  0  0  0
 19 24  1  0  0  0
 20 21  2  0  0  0
 20101  1  0  0  0
 21 23  1  0  0  0
 22 28  1  0  0  0
 22 32  2  0  0  0
 26 27  1  0  0  0
 28102  1  0  0  0
 28103  1  0  0  0
 29104  1  0  0  0
 29105  1  0  0  0
 33 34  1  0  0  0
 33 66  1  0  0  0
 33 70  2  0  0  0
 34 36  1  0  0  0
 34 59  1  0  0  0
 34106  1  0  0  0
 35 44  2  0  0  0
 35 45  1  0  0  0
 35 68  1  0  0  0
 36 56  1  0  0  0
 36107  1  0  0  0
 37 39  1  0  0  0
 37 47  1  0  0  0
 37 66  1  0  0  0
 37108  1  0  0  0
 38 43  2  0  0  0
 38 46  1  0  0  0
 38 47  1  0  0  0
 39 64  1  0  0  0
 39 67  2  0  0  0
 40 52  1  0  0  0
 40 53  2  0  0  0
 40 58  1  0  0  0
 41109  1  0  0  0
 41110  1  0  0  0
 41111  1  0  0  0
 41 48  1  0  0  0
 42 43  1  0  0  0
 42 66  1  0  0  0
 42112  1  0  0  0
 42113  1  0  0  0
 43 44  1  0  0  0
 44114  1  0  0  0
 45 46  2  0  0  0
 45115  1  0  0  0
 46116  1  0  0  0
 47117  1  0  0  0
 47118  1  0  0  0
 48 56  1  0  0  0
 48 65  1  0  0  0
 48119  1  0  0  0
 49 50  1  0  0  0
 49 53  1  0  0  0
 49 64  1  0  0  0
 49120  1  0  0  0
 50 51  1  0  0  0
 50121  1  0  0  0
 50122  1  0  0  0
 51 52  1  0  0  0
 51123  1  0  0  0
 51124  1  0  0  0
 52125  1  0  0  0
 52126  1  0  0  0
 53 54  1  0  0  0
 54 55  2  0  0  0
 54127  1  0  0  0
 55 57  1  0  0  0
 55128  1  0  0  0
 56 69  2  0  0  0
 57 58  2  0  0  0
 57129  1  0  0  0
 58130  1  0  0  0
 59 60  1  0  0  0
 59 61  1  0  0  0
 59 62  1  0  0  0
 60131  1  0  0  0
 60132  1  0  0  0
 60133  1  0  0  0
 61134  1  0  0  0
 61135  1  0  0  0
 61136  1  0  0  0
 62137  1  0  0  0
 62138  1  0  0  0
 62139  1  0  0  0
 63 65  1  0  0  0
 63140  1  0  0  0
 63141  1  0  0  0
 63142  1  0  0  0
 64143  1  0  0  0
 65144  1  0  0  0
 68 81  1  0  0  0
 71 73  2  0  0  0
 71 75  1  0  0  0
 71145  1  0  0  0
 72 74  1  0  0  0
 72 75  2  0  0  0
 72146  1  0  0  0
 73 76  1  0  0  0
 73147  1  0  0  0
 74 76  2  0  0  0
 74148  1  0  0  0
 75 82  1  0  0  0
 76 83  1  0  0  0
 77 78  2  0  0  0
 77 79  1  0  0  0
 77149  1  0  0  0
 78 80  1  0  0  0
 78 81  1  0  0  0
 79 82  1  0  0  0
 79 84  2  0  0  0
 80 82  1  0  0  0
 80 85  2  0  0  0
 81150  1  0  0  0
 81151  1  0  0  0
 83152  1  0  0  0
M  ISO  4   1 100  68 101  81 101  83 100
M  END
> <chiral flag>
0

> <version>
0

> <s_m_source_file>
/data/baiqing/PycharmProjects/Reinvent-master-3.2/result/LINK_invent/BTK/process_docking_weight1_custom_product_contain_oxygen_bond_distance_aromatic_linkinvent_7_9_3/rearranged_h_0083.sdf

> <i_m_source_file_index>
2

> <r_mmod_Potential_Energy-OPLS-2005>
82.7786254882812

> <r_mmod_Stretch_Energy-OPLS-2005>
87.6945190429688

> <r_mmod_Bend_Energy-OPLS-2005>
189.800857543945

> <r_mmod_Torsional_Energy-OPLS-2005>
235.467269897461

> <r_mmod_Improper_Torsional_Energy-OPLS-2005>
3.68464469909668

> <r_mmod_Van_der_Waal_Energy-OPLS-2005>
148.999633789062

> <r_mmod_Electrostatic_Energy-OPLS-2005>
-403.608795166016

> <r_mmod_Solvation_Energy-OPLS-2005>
-237.189315795898

> <b_mmod_Minimization_Converged-OPLS-2005>
0

> <r_mmod_RMS_Derivative-OPLS-2005>
1.06836152076721

$$$$
2
                    3D
 Structure written by MMmdl.
157166  0  0  1  0            999 V2000
  -30.5975  -14.7726   20.4588 C   0  0  0  0  0  0
  -30.4365  -12.4786   19.4598 C   0  0  0  0  0  0
  -29.5061  -12.5027   18.2276 C   0  0  0  0  0  0
  -28.0347  -12.3215   18.6499 C   0  0  0  0  0  0
  -27.6364  -13.2308   19.8428 C   0  0  2  0  0  0
  -28.6858  -13.1824   20.9733 C   0  0  0  0  0  0
  -25.2487  -13.8187   20.5698 C   0  0  0  0  0  0
  -24.1793  -13.0427   20.9227 C   0  0  0  0  0  0
  -24.6389  -11.6910   20.8763 C   0  0  0  0  0  0
  -23.9070  -10.4287   21.0418 C   0  0  0  0  0  0
  -24.3616   -9.4197   21.9191 C   0  0  0  0  0  0
  -23.6289   -8.2232   22.0751 C   0  0  0  0  0  0
  -22.4270   -8.0277   21.3542 C   0  0  0  0  0  0
  -21.9906   -9.0256   20.4649 C   0  0  0  0  0  0
  -22.7242  -10.2135   20.3066 C   0  0  0  0  0  0
  -21.6848   -6.0736   22.5284 C   0  0  0  0  0  0
  -21.4015   -6.5639   23.8220 C   0  0  0  0  0  0
  -21.3657   -5.6791   24.9181 C   0  0  0  0  0  0
  -21.6040   -4.3054   24.7230 C   0  0  0  0  0  0
  -21.8817   -3.8149   23.4350 C   0  0  0  0  0  0
  -21.9188   -4.6965   22.3408 C   0  0  0  0  0  0
  -22.7814  -13.5208   21.1883 C   0  0  0  0  0  0
  -22.1656   -4.2150   21.0986 F   0  0  0  0  0  0
  -21.5622   -3.4536   25.7742 F   0  0  0  0  0  0
  -29.9764  -13.5457   20.3771 N   0  0  0  0  0  0
  -26.2910  -12.9394   20.3263 N   0  0  0  0  0  0
  -25.9315  -11.6536   20.5755 N   0  0  0  0  0  0
  -22.0454  -12.8212   22.0445 N   0  0  0  0  0  0
  -25.4125  -15.1916   20.4102 N   0  0  0  0  0  0
  -31.8037  -14.8586   20.2121 O   0  0  0  0  0  0
  -21.6629   -6.8878   21.4245 O   0  0  0  0  0  0
  -22.3506  -14.5516   20.6728 O   0  0  0  0  0  0
  -24.6314  -31.8548   23.1955 C   0  0  0  0  0  0
  -25.9138  -32.4752   23.8305 C   0  0  1  0  0  0
  -27.2219  -27.2573   20.1430 C   0  0  0  0  0  0
  -25.5930  -33.8551   24.2237 N   0  0  0  0  0  0
  -23.4287  -30.4751   21.5388 C   0  0  2  0  0  0
  -24.8776  -28.9149   20.1141 C   0  0  0  0  0  0
  -22.7501  -29.4602   22.4905 C   0  0  0  0  0  0
  -18.0298  -28.1394   22.8487 C   0  0  0  0  0  0
  -24.1492  -36.7284   23.2635 C   0  0  0  0  0  0
  -25.9733  -30.7691   21.3730 C   0  0  0  0  0  0
  -26.0491  -29.3878   20.7210 C   0  0  0  0  0  0
  -27.2281  -28.5738   20.7175 C   0  0  0  0  0  0
  -26.0299  -26.8461   19.5139 C   0  0  0  0  0  0
  -24.8731  -27.6525   19.4978 C   0  0  0  0  0  0
  -23.6480  -29.8030   20.1571 C   0  0  0  0  0  0
  -25.4117  -36.3063   24.0320 C   0  0  1  0  0  0
  -20.5899  -28.3709   23.1271 C   0  0  2  0  0  0
  -20.6784  -26.9424   22.5411 C   0  0  0  0  0  0
  -19.5759  -26.6384   21.5218 C   0  0  0  0  0  0
  -18.1937  -26.7931   22.1630 C   0  0  0  0  0  0
  -19.1547  -28.8869   23.2874 C   0  0  0  0  0  0
  -18.9466  -30.1465   23.8900 C   0  0  0  0  0  0
  -17.6463  -30.6591   24.0565 C   0  0  0  0  0  0
  -25.9059  -34.9439   23.5080 C   0  0  0  0  0  0
  -16.5358  -29.9089   23.6328 C   0  0  0  0  0  0
  -16.7280  -28.6505   23.0351 C   0  0  0  0  0  0
  -26.4496  -31.6572   25.0696 C   0  0  0  0  0  0
  -25.3711  -31.3746   26.1410 C   0  0  0  0  0  0
  -27.0336  -30.2980   24.6191 C   0  0  0  0  0  0
  -27.6038  -32.4312   25.7493 C   0  0  0  0  0  0
  -27.5582  -37.1796   24.8457 C   0  0  0  0  0  0
  -21.4206  -29.3050   22.3650 N   0  0  0  0  0  0
  -26.4289  -37.3764   23.9408 N   0  0  0  0  0  0
  -24.6971  -31.0513   22.0927 N   0  0  0  0  0  0
  -23.4194  -28.8156   23.3018 O   0  0  0  0  0  0
  -28.3144  -26.3621   20.1439 O   0  0  0  0  0  0
  -26.5629  -34.8916   22.4650 O   0  0  0  0  0  0
  -23.5463  -32.1367   23.7251 O   0  0  0  0  0  0
  -31.4259  -18.9210   22.1750 C   0  0  0  0  0  0
  -30.7247  -20.0344   21.6691 C   0  0  0  0  0  0
  -31.1359  -17.6060   21.7587 C   0  0  0  0  0  0
  -29.4041  -18.5145   20.3104 C   0  0  0  0  0  0
  -29.6931  -19.8972   20.7108 C   0  0  0  0  0  0
  -30.1132  -17.3392   20.8236 C   0  0  0  0  0  0
  -28.6286  -23.6248   18.7055 C   0  0  0  0  0  0
  -28.5530  -23.6503   20.0487 C   0  0  0  0  0  0
  -28.8647  -22.4099   17.9563 C   0  0  0  0  0  0
  -28.8367  -22.3584   20.8118 C   0  0  0  0  0  0
  -29.0728  -22.4734   16.6319 C   0  0  0  0  0  0
  -28.8316  -21.0724   18.6794 C   0  0  0  0  0  0
  -28.1486  -25.0097   20.7898 C   0  0  0  0  0  0
  -29.1017  -21.1524   20.1238 N   0  0  0  0  0  0
  -29.7957  -15.9136   20.5215 N   0  0  0  0  0  0
  -28.8259  -22.3613   22.0469 O   0  0  0  0  0  0
  -31.4730  -12.6218   19.1486 H   0  0  0  0  0  0
  -30.4005  -11.5077   19.9563 H   0  0  0  0  0  0
  -29.7915  -11.7203   17.5227 H   0  0  0  0  0  0
  -29.6203  -13.4498   17.6972 H   0  0  0  0  0  0
  -27.9010  -11.2750   18.9263 H   0  0  0  0  0  0
  -27.3716  -12.4980   17.8021 H   0  0  0  0  0  0
  -27.6220  -14.2473   19.4500 H   0  0  0  0  0  0
  -28.7351  -12.1886   21.4210 H   0  0  0  0  0  0
  -28.4207  -13.8702   21.7785 H   0  0  0  0  0  0
  -25.2757   -9.5664   22.4771 H   0  0  0  0  0  0
  -23.9991   -7.4615   22.7470 H   0  0  0  0  0  0
  -21.0829   -8.8792   19.8957 H   0  0  0  0  0  0
  -22.3703  -10.9682   19.6182 H   0  0  0  0  0  0
  -21.2020   -7.6149   23.9728 H   0  0  0  0  0  0
  -21.1471   -6.0520   25.9085 H   0  0  0  0  0  0
  -22.0597   -2.7609   23.2854 H   0  0  0  0  0  0
  -22.4062  -11.9877   22.4844 H   0  0  0  0  0  0
  -21.1074  -13.1251   22.2644 H   0  0  0  0  0  0
  -24.6363  -15.8349   20.5246 H   0  0  0  0  0  0
  -26.2448  -15.6398   20.0510 H   0  0  0  0  0  0
  -26.7214  -32.5408   23.1056 H   0  0  0  0  0  0
  -25.0070  -33.9679   25.0379 H   0  0  0  0  0  0
  -22.7249  -31.2965   21.3887 H   0  0  0  0  0  0
  -23.3752  -35.9619   23.3288 H   0  0  0  0  0  0
  -24.3583  -36.8916   22.2051 H   0  0  0  0  0  0
  -23.7250  -37.6485   23.6667 H   0  0  0  0  0  0
  -26.1057  -31.5284   20.6006 H   0  0  0  0  0  0
  -26.8525  -30.8245   22.0031 H   0  0  0  0  0  0
  -28.1294  -28.9346   21.1931 H   0  0  0  0  0  0
  -25.9893  -25.8754   19.0399 H   0  0  0  0  0  0
  -23.9765  -27.2855   19.0170 H   0  0  0  0  0  0
  -23.7726  -30.5755   19.3972 H   0  0  0  0  0  0
  -22.7671  -29.2339   19.8542 H   0  0  0  0  0  0
  -25.1302  -36.1901   25.0812 H   0  0  0  0  0  0
  -20.9998  -28.3296   24.1390 H   0  0  0  0  0  0
  -20.5690  -26.2321   23.3620 H   0  0  0  0  0  0
  -21.6651  -26.7445   22.1207 H   0  0  0  0  0  0
  -19.6918  -25.6291   21.1257 H   0  0  0  0  0  0
  -19.6696  -27.3191   20.6745 H   0  0  0  0  0  0
  -17.4206  -26.6678   21.4028 H   0  0  0  0  0  0
  -18.0337  -26.0075   22.9031 H   0  0  0  0  0  0
  -19.7940  -30.7279   24.2267 H   0  0  0  0  0  0
  -17.5019  -31.6272   24.5167 H   0  0  0  0  0  0
  -15.5358  -30.2996   23.7646 H   0  0  0  0  0  0
  -15.8680  -28.0825   22.7067 H   0  0  0  0  0  0
  -24.5915  -30.7052   25.7757 H   0  0  0  0  0  0
  -24.8868  -32.2925   26.4753 H   0  0  0  0  0  0
  -25.8021  -30.9000   27.0233 H   0  0  0  0  0  0
  -26.2924  -29.6742   24.1181 H   0  0  0  0  0  0
  -27.3966  -29.7223   25.4716 H   0  0  0  0  0  0
  -27.8820  -30.4230   23.9461 H   0  0  0  0  0  0
  -27.2634  -33.3620   26.2040 H   0  0  0  0  0  0
  -28.3884  -32.6855   25.0357 H   0  0  0  0  0  0
  -28.0667  -31.8453   26.5445 H   0  0  0  0  0  0
  -28.2578  -38.0113   24.7520 H   0  0  0  0  0  0
  -28.1096  -36.2642   24.6261 H   0  0  0  0  0  0
  -27.2300  -37.1421   25.8858 H   0  0  0  0  0  0
  -20.9386  -29.8768   21.6855 H   0  0  0  0  0  0
  -26.0162  -38.2832   24.1417 H   0  0  0  0  0  0
  -32.2137  -19.0813   22.8976 H   0  0  0  0  0  0
  -31.0276  -21.0158   22.0078 H   0  0  0  0  0  0
  -31.7021  -16.7947   22.1941 H   0  0  0  0  0  0
  -28.6208  -18.3521   19.5838 H   0  0  0  0  0  0
  -28.4353  -24.5421   18.1661 H   0  0  0  0  0  0
  -29.0855  -23.4168   16.1034 H   0  0  0  0  0  0
  -29.2339  -21.5790   16.0462 H   0  0  0  0  0  0
  -29.5648  -20.4113   18.2139 H   0  0  0  0  0  0
  -27.8517  -20.6174   18.5308 H   0  0  0  0  0  0
  -28.7400  -25.0555   21.7046 H   0  0  0  0  0  0
  -27.1193  -24.8910   21.1305 H   0  0  0  0  0  0
  -28.8141  -15.7188   20.4052 H   0  0  0  0  0  0
  1 25  1  0  0  0
  1 30  2  0  0  0
  1 85  1  0  0  0
  2  3  1  0  0  0
  2 25  1  0  0  0
  2 87  1  0  0  0
  2 88  1  0  0  0
  3  4  1  0  0  0
  3 89  1  0  0  0
  3 90  1  0  0  0
  4  5  1  0  0  0
  4 91  1  0  0  0
  4 92  1  0  0  0
  5  6  1  0  0  0
  5 26  1  0  0  0
  5 93  1  0  0  0
  6 25  1  0  0  0
  6 94  1  0  0  0
  6 95  1  0  0  0
  7  8  2  0  0  0
  7 26  1  0  0  0
  7 29  1  0  0  0
  8  9  1  0  0  0
  8 22  1  0  0  0
  9 10  1  0  0  0
  9 27  2  0  0  0
 10 11  2  0  0  0
 10 15  1  0  0  0
 11 12  1  0  0  0
 11 96  1  0  0  0
 12 13  2  0  0  0
 12 97  1  0  0  0
 13 14  1  0  0  0
 13 31  1  0  0  0
 14 15  2  0  0  0
 14 98  1  0  0  0
 15 99  1  0  0  0
 16 17  2  0  0  0
 16 21  1  0  0  0
 16 31  1  0  0  0
 17 18  1  0  0  0
 17100  1  0  0  0
 18 19  2  0  0  0
 18101  1  0  0  0
 19 20  1  0  0  0
 19 24  1  0  0  0
 20 21  2  0  0  0
 20102  1  0  0  0
 21 23  1  0  0  0
 22 28  1  0  0  0
 22 32  2  0  0  0
 26 27  1  0  0  0
 28103  1  0  0  0
 28104  1  0  0  0
 29105  1  0  0  0
 29106  1  0  0  0
 33 34  1  0  0  0
 33 66  1  0  0  0
 33 70  2  0  0  0
 34 36  1  0  0  0
 34 59  1  0  0  0
 34107  1  0  0  0
 35 44  2  0  0  0
 35 45  1  0  0  0
 35 68  1  0  0  0
 36 56  1  0  0  0
 36108  1  0  0  0
 37 39  1  0  0  0
 37 47  1  0  0  0
 37 66  1  0  0  0
 37109  1  0  0  0
 38 43  2  0  0  0
 38 46  1  0  0  0
 38 47  1  0  0  0
 39 64  1  0  0  0
 39 67  2  0  0  0
 40 52  1  0  0  0
 40 53  2  0  0  0
 40 58  1  0  0  0
 41110  1  0  0  0
 41111  1  0  0  0
 41112  1  0  0  0
 41 48  1  0  0  0
 42 43  1  0  0  0
 42 66  1  0  0  0
 42113  1  0  0  0
 42114  1  0  0  0
 43 44  1  0  0  0
 44115  1  0  0  0
 45 46  2  0  0  0
 45116  1  0  0  0
 46117  1  0  0  0
 47118  1  0  0  0
 47119  1  0  0  0
 48 56  1  0  0  0
 48 65  1  0  0  0
 48120  1  0  0  0
 49 50  1  0  0  0
 49 53  1  0  0  0
 49 64  1  0  0  0
 49121  1  0  0  0
 50 51  1  0  0  0
 50122  1  0  0  0
 50123  1  0  0  0
 51 52  1  0  0  0
 51124  1  0  0  0
 51125  1  0  0  0
 52126  1  0  0  0
 52127  1  0  0  0
 53 54  1  0  0  0
 54 55  2  0  0  0
 54128  1  0  0  0
 55 57  1  0  0  0
 55129  1  0  0  0
 56 69  2  0  0  0
 57 58  2  0  0  0
 57130  1  0  0  0
 58131  1  0  0  0
 59 60  1  0  0  0
 59 61  1  0  0  0
 59 62  1  0  0  0
 60132  1  0  0  0
 60133  1  0  0  0
 60134  1  0  0  0
 61135  1  0  0  0
 61136  1  0  0  0
 61137  1  0  0  0
 62138  1  0  0  0
 62139  1  0  0  0
 62140  1  0  0  0
 63 65  1  0  0  0
 63141  1  0  0  0
 63142  1  0  0  0
 63143  1  0  0  0
 64144  1  0  0  0
 65145  1  0  0  0
 68 83  1  0  0  0
 71 72  2  0  0  0
 71 73  1  0  0  0
 71146  1  0  0  0
 72 75  1  0  0  0
 72147  1  0  0  0
 73 76  2  0  0  0
 73148  1  0  0  0
 74 75  2  0  0  0
 74 76  1  0  0  0
 74149  1  0  0  0
 75 84  1  0  0  0
 76 85  1  0  0  0
 77 78  2  0  0  0
 77 79  1  0  0  0
 77150  1  0  0  0
 78 80  1  0  0  0
 78 83  1  0  0  0
 79 81  2  0  0  0
 79 82  1  0  0  0
 80 84  1  0  0  0
 80 86  2  0  0  0
 81151  1  0  0  0
 81152  1  0  0  0
 82 84  1  0  0  0
 82153  1  0  0  0
 82154  1  0  0  0
 83155  1  0  0  0
 83156  1  0  0  0
 85157  1  0  0  0
M  ISO  4   1 100  68 101  83 101  85 100
M  END
> <chiral flag>
0

> <version>
0

> <s_m_source_file>
/data/baiqing/PycharmProjects/Reinvent-master-3.2/result/LINK_invent/BTK/process_docking_weight1_custom_product_contain_oxygen_bond_distance_aromatic_linkinvent_7_9_3/rearranged_h_0083.sdf

> <i_m_source_file_index>
3

> <r_mmod_Potential_Energy-OPLS-2005>
292.588226318359

> <r_mmod_Stretch_Energy-OPLS-2005>
144.997940063477

> <r_mmod_Bend_Energy-OPLS-2005>
165.083953857422

> <r_mmod_Torsional_Energy-OPLS-2005>
286.022766113281

> <r_mmod_Improper_Torsional_Energy-OPLS-2005>
7.82428312301636

> <r_mmod_Van_der_Waal_Energy-OPLS-2005>
151.640197753906

> <r_mmod_Electrostatic_Energy-OPLS-2005>
-341.763519287109

> <r_mmod_Solvation_Energy-OPLS-2005>
-215.587707519531

> <b_mmod_Minimization_Converged-OPLS-2005>
0

> <r_mmod_RMS_Derivative-OPLS-2005>
1.15496456623077

$$$$
3
                    3D
 Structure written by MMmdl.
155163  0  0  1  0            999 V2000
  -30.6949  -14.5297   20.5533 C   0  0  0  0  0  0
  -30.4196  -12.3372   19.4468 C   0  0  0  0  0  0
  -29.4992  -12.5062   18.2199 C   0  0  0  0  0  0
  -28.0219  -12.3560   18.6284 C   0  0  0  0  0  0
  -27.6559  -13.2152   19.8688 C   0  0  2  0  0  0
  -28.6949  -13.0425   21.0001 C   0  0  0  0  0  0
  -25.2565  -13.8171   20.5682 C   0  0  0  0  0  0
  -24.1829  -13.0438   20.9181 C   0  0  0  0  0  0
  -24.6387  -11.6902   20.8722 C   0  0  0  0  0  0
  -23.9058  -10.4288   21.0400 C   0  0  0  0  0  0
  -24.3614   -9.4205   21.9178 C   0  0  0  0  0  0
  -23.6293   -8.2240   22.0746 C   0  0  0  0  0  0
  -22.4271   -8.0276   21.3541 C   0  0  0  0  0  0
  -21.9907   -9.0244   20.4633 C   0  0  0  0  0  0
  -22.7233  -10.2126   20.3044 C   0  0  0  0  0  0
  -21.6854   -6.0732   22.5280 C   0  0  0  0  0  0
  -21.4016   -6.5639   23.8211 C   0  0  0  0  0  0
  -21.3659   -5.6794   24.9176 C   0  0  0  0  0  0
  -21.6040   -4.3054   24.7228 C   0  0  0  0  0  0
  -21.8822   -3.8143   23.4351 C   0  0  0  0  0  0
  -21.9195   -4.6960   22.3406 C   0  0  0  0  0  0
  -22.7851  -13.5232   21.1856 C   0  0  0  0  0  0
  -22.1664   -4.2147   21.0982 F   0  0  0  0  0  0
  -21.5627   -3.4534   25.7741 F   0  0  0  0  0  0
  -30.0220  -13.3471   20.4447 N   0  0  0  0  0  0
  -26.2998  -12.9354   20.3331 N   0  0  0  0  0  0
  -25.9316  -11.6506   20.5743 N   0  0  0  0  0  0
  -22.0494  -12.8206   22.0393 N   0  0  0  0  0  0
  -25.4286  -15.1899   20.4092 N   0  0  0  0  0  0
  -31.8363  -14.6533   20.1028 O   0  0  0  0  0  0
  -21.6638   -6.8871   21.4236 O   0  0  0  0  0  0
  -22.3526  -14.5542   20.6709 O   0  0  0  0  0  0
  -24.6180  -31.8693   23.2062 C   0  0  0  0  0  0
  -25.9067  -32.4826   23.8386 C   0  0  1  0  0  0
  -27.2262  -27.4056   20.1056 C   0  0  0  0  0  0
  -25.5929  -33.8619   24.2336 N   0  0  0  0  0  0
  -23.4071  -30.4898   21.5495 C   0  0  2  0  0  0
  -24.8546  -28.9548   20.1106 C   0  0  0  0  0  0
  -22.7435  -29.4664   22.4994 C   0  0  0  0  0  0
  -18.0281  -28.1375   22.8495 C   0  0  0  0  0  0
  -24.1486  -36.7292   23.2634 C   0  0  0  0  0  0
  -25.9389  -30.8258   21.3626 C   0  0  0  0  0  0
  -26.0183  -29.4582   20.7080 C   0  0  0  0  0  0
  -27.2116  -28.6919   20.6993 C   0  0  0  0  0  0
  -26.0484  -26.9280   19.4954 C   0  0  0  0  0  0
  -24.8662  -27.6916   19.4960 C   0  0  0  0  0  0
  -23.6153  -29.8215   20.1660 C   0  0  0  0  0  0
  -25.4109  -36.3105   24.0343 C   0  0  1  0  0  0
  -20.5865  -28.3674   23.1306 C   0  0  2  0  0  0
  -20.6770  -26.9409   22.5405 C   0  0  0  0  0  0
  -19.5755  -26.6396   21.5199 C   0  0  0  0  0  0
  -18.1937  -26.7928   22.1610 C   0  0  0  0  0  0
  -19.1525  -28.8846   23.2895 C   0  0  0  0  0  0
  -18.9453  -30.1448   23.8913 C   0  0  0  0  0  0
  -17.6455  -30.6587   24.0562 C   0  0  0  0  0  0
  -25.9034  -34.9477   23.5126 C   0  0  0  0  0  0
  -16.5345  -29.9083   23.6330 C   0  0  0  0  0  0
  -16.7265  -28.6490   23.0366 C   0  0  0  0  0  0
  -26.4483  -31.6598   25.0721 C   0  0  0  0  0  0
  -25.3745  -31.3678   26.1468 C   0  0  0  0  0  0
  -27.0326  -30.3051   24.6074 C   0  0  0  0  0  0
  -27.6065  -32.4315   25.7486 C   0  0  0  0  0  0
  -27.5575  -37.1803   24.8472 C   0  0  0  0  0  0
  -21.4157  -29.3035   22.3716 N   0  0  0  0  0  0
  -26.4298  -37.3794   23.9400 N   0  0  0  0  0  0
  -24.6739  -31.0759   22.0984 N   0  0  0  0  0  0
  -23.4203  -28.8211   23.3049 O   0  0  0  0  0  0
  -28.3392  -26.5857   20.1310 O   0  0  0  0  0  0
  -26.5595  -34.8933   22.4682 O   0  0  0  0  0  0
  -23.5357  -32.1451   23.7424 O   0  0  0  0  0  0
  -31.9122  -18.8606   20.8450 C   0  0  0  0  0  0
  -30.8720  -19.8028   20.9295 C   0  0  0  0  0  0
  -31.6389  -17.4803   20.8934 C   0  0  0  0  0  0
  -29.2731  -17.9738   21.1272 C   0  0  0  0  0  0
  -29.5334  -19.3817   21.0802 C   0  0  0  0  0  0
  -30.3103  -17.0015   21.0087 C   0  0  0  0  0  0
  -28.6327  -24.1716   20.4351 C   0  0  0  0  0  0
  -28.1766  -25.3936   20.8223 C   0  0  0  0  0  0
  -28.3622  -22.9842   21.2616 C   0  0  0  0  0  0
  -27.0494  -19.9825   20.7257 C   0  0  0  0  0  0
  -28.4183  -20.4487   21.2574 C   0  0  2  0  0  0
  -29.9877  -15.5883   21.0363 N   0  0  0  0  0  0
  -28.7195  -21.8007   20.7067 N   0  0  0  0  0  0
  -27.8242  -23.0307   22.3696 O   0  0  0  0  0  0
  -31.4650  -12.4286   19.1467 H   0  0  0  0  0  0
  -30.3206  -11.3363   19.8679 H   0  0  0  0  0  0
  -29.7535  -11.7723   17.4545 H   0  0  0  0  0  0
  -29.6597  -13.4866   17.7689 H   0  0  0  0  0  0
  -27.8449  -11.3017   18.8420 H   0  0  0  0  0  0
  -27.3714  -12.6083   17.7907 H   0  0  0  0  0  0
  -27.6862  -14.2559   19.5465 H   0  0  0  0  0  0
  -28.6800  -12.0189   21.3779 H   0  0  0  0  0  0
  -28.4483  -13.6747   21.8547 H   0  0  0  0  0  0
  -25.2757   -9.5691   22.4744 H   0  0  0  0  0  0
  -24.0007   -7.4635   22.7468 H   0  0  0  0  0  0
  -21.0839   -8.8753   19.8943 H   0  0  0  0  0  0
  -22.3685  -10.9658   19.6145 H   0  0  0  0  0  0
  -21.2004   -7.6142   23.9719 H   0  0  0  0  0  0
  -21.1478   -6.0518   25.9082 H   0  0  0  0  0  0
  -22.0599   -2.7602   23.2851 H   0  0  0  0  0  0
  -22.4109  -11.9857   22.4764 H   0  0  0  0  0  0
  -21.1107  -13.1216   22.2602 H   0  0  0  0  0  0
  -24.6581  -15.8429   20.5048 H   0  0  0  0  0  0
  -26.2773  -15.6248   20.0702 H   0  0  0  0  0  0
  -26.7154  -32.5540   23.1159 H   0  0  0  0  0  0
  -25.0135  -33.9785   25.0521 H   0  0  0  0  0  0
  -22.6942  -31.3056   21.4097 H   0  0  0  0  0  0
  -23.3764  -35.9615   23.3330 H   0  0  0  0  0  0
  -24.3568  -36.8869   22.2037 H   0  0  0  0  0  0
  -23.7229  -37.6501   23.6627 H   0  0  0  0  0  0
  -26.0531  -31.5891   20.5918 H   0  0  0  0  0  0
  -26.8244  -30.8804   21.9828 H   0  0  0  0  0  0
  -28.1099  -29.0666   21.1681 H   0  0  0  0  0  0
  -26.0422  -25.9517   19.0306 H   0  0  0  0  0  0
  -23.9726  -27.2986   19.0317 H   0  0  0  0  0  0
  -23.7149  -30.5949   19.4044 H   0  0  0  0  0  0
  -22.7387  -29.2395   19.8767 H   0  0  0  0  0  0
  -25.1277  -36.1978   25.0843 H   0  0  0  0  0  0
  -20.9955  -28.3243   24.1425 H   0  0  0  0  0  0
  -20.5685  -26.2276   23.3583 H   0  0  0  0  0  0
  -21.6639  -26.7466   22.1184 H   0  0  0  0  0  0
  -19.6914  -25.6320   21.1209 H   0  0  0  0  0  0
  -19.6685  -27.3218   20.6744 H   0  0  0  0  0  0
  -17.4194  -26.6698   21.4009 H   0  0  0  0  0  0
  -18.0322  -26.0054   22.8986 H   0  0  0  0  0  0
  -19.7930  -30.7265   24.2280 H   0  0  0  0  0  0
  -17.5008  -31.6262   24.5170 H   0  0  0  0  0  0
  -15.5347  -30.2987   23.7646 H   0  0  0  0  0  0
  -15.8661  -28.0805   22.7091 H   0  0  0  0  0  0
  -24.5947  -30.6998   25.7792 H   0  0  0  0  0  0
  -24.8909  -32.2814   26.4928 H   0  0  0  0  0  0
  -25.8111  -30.8849   27.0218 H   0  0  0  0  0  0
  -26.2864  -29.6809   24.1143 H   0  0  0  0  0  0
  -27.4134  -29.7282   25.4507 H   0  0  0  0  0  0
  -27.8678  -30.4397   23.9200 H   0  0  0  0  0  0
  -27.2709  -33.3624   26.2065 H   0  0  0  0  0  0
  -28.3872  -32.6856   25.0308 H   0  0  0  0  0  0
  -28.0741  -31.8446   26.5393 H   0  0  0  0  0  0
  -28.2608  -38.0084   24.7503 H   0  0  0  0  0  0
  -28.1056  -36.2610   24.6331 H   0  0  0  0  0  0
  -27.2289  -37.1497   25.8879 H   0  0  0  0  0  0
  -20.9328  -29.8730   21.6905 H   0  0  0  0  0  0
  -26.0191  -38.2879   24.1398 H   0  0  0  0  0  0
  -32.9341  -19.1998   20.7532 H   0  0  0  0  0  0
  -31.1184  -20.8551   20.9026 H   0  0  0  0  0  0
  -32.4817  -16.8081   20.8452 H   0  0  0  0  0  0
  -28.2604  -17.6222   21.2522 H   0  0  0  0  0  0
  -29.1887  -24.0799   19.5132 H   0  0  0  0  0  0
  -27.6147  -25.5395   21.7359 H   0  0  0  0  0  0
  -26.6792  -19.1124   21.2677 H   0  0  0  0  0  0
  -27.0945  -19.7304   19.6665 H   0  0  0  0  0  0
  -26.2946  -20.7593   20.8537 H   0  0  0  0  0  0
  -28.3136  -20.5549   22.3396 H   0  0  0  0  0  0
  -29.0498  -15.3559   21.3232 H   0  0  0  0  0  0
  -29.1530  -21.8287   19.7951 H   0  0  0  0  0  0
  1 25  1  0  0  0
  1 30  2  0  0  0
  1 82  1  0  0  0
  2  3  1  0  0  0
  2 25  1  0  0  0
  2 85  1  0  0  0
  2 86  1  0  0  0
  3  4  1  0  0  0
  3 87  1  0  0  0
  3 88  1  0  0  0
  4  5  1  0  0  0
  4 89  1  0  0  0
  4 90  1  0  0  0
  5  6  1  0  0  0
  5 26  1  0  0  0
  5 91  1  0  0  0
  6 25  1  0  0  0
  6 92  1  0  0  0
  6 93  1  0  0  0
  7  8  2  0  0  0
  7 26  1  0  0  0
  7 29  1  0  0  0
  8  9  1  0  0  0
  8 22  1  0  0  0
  9 10  1  0  0  0
  9 27  2  0  0  0
 10 11  2  0  0  0
 10 15  1  0  0  0
 11 12  1  0  0  0
 11 94  1  0  0  0
 12 13  2  0  0  0
 12 95  1  0  0  0
 13 14  1  0  0  0
 13 31  1  0  0  0
 14 15  2  0  0  0
 14 96  1  0  0  0
 15 97  1  0  0  0
 16 17  2  0  0  0
 16 21  1  0  0  0
 16 31  1  0  0  0
 17 18  1  0  0  0
 17 98  1  0  0  0
 18 19  2  0  0  0
 18 99  1  0  0  0
 19 20  1  0  0  0
 19 24  1  0  0  0
 20 21  2  0  0  0
 20100  1  0  0  0
 21 23  1  0  0  0
 22 28  1  0  0  0
 22 32  2  0  0  0
 26 27  1  0  0  0
 28101  1  0  0  0
 28102  1  0  0  0
 29103  1  0  0  0
 29104  1  0  0  0
 33 34  1  0  0  0
 33 66  1  0  0  0
 33 70  2  0  0  0
 34 36  1  0  0  0
 34 59  1  0  0  0
 34105  1  0  0  0
 35 44  2  0  0  0
 35 45  1  0  0  0
 35 68  1  0  0  0
 36 56  1  0  0  0
 36106  1  0  0  0
 37 39  1  0  0  0
 37 47  1  0  0  0
 37 66  1  0  0  0
 37107  1  0  0  0
 38 43  2  0  0  0
 38 46  1  0  0  0
 38 47  1  0  0  0
 39 64  1  0  0  0
 39 67  2  0  0  0
 40 52  1  0  0  0
 40 53  2  0  0  0
 40 58  1  0  0  0
 41108  1  0  0  0
 41109  1  0  0  0
 41110  1  0  0  0
 41 48  1  0  0  0
 42 43  1  0  0  0
 42 66  1  0  0  0
 42111  1  0  0  0
 42112  1  0  0  0
 43 44  1  0  0  0
 44113  1  0  0  0
 45 46  2  0  0  0
 45114  1  0  0  0
 46115  1  0  0  0
 47116  1  0  0  0
 47117  1  0  0  0
 48 56  1  0  0  0
 48 65  1  0  0  0
 48118  1  0  0  0
 49 50  1  0  0  0
 49 53  1  0  0  0
 49 64  1  0  0  0
 49119  1  0  0  0
 50 51  1  0  0  0
 50120  1  0  0  0
 50121  1  0  0  0
 51 52  1  0  0  0
 51122  1  0  0  0
 51123  1  0  0  0
 52124  1  0  0  0
 52125  1  0  0  0
 53 54  1  0  0  0
 54 55  2  0  0  0
 54126  1  0  0  0
 55 57  1  0  0  0
 55127  1  0  0  0
 56 69  2  0  0  0
 57 58  2  0  0  0
 57128  1  0  0  0
 58129  1  0  0  0
 59 60  1  0  0  0
 59 61  1  0  0  0
 59 62  1  0  0  0
 60130  1  0  0  0
 60131  1  0  0  0
 60132  1  0  0  0
 61133  1  0  0  0
 61134  1  0  0  0
 61135  1  0  0  0
 62136  1  0  0  0
 62137  1  0  0  0
 62138  1  0  0  0
 63 65  1  0  0  0
 63139  1  0  0  0
 63140  1  0  0  0
 63141  1  0  0  0
 64142  1  0  0  0
 65143  1  0  0  0
 68 78  1  0  0  0
 71 72  2  0  0  0
 71 73  1  0  0  0
 71144  1  0  0  0
 72 75  1  0  0  0
 72145  1  0  0  0
 73 76  2  0  0  0
 73146  1  0  0  0
 74 75  2  0  0  0
 74 76  1  0  0  0
 74147  1  0  0  0
 75 81  1  0  0  0
 76 82  1  0  0  0
 77 78  2  0  0  0
 77 79  1  0  0  0
 77148  1  0  0  0
 78149  1  0  0  0
 79 83  1  0  0  0
 79 84  2  0  0  0
 80150  1  0  0  0
 80151  1  0  0  0
 80152  1  0  0  0
 80 81  1  0  0  0
 81 83  1  0  0  0
 81153  1  0  0  0
 82154  1  0  0  0
 83155  1  0  0  0
M  ISO  4   1 100  68 101  78 101  82 100
M  END
> <chiral flag>
0

> <version>
0

> <s_m_source_file>
/data/baiqing/PycharmProjects/Reinvent-master-3.2/result/LINK_invent/BTK/process_docking_weight1_custom_product_contain_oxygen_bond_distance_aromatic_linkinvent_7_9_3/rearranged_h_0083.sdf

> <i_m_source_file_index>
4

> <r_mmod_Potential_Energy-OPLS-2005>
-130.694122314453

> <r_mmod_Stretch_Energy-OPLS-2005>
50.013916015625

> <r_mmod_Bend_Energy-OPLS-2005>
101.340881347656

> <r_mmod_Torsional_Energy-OPLS-2005>
211.726119995117

> <r_mmod_Improper_Torsional_Energy-OPLS-2005>
3.98987317085266

> <r_mmod_Van_der_Waal_Energy-OPLS-2005>
158.968246459961

> <r_mmod_Electrostatic_Energy-OPLS-2005>
-454.608245849609

> <r_mmod_Solvation_Energy-OPLS-2005>
-223.986343383789

> <b_mmod_Minimization_Converged-OPLS-2005>
0

> <r_mmod_RMS_Derivative-OPLS-2005>
2.37304615974426

$$$$
4
                    3D
 Structure written by MMmdl.
172182  0  0  1  0            999 V2000
  -29.2319  -11.5328   21.3698 C   0  0  0  0  0  0
  -30.1864  -12.3813   19.2792 C   0  0  0  0  0  0
  -29.3481  -12.6244   18.0273 C   0  0  0  0  0  0
  -27.8330  -12.6545   18.3610 C   0  0  0  0  0  0
  -27.5529  -13.6153   19.5888 C   0  0  2  0  0  0
  -28.5761  -13.5983   20.6923 C   0  0  0  0  0  0
  -25.2342  -14.2198   20.4625 C   0  0  0  0  0  0
  -24.1499  -13.4565   20.7587 C   0  0  0  0  0  0
  -24.6836  -12.2039   20.5601 C   0  0  0  0  0  0
  -24.0348  -11.0751   20.2798 C   0  0  0  0  0  0
  -24.8725   -9.9967   20.1585 C   0  0  0  0  0  0
  -24.2132   -8.8904   19.9806 C   0  0  0  0  0  0
  -23.4064   -8.9517   21.0901 C   0  0  0  0  0  0
  -22.3287   -9.5621   20.2670 C   0  0  0  0  0  0
  -22.6788  -10.8509   19.9629 C   0  0  0  0  0  0
  -22.6710   -6.3680   23.4474 C   0  0  0  0  0  0
  -21.8213   -6.6292   24.5178 C   0  0  0  0  0  0
  -21.3013   -5.5892   25.2769 C   0  0  0  0  0  0
  -21.5146   -4.2593   24.8966 C   0  0  0  0  0  0
  -21.9291   -3.9569   23.6080 C   0  0  0  0  0  0
  -22.4312   -4.9971   22.8269 C   0  0  0  0  0  0
  -22.6973  -13.8270   20.9170 C   0  0  0  0  0  0
  -22.6044   -4.5877   21.5141 F   0  0  0  0  0  0
  -21.3292   -3.2801   25.7940 F   0  0  0  0  0  0
  -29.2289  -12.3981   20.4010 N   0  0  0  0  0  0
  -26.2768  -13.3695   20.1993 N   0  0  0  0  0  0
  -25.9940  -12.1612   20.5786 N   0  0  0  0  0  0
  -21.8315  -13.0212   21.5248 N   0  0  0  0  0  0
  -25.4385  -15.5600   20.2902 N   0  0  0  0  0  0
  -30.4204  -11.9441   21.7353 O   0  0  0  0  0  0
  -23.3854   -7.6922   22.9246 O   0  0  0  0  0  0
  -22.2910  -14.8953   20.5121 O   0  0  0  0  0  0
  -24.6714  -31.8179   23.1719 C   0  0  0  0  0  0
  -25.9384  -32.4524   23.8166 C   0  0  1  0  0  0
  -26.8278  -26.6549   20.4404 C   0  0  0  0  0  0
  -25.6001  -33.8353   24.2031 N   0  0  0  0  0  0
  -23.4787  -30.4495   21.5207 C   0  0  2  0  0  0
  -24.8885  -28.8324   20.0913 C   0  0  0  0  0  0
  -22.7692  -29.4432   22.4681 C   0  0  0  0  0  0
  -18.0329  -28.1409   22.8462 C   0  0  0  0  0  0
  -24.1515  -36.7182   23.2638 C   0  0  0  0  0  0
  -26.0539  -30.5465   21.4433 C   0  0  0  0  0  0
  -26.0543  -29.1204   20.8080 C   0  0  0  0  0  0
  -27.0493  -28.0417   20.9560 C   0  0  0  0  0  0
  -25.7841  -26.6210   19.5069 C   0  0  0  0  0  0
  -24.8074  -27.6288   19.3874 C   0  0  0  0  0  0
  -23.7199  -29.8087   20.1273 C   0  0  0  0  0  0
  -25.4149  -36.2921   24.0284 C   0  0  1  0  0  0
  -20.5965  -28.3755   23.1144 C   0  0  2  0  0  0
  -20.6803  -26.9422   22.5396 C   0  0  0  0  0  0
  -19.5771  -26.6364   21.5214 C   0  0  0  0  0  0
  -18.1962  -26.7939   22.1628 C   0  0  0  0  0  0
  -19.1595  -28.8902   23.2801 C   0  0  0  0  0  0
  -18.9496  -30.1486   23.8851 C   0  0  0  0  0  0
  -17.6479  -30.6582   24.0569 C   0  0  0  0  0  0
  -25.9123  -34.9311   23.4989 C   0  0  0  0  0  0
  -16.5374  -29.9068   23.6346 C   0  0  0  0  0  0
  -16.7309  -28.6497   23.0361 C   0  0  0  0  0  0
  -26.4582  -31.6515   25.0750 C   0  0  0  0  0  0
  -25.3678  -31.3804   26.1386 C   0  0  0  0  0  0
  -27.0456  -30.2832   24.6634 C   0  0  0  0  0  0
  -27.6065  -32.4374   25.7505 C   0  0  0  0  0  0
  -27.5593  -37.1723   24.8441 C   0  0  0  0  0  0
  -21.4365  -29.3013   22.3459 N   0  0  0  0  0  0
  -26.4271  -37.3683   23.9425 N   0  0  0  0  0  0
  -24.7588  -30.9749   22.0938 N   0  0  0  0  0  0
  -23.4246  -28.7993   23.2911 O   0  0  0  0  0  0
  -27.3515  -25.2822   20.8206 O   0  0  0  0  0  0
  -26.5763  -34.8855   22.4610 O   0  0  0  0  0  0
  -23.5775  -32.1242   23.6748 O   0  0  0  0  0  0
  -22.2438   -7.0759   21.2361 C   0  0  0  0  0  0
  -23.7889  -17.0282   22.5701 C   0  0  0  0  0  0
  -25.8150  -16.6883   23.4034 C   0  0  0  0  0  0
  -24.3206   -6.8326   21.2642 C   0  0  0  0  0  0
  -21.5737   -8.6332   22.4330 C   0  0  0  0  0  0
  -24.1928  -18.4412   22.1664 C   0  0  0  0  0  0
  -26.2221  -18.1258   23.0150 C   0  0  0  0  0  0
  -24.6443   -9.5044   23.0661 C   0  0  0  0  0  0
  -24.5309  -15.9277   23.2398 C   0  0  0  0  0  0
  -25.4680   -8.2756   22.1327 C   0  0  0  0  0  0
  -22.9208   -9.8722   23.2017 C   0  0  0  0  0  0
  -25.4495  -19.2229   22.3387 C   0  0  0  0  0  0
  -22.7004  -13.9085   24.1791 C   0  0  0  0  0  0
  -23.9432  -14.2657   23.6966 C   0  0  0  0  0  0
  -22.2644  -12.4249   24.2961 C   0  0  0  0  0  0
  -27.1986   -9.0287   21.8389 C   0  0  0  0  0  0
  -26.6295  -22.0941   21.6861 C   0  0  0  0  0  0
  -24.3028  -12.6159   23.5951 C   0  0  0  0  0  0
  -25.2101  -24.4253   21.8839 C   0  0  0  0  0  0
  -26.3721  -23.8402   21.0649 C   0  0  1  0  0  0
  -23.0648  -11.5246   23.6093 N   0  0  0  0  0  0
  -25.6931  -20.8673   21.8586 N   0  0  0  0  0  0
  -27.9308  -10.5018   21.6066 N   0  0  0  0  0  0
  -21.2648  -12.0526   24.9149 O   0  0  0  0  0  0
  -28.0136   -8.1082   21.7585 O   0  0  0  0  0  0
  -27.8006  -21.8807   22.0088 O   0  0  0  0  0  0
  -30.9356  -13.1673   19.3862 H   0  0  0  0  0  0
  -30.7167  -11.4283   19.2052 H   0  0  0  0  0  0
  -29.5636  -11.8843   17.2567 H   0  0  0  0  0  0
  -29.6342  -13.5861   17.5932 H   0  0  0  0  0  0
  -27.4821  -11.6382   18.5426 H   0  0  0  0  0  0
  -27.2719  -13.0086   17.4954 H   0  0  0  0  0  0
  -27.5560  -14.6281   19.1730 H   0  0  0  0  0  0
  -28.1346  -13.6968   21.6916 H   0  0  0  0  0  0
  -29.2633  -14.4348   20.5913 H   0  0  0  0  0  0
  -25.8762  -10.0413   19.7667 H   0  0  0  0  0  0
  -24.8820   -8.1623   19.5520 H   0  0  0  0  0  0
  -21.2696   -9.3450   20.2431 H   0  0  0  0  0  0
  -21.9622  -11.5822   19.6253 H   0  0  0  0  0  0
  -21.7414   -7.6375   24.8999 H   0  0  0  0  0  0
  -20.8618   -5.8158   26.2390 H   0  0  0  0  0  0
  -21.9076   -2.9479   23.2282 H   0  0  0  0  0  0
  -22.0609  -12.0540   21.6867 H   0  0  0  0  0  0
  -20.8689  -13.3215   21.6057 H   0  0  0  0  0  0
  -24.7546  -16.2464   20.5814 H   0  0  0  0  0  0
  -26.3556  -15.9538   20.1214 H   0  0  0  0  0  0
  -26.7447  -32.4964   23.0848 H   0  0  0  0  0  0
  -25.0025  -33.9432   25.0093 H   0  0  0  0  0  0
  -22.7982  -31.2917   21.3716 H   0  0  0  0  0  0
  -23.3802  -35.9478   23.3183 H   0  0  0  0  0  0
  -24.3620  -36.8960   22.2076 H   0  0  0  0  0  0
  -23.7229  -37.6317   23.6784 H   0  0  0  0  0  0
  -26.2761  -31.2612   20.6508 H   0  0  0  0  0  0
  -26.9113  -30.5931   22.1020 H   0  0  0  0  0  0
  -27.8854  -28.2114   21.6175 H   0  0  0  0  0  0
  -25.5686  -25.6863   19.0072 H   0  0  0  0  0  0
  -23.9293  -27.4249   18.7880 H   0  0  0  0  0  0
  -23.9304  -30.5947   19.4018 H   0  0  0  0  0  0
  -22.8145  -29.3130   19.7759 H   0  0  0  0  0  0
  -25.1345  -36.1697   25.0768 H   0  0  0  0  0  0
  -21.0076  -28.3371   24.1256 H   0  0  0  0  0  0
  -20.5684  -26.2370   23.3649 H   0  0  0  0  0  0
  -21.6667  -26.7391   22.1202 H   0  0  0  0  0  0
  -19.6932  -25.6265   21.1267 H   0  0  0  0  0  0
  -19.6702  -27.3160   20.6730 H   0  0  0  0  0  0
  -17.4233  -26.6681   21.4039 H   0  0  0  0  0  0
  -18.0363  -26.0102   22.9040 H   0  0  0  0  0  0
  -19.7961  -30.7328   24.2216 H   0  0  0  0  0  0
  -17.5013  -31.6255   24.5187 H   0  0  0  0  0  0
  -15.5374  -30.2950   23.7669 H   0  0  0  0  0  0
  -15.8722  -28.0794   22.7084 H   0  0  0  0  0  0
  -24.5887  -30.7129   25.7693 H   0  0  0  0  0  0
  -24.8833  -32.2998   26.4669 H   0  0  0  0  0  0
  -25.7877  -30.9061   27.0265 H   0  0  0  0  0  0
  -26.3111  -29.6483   24.1671 H   0  0  0  0  0  0
  -27.3884  -29.7258   25.5361 H   0  0  0  0  0  0
  -27.9138  -30.3915   24.0137 H   0  0  0  0  0  0
  -27.2631  -33.3746   26.1901 H   0  0  0  0  0  0
  -28.3911  -32.6841   25.0339 H   0  0  0  0  0  0
  -28.0704  -31.8644   26.5542 H   0  0  0  0  0  0
  -28.2493  -38.0134   24.7620 H   0  0  0  0  0  0
  -28.1213  -36.2667   24.6102 H   0  0  0  0  0  0
  -27.2336  -37.1149   25.8844 H   0  0  0  0  0  0
  -20.9632  -29.8709   21.6599 H   0  0  0  0  0  0
  -26.0101  -38.2720   24.1506 H   0  0  0  0  0  0
  -21.5704   -6.4769   20.6393 H   0  0  0  0  0  0
  -22.7770  -16.7667   22.2967 H   0  0  0  0  0  0
  -26.5939  -16.1221   23.8996 H   0  0  0  0  0  0
  -24.7710   -6.0852   20.6237 H   0  0  0  0  0  0
  -20.5335   -8.9238   22.4338 H   0  0  0  0  0  0
  -23.4105  -18.9863   21.6564 H   0  0  0  0  0  0
  -27.2337  -18.3867   23.2972 H   0  0  0  0  0  0
  -25.3286  -10.2372   23.4656 H   0  0  0  0  0  0
  -21.9898  -14.6918   24.3752 H   0  0  0  0  0  0
  -24.8492  -12.4207   24.5227 H   0  0  0  0  0  0
  -25.0955  -12.4049   22.9008 H   0  0  0  0  0  0
  -24.5306  -23.6608   22.2498 H   0  0  0  0  0  0
  -24.6123  -25.1235   21.2989 H   0  0  0  0  0  0
  -25.5953  -24.9756   22.7424 H   0  0  0  0  0  0
  -25.9904  -23.6395   20.0601 H   0  0  0  0  0  0
  -24.8111  -21.2138   21.5058 H   0  0  0  0  0  0
  -27.1442  -11.1067   21.3721 H   0  0  0  0  0  0
  1 25  1  0  0  0
  1 30  2  0  0  0
  1 93  1  0  0  0
  2  3  1  0  0  0
  2 25  1  0  0  0
  2 97  1  0  0  0
  2 98  1  0  0  0
  3  4  1  0  0  0
  3 99  1  0  0  0
  3100  1  0  0  0
  4  5  1  0  0  0
  4101  1  0  0  0
  4102  1  0  0  0
  5  6  1  0  0  0
  5 26  1  0  0  0
  5103  1  0  0  0
  6 25  1  0  0  0
  6104  1  0  0  0
  6105  1  0  0  0
  7  8  2  0  0  0
  7 26  1  0  0  0
  7 29  1  0  0  0
  8  9  1  0  0  0
  8 22  1  0  0  0
  9 10  1  0  0  0
  9 27  2  0  0  0
 10 11  2  0  0  0
 10 15  1  0  0  0
 11 12  1  0  0  0
 11106  1  0  0  0
 12 13  2  0  0  0
 12107  1  0  0  0
 13 14  1  0  0  0
 13 31  1  0  0  0
 14 15  2  0  0  0
 14108  1  0  0  0
 15109  1  0  0  0
 16 17  2  0  0  0
 16 21  1  0  0  0
 16 31  1  0  0  0
 17 18  1  0  0  0
 17110  1  0  0  0
 18 19  2  0  0  0
 18111  1  0  0  0
 19 20  1  0  0  0
 19 24  1  0  0  0
 20 21  2  0  0  0
 20112  1  0  0  0
 21 23  1  0  0  0
 22 28  1  0  0  0
 22 32  2  0  0  0
 26 27  1  0  0  0
 28113  1  0  0  0
 28114  1  0  0  0
 29115  1  0  0  0
 29116  1  0  0  0
 33 34  1  0  0  0
 33 66  1  0  0  0
 33 70  2  0  0  0
 34 36  1  0  0  0
 34 59  1  0  0  0
 34117  1  0  0  0
 35 44  2  0  0  0
 35 45  1  0  0  0
 35 68  1  0  0  0
 36 56  1  0  0  0
 36118  1  0  0  0
 37 39  1  0  0  0
 37 47  1  0  0  0
 37 66  1  0  0  0
 37119  1  0  0  0
 38 43  2  0  0  0
 38 46  1  0  0  0
 38 47  1  0  0  0
 39 64  1  0  0  0
 39 67  2  0  0  0
 40 52  1  0  0  0
 40 53  2  0  0  0
 40 58  1  0  0  0
 41120  1  0  0  0
 41121  1  0  0  0
 41122  1  0  0  0
 41 48  1  0  0  0
 42 43  1  0  0  0
 42 66  1  0  0  0
 42123  1  0  0  0
 42124  1  0  0  0
 43 44  1  0  0  0
 44125  1  0  0  0
 45 46  2  0  0  0
 45126  1  0  0  0
 46127  1  0  0  0
 47128  1  0  0  0
 47129  1  0  0  0
 48 56  1  0  0  0
 48 65  1  0  0  0
 48130  1  0  0  0
 49 50  1  0  0  0
 49 53  1  0  0  0
 49 64  1  0  0  0
 49131  1  0  0  0
 50 51  1  0  0  0
 50132  1  0  0  0
 50133  1  0  0  0
 51 52  1  0  0  0
 51134  1  0  0  0
 51135  1  0  0  0
 52136  1  0  0  0
 52137  1  0  0  0
 53 54  1  0  0  0
 54 55  2  0  0  0
 54138  1  0  0  0
 55 57  1  0  0  0
 55139  1  0  0  0
 56 69  2  0  0  0
 57 58  2  0  0  0
 57140  1  0  0  0
 58141  1  0  0  0
 59 60  1  0  0  0
 59 61  1  0  0  0
 59 62  1  0  0  0
 60142  1  0  0  0
 60143  1  0  0  0
 60144  1  0  0  0
 61145  1  0  0  0
 61146  1  0  0  0
 61147  1  0  0  0
 62148  1  0  0  0
 62149  1  0  0  0
 62150  1  0  0  0
 63 65  1  0  0  0
 63151  1  0  0  0
 63152  1  0  0  0
 63153  1  0  0  0
 64154  1  0  0  0
 65155  1  0  0  0
 68 90  1  0  0  0
 71 74  2  0  0  0
 71 75  1  0  0  0
 71156  1  0  0  0
 72 76  2  0  0  0
 72 79  1  0  0  0
 72157  1  0  0  0
 73 77  1  0  0  0
 73 79  2  0  0  0
 73158  1  0  0  0
 74 80  1  0  0  0
 74159  1  0  0  0
 75 81  2  0  0  0
 75160  1  0  0  0
 76 82  1  0  0  0
 76161  1  0  0  0
 77 82  2  0  0  0
 77162  1  0  0  0
 78 80  2  0  0  0
 78 81  1  0  0  0
 78163  1  0  0  0
 79 84  1  0  0  0
 80 86  1  0  0  0
 81 91  1  0  0  0
 82 92  1  0  0  0
 83 84  2  0  0  0
 83 85  1  0  0  0
 83164  1  0  0  0
 84 88  1  0  0  0
 85 91  1  0  0  0
 85 94  2  0  0  0
 86 93  1  0  0  0
 86 95  2  0  0  0
 87 90  1  0  0  0
 87 92  1  0  0  0
 87 96  2  0  0  0
 88 91  1  0  0  0
 88165  1  0  0  0
 88166  1  0  0  0
 89167  1  0  0  0
 89168  1  0  0  0
 89169  1  0  0  0
 89 90  1  0  0  0
 90170  1  0  0  0
 92171  1  0  0  0
 93172  1  0  0  0
M  ISO  4   1 100  68 101  90 101  93 100
M  END
> <chiral flag>
0

> <version>
0

> <s_m_source_file>
/data/baiqing/PycharmProjects/Reinvent-master-3.2/result/LINK_invent/BTK/process_docking_weight1_custom_product_contain_oxygen_bond_distance_aromatic_linkinvent_7_9_3/rearranged_h_0083.sdf

> <i_m_source_file_index>
5

> <r_mmod_Potential_Energy-OPLS-2005>
17977.44921875

> <r_mmod_Stretch_Energy-OPLS-2005>
7460.84423828125

> <r_mmod_Bend_Energy-OPLS-2005>
1740.92541503906

> <r_mmod_Torsional_Energy-OPLS-2005>
778.365661621094

> <r_mmod_Improper_Torsional_Energy-OPLS-2005>
49.0012397766113

> <r_mmod_Van_der_Waal_Energy-OPLS-2005>
3096.1953125

> <r_mmod_Electrostatic_Energy-OPLS-2005>
-502.210693359375

> <r_mmod_Solvation_Energy-OPLS-2005>
-241.522796630859

> <b_mmod_Minimization_Converged-OPLS-2005>
0

> <r_mmod_RMS_Derivative-OPLS-2005>
12.1565971374512

$$$$
5
                    3D
 Structure written by MMmdl.
150159  0  0  1  0            999 V2000
  -30.5685  -14.7424   20.4852 C   0  0  0  0  0  0
  -30.4511  -12.4558   19.4667 C   0  0  0  0  0  0
  -29.5165  -12.5188   18.2354 C   0  0  0  0  0  0
  -28.0413  -12.3378   18.6472 C   0  0  0  0  0  0
  -27.6514  -13.2208   19.8617 C   0  0  2  0  0  0
  -28.6967  -13.1050   20.9940 C   0  0  0  0  0  0
  -25.2558  -13.8172   20.5689 C   0  0  0  0  0  0
  -24.1828  -13.0436   20.9197 C   0  0  0  0  0  0
  -24.6402  -11.6908   20.8741 C   0  0  0  0  0  0
  -23.9069  -10.4291   21.0407 C   0  0  0  0  0  0
  -24.3619   -9.4205   21.9183 C   0  0  0  0  0  0
  -23.6293   -8.2242   22.0753 C   0  0  0  0  0  0
  -22.4275   -8.0281   21.3544 C   0  0  0  0  0  0
  -21.9911   -9.0256   20.4648 C   0  0  0  0  0  0
  -22.7240  -10.2135   20.3057 C   0  0  0  0  0  0
  -21.6852   -6.0735   22.5279 C   0  0  0  0  0  0
  -21.4013   -6.5638   23.8212 C   0  0  0  0  0  0
  -21.3661   -5.6792   24.9175 C   0  0  0  0  0  0
  -21.6044   -4.3055   24.7226 C   0  0  0  0  0  0
  -21.8820   -3.8146   23.4348 C   0  0  0  0  0  0
  -21.9194   -4.6962   22.3403 C   0  0  0  0  0  0
  -22.7850  -13.5228   21.1859 C   0  0  0  0  0  0
  -22.1662   -4.2147   21.0981 F   0  0  0  0  0  0
  -21.5631   -3.4540   25.7739 F   0  0  0  0  0  0
  -30.0024  -13.4862   20.4306 N   0  0  0  0  0  0
  -26.2984  -12.9356   20.3312 N   0  0  0  0  0  0
  -25.9332  -11.6510   20.5754 N   0  0  0  0  0  0
  -22.0494  -12.8220   22.0416 N   0  0  0  0  0  0
  -25.4273  -15.1895   20.4100 N   0  0  0  0  0  0
  -31.7262  -14.9243   20.0934 O   0  0  0  0  0  0
  -21.6641   -6.8877   21.4240 O   0  0  0  0  0  0
  -22.3535  -14.5535   20.6705 O   0  0  0  0  0  0
  -24.6313  -31.8551   23.1983 C   0  0  0  0  0  0
  -25.9135  -32.4756   23.8333 C   0  0  1  0  0  0
  -27.2249  -27.2672   20.1291 C   0  0  0  0  0  0
  -25.5927  -33.8559   24.2254 N   0  0  0  0  0  0
  -23.4298  -30.4767   21.5413 C   0  0  2  0  0  0
  -24.8811  -28.9258   20.1087 C   0  0  0  0  0  0
  -22.7509  -29.4597   22.4906 C   0  0  0  0  0  0
  -18.0294  -28.1384   22.8486 C   0  0  0  0  0  0
  -24.1490  -36.7287   23.2640 C   0  0  0  0  0  0
  -25.9760  -30.7685   21.3802 C   0  0  0  0  0  0
  -26.0525  -29.3914   20.7220 C   0  0  0  0  0  0
  -27.2300  -28.5734   20.7249 C   0  0  0  0  0  0
  -26.0355  -26.8731   19.4795 C   0  0  0  0  0  0
  -24.8770  -27.6736   19.4759 C   0  0  0  0  0  0
  -23.6498  -29.8106   20.1575 C   0  0  0  0  0  0
  -25.4117  -36.3072   24.0325 C   0  0  1  0  0  0
  -20.5900  -28.3699   23.1264 C   0  0  2  0  0  0
  -20.6780  -26.9416   22.5406 C   0  0  0  0  0  0
  -19.5754  -26.6381   21.5212 C   0  0  0  0  0  0
  -18.1937  -26.7924   22.1630 C   0  0  0  0  0  0
  -19.1549  -28.8859   23.2870 C   0  0  0  0  0  0
  -18.9469  -30.1459   23.8888 C   0  0  0  0  0  0
  -17.6468  -30.6587   24.0562 C   0  0  0  0  0  0
  -25.9054  -34.9442   23.5094 C   0  0  0  0  0  0
  -16.5359  -29.9084   23.6331 C   0  0  0  0  0  0
  -16.7280  -28.6501   23.0354 C   0  0  0  0  0  0
  -26.4500  -31.6581   25.0723 C   0  0  0  0  0  0
  -25.3721  -31.3739   26.1442 C   0  0  0  0  0  0
  -27.0350  -30.2994   24.6218 C   0  0  0  0  0  0
  -27.6046  -32.4328   25.7500 C   0  0  0  0  0  0
  -27.5578  -37.1801   24.8467 C   0  0  0  0  0  0
  -21.4214  -29.3046   22.3651 N   0  0  0  0  0  0
  -26.4293  -37.3769   23.9405 N   0  0  0  0  0  0
  -24.6978  -31.0511   22.0963 N   0  0  0  0  0  0
  -23.4203  -28.8138   23.3011 O   0  0  0  0  0  0
  -28.2747  -26.3196   20.1796 O   0  0  0  0  0  0
  -26.5633  -34.8915   22.4667 O   0  0  0  0  0  0
  -23.5460  -32.1373   23.7272 O   0  0  0  0  0  0
  -28.4029  -19.3345   21.3720 C   0  0  0  0  0  0
  -30.2787  -19.5677   19.9757 C   0  0  0  0  0  0
  -28.6085  -17.9214   21.4327 C   0  0  0  0  0  0
  -30.5100  -18.1383   20.0304 C   0  0  0  0  0  0
  -29.2087  -20.2590   20.6419 C   0  0  0  0  0  0
  -29.6683  -17.2520   20.7675 C   0  0  0  0  0  0
  -28.4293  -23.7432   20.6065 C   0  0  0  0  0  0
  -27.9214  -22.5499   21.2755 C   0  0  0  0  0  0
  -27.9438  -25.0462   20.7318 C   0  0  0  0  0  0
  -29.4924  -22.8480   19.8987 C   0  0  0  0  0  0
  -28.8783  -21.7167   20.6595 N   0  0  0  0  0  0
  -29.7251  -15.7689   20.8757 N   0  0  0  0  0  0
  -27.0000  -22.4088   22.0534 O   0  0  0  0  0  0
  -31.4873  -12.6094   19.1601 H   0  0  0  0  0  0
  -30.4196  -11.4667   19.9265 H   0  0  0  0  0  0
  -29.7978  -11.7551   17.5089 H   0  0  0  0  0  0
  -29.6389  -13.4788   17.7316 H   0  0  0  0  0  0
  -27.8959  -11.2860   18.8961 H   0  0  0  0  0  0
  -27.3834  -12.5432   17.8020 H   0  0  0  0  0  0
  -27.6590  -14.2507   19.5044 H   0  0  0  0  0  0
  -28.7336  -12.0849   21.3792 H   0  0  0  0  0  0
  -28.4235  -13.7320   21.8440 H   0  0  0  0  0  0
  -25.2765   -9.5679   22.4756 H   0  0  0  0  0  0
  -24.0002   -7.4632   22.7472 H   0  0  0  0  0  0
  -21.0841   -8.8775   19.8954 H   0  0  0  0  0  0
  -22.3699  -10.9675   19.6168 H   0  0  0  0  0  0
  -21.2003   -7.6146   23.9714 H   0  0  0  0  0  0
  -21.1482   -6.0523   25.9077 H   0  0  0  0  0  0
  -22.0598   -2.7608   23.2849 H   0  0  0  0  0  0
  -22.4112  -11.9883   22.4805 H   0  0  0  0  0  0
  -21.1112  -13.1244   22.2625 H   0  0  0  0  0  0
  -24.6575  -15.8417   20.5130 H   0  0  0  0  0  0
  -26.2695  -15.6261   20.0572 H   0  0  0  0  0  0
  -26.7203  -32.5413   23.1078 H   0  0  0  0  0  0
  -25.0056  -33.9694   25.0388 H   0  0  0  0  0  0
  -22.7267  -31.2991   21.3942 H   0  0  0  0  0  0
  -23.3748  -35.9624   23.3310 H   0  0  0  0  0  0
  -24.3576  -36.8903   22.2053 H   0  0  0  0  0  0
  -23.7250  -37.6493   23.6660 H   0  0  0  0  0  0
  -26.1151  -31.5291   20.6108 H   0  0  0  0  0  0
  -26.8527  -30.8178   22.0143 H   0  0  0  0  0  0
  -28.1239  -28.9182   21.2254 H   0  0  0  0  0  0
  -25.9908  -25.9067   18.9974 H   0  0  0  0  0  0
  -23.9817  -27.3114   18.9890 H   0  0  0  0  0  0
  -23.7723  -30.5871   19.4016 H   0  0  0  0  0  0
  -22.7691  -29.2423   19.8529 H   0  0  0  0  0  0
  -25.1300  -36.1921   25.0818 H   0  0  0  0  0  0
  -20.9994  -28.3279   24.1384 H   0  0  0  0  0  0
  -20.5679  -26.2312   23.3613 H   0  0  0  0  0  0
  -21.6647  -26.7435   22.1201 H   0  0  0  0  0  0
  -19.6917  -25.6289   21.1246 H   0  0  0  0  0  0
  -19.6687  -27.3188   20.6739 H   0  0  0  0  0  0
  -17.4203  -26.6666   21.4037 H   0  0  0  0  0  0
  -18.0347  -26.0068   22.9029 H   0  0  0  0  0  0
  -19.7945  -30.7279   24.2251 H   0  0  0  0  0  0
  -17.5022  -31.6265   24.5167 H   0  0  0  0  0  0
  -15.5359  -30.2985   23.7655 H   0  0  0  0  0  0
  -15.8682  -28.0815   22.7074 H   0  0  0  0  0  0
  -24.5878  -30.7113   25.7763 H   0  0  0  0  0  0
  -24.8937  -32.2916   26.4871 H   0  0  0  0  0  0
  -25.8026  -30.8900   27.0217 H   0  0  0  0  0  0
  -26.2939  -29.6739   24.1226 H   0  0  0  0  0  0
  -27.4008  -29.7259   25.4745 H   0  0  0  0  0  0
  -27.8828  -30.4263   23.9482 H   0  0  0  0  0  0
  -27.2638  -33.3623   26.2072 H   0  0  0  0  0  0
  -28.3859  -32.6897   25.0335 H   0  0  0  0  0  0
  -28.0713  -31.8462   26.5425 H   0  0  0  0  0  0
  -28.2602  -38.0091   24.7498 H   0  0  0  0  0  0
  -28.1067  -36.2621   24.6314 H   0  0  0  0  0  0
  -27.2292  -37.1474   25.8869 H   0  0  0  0  0  0
  -20.9401  -29.8772   21.6857 H   0  0  0  0  0  0
  -26.0174  -38.2846   24.1392 H   0  0  0  0  0  0
  -27.5585  -19.7204   21.9252 H   0  0  0  0  0  0
  -30.9661  -20.1570   19.3856 H   0  0  0  0  0  0
  -27.9079  -17.3412   22.0169 H   0  0  0  0  0  0
  -31.3442  -17.7292   19.4781 H   0  0  0  0  0  0
  -27.1101  -25.1709   21.4114 H   0  0  0  0  0  0
  -30.5386  -22.9973   20.1702 H   0  0  0  0  0  0
  -29.3951  -22.7088   18.8208 H   0  0  0  0  0  0
  -28.8810  -15.3792   21.2665 H   0  0  0  0  0  0
  1 25  1  0  0  0
  1 30  2  0  0  0
  1 82  1  0  0  0
  2  3  1  0  0  0
  2 25  1  0  0  0
  2 84  1  0  0  0
  2 85  1  0  0  0
  3  4  1  0  0  0
  3 86  1  0  0  0
  3 87  1  0  0  0
  4  5  1  0  0  0
  4 88  1  0  0  0
  4 89  1  0  0  0
  5  6  1  0  0  0
  5 26  1  0  0  0
  5 90  1  0  0  0
  6 25  1  0  0  0
  6 91  1  0  0  0
  6 92  1  0  0  0
  7  8  2  0  0  0
  7 26  1  0  0  0
  7 29  1  0  0  0
  8  9  1  0  0  0
  8 22  1  0  0  0
  9 10  1  0  0  0
  9 27  2  0  0  0
 10 11  2  0  0  0
 10 15  1  0  0  0
 11 12  1  0  0  0
 11 93  1  0  0  0
 12 13  2  0  0  0
 12 94  1  0  0  0
 13 14  1  0  0  0
 13 31  1  0  0  0
 14 15  2  0  0  0
 14 95  1  0  0  0
 15 96  1  0  0  0
 16 17  2  0  0  0
 16 21  1  0  0  0
 16 31  1  0  0  0
 17 18  1  0  0  0
 17 97  1  0  0  0
 18 19  2  0  0  0
 18 98  1  0  0  0
 19 20  1  0  0  0
 19 24  1  0  0  0
 20 21  2  0  0  0
 20 99  1  0  0  0
 21 23  1  0  0  0
 22 28  1  0  0  0
 22 32  2  0  0  0
 26 27  1  0  0  0
 28100  1  0  0  0
 28101  1  0  0  0
 29102  1  0  0  0
 29103  1  0  0  0
 33 34  1  0  0  0
 33 66  1  0  0  0
 33 70  2  0  0  0
 34 36  1  0  0  0
 34 59  1  0  0  0
 34104  1  0  0  0
 35 44  2  0  0  0
 35 45  1  0  0  0
 35 68  1  0  0  0
 36 56  1  0  0  0
 36105  1  0  0  0
 37 39  1  0  0  0
 37 47  1  0  0  0
 37 66  1  0  0  0
 37106  1  0  0  0
 38 43  2  0  0  0
 38 46  1  0  0  0
 38 47  1  0  0  0
 39 64  1  0  0  0
 39 67  2  0  0  0
 40 52  1  0  0  0
 40 53  2  0  0  0
 40 58  1  0  0  0
 41107  1  0  0  0
 41108  1  0  0  0
 41109  1  0  0  0
 41 48  1  0  0  0
 42 43  1  0  0  0
 42 66  1  0  0  0
 42110  1  0  0  0
 42111  1  0  0  0
 43 44  1  0  0  0
 44112  1  0  0  0
 45 46  2  0  0  0
 45113  1  0  0  0
 46114  1  0  0  0
 47115  1  0  0  0
 47116  1  0  0  0
 48 56  1  0  0  0
 48 65  1  0  0  0
 48117  1  0  0  0
 49 50  1  0  0  0
 49 53  1  0  0  0
 49 64  1  0  0  0
 49118  1  0  0  0
 50 51  1  0  0  0
 50119  1  0  0  0
 50120  1  0  0  0
 51 52  1  0  0  0
 51121  1  0  0  0
 51122  1  0  0  0
 52123  1  0  0  0
 52124  1  0  0  0
 53 54  1  0  0  0
 54 55  2  0  0  0
 54125  1  0  0  0
 55 57  1  0  0  0
 55126  1  0  0  0
 56 69  2  0  0  0
 57 58  2  0  0  0
 57127  1  0  0  0
 58128  1  0  0  0
 59 60  1  0  0  0
 59 61  1  0  0  0
 59 62  1  0  0  0
 60129  1  0  0  0
 60130  1  0  0  0
 60131  1  0  0  0
 61132  1  0  0  0
 61133  1  0  0  0
 61134  1  0  0  0
 62135  1  0  0  0
 62136  1  0  0  0
 62137  1  0  0  0
 63 65  1  0  0  0
 63138  1  0  0  0
 63139  1  0  0  0
 63140  1  0  0  0
 64141  1  0  0  0
 65142  1  0  0  0
 68 79  1  0  0  0
 71 73  2  0  0  0
 71 75  1  0  0  0
 71143  1  0  0  0
 72 74  1  0  0  0
 72 75  2  0  0  0
 72144  1  0  0  0
 73 76  1  0  0  0
 73145  1  0  0  0
 74 76  2  0  0  0
 74146  1  0  0  0
 75 81  1  0  0  0
 76 82  1  0  0  0
 77 78  1  0  0  0
 77 79  2  0  0  0
 77 80  1  0  0  0
 78 81  1  0  0  0
 78 83  2  0  0  0
 79147  1  0  0  0
 80 81  1  0  0  0
 80148  1  0  0  0
 80149  1  0  0  0
 82150  1  0  0  0
M  ISO  4   1 100  68 101  79 101  82 100
M  END
> <chiral flag>
0

> <version>
0

> <s_m_source_file>
/data/baiqing/PycharmProjects/Reinvent-master-3.2/result/LINK_invent/BTK/process_docking_weight1_custom_product_contain_oxygen_bond_distance_aromatic_linkinvent_7_9_3/rearranged_h_0083.sdf

> <i_m_source_file_index>
6

> <r_mmod_Potential_Energy-OPLS-2005>
216.110015869141

> <r_mmod_Stretch_Energy-OPLS-2005>
106.537666320801

> <r_mmod_Bend_Energy-OPLS-2005>
270.702850341797

> <r_mmod_Torsional_Energy-OPLS-2005>
219.89909362793

> <r_mmod_Improper_Torsional_Energy-OPLS-2005>
3.45828318595886

> <r_mmod_Van_der_Waal_Energy-OPLS-2005>
134.482055664062

> <r_mmod_Electrostatic_Energy-OPLS-2005>
-389.401977539062

> <r_mmod_Solvation_Energy-OPLS-2005>
-217.736526489258

> <b_mmod_Minimization_Converged-OPLS-2005>
0

> <r_mmod_RMS_Derivative-OPLS-2005>
0.385791778564453

$$$$
6
                    3D
 Structure written by MMmdl.
142150  0  0  1  0            999 V2000
  -30.3322  -15.4684   20.3255 C   0  0  0  0  0  0
  -30.4460  -12.9605   19.5158 C   0  0  0  0  0  0
  -29.5433  -12.5989   18.3050 C   0  0  0  0  0  0
  -28.1122  -12.2741   18.7593 C   0  0  0  0  0  0
  -27.6041  -13.2845   19.8159 C   0  0  2  0  0  0
  -28.6307  -13.5419   20.9375 C   0  0  0  0  0  0
  -25.2388  -13.8239   20.5858 C   0  0  0  0  0  0
  -24.1727  -13.0426   20.9256 C   0  0  0  0  0  0
  -24.6394  -11.6915   20.8754 C   0  0  0  0  0  0
  -23.9097  -10.4271   21.0398 C   0  0  0  0  0  0
  -24.3637   -9.4179   21.9171 C   0  0  0  0  0  0
  -23.6303   -8.2225   22.0748 C   0  0  0  0  0  0
  -22.4286   -8.0258   21.3544 C   0  0  0  0  0  0
  -21.9925   -9.0238   20.4655 C   0  0  0  0  0  0
  -22.7276  -10.2104   20.3056 C   0  0  0  0  0  0
  -21.6839   -6.0735   22.5283 C   0  0  0  0  0  0
  -21.4004   -6.5645   23.8212 C   0  0  0  0  0  0
  -21.3664   -5.6804   24.9172 C   0  0  0  0  0  0
  -21.6040   -4.3061   24.7226 C   0  0  0  0  0  0
  -21.8827   -3.8154   23.4351 C   0  0  0  0  0  0
  -21.9199   -4.6971   22.3405 C   0  0  0  0  0  0
  -22.7745  -13.5135   21.1950 C   0  0  0  0  0  0
  -22.1674   -4.2170   21.0983 F   0  0  0  0  0  0
  -21.5637   -3.4540   25.7732 F   0  0  0  0  0  0
  -29.8226  -14.1186   20.2804 N   0  0  0  0  0  0
  -26.2804  -12.9538   20.3226 N   0  0  0  0  0  0
  -25.9315  -11.6634   20.5665 N   0  0  0  0  0  0
  -22.0411  -12.8083   22.0488 N   0  0  0  0  0  0
  -25.4126  -15.1980   20.4562 N   0  0  0  0  0  0
  -31.5658  -15.4585   20.1626 O   0  0  0  0  0  0
  -21.6636   -6.8876   21.4246 O   0  0  0  0  0  0
  -22.3411  -14.5457   20.6803 O   0  0  0  0  0  0
  -24.6742  -31.8113   23.1668 C   0  0  0  0  0  0
  -25.9383  -32.4527   23.8163 C   0  0  1  0  0  0
  -27.2014  -26.7972   20.1882 C   0  0  0  0  0  0
  -25.5986  -33.8342   24.2027 N   0  0  0  0  0  0
  -23.4929  -30.4264   21.5153 C   0  0  2  0  0  0
  -24.9500  -28.7930   20.1072 C   0  0  0  0  0  0
  -22.7721  -29.4377   22.4715 C   0  0  0  0  0  0
  -18.0330  -28.1401   22.8466 C   0  0  0  0  0  0
  -24.1497  -36.7147   23.2657 C   0  0  0  0  0  0
  -26.0726  -30.5696   21.4283 C   0  0  0  0  0  0
  -26.1335  -29.1484   20.7675 C   0  0  0  0  0  0
  -27.2468  -28.1689   20.7910 C   0  0  0  0  0  0
  -26.0048  -26.6489   19.4439 C   0  0  0  0  0  0
  -24.9206  -27.5686   19.4208 C   0  0  0  0  0  0
  -23.7455  -29.7360   20.1448 C   0  0  0  0  0  0
  -25.4150  -36.2926   24.0302 C   0  0  1  0  0  0
  -20.5969  -28.3777   23.1135 C   0  0  2  0  0  0
  -20.6803  -26.9432   22.5395 C   0  0  0  0  0  0
  -19.5775  -26.6367   21.5200 C   0  0  0  0  0  0
  -18.1956  -26.7928   22.1605 C   0  0  0  0  0  0
  -19.1596  -28.8899   23.2799 C   0  0  0  0  0  0
  -18.9503  -30.1478   23.8851 C   0  0  0  0  0  0
  -17.6497  -30.6592   24.0537 C   0  0  0  0  0  0
  -25.9113  -34.9319   23.4981 C   0  0  0  0  0  0
  -16.5382  -29.9087   23.6335 C   0  0  0  0  0  0
  -16.7311  -28.6494   23.0385 C   0  0  0  0  0  0
  -26.4592  -31.6525   25.0742 C   0  0  0  0  0  0
  -25.3665  -31.3777   26.1345 C   0  0  0  0  0  0
  -27.0578  -30.2881   24.6626 C   0  0  0  0  0  0
  -27.6019  -32.4412   25.7545 C   0  0  0  0  0  0
  -27.5562  -37.1750   24.8483 C   0  0  0  0  0  0
  -21.4371  -29.3054   22.3468 N   0  0  0  0  0  0
  -26.4294  -37.3680   23.9397 N   0  0  0  0  0  0
  -24.7679  -30.9692   22.0862 N   0  0  0  0  0  0
  -23.4216  -28.7924   23.2990 O   0  0  0  0  0  0
  -28.1434  -25.5919   20.2381 O   0  0  0  0  0  0
  -26.5752  -34.8866   22.4591 O   0  0  0  0  0  0
  -23.5789  -32.1138   23.6690 O   0  0  0  0  0  0
  -28.5407  -19.6426   20.2776 C   0  0  0  0  0  0
  -30.7798  -19.1405   20.3067 C   0  0  0  0  0  0
  -29.5894  -18.4334   20.3143 C   0  0  0  0  0  0
  -28.8857  -21.1121   20.2609 C   0  0  0  0  0  0
  -28.0660  -22.5832   20.2628 C   0  0  0  0  0  0
  -27.7281  -24.0739   20.2566 C   0  0  0  0  0  0
  -29.5082  -16.7550   20.3592 N   0  0  0  0  0  0
  -30.6447  -20.9628   20.2661 S   0  0  0  0  0  0
  -31.4426  -13.2197   19.1477 H   0  0  0  0  0  0
  -30.5915  -12.0998   20.1727 H   0  0  0  0  0  0
  -29.9647  -11.7489   17.7697 H   0  0  0  0  0  0
  -29.5228  -13.4306   17.5960 H   0  0  0  0  0  0
  -28.1304  -11.2760   19.2021 H   0  0  0  0  0  0
  -27.4334  -12.2161   17.9082 H   0  0  0  0  0  0
  -27.4896  -14.2232   19.2666 H   0  0  0  0  0  0
  -28.8621  -12.6297   21.4918 H   0  0  0  0  0  0
  -28.2306  -14.2509   21.6662 H   0  0  0  0  0  0
  -25.2777   -9.5647   22.4746 H   0  0  0  0  0  0
  -24.0021   -7.4605   22.7437 H   0  0  0  0  0  0
  -21.0871   -8.8749   19.8937 H   0  0  0  0  0  0
  -22.3734  -10.9639   19.6155 H   0  0  0  0  0  0
  -21.1984   -7.6152   23.9722 H   0  0  0  0  0  0
  -21.1481   -6.0523   25.9075 H   0  0  0  0  0  0
  -22.0607   -2.7626   23.2834 H   0  0  0  0  0  0
  -22.4053  -11.9708   22.4821 H   0  0  0  0  0  0
  -21.1036  -13.1077   22.2781 H   0  0  0  0  0  0
  -24.6736  -15.8618   20.6603 H   0  0  0  0  0  0
  -26.2982  -15.6422   20.2623 H   0  0  0  0  0  0
  -26.7441  -32.5054   23.0877 H   0  0  0  0  0  0
  -25.0122  -33.9393   25.0164 H   0  0  0  0  0  0
  -22.8106  -31.2617   21.3379 H   0  0  0  0  0  0
  -23.3764  -35.9475   23.3344 H   0  0  0  0  0  0
  -24.3518  -36.8772   22.2057 H   0  0  0  0  0  0
  -23.7258  -37.6341   23.6694 H   0  0  0  0  0  0
  -26.2927  -31.3062   20.6542 H   0  0  0  0  0  0
  -26.9129  -30.6124   22.1068 H   0  0  0  0  0  0
  -28.1354  -28.4298   21.3522 H   0  0  0  0  0  0
  -25.8615  -25.7345   18.8838 H   0  0  0  0  0  0
  -24.0357  -27.3001   18.8583 H   0  0  0  0  0  0
  -23.9201  -30.5013   19.3918 H   0  0  0  0  0  0
  -22.8483  -29.2146   19.8100 H   0  0  0  0  0  0
  -25.1352  -36.1717   25.0802 H   0  0  0  0  0  0
  -21.0075  -28.3416   24.1244 H   0  0  0  0  0  0
  -20.5646  -26.2400   23.3670 H   0  0  0  0  0  0
  -21.6678  -26.7382   22.1201 H   0  0  0  0  0  0
  -19.6934  -25.6259   21.1268 H   0  0  0  0  0  0
  -19.6694  -27.3146   20.6699 H   0  0  0  0  0  0
  -17.4218  -26.6672   21.4009 H   0  0  0  0  0  0
  -18.0343  -26.0076   22.9004 H   0  0  0  0  0  0
  -19.7992  -30.7301   24.2203 H   0  0  0  0  0  0
  -17.5056  -31.6267   24.5160 H   0  0  0  0  0  0
  -15.5380  -30.2973   23.7692 H   0  0  0  0  0  0
  -15.8703  -28.0777   22.7167 H   0  0  0  0  0  0
  -24.5913  -30.7063   25.7620 H   0  0  0  0  0  0
  -24.8803  -32.2989   26.4578 H   0  0  0  0  0  0
  -25.7883  -30.9076   27.0243 H   0  0  0  0  0  0
  -26.3333  -29.6443   24.1647 H   0  0  0  0  0  0
  -27.4029  -29.7357   25.5374 H   0  0  0  0  0  0
  -27.9287  -30.3992   24.0165 H   0  0  0  0  0  0
  -27.2498  -33.3725   26.1988 H   0  0  0  0  0  0
  -28.3898  -32.6981   25.0445 H   0  0  0  0  0  0
  -28.0638  -31.8682   26.5594 H   0  0  0  0  0  0
  -28.2612  -38.0020   24.7477 H   0  0  0  0  0  0
  -28.1033  -36.2532   24.6398 H   0  0  0  0  0  0
  -27.2248  -37.1505   25.8887 H   0  0  0  0  0  0
  -20.9637  -29.8744   21.6570 H   0  0  0  0  0  0
  -26.0122  -38.2741   24.1373 H   0  0  0  0  0  0
  -27.4962  -19.3606   20.2668 H   0  0  0  0  0  0
  -31.7762  -18.7165   20.3255 H   0  0  0  0  0  0
  -27.0597  -22.1860   20.2906 H   0  0  0  0  0  0
  -26.6502  -24.1502   20.2964 H   0  0  0  0  0  0
  -28.5433  -16.4555   20.4060 H   0  0  0  0  0  0
  1 25  1  0  0  0
  1 30  2  0  0  0
  1 77  1  0  0  0
  2  3  1  0  0  0
  2 25  1  0  0  0
  2 79  1  0  0  0
  2 80  1  0  0  0
  3  4  1  0  0  0
  3 81  1  0  0  0
  3 82  1  0  0  0
  4  5  1  0  0  0
  4 83  1  0  0  0
  4 84  1  0  0  0
  5  6  1  0  0  0
  5 26  1  0  0  0
  5 85  1  0  0  0
  6 25  1  0  0  0
  6 86  1  0  0  0
  6 87  1  0  0  0
  7  8  2  0  0  0
  7 26  1  0  0  0
  7 29  1  0  0  0
  8  9  1  0  0  0
  8 22  1  0  0  0
  9 10  1  0  0  0
  9 27  2  0  0  0
 10 11  2  0  0  0
 10 15  1  0  0  0
 11 12  1  0  0  0
 11 88  1  0  0  0
 12 13  2  0  0  0
 12 89  1  0  0  0
 13 14  1  0  0  0
 13 31  1  0  0  0
 14 15  2  0  0  0
 14 90  1  0  0  0
 15 91  1  0  0  0
 16 17  2  0  0  0
 16 21  1  0  0  0
 16 31  1  0  0  0
 17 18  1  0  0  0
 17 92  1  0  0  0
 18 19  2  0  0  0
 18 93  1  0  0  0
 19 20  1  0  0  0
 19 24  1  0  0  0
 20 21  2  0  0  0
 20 94  1  0  0  0
 21 23  1  0  0  0
 22 28  1  0  0  0
 22 32  2  0  0  0
 26 27  1  0  0  0
 28 95  1  0  0  0
 28 96  1  0  0  0
 29 97  1  0  0  0
 29 98  1  0  0  0
 33 34  1  0  0  0
 33 66  1  0  0  0
 33 70  2  0  0  0
 34 36  1  0  0  0
 34 59  1  0  0  0
 34 99  1  0  0  0
 35 44  2  0  0  0
 35 45  1  0  0  0
 35 68  1  0  0  0
 36 56  1  0  0  0
 36100  1  0  0  0
 37 39  1  0  0  0
 37 47  1  0  0  0
 37 66  1  0  0  0
 37101  1  0  0  0
 38 43  2  0  0  0
 38 46  1  0  0  0
 38 47  1  0  0  0
 39 64  1  0  0  0
 39 67  2  0  0  0
 40 52  1  0  0  0
 40 53  2  0  0  0
 40 58  1  0  0  0
 41102  1  0  0  0
 41103  1  0  0  0
 41104  1  0  0  0
 41 48  1  0  0  0
 42 43  1  0  0  0
 42 66  1  0  0  0
 42105  1  0  0  0
 42106  1  0  0  0
 43 44  1  0  0  0
 44107  1  0  0  0
 45 46  2  0  0  0
 45108  1  0  0  0
 46109  1  0  0  0
 47110  1  0  0  0
 47111  1  0  0  0
 48 56  1  0  0  0
 48 65  1  0  0  0
 48112  1  0  0  0
 49 50  1  0  0  0
 49 53  1  0  0  0
 49 64  1  0  0  0
 49113  1  0  0  0
 50 51  1  0  0  0
 50114  1  0  0  0
 50115  1  0  0  0
 51 52  1  0  0  0
 51116  1  0  0  0
 51117  1  0  0  0
 52118  1  0  0  0
 52119  1  0  0  0
 53 54  1  0  0  0
 54 55  2  0  0  0
 54120  1  0  0  0
 55 57  1  0  0  0
 55121  1  0  0  0
 56 69  2  0  0  0
 57 58  2  0  0  0
 57122  1  0  0  0
 58123  1  0  0  0
 59 60  1  0  0  0
 59 61  1  0  0  0
 59 62  1  0  0  0
 60124  1  0  0  0
 60125  1  0  0  0
 60126  1  0  0  0
 61127  1  0  0  0
 61128  1  0  0  0
 61129  1  0  0  0
 62130  1  0  0  0
 62131  1  0  0  0
 62132  1  0  0  0
 63 65  1  0  0  0
 63133  1  0  0  0
 63134  1  0  0  0
 63135  1  0  0  0
 64136  1  0  0  0
 65137  1  0  0  0
 68 76  1  0  0  0
 71 73  1  0  0  0
 71 74  2  0  0  0
 71138  1  0  0  0
 72 73  2  0  0  0
 72 78  1  0  0  0
 72139  1  0  0  0
 73 77  1  0  0  0
 74 75  1  0  0  0
 74 78  1  0  0  0
 75 76  2  0  0  0
 75140  1  0  0  0
 76141  1  0  0  0
 77142  1  0  0  0
M  ISO  4   1 100  68 101  76 101  77 100
M  END
> <chiral flag>
0

> <version>
0

> <s_m_source_file>
/data/baiqing/PycharmProjects/Reinvent-master-3.2/result/LINK_invent/BTK/process_docking_weight1_custom_product_contain_oxygen_bond_distance_aromatic_linkinvent_7_9_3/rearranged_h_0083.sdf

> <i_m_source_file_index>
7

> <r_mmod_Potential_Energy-OPLS-2005>
1805.15258789062

> <r_mmod_Stretch_Energy-OPLS-2005>
725.260925292969

> <r_mmod_Bend_Energy-OPLS-2005>
599.708740234375

> <r_mmod_Torsional_Energy-OPLS-2005>
212.569396972656

> <r_mmod_Improper_Torsional_Energy-OPLS-2005>
3.60299801826477

> <r_mmod_Van_der_Waal_Energy-OPLS-2005>
111.309265136719

> <r_mmod_Electrostatic_Energy-OPLS-2005>
-329.529296875

> <r_mmod_Solvation_Energy-OPLS-2005>
-219.312438964844

> <b_mmod_Minimization_Converged-OPLS-2005>
0

> <r_mmod_RMS_Derivative-OPLS-2005>
6.11333656311035

$$$$
7
                    3D
 Structure written by MMmdl.
150159  0  0  1  0            999 V2000
  -30.5681  -14.8785   20.3985 C   0  0  0  0  0  0
  -30.4287  -12.5361   19.4919 C   0  0  0  0  0  0
  -29.5139  -12.5226   18.2462 C   0  0  0  0  0  0
  -28.0436  -12.3271   18.6574 C   0  0  0  0  0  0
  -27.6300  -13.2459   19.8376 C   0  0  2  0  0  0
  -28.6708  -13.2520   20.9771 C   0  0  0  0  0  0
  -25.2489  -13.8231   20.5725 C   0  0  0  0  0  0
  -24.1791  -13.0459   20.9224 C   0  0  0  0  0  0
  -24.6401  -11.6938   20.8770 C   0  0  0  0  0  0
  -23.9086  -10.4313   21.0428 C   0  0  0  0  0  0
  -24.3649   -9.4216   21.9188 C   0  0  0  0  0  0
  -23.6316   -8.2250   22.0743 C   0  0  0  0  0  0
  -22.4291   -8.0300   21.3540 C   0  0  0  0  0  0
  -21.9943   -9.0275   20.4638 C   0  0  0  0  0  0
  -22.7274  -10.2149   20.3063 C   0  0  0  0  0  0
  -21.6859   -6.0753   22.5284 C   0  0  0  0  0  0
  -21.4017   -6.5651   23.8219 C   0  0  0  0  0  0
  -21.3654   -5.6798   24.9176 C   0  0  0  0  0  0
  -21.6045   -4.3061   24.7219 C   0  0  0  0  0  0
  -21.8820   -3.8155   23.4339 C   0  0  0  0  0  0
  -21.9197   -4.6980   22.3402 C   0  0  0  0  0  0
  -22.7818  -13.5228   21.1889 C   0  0  0  0  0  0
  -22.1665   -4.2171   21.0973 F   0  0  0  0  0  0
  -21.5618   -3.4537   25.7723 F   0  0  0  0  0  0
  -29.9574  -13.6315   20.3833 N   0  0  0  0  0  0
  -26.2890  -12.9448   20.3238 N   0  0  0  0  0  0
  -25.9327  -11.6577   20.5741 N   0  0  0  0  0  0
  -22.0463  -12.8204   22.0432 N   0  0  0  0  0  0
  -25.4202  -15.1957   20.4199 N   0  0  0  0  0  0
  -31.7745  -14.9153   20.1365 O   0  0  0  0  0  0
  -21.6643   -6.8904   21.4242 O   0  0  0  0  0  0
  -22.3496  -14.5534   20.6735 O   0  0  0  0  0  0
  -24.6385  -31.8492   23.1906 C   0  0  0  0  0  0
  -25.9174  -32.4714   23.8295 C   0  0  1  0  0  0
  -27.2111  -27.1860   20.1493 C   0  0  0  0  0  0
  -25.5943  -33.8521   24.2224 N   0  0  0  0  0  0
  -23.4395  -30.4726   21.5338 C   0  0  2  0  0  0
  -24.8923  -28.9099   20.1062 C   0  0  0  0  0  0
  -22.7546  -29.4582   22.4839 C   0  0  0  0  0  0
  -18.0304  -28.1392   22.8483 C   0  0  0  0  0  0
  -24.1496  -36.7283   23.2637 C   0  0  0  0  0  0
  -25.9935  -30.7393   21.3854 C   0  0  0  0  0  0
  -26.0665  -29.3539   20.7300 C   0  0  0  0  0  0
  -27.2318  -28.5060   20.7397 C   0  0  0  0  0  0
  -26.0197  -26.8340   19.4816 C   0  0  0  0  0  0
  -24.8796  -27.6620   19.4641 C   0  0  0  0  0  0
  -23.6653  -29.8050   20.1511 C   0  0  0  0  0  0
  -25.4116  -36.3054   24.0329 C   0  0  1  0  0  0
  -20.5913  -28.3719   23.1234 C   0  0  2  0  0  0
  -20.6794  -26.9423   22.5400 C   0  0  0  0  0  0
  -19.5762  -26.6375   21.5209 C   0  0  0  0  0  0
  -18.1943  -26.7928   22.1631 C   0  0  0  0  0  0
  -19.1563  -28.8865   23.2855 C   0  0  0  0  0  0
  -18.9476  -30.1457   23.8891 C   0  0  0  0  0  0
  -17.6472  -30.6583   24.0566 C   0  0  0  0  0  0
  -25.9055  -34.9423   23.5080 C   0  0  0  0  0  0
  -16.5365  -29.9092   23.6328 C   0  0  0  0  0  0
  -16.7287  -28.6512   23.0351 C   0  0  0  0  0  0
  -26.4518  -31.6544   25.0702 C   0  0  0  0  0  0
  -25.3714  -31.3735   26.1401 C   0  0  0  0  0  0
  -27.0361  -30.2935   24.6243 C   0  0  0  0  0  0
  -27.6069  -32.4283   25.7487 C   0  0  0  0  0  0
  -27.5585  -37.1795   24.8460 C   0  0  0  0  0  0
  -21.4238  -29.3064   22.3602 N   0  0  0  0  0  0
  -26.4288  -37.3759   23.9397 N   0  0  0  0  0  0
  -24.7102  -31.0396   22.0926 N   0  0  0  0  0  0
  -23.4214  -28.8118   23.2961 O   0  0  0  0  0  0
  -28.2435  -26.1967   20.1771 O   0  0  0  0  0  0
  -26.5644  -34.8916   22.4656 O   0  0  0  0  0  0
  -23.5513  -32.1356   23.7135 O   0  0  0  0  0  0
  -31.3814  -18.9816   18.6294 C   0  0  0  0  0  0
  -30.6771  -20.1288   19.0307 C   0  0  0  0  0  0
  -31.0793  -17.7074   19.1299 C   0  0  0  0  0  0
  -29.3345  -18.7531   20.4579 C   0  0  0  0  0  0
  -29.6074  -20.1341   19.9618 C   0  0  0  0  0  0
  -30.0594  -17.5054   20.0838 C   0  0  0  0  0  0
  -28.4307  -23.5553   20.3951 C   0  0  0  0  0  0
  -28.0335  -22.2399   20.9595 C   0  0  0  0  0  0
  -27.9214  -24.8539   20.6280 C   0  0  0  0  0  0
  -29.5073  -22.7999   19.5743 C   0  0  0  0  0  0
  -29.0171  -21.5247   20.2108 N   0  0  0  0  0  0
  -29.8036  -16.0682   20.5323 N   0  0  0  0  0  0
  -27.1784  -21.9578   21.7724 O   0  0  0  0  0  0
  -31.4654  -12.6732   19.1795 H   0  0  0  0  0  0
  -30.3973  -11.5783   20.0144 H   0  0  0  0  0  0
  -29.8190  -11.7321   17.5591 H   0  0  0  0  0  0
  -29.6206  -13.4635   17.7027 H   0  0  0  0  0  0
  -27.9186  -11.2814   18.9401 H   0  0  0  0  0  0
  -27.3869  -12.4886   17.8022 H   0  0  0  0  0  0
  -27.6003  -14.2553   19.4258 H   0  0  0  0  0  0
  -28.7329  -12.2750   21.4580 H   0  0  0  0  0  0
  -28.3820  -13.9621   21.7538 H   0  0  0  0  0  0
  -25.2800   -9.5676   22.4760 H   0  0  0  0  0  0
  -24.0017   -7.4635   22.7465 H   0  0  0  0  0  0
  -21.0875   -8.8818   19.8952 H   0  0  0  0  0  0
  -22.3754  -10.9696   19.6177 H   0  0  0  0  0  0
  -21.2012   -7.6162   23.9739 H   0  0  0  0  0  0
  -21.1470   -6.0518   25.9081 H   0  0  0  0  0  0
  -22.0606   -2.7618   23.2835 H   0  0  0  0  0  0
  -22.4083  -11.9849   22.4806 H   0  0  0  0  0  0
  -21.1086  -13.1230   22.2667 H   0  0  0  0  0  0
  -24.6637  -15.8587   20.5497 H   0  0  0  0  0  0
  -26.2722  -15.6312   20.0923 H   0  0  0  0  0  0
  -26.7241  -32.5362   23.1030 H   0  0  0  0  0  0
  -25.0081  -33.9635   25.0362 H   0  0  0  0  0  0
  -22.7404  -31.2979   21.3810 H   0  0  0  0  0  0
  -23.3763  -35.9612   23.3285 H   0  0  0  0  0  0
  -24.3593  -36.8912   22.2055 H   0  0  0  0  0  0
  -23.7241  -37.6477   23.6676 H   0  0  0  0  0  0
  -26.1410  -31.4964   20.6135 H   0  0  0  0  0  0
  -26.8676  -30.7932   22.0239 H   0  0  0  0  0  0
  -28.1267  -28.8388   21.2466 H   0  0  0  0  0  0
  -25.9586  -25.8748   18.9870 H   0  0  0  0  0  0
  -23.9877  -27.3251   18.9542 H   0  0  0  0  0  0
  -23.7964  -30.5826   19.3978 H   0  0  0  0  0  0
  -22.7837  -29.2420   19.8392 H   0  0  0  0  0  0
  -25.1287  -36.1912   25.0827 H   0  0  0  0  0  0
  -21.0020  -28.3329   24.1349 H   0  0  0  0  0  0
  -20.5675  -26.2345   23.3626 H   0  0  0  0  0  0
  -21.6661  -26.7426   22.1199 H   0  0  0  0  0  0
  -19.6937  -25.6278   21.1251 H   0  0  0  0  0  0
  -19.6694  -27.3184   20.6734 H   0  0  0  0  0  0
  -17.4206  -26.6661   21.4044 H   0  0  0  0  0  0
  -18.0363  -26.0060   22.9025 H   0  0  0  0  0  0
  -19.7942  -30.7268   24.2281 H   0  0  0  0  0  0
  -17.5022  -31.6260   24.5165 H   0  0  0  0  0  0
  -15.5362  -30.3000   23.7619 H   0  0  0  0  0  0
  -15.8695  -28.0813   22.7079 H   0  0  0  0  0  0
  -24.5894  -30.7082   25.7721 H   0  0  0  0  0  0
  -24.8919  -32.2934   26.4774 H   0  0  0  0  0  0
  -25.8006  -30.8938   27.0206 H   0  0  0  0  0  0
  -26.2966  -29.6670   24.1253 H   0  0  0  0  0  0
  -27.3986  -29.7207   25.4787 H   0  0  0  0  0  0
  -27.8874  -30.4152   23.9537 H   0  0  0  0  0  0
  -27.2672  -33.3586   26.2049 H   0  0  0  0  0  0
  -28.3908  -32.6818   25.0337 H   0  0  0  0  0  0
  -28.0718  -31.8412   26.5415 H   0  0  0  0  0  0
  -28.2579  -38.0111   24.7499 H   0  0  0  0  0  0
  -28.1096  -36.2638   24.6284 H   0  0  0  0  0  0
  -27.2301  -37.1426   25.8860 H   0  0  0  0  0  0
  -20.9432  -29.8812   21.6821 H   0  0  0  0  0  0
  -26.0176  -38.2837   24.1382 H   0  0  0  0  0  0
  -32.1729  -19.0848   17.9006 H   0  0  0  0  0  0
  -31.0014  -21.0461   18.5646 H   0  0  0  0  0  0
  -31.6543  -16.8849   18.7370 H   0  0  0  0  0  0
  -28.5254  -18.6497   21.1657 H   0  0  0  0  0  0
  -27.1059  -24.9220   21.3349 H   0  0  0  0  0  0
  -30.5481  -23.0094   19.8262 H   0  0  0  0  0  0
  -29.3760  -22.7846   18.4907 H   0  0  0  0  0  0
  -28.8732  -15.9045   20.8888 H   0  0  0  0  0  0
  1 25  1  0  0  0
  1 30  2  0  0  0
  1 82  1  0  0  0
  2  3  1  0  0  0
  2 25  1  0  0  0
  2 84  1  0  0  0
  2 85  1  0  0  0
  3  4  1  0  0  0
  3 86  1  0  0  0
  3 87  1  0  0  0
  4  5  1  0  0  0
  4 88  1  0  0  0
  4 89  1  0  0  0
  5  6  1  0  0  0
  5 26  1  0  0  0
  5 90  1  0  0  0
  6 25  1  0  0  0
  6 91  1  0  0  0
  6 92  1  0  0  0
  7  8  2  0  0  0
  7 26  1  0  0  0
  7 29  1  0  0  0
  8  9  1  0  0  0
  8 22  1  0  0  0
  9 10  1  0  0  0
  9 27  2  0  0  0
 10 11  2  0  0  0
 10 15  1  0  0  0
 11 12  1  0  0  0
 11 93  1  0  0  0
 12 13  2  0  0  0
 12 94  1  0  0  0
 13 14  1  0  0  0
 13 31  1  0  0  0
 14 15  2  0  0  0
 14 95  1  0  0  0
 15 96  1  0  0  0
 16 17  2  0  0  0
 16 21  1  0  0  0
 16 31  1  0  0  0
 17 18  1  0  0  0
 17 97  1  0  0  0
 18 19  2  0  0  0
 18 98  1  0  0  0
 19 20  1  0  0  0
 19 24  1  0  0  0
 20 21  2  0  0  0
 20 99  1  0  0  0
 21 23  1  0  0  0
 22 28  1  0  0  0
 22 32  2  0  0  0
 26 27  1  0  0  0
 28100  1  0  0  0
 28101  1  0  0  0
 29102  1  0  0  0
 29103  1  0  0  0
 33 34  1  0  0  0
 33 66  1  0  0  0
 33 70  2  0  0  0
 34 36  1  0  0  0
 34 59  1  0  0  0
 34104  1  0  0  0
 35 44  2  0  0  0
 35 45  1  0  0  0
 35 68  1  0  0  0
 36 56  1  0  0  0
 36105  1  0  0  0
 37 39  1  0  0  0
 37 47  1  0  0  0
 37 66  1  0  0  0
 37106  1  0  0  0
 38 43  2  0  0  0
 38 46  1  0  0  0
 38 47  1  0  0  0
 39 64  1  0  0  0
 39 67  2  0  0  0
 40 52  1  0  0  0
 40 53  2  0  0  0
 40 58  1  0  0  0
 41107  1  0  0  0
 41108  1  0  0  0
 41109  1  0  0  0
 41 48  1  0  0  0
 42 43  1  0  0  0
 42 66  1  0  0  0
 42110  1  0  0  0
 42111  1  0  0  0
 43 44  1  0  0  0
 44112  1  0  0  0
 45 46  2  0  0  0
 45113  1  0  0  0
 46114  1  0  0  0
 47115  1  0  0  0
 47116  1  0  0  0
 48 56  1  0  0  0
 48 65  1  0  0  0
 48117  1  0  0  0
 49 50  1  0  0  0
 49 53  1  0  0  0
 49 64  1  0  0  0
 49118  1  0  0  0
 50 51  1  0  0  0
 50119  1  0  0  0
 50120  1  0  0  0
 51 52  1  0  0  0
 51121  1  0  0  0
 51122  1  0  0  0
 52123  1  0  0  0
 52124  1  0  0  0
 53 54  1  0  0  0
 54 55  2  0  0  0
 54125  1  0  0  0
 55 57  1  0  0  0
 55126  1  0  0  0
 56 69  2  0  0  0
 57 58  2  0  0  0
 57127  1  0  0  0
 58128  1  0  0  0
 59 60  1  0  0  0
 59 61  1  0  0  0
 59 62  1  0  0  0
 60129  1  0  0  0
 60130  1  0  0  0
 60131  1  0  0  0
 61132  1  0  0  0
 61133  1  0  0  0
 61134  1  0  0  0
 62135  1  0  0  0
 62136  1  0  0  0
 62137  1  0  0  0
 63 65  1  0  0  0
 63138  1  0  0  0
 63139  1  0  0  0
 63140  1  0  0  0
 64141  1  0  0  0
 65142  1  0  0  0
 68 79  1  0  0  0
 71 72  2  0  0  0
 71 73  1  0  0  0
 71143  1  0  0  0
 72 75  1  0  0  0
 72144  1  0  0  0
 73 76  2  0  0  0
 73145  1  0  0  0
 74 75  2  0  0  0
 74 76  1  0  0  0
 74146  1  0  0  0
 75 81  1  0  0  0
 76 82  1  0  0  0
 77 78  1  0  0  0
 77 79  2  0  0  0
 77 80  1  0  0  0
 78 81  1  0  0  0
 78 83  2  0  0  0
 79147  1  0  0  0
 80 81  1  0  0  0
 80148  1  0  0  0
 80149  1  0  0  0
 82150  1  0  0  0
M  ISO  4   1 100  68 101  79 101  82 100
M  END
> <chiral flag>
0

> <version>
0

> <s_m_source_file>
/data/baiqing/PycharmProjects/Reinvent-master-3.2/result/LINK_invent/BTK/process_docking_weight1_custom_product_contain_oxygen_bond_distance_aromatic_linkinvent_7_9_3/rearranged_h_0083.sdf

> <i_m_source_file_index>
8

> <r_mmod_Potential_Energy-OPLS-2005>
425.725402832031

> <r_mmod_Stretch_Energy-OPLS-2005>
189.669448852539

> <r_mmod_Bend_Energy-OPLS-2005>
286.754455566406

> <r_mmod_Torsional_Energy-OPLS-2005>
228.405700683594

> <r_mmod_Improper_Torsional_Energy-OPLS-2005>
3.88542342185974

> <r_mmod_Van_der_Waal_Energy-OPLS-2005>
138.61311340332

> <r_mmod_Electrostatic_Energy-OPLS-2005>
-353.397705078125

> <r_mmod_Solvation_Energy-OPLS-2005>
-220.498596191406

> <b_mmod_Minimization_Converged-OPLS-2005>
0

> <r_mmod_RMS_Derivative-OPLS-2005>
2.75652432441711

$$$$
8
                    3D
 Structure written by MMmdl.
154163  0  0  1  0            999 V2000
  -30.6089  -14.7660   20.3286 C   0  0  0  0  0  0
  -30.4525  -12.4336   19.4643 C   0  0  0  0  0  0
  -29.5121  -12.3629   18.2396 C   0  0  0  0  0  0
  -28.0315  -12.2702   18.6596 C   0  0  0  0  0  0
  -27.6393  -13.2149   19.8288 C   0  0  2  0  0  0
  -28.6995  -13.2128   20.9499 C   0  0  0  0  0  0
  -25.2554  -13.8162   20.5694 C   0  0  0  0  0  0
  -24.1818  -13.0440   20.9207 C   0  0  0  0  0  0
  -24.6385  -11.6908   20.8768 C   0  0  0  0  0  0
  -23.9056  -10.4292   21.0417 C   0  0  0  0  0  0
  -24.3614   -9.4200   21.9184 C   0  0  0  0  0  0
  -23.6290   -8.2237   22.0753 C   0  0  0  0  0  0
  -22.4272   -8.0277   21.3548 C   0  0  0  0  0  0
  -21.9902   -9.0250   20.4652 C   0  0  0  0  0  0
  -22.7227  -10.2133   20.3062 C   0  0  0  0  0  0
  -21.6848   -6.0729   22.5277 C   0  0  0  0  0  0
  -21.4014   -6.5635   23.8211 C   0  0  0  0  0  0
  -21.3651   -5.6792   24.9173 C   0  0  0  0  0  0
  -21.6042   -4.3057   24.7229 C   0  0  0  0  0  0
  -21.8818   -3.8142   23.4352 C   0  0  0  0  0  0
  -21.9194   -4.6955   22.3403 C   0  0  0  0  0  0
  -22.7837  -13.5242   21.1851 C   0  0  0  0  0  0
  -22.1660   -4.2134   21.0982 F   0  0  0  0  0  0
  -21.5624   -3.4539   25.7747 F   0  0  0  0  0  0
  -29.9909  -13.5354   20.3310 N   0  0  0  0  0  0
  -26.2958  -12.9334   20.3273 N   0  0  0  0  0  0
  -25.9318  -11.6507   20.5807 N   0  0  0  0  0  0
  -22.0476  -12.8235   22.0405 N   0  0  0  0  0  0
  -25.4287  -15.1868   20.4099 N   0  0  0  0  0  0
  -31.8408  -14.8307   20.2995 O   0  0  0  0  0  0
  -21.6637   -6.8872   21.4243 O   0  0  0  0  0  0
  -22.3519  -14.5535   20.6680 O   0  0  0  0  0  0
  -24.6302  -31.8552   23.1996 C   0  0  0  0  0  0
  -25.9120  -32.4763   23.8342 C   0  0  1  0  0  0
  -27.2296  -27.2847   20.1303 C   0  0  0  0  0  0
  -25.5905  -33.8561   24.2261 N   0  0  0  0  0  0
  -23.4261  -30.4751   21.5455 C   0  0  2  0  0  0
  -24.8765  -28.9227   20.1153 C   0  0  0  0  0  0
  -22.7499  -29.4576   22.4968 C   0  0  0  0  0  0
  -18.0273  -28.1387   22.8475 C   0  0  0  0  0  0
  -24.1499  -36.7285   23.2638 C   0  0  0  0  0  0
  -25.9692  -30.7782   21.3708 C   0  0  0  0  0  0
  -26.0487  -29.4011   20.7173 C   0  0  0  0  0  0
  -27.2322  -28.5978   20.7080 C   0  0  0  0  0  0
  -26.0362  -26.8618   19.5107 C   0  0  0  0  0  0
  -24.8745  -27.6593   19.5031 C   0  0  0  0  0  0
  -23.6408  -29.8019   20.1643 C   0  0  0  0  0  0
  -25.4127  -36.3073   24.0322 C   0  0  1  0  0  0
  -20.5883  -28.3677   23.1294 C   0  0  2  0  0  0
  -20.6758  -26.9399   22.5422 C   0  0  0  0  0  0
  -19.5738  -26.6375   21.5220 C   0  0  0  0  0  0
  -18.1920  -26.7922   22.1634 C   0  0  0  0  0  0
  -19.1526  -28.8854   23.2870 C   0  0  0  0  0  0
  -18.9453  -30.1454   23.8888 C   0  0  0  0  0  0
  -17.6453  -30.6586   24.0569 C   0  0  0  0  0  0
  -25.9049  -34.9438   23.5103 C   0  0  0  0  0  0
  -16.5339  -29.9092   23.6328 C   0  0  0  0  0  0
  -16.7263  -28.6513   23.0339 C   0  0  0  0  0  0
  -26.4492  -31.6577   25.0723 C   0  0  0  0  0  0
  -25.3710  -31.3714   26.1435 C   0  0  0  0  0  0
  -27.0333  -30.3000   24.6182 C   0  0  0  0  0  0
  -27.6060  -32.4306   25.7481 C   0  0  0  0  0  0
  -27.5584  -37.1811   24.8462 C   0  0  0  0  0  0
  -21.4207  -29.3017   22.3711 N   0  0  0  0  0  0
  -26.4319  -37.3750   23.9381 N   0  0  0  0  0  0
  -24.6947  -31.0529   22.0964 N   0  0  0  0  0  0
  -23.4204  -28.8108   23.3048 O   0  0  0  0  0  0
  -28.3122  -26.3833   20.1392 O   0  0  0  0  0  0
  -26.5640  -34.8910   22.4679 O   0  0  0  0  0  0
  -23.5455  -32.1362   23.7295 O   0  0  0  0  0  0
  -30.5004  -19.5689   20.5752 C   0  0  0  0  0  0
  -28.2232  -19.2782   20.0545 C   0  0  0  0  0  0
  -30.7187  -18.1460   20.4954 C   0  0  0  0  0  0
  -28.4188  -17.8634   19.9700 C   0  0  0  0  0  0
  -29.2501  -20.2266   20.3322 C   0  0  0  0  0  0
  -29.6802  -17.2305   20.1653 C   0  0  0  0  0  0
  -29.6453  -22.8733   20.7887 C   0  0  0  0  0  0
  -28.5836  -23.6800   20.5242 C   0  0  0  0  0  0
  -27.9402  -22.5643   20.1106 C   0  0  0  0  0  0
  -30.6575  -15.6423   17.4554 C   0  0  0  0  0  0
  -29.6747  -15.7238   18.3739 C   0  0  0  0  0  0
  -28.1185  -25.1437   20.9517 C   0  0  0  0  0  0
  -29.0067  -21.6927   20.3567 N   0  0  0  0  0  0
  -29.8700  -15.8115   19.7639 N   0  0  0  0  0  0
  -26.7756  -22.4327   19.7507 O   0  0  0  0  0  0
  -31.4802  -12.5849   19.1300 H   0  0  0  0  0  0
  -30.4461  -11.4930   20.0166 H   0  0  0  0  0  0
  -29.7709  -11.4877   17.6415 H   0  0  0  0  0  0
  -29.6584  -13.2074   17.5745 H   0  0  0  0  0  0
  -27.8623  -11.2355   18.9604 H   0  0  0  0  0  0
  -27.3833  -12.4401   17.7990 H   0  0  0  0  0  0
  -27.6067  -14.2152   19.4059 H   0  0  0  0  0  0
  -28.7413  -12.2458   21.4538 H   0  0  0  0  0  0
  -28.4506  -13.9579   21.7077 H   0  0  0  0  0  0
  -25.2763   -9.5663   22.4753 H   0  0  0  0  0  0
  -23.9991   -7.4620   22.7466 H   0  0  0  0  0  0
  -21.0827   -8.8769   19.8960 H   0  0  0  0  0  0
  -22.3680  -10.9675   19.6168 H   0  0  0  0  0  0
  -21.2012   -7.6142   23.9705 H   0  0  0  0  0  0
  -21.1469   -6.0525   25.9069 H   0  0  0  0  0  0
  -22.0606   -2.7604   23.2860 H   0  0  0  0  0  0
  -22.4104  -11.9911   22.4821 H   0  0  0  0  0  0
  -21.1077  -13.1228   22.2578 H   0  0  0  0  0  0
  -24.6702  -15.8507   20.5207 H   0  0  0  0  0  0
  -26.2972  -15.6177   20.1258 H   0  0  0  0  0  0
  -26.7194  -32.5428   23.1087 H   0  0  0  0  0  0
  -25.0041  -33.9694   25.0399 H   0  0  0  0  0  0
  -22.7196  -31.2949   21.3995 H   0  0  0  0  0  0
  -23.3763  -35.9611   23.3315 H   0  0  0  0  0  0
  -24.3585  -36.8891   22.2047 H   0  0  0  0  0  0
  -23.7258  -37.6495   23.6650 H   0  0  0  0  0  0
  -26.0918  -31.5369   20.5957 H   0  0  0  0  0  0
  -26.8521  -30.8379   21.9966 H   0  0  0  0  0  0
  -28.1333  -28.9699   21.1740 H   0  0  0  0  0  0
  -25.9969  -25.8842   19.0475 H   0  0  0  0  0  0
  -23.9749  -27.2845   19.0343 H   0  0  0  0  0  0
  -23.7501  -30.5708   19.3997 H   0  0  0  0  0  0
  -22.7621  -29.2237   19.8734 H   0  0  0  0  0  0
  -25.1324  -36.1931   25.0818 H   0  0  0  0  0  0
  -20.9932  -28.3246   24.1434 H   0  0  0  0  0  0
  -20.5613  -26.2302   23.3630 H   0  0  0  0  0  0
  -21.6639  -26.7418   22.1241 H   0  0  0  0  0  0
  -19.6906  -25.6286   21.1253 H   0  0  0  0  0  0
  -19.6678  -27.3189   20.6759 H   0  0  0  0  0  0
  -17.4179  -26.6622   21.4057 H   0  0  0  0  0  0
  -18.0337  -26.0090   22.9058 H   0  0  0  0  0  0
  -19.7929  -30.7264   24.2263 H   0  0  0  0  0  0
  -17.5011  -31.6270   24.5171 H   0  0  0  0  0  0
  -15.5341  -30.2998   23.7649 H   0  0  0  0  0  0
  -15.8659  -28.0847   22.7035 H   0  0  0  0  0  0
  -24.5871  -30.7093   25.7744 H   0  0  0  0  0  0
  -24.8918  -32.2890   26.4863 H   0  0  0  0  0  0
  -25.8015  -30.8870   27.0210 H   0  0  0  0  0  0
  -26.2940  -29.6788   24.1127 H   0  0  0  0  0  0
  -27.3950  -29.7207   25.4688 H   0  0  0  0  0  0
  -27.8827  -30.4309   23.9476 H   0  0  0  0  0  0
  -27.2674  -33.3580   26.2105 H   0  0  0  0  0  0
  -28.3837  -32.6905   25.0289 H   0  0  0  0  0  0
  -28.0776  -31.8409   26.5348 H   0  0  0  0  0  0
  -28.2628  -38.0085   24.7482 H   0  0  0  0  0  0
  -28.1070  -36.2623   24.6346 H   0  0  0  0  0  0
  -27.2284  -37.1496   25.8861 H   0  0  0  0  0  0
  -20.9398  -29.8780   21.6945 H   0  0  0  0  0  0
  -26.0213  -38.2830   24.1360 H   0  0  0  0  0  0
  -31.3596  -20.1875   20.7915 H   0  0  0  0  0  0
  -27.2240  -19.6476   19.8732 H   0  0  0  0  0  0
  -31.7251  -17.7709   20.6200 H   0  0  0  0  0  0
  -27.5680  -17.2579   19.6931 H   0  0  0  0  0  0
  -30.6282  -22.8336   21.2529 H   0  0  0  0  0  0
  -30.4287  -15.5681   16.4017 H   0  0  0  0  0  0
  -31.7029  -15.6444   17.7322 H   0  0  0  0  0  0
  -28.6338  -15.7292   18.0852 H   0  0  0  0  0  0
  -28.6190  -25.3450   21.9006 H   0  0  0  0  0  0
  -27.0656  -25.0455   21.2199 H   0  0  0  0  0  0
  1 25  1  0  0  0
  1 30  2  0  0  0
  1 84  1  0  0  0
  2  3  1  0  0  0
  2 25  1  0  0  0
  2 86  1  0  0  0
  2 87  1  0  0  0
  3  4  1  0  0  0
  3 88  1  0  0  0
  3 89  1  0  0  0
  4  5  1  0  0  0
  4 90  1  0  0  0
  4 91  1  0  0  0
  5  6  1  0  0  0
  5 26  1  0  0  0
  5 92  1  0  0  0
  6 25  1  0  0  0
  6 93  1  0  0  0
  6 94  1  0  0  0
  7  8  2  0  0  0
  7 26  1  0  0  0
  7 29  1  0  0  0
  8  9  1  0  0  0
  8 22  1  0  0  0
  9 10  1  0  0  0
  9 27  2  0  0  0
 10 11  2  0  0  0
 10 15  1  0  0  0
 11 12  1  0  0  0
 11 95  1  0  0  0
 12 13  2  0  0  0
 12 96  1  0  0  0
 13 14  1  0  0  0
 13 31  1  0  0  0
 14 15  2  0  0  0
 14 97  1  0  0  0
 15 98  1  0  0  0
 16 17  2  0  0  0
 16 21  1  0  0  0
 16 31  1  0  0  0
 17 18  1  0  0  0
 17 99  1  0  0  0
 18 19  2  0  0  0
 18100  1  0  0  0
 19 20  1  0  0  0
 19 24  1  0  0  0
 20 21  2  0  0  0
 20101  1  0  0  0
 21 23  1  0  0  0
 22 28  1  0  0  0
 22 32  2  0  0  0
 26 27  1  0  0  0
 28102  1  0  0  0
 28103  1  0  0  0
 29104  1  0  0  0
 29105  1  0  0  0
 33 34  1  0  0  0
 33 66  1  0  0  0
 33 70  2  0  0  0
 34 36  1  0  0  0
 34 59  1  0  0  0
 34106  1  0  0  0
 35 44  2  0  0  0
 35 45  1  0  0  0
 35 68  1  0  0  0
 36 56  1  0  0  0
 36107  1  0  0  0
 37 39  1  0  0  0
 37 47  1  0  0  0
 37 66  1  0  0  0
 37108  1  0  0  0
 38 43  2  0  0  0
 38 46  1  0  0  0
 38 47  1  0  0  0
 39 64  1  0  0  0
 39 67  2  0  0  0
 40 52  1  0  0  0
 40 53  2  0  0  0
 40 58  1  0  0  0
 41109  1  0  0  0
 41110  1  0  0  0
 41111  1  0  0  0
 41 48  1  0  0  0
 42 43  1  0  0  0
 42 66  1  0  0  0
 42112  1  0  0  0
 42113  1  0  0  0
 43 44  1  0  0  0
 44114  1  0  0  0
 45 46  2  0  0  0
 45115  1  0  0  0
 46116  1  0  0  0
 47117  1  0  0  0
 47118  1  0  0  0
 48 56  1  0  0  0
 48 65  1  0  0  0
 48119  1  0  0  0
 49 50  1  0  0  0
 49 53  1  0  0  0
 49 64  1  0  0  0
 49120  1  0  0  0
 50 51  1  0  0  0
 50121  1  0  0  0
 50122  1  0  0  0
 51 52  1  0  0  0
 51123  1  0  0  0
 51124  1  0  0  0
 52125  1  0  0  0
 52126  1  0  0  0
 53 54  1  0  0  0
 54 55  2  0  0  0
 54127  1  0  0  0
 55 57  1  0  0  0
 55128  1  0  0  0
 56 69  2  0  0  0
 57 58  2  0  0  0
 57129  1  0  0  0
 58130  1  0  0  0
 59 60  1  0  0  0
 59 61  1  0  0  0
 59 62  1  0  0  0
 60131  1  0  0  0
 60132  1  0  0  0
 60133  1  0  0  0
 61134  1  0  0  0
 61135  1  0  0  0
 61136  1  0  0  0
 62137  1  0  0  0
 62138  1  0  0  0
 62139  1  0  0  0
 63 65  1  0  0  0
 63140  1  0  0  0
 63141  1  0  0  0
 63142  1  0  0  0
 64143  1  0  0  0
 65144  1  0  0  0
 68 82  1  0  0  0
 71 73  2  0  0  0
 71 75  1  0  0  0
 71145  1  0  0  0
 72 74  1  0  0  0
 72 75  2  0  0  0
 72146  1  0  0  0
 73 76  1  0  0  0
 73147  1  0  0  0
 74 76  2  0  0  0
 74148  1  0  0  0
 75 83  1  0  0  0
 76 84  1  0  0  0
 77 78  2  0  0  0
 77 83  1  0  0  0
 77149  1  0  0  0
 78 79  1  0  0  0
 78 82  1  0  0  0
 79 83  1  0  0  0
 79 85  2  0  0  0
 80 81  2  0  0  0
 80150  1  0  0  0
 80151  1  0  0  0
 81 84  1  0  0  0
 81152  1  0  0  0
 82153  1  0  0  0
 82154  1  0  0  0
M  ISO  4   1 100  68 101  82 101  84 100
M  END
> <chiral flag>
0

> <version>
0

> <s_m_source_file>
/data/baiqing/PycharmProjects/Reinvent-master-3.2/result/LINK_invent/BTK/process_docking_weight1_custom_product_contain_oxygen_bond_distance_aromatic_linkinvent_7_9_3/rearranged_h_0083.sdf

> <i_m_source_file_index>
9

> <r_mmod_Potential_Energy-OPLS-2005>
514.819458007812

> <r_mmod_Stretch_Energy-OPLS-2005>
105.276962280273

> <r_mmod_Bend_Energy-OPLS-2005>
235.025772094727

> <r_mmod_Torsional_Energy-OPLS-2005>
397.032318115234

> <r_mmod_Improper_Torsional_Energy-OPLS-2005>
27.0938682556152

> <r_mmod_Van_der_Waal_Energy-OPLS-2005>
133.057022094727

> <r_mmod_Electrostatic_Energy-OPLS-2005>
-288.721160888672

> <r_mmod_Solvation_Energy-OPLS-2005>
-196.064636230469

> <b_mmod_Minimization_Converged-OPLS-2005>
0

> <r_mmod_RMS_Derivative-OPLS-2005>
2.80586314201355

$$$$
9
                    3D
 Structure written by MMmdl.
154163  0  0  1  0            999 V2000
  -30.5817  -14.7623   20.4797 C   0  0  0  0  0  0
  -30.4453  -12.4708   19.4794 C   0  0  0  0  0  0
  -29.5191  -12.5379   18.2411 C   0  0  0  0  0  0
  -28.0392  -12.3568   18.6393 C   0  0  0  0  0  0
  -27.6489  -13.2228   19.8672 C   0  0  2  0  0  0
  -28.6924  -13.0740   20.9921 C   0  0  0  0  0  0
  -25.2536  -13.8167   20.5694 C   0  0  0  0  0  0
  -24.1806  -13.0424   20.9169 C   0  0  0  0  0  0
  -24.6385  -11.6898   20.8727 C   0  0  0  0  0  0
  -23.9063  -10.4283   21.0401 C   0  0  0  0  0  0
  -24.3617   -9.4204   21.9180 C   0  0  0  0  0  0
  -23.6291   -8.2242   22.0759 C   0  0  0  0  0  0
  -22.4273   -8.0277   21.3550 C   0  0  0  0  0  0
  -21.9903   -9.0250   20.4652 C   0  0  0  0  0  0
  -22.7233  -10.2128   20.3056 C   0  0  0  0  0  0
  -21.6852   -6.0732   22.5280 C   0  0  0  0  0  0
  -21.4006   -6.5634   23.8211 C   0  0  0  0  0  0
  -21.3665   -5.6791   24.9178 C   0  0  0  0  0  0
  -21.6052   -4.3055   24.7228 C   0  0  0  0  0  0
  -21.8817   -3.8145   23.4348 C   0  0  0  0  0  0
  -21.9191   -4.6961   22.3404 C   0  0  0  0  0  0
  -22.7833  -13.5219   21.1844 C   0  0  0  0  0  0
  -22.1661   -4.2146   21.0981 F   0  0  0  0  0  0
  -21.5636   -3.4537   25.7742 F   0  0  0  0  0  0
  -29.9898  -13.5053   20.4449 N   0  0  0  0  0  0
  -26.2968  -12.9354   20.3341 N   0  0  0  0  0  0
  -25.9318  -11.6500   20.5746 N   0  0  0  0  0  0
  -22.0481  -12.8214   22.0412 N   0  0  0  0  0  0
  -25.4252  -15.1893   20.4156 N   0  0  0  0  0  0
  -31.7460  -14.8785   20.0784 O   0  0  0  0  0  0
  -21.6638   -6.8876   21.4245 O   0  0  0  0  0  0
  -22.3522  -14.5531   20.6703 O   0  0  0  0  0  0
  -24.6318  -31.8546   23.1982 C   0  0  0  0  0  0
  -25.9142  -32.4753   23.8334 C   0  0  1  0  0  0
  -27.2255  -27.2692   20.1260 C   0  0  0  0  0  0
  -25.5935  -33.8553   24.2258 N   0  0  0  0  0  0
  -23.4306  -30.4756   21.5412 C   0  0  2  0  0  0
  -24.8816  -28.9233   20.1097 C   0  0  0  0  0  0
  -22.7513  -29.4594   22.4912 C   0  0  0  0  0  0
  -18.0295  -28.1386   22.8484 C   0  0  0  0  0  0
  -24.1488  -36.7281   23.2639 C   0  0  0  0  0  0
  -25.9769  -30.7685   21.3794 C   0  0  0  0  0  0
  -26.0537  -29.3917   20.7207 C   0  0  0  0  0  0
  -27.2328  -28.5758   20.7200 C   0  0  0  0  0  0
  -26.0352  -26.8666   19.4883 C   0  0  0  0  0  0
  -24.8768  -27.6677   19.4823 C   0  0  0  0  0  0
  -23.6499  -29.8078   20.1583 C   0  0  0  0  0  0
  -25.4116  -36.3069   24.0323 C   0  0  1  0  0  0
  -20.5897  -28.3700   23.1267 C   0  0  2  0  0  0
  -20.6783  -26.9414   22.5410 C   0  0  0  0  0  0
  -19.5758  -26.6379   21.5213 C   0  0  0  0  0  0
  -18.1938  -26.7928   22.1621 C   0  0  0  0  0  0
  -19.1547  -28.8862   23.2867 C   0  0  0  0  0  0
  -18.9465  -30.1461   23.8888 C   0  0  0  0  0  0
  -17.6464  -30.6586   24.0559 C   0  0  0  0  0  0
  -25.9057  -34.9438   23.5096 C   0  0  0  0  0  0
  -16.5357  -29.9080   23.6330 C   0  0  0  0  0  0
  -16.7280  -28.6497   23.0352 C   0  0  0  0  0  0
  -26.4503  -31.6583   25.0728 C   0  0  0  0  0  0
  -25.3719  -31.3737   26.1443 C   0  0  0  0  0  0
  -27.0352  -30.2997   24.6229 C   0  0  0  0  0  0
  -27.6056  -32.4324   25.7502 C   0  0  0  0  0  0
  -27.5582  -37.1792   24.8460 C   0  0  0  0  0  0
  -21.4216  -29.3043   22.3652 N   0  0  0  0  0  0
  -26.4292  -37.3771   23.9409 N   0  0  0  0  0  0
  -24.6985  -31.0510   22.0958 N   0  0  0  0  0  0
  -23.4206  -28.8137   23.3019 O   0  0  0  0  0  0
  -28.2686  -26.3175   20.1675 O   0  0  0  0  0  0
  -26.5629  -34.8916   22.4666 O   0  0  0  0  0  0
  -23.5466  -32.1370   23.7271 O   0  0  0  0  0  0
  -30.7867  -18.9286   18.4492 C   0  0  0  0  0  0
  -30.6498  -17.6663   19.0692 C   0  0  0  0  0  0
  -30.2351  -20.1036   19.0061 C   0  0  0  0  0  0
  -29.4072  -18.7521   20.8343 C   0  0  0  0  0  0
  -29.9572  -17.5085   20.2915 C   0  0  0  0  0  0
  -29.5208  -20.0792   20.2228 C   0  0  0  0  0  0
  -28.3288  -23.8239   20.9912 C   0  0  0  0  0  0
  -28.2956  -21.5337   21.9011 C   0  0  0  0  0  0
  -28.0308  -25.1889   20.9942 C   0  0  0  0  0  0
  -29.7407  -16.0819   20.9245 C   0  0  0  0  0  0
  -27.8623  -22.9751   22.1462 C   0  0  0  0  0  0
  -29.0555  -22.7649   20.0836 C   0  0  0  0  0  0
  -28.8588  -16.0077   21.8315 N   0  0  0  0  0  0
  -28.9664  -21.3792   20.7380 N   0  0  0  0  0  0
  -28.0283  -20.6555   22.7265 O   0  0  0  0  0  0
  -31.4839  -12.6120   19.1772 H   0  0  0  0  0  0
  -30.4107  -11.4783   19.9309 H   0  0  0  0  0  0
  -29.8068  -11.7811   17.5107 H   0  0  0  0  0  0
  -29.6467  -13.5021   17.7467 H   0  0  0  0  0  0
  -27.8851  -11.3015   18.8682 H   0  0  0  0  0  0
  -27.3887  -12.5824   17.7934 H   0  0  0  0  0  0
  -27.6623  -14.2611   19.5354 H   0  0  0  0  0  0
  -28.7452  -12.0325   21.3129 H   0  0  0  0  0  0
  -28.4013  -13.6104   21.8919 H   0  0  0  0  0  0
  -25.2764   -9.5676   22.4750 H   0  0  0  0  0  0
  -24.0004   -7.4628   22.7468 H   0  0  0  0  0  0
  -21.0835   -8.8765   19.8953 H   0  0  0  0  0  0
  -22.3693  -10.9666   19.6161 H   0  0  0  0  0  0
  -21.1990   -7.6139   23.9713 H   0  0  0  0  0  0
  -21.1497   -6.0524   25.9084 H   0  0  0  0  0  0
  -22.0592   -2.7604   23.2849 H   0  0  0  0  0  0
  -22.4110  -11.9879   22.4796 H   0  0  0  0  0  0
  -21.1109  -13.1255   22.2639 H   0  0  0  0  0  0
  -24.6727  -15.8544   20.5569 H   0  0  0  0  0  0
  -26.3120  -15.6304   20.2041 H   0  0  0  0  0  0
  -26.7213  -32.5407   23.1080 H   0  0  0  0  0  0
  -25.0079  -33.9693   25.0401 H   0  0  0  0  0  0
  -22.7275  -31.2977   21.3930 H   0  0  0  0  0  0
  -23.3758  -35.9606   23.3288 H   0  0  0  0  0  0
  -24.3583  -36.8920   22.2057 H   0  0  0  0  0  0
  -23.7234  -37.6473   23.6673 H   0  0  0  0  0  0
  -26.1173  -31.5298   20.6107 H   0  0  0  0  0  0
  -26.8531  -30.8170   22.0143 H   0  0  0  0  0  0
  -28.1289  -28.9229   21.2145 H   0  0  0  0  0  0
  -25.9942  -25.8932   19.0200 H   0  0  0  0  0  0
  -23.9799  -27.3010   19.0021 H   0  0  0  0  0  0
  -23.7723  -30.5827   19.4006 H   0  0  0  0  0  0
  -22.7698  -29.2378   19.8548 H   0  0  0  0  0  0
  -25.1298  -36.1914   25.0816 H   0  0  0  0  0  0
  -20.9992  -28.3280   24.1386 H   0  0  0  0  0  0
  -20.5678  -26.2311   23.3618 H   0  0  0  0  0  0
  -21.6648  -26.7433   22.1209 H   0  0  0  0  0  0
  -19.6921  -25.6286   21.1249 H   0  0  0  0  0  0
  -19.6698  -27.3184   20.6736 H   0  0  0  0  0  0
  -17.4208  -26.6678   21.4018 H   0  0  0  0  0  0
  -18.0334  -26.0069   22.9018 H   0  0  0  0  0  0
  -19.7941  -30.7280   24.2254 H   0  0  0  0  0  0
  -17.5016  -31.6266   24.5162 H   0  0  0  0  0  0
  -15.5356  -30.2977   23.7660 H   0  0  0  0  0  0
  -15.8681  -28.0812   22.7075 H   0  0  0  0  0  0
  -24.5893  -30.7089   25.7765 H   0  0  0  0  0  0
  -24.8910  -32.2906   26.4857 H   0  0  0  0  0  0
  -25.8025  -30.8916   27.0230 H   0  0  0  0  0  0
  -26.2946  -29.6739   24.1236 H   0  0  0  0  0  0
  -27.4006  -29.7264   25.4762 H   0  0  0  0  0  0
  -27.8835  -30.4263   23.9497 H   0  0  0  0  0  0
  -27.2665  -33.3624   26.2074 H   0  0  0  0  0  0
  -28.3868  -32.6885   25.0332 H   0  0  0  0  0  0
  -28.0725  -31.8455   26.5423 H   0  0  0  0  0  0
  -28.2586  -38.0103   24.7527 H   0  0  0  0  0  0
  -28.1093  -36.2637   24.6260 H   0  0  0  0  0  0
  -27.2306  -37.1410   25.8864 H   0  0  0  0  0  0
  -20.9410  -29.8759   21.6846 H   0  0  0  0  0  0
  -26.0167  -38.2841   24.1421 H   0  0  0  0  0  0
  -31.3216  -18.9951   17.5116 H   0  0  0  0  0  0
  -31.0759  -16.8088   18.5692 H   0  0  0  0  0  0
  -30.3701  -21.0344   18.4726 H   0  0  0  0  0  0
  -28.8652  -18.6608   21.7611 H   0  0  0  0  0  0
  -27.4742  -25.5355   21.8561 H   0  0  0  0  0  0
  -26.7767  -23.0221   22.2348 H   0  0  0  0  0  0
  -28.2981  -23.3360   23.0779 H   0  0  0  0  0  0
  -30.0993  -23.0501   19.9523 H   0  0  0  0  0  0
  -28.5859  -22.7441   19.0998 H   0  0  0  0  0  0
  -28.4218  -16.9056   21.9927 H   0  0  0  0  0  0
  1 25  1  0  0  0
  1 30  2  0  0  0
  1 80  1  0  0  0
  2  3  1  0  0  0
  2 25  1  0  0  0
  2 86  1  0  0  0
  2 87  1  0  0  0
  3  4  1  0  0  0
  3 88  1  0  0  0
  3 89  1  0  0  0
  4  5  1  0  0  0
  4 90  1  0  0  0
  4 91  1  0  0  0
  5  6  1  0  0  0
  5 26  1  0  0  0
  5 92  1  0  0  0
  6 25  1  0  0  0
  6 93  1  0  0  0
  6 94  1  0  0  0
  7  8  2  0  0  0
  7 26  1  0  0  0
  7 29  1  0  0  0
  8  9  1  0  0  0
  8 22  1  0  0  0
  9 10  1  0  0  0
  9 27  2  0  0  0
 10 11  2  0  0  0
 10 15  1  0  0  0
 11 12  1  0  0  0
 11 95  1  0  0  0
 12 13  2  0  0  0
 12 96  1  0  0  0
 13 14  1  0  0  0
 13 31  1  0  0  0
 14 15  2  0  0  0
 14 97  1  0  0  0
 15 98  1  0  0  0
 16 17  2  0  0  0
 16 21  1  0  0  0
 16 31  1  0  0  0
 17 18  1  0  0  0
 17 99  1  0  0  0
 18 19  2  0  0  0
 18100  1  0  0  0
 19 20  1  0  0  0
 19 24  1  0  0  0
 20 21  2  0  0  0
 20101  1  0  0  0
 21 23  1  0  0  0
 22 28  1  0  0  0
 22 32  2  0  0  0
 26 27  1  0  0  0
 28102  1  0  0  0
 28103  1  0  0  0
 29104  1  0  0  0
 29105  1  0  0  0
 33 34  1  0  0  0
 33 66  1  0  0  0
 33 70  2  0  0  0
 34 36  1  0  0  0
 34 59  1  0  0  0
 34106  1  0  0  0
 35 44  2  0  0  0
 35 45  1  0  0  0
 35 68  1  0  0  0
 36 56  1  0  0  0
 36107  1  0  0  0
 37 39  1  0  0  0
 37 47  1  0  0  0
 37 66  1  0  0  0
 37108  1  0  0  0
 38 43  2  0  0  0
 38 46  1  0  0  0
 38 47  1  0  0  0
 39 64  1  0  0  0
 39 67  2  0  0  0
 40 52  1  0  0  0
 40 53  2  0  0  0
 40 58  1  0  0  0
 41109  1  0  0  0
 41110  1  0  0  0
 41111  1  0  0  0
 41 48  1  0  0  0
 42 43  1  0  0  0
 42 66  1  0  0  0
 42112  1  0  0  0
 42113  1  0  0  0
 43 44  1  0  0  0
 44114  1  0  0  0
 45 46  2  0  0  0
 45115  1  0  0  0
 46116  1  0  0  0
 47117  1  0  0  0
 47118  1  0  0  0
 48 56  1  0  0  0
 48 65  1  0  0  0
 48119  1  0  0  0
 49 50  1  0  0  0
 49 53  1  0  0  0
 49 64  1  0  0  0
 49120  1  0  0  0
 50 51  1  0  0  0
 50121  1  0  0  0
 50122  1  0  0  0
 51 52  1  0  0  0
 51123  1  0  0  0
 51124  1  0  0  0
 52125  1  0  0  0
 52126  1  0  0  0
 53 54  1  0  0  0
 54 55  2  0  0  0
 54127  1  0  0  0
 55 57  1  0  0  0
 55128  1  0  0  0
 56 69  2  0  0  0
 57 58  2  0  0  0
 57129  1  0  0  0
 58130  1  0  0  0
 59 60  1  0  0  0
 59 61  1  0  0  0
 59 62  1  0  0  0
 60131  1  0  0  0
 60132  1  0  0  0
 60133  1  0  0  0
 61134  1  0  0  0
 61135  1  0  0  0
 61136  1  0  0  0
 62137  1  0  0  0
 62138  1  0  0  0
 62139  1  0  0  0
 63 65  1  0  0  0
 63140  1  0  0  0
 63141  1  0  0  0
 63142  1  0  0  0
 64143  1  0  0  0
 65144  1  0  0  0
 68 79  1  0  0  0
 71 72  2  0  0  0
 71 73  1  0  0  0
 71145  1  0  0  0
 72 75  1  0  0  0
 72146  1  0  0  0
 73 76  2  0  0  0
 73147  1  0  0  0
 74 75  2  0  0  0
 74 76  1  0  0  0
 74148  1  0  0  0
 75 80  1  0  0  0
 76 84  1  0  0  0
 77 79  2  0  0  0
 77 81  1  0  0  0
 77 82  1  0  0  0
 78 81  1  0  0  0
 78 84  1  0  0  0
 78 85  2  0  0  0
 79149  1  0  0  0
 80 83  2  0  0  0
 81150  1  0  0  0
 81151  1  0  0  0
 82 84  1  0  0  0
 82152  1  0  0  0
 82153  1  0  0  0
 83154  1  0  0  0
M  ISO  4   1 100  68 101  79 101  80 100
M  END
> <chiral flag>
0

> <version>
0

> <s_m_source_file>
/data/baiqing/PycharmProjects/Reinvent-master-3.2/result/LINK_invent/BTK/process_docking_weight1_custom_product_contain_oxygen_bond_distance_aromatic_linkinvent_7_9_3/rearranged_h_0083.sdf

> <i_m_source_file_index>
10

> <r_mmod_Potential_Energy-OPLS-2005>
436.501190185547

> <r_mmod_Stretch_Energy-OPLS-2005>
146.665084838867

> <r_mmod_Bend_Energy-OPLS-2005>
240.316192626953

> <r_mmod_Torsional_Energy-OPLS-2005>
230.411102294922

> <r_mmod_Improper_Torsional_Energy-OPLS-2005>
2.83848476409912

> <r_mmod_Van_der_Waal_Energy-OPLS-2005>
146.951019287109

> <r_mmod_Electrostatic_Energy-OPLS-2005>
-218.35400390625

> <r_mmod_Solvation_Energy-OPLS-2005>
-200.293975830078

> <b_mmod_Minimization_Converged-OPLS-2005>
0

> <r_mmod_RMS_Derivative-OPLS-2005>
0.935701131820679

$$$$
10
                    3D
 Structure written by MMmdl.
155164  0  0  1  0            999 V2000
  -30.5953  -14.6762   20.4979 C   0  0  0  0  0  0
  -30.4478  -12.4161   19.4536 C   0  0  0  0  0  0
  -29.5133  -12.5139   18.2263 C   0  0  0  0  0  0
  -28.0352  -12.3479   18.6359 C   0  0  0  0  0  0
  -27.6538  -13.2168   19.8636 C   0  0  2  0  0  0
  -28.7001  -13.0710   20.9921 C   0  0  0  0  0  0
  -25.2562  -13.8170   20.5684 C   0  0  0  0  0  0
  -24.1831  -13.0438   20.9204 C   0  0  0  0  0  0
  -24.6404  -11.6907   20.8742 C   0  0  0  0  0  0
  -23.9069  -10.4294   21.0403 C   0  0  0  0  0  0
  -24.3618   -9.4204   21.9171 C   0  0  0  0  0  0
  -23.6289   -8.2238   22.0745 C   0  0  0  0  0  0
  -22.4264   -8.0287   21.3549 C   0  0  0  0  0  0
  -21.9907   -9.0265   20.4648 C   0  0  0  0  0  0
  -22.7242  -10.2135   20.3052 C   0  0  0  0  0  0
  -21.6856   -6.0729   22.5274 C   0  0  0  0  0  0
  -21.4023   -6.5623   23.8212 C   0  0  0  0  0  0
  -21.3655   -5.6778   24.9172 C   0  0  0  0  0  0
  -21.6039   -4.3043   24.7217 C   0  0  0  0  0  0
  -21.8818   -3.8140   23.4342 C   0  0  0  0  0  0
  -21.9196   -4.6959   22.3399 C   0  0  0  0  0  0
  -22.7847  -13.5225   21.1864 C   0  0  0  0  0  0
  -22.1658   -4.2146   21.0971 F   0  0  0  0  0  0
  -21.5626   -3.4520   25.7731 F   0  0  0  0  0  0
  -30.0118  -13.4341   20.4309 N   0  0  0  0  0  0
  -26.2992  -12.9346   20.3314 N   0  0  0  0  0  0
  -25.9329  -11.6503   20.5743 N   0  0  0  0  0  0
  -22.0486  -12.8227   22.0421 N   0  0  0  0  0  0
  -25.4258  -15.1887   20.4047 N   0  0  0  0  0  0
  -31.7520  -14.8604   20.1078 O   0  0  0  0  0  0
  -21.6635   -6.8881   21.4242 O   0  0  0  0  0  0
  -22.3527  -14.5524   20.6707 O   0  0  0  0  0  0
  -24.6263  -31.8610   23.2011 C   0  0  0  0  0  0
  -25.9113  -32.4785   23.8353 C   0  0  1  0  0  0
  -27.2274  -27.3176   20.1309 C   0  0  0  0  0  0
  -25.5939  -33.8583   24.2298 N   0  0  0  0  0  0
  -23.4212  -30.4826   21.5433 C   0  0  2  0  0  0
  -24.8713  -28.9347   20.1124 C   0  0  0  0  0  0
  -22.7484  -29.4631   22.4932 C   0  0  0  0  0  0
  -18.0292  -28.1388   22.8502 C   0  0  0  0  0  0
  -24.1494  -36.7275   23.2631 C   0  0  0  0  0  0
  -25.9610  -30.7930   21.3712 C   0  0  0  0  0  0
  -26.0394  -29.4174   20.7181 C   0  0  0  0  0  0
  -27.2237  -28.6210   20.7172 C   0  0  0  0  0  0
  -26.0438  -26.8884   19.4948 C   0  0  0  0  0  0
  -24.8757  -27.6756   19.4899 C   0  0  0  0  0  0
  -23.6384  -29.8143   20.1595 C   0  0  0  0  0  0
  -25.4115  -36.3079   24.0334 C   0  0  1  0  0  0
  -20.5896  -28.3700   23.1280 C   0  0  2  0  0  0
  -20.6781  -26.9426   22.5406 C   0  0  0  0  0  0
  -19.5747  -26.6399   21.5210 C   0  0  0  0  0  0
  -18.1936  -26.7928   22.1644 C   0  0  0  0  0  0
  -19.1548  -28.8861   23.2890 C   0  0  0  0  0  0
  -18.9472  -30.1460   23.8913 C   0  0  0  0  0  0
  -17.6469  -30.6591   24.0566 C   0  0  0  0  0  0
  -25.9052  -34.9450   23.5111 C   0  0  0  0  0  0
  -16.5360  -29.9093   23.6320 C   0  0  0  0  0  0
  -16.7277  -28.6501   23.0361 C   0  0  0  0  0  0
  -26.4491  -31.6572   25.0709 C   0  0  0  0  0  0
  -25.3748  -31.3767   26.1480 C   0  0  0  0  0  0
  -27.0251  -30.2971   24.6130 C   0  0  0  0  0  0
  -27.6118  -32.4244   25.7442 C   0  0  0  0  0  0
  -27.5583  -37.1795   24.8470 C   0  0  0  0  0  0
  -21.4198  -29.3054   22.3673 N   0  0  0  0  0  0
  -26.4292  -37.3776   23.9416 N   0  0  0  0  0  0
  -24.6879  -31.0624   22.0959 N   0  0  0  0  0  0
  -23.4202  -28.8166   23.3012 O   0  0  0  0  0  0
  -28.3224  -26.4424   20.1576 O   0  0  0  0  0  0
  -26.5616  -34.8912   22.4676 O   0  0  0  0  0  0
  -23.5428  -32.1414   23.7334 O   0  0  0  0  0  0
  -30.6802  -19.4167   20.2461 C   0  0  0  0  0  0
  -30.8334  -17.9975   20.3799 C   0  0  0  0  0  0
  -28.5003  -17.8308   20.8866 C   0  0  0  0  0  0
  -28.3328  -19.2424   20.7390 C   0  0  0  0  0  0
  -29.4340  -20.1004   20.4154 C   0  0  0  0  0  0
  -29.7358  -17.1555   20.7022 C   0  0  0  0  0  0
  -29.3974  -23.5997   19.1632 C   0  0  0  0  0  0
  -28.7644  -23.8228   20.3160 C   0  0  0  0  0  0
  -29.7549  -22.1939   19.0710 C   0  0  0  0  0  0
  -28.7391  -22.5173   21.0066 C   0  0  0  0  0  0
  -26.9232  -19.7834   20.9095 C   0  0  0  0  0  0
  -28.0991  -25.1456   20.8475 C   0  0  0  0  0  0
  -29.3087  -21.5711   20.1900 N   0  0  0  0  0  0
  -29.7541  -15.6954   20.8761 N   0  0  0  0  0  0
  -30.3521  -21.6546   18.1319 O   0  0  0  0  0  0
  -28.3056  -22.3034   22.1437 O   0  0  0  0  0  0
  -31.4865  -12.5594   19.1493 H   0  0  0  0  0  0
  -30.3998  -11.4209   19.8973 H   0  0  0  0  0  0
  -29.7826  -11.7601   17.4855 H   0  0  0  0  0  0
  -29.6519  -13.4804   17.7392 H   0  0  0  0  0  0
  -27.8742  -11.2932   18.8660 H   0  0  0  0  0  0
  -27.3822  -12.5779   17.7930 H   0  0  0  0  0  0
  -27.6702  -14.2518   19.5216 H   0  0  0  0  0  0
  -28.7228  -12.0454   21.3626 H   0  0  0  0  0  0
  -28.4385  -13.6876   21.8533 H   0  0  0  0  0  0
  -25.2766   -9.5664   22.4739 H   0  0  0  0  0  0
  -24.0004   -7.4619   22.7443 H   0  0  0  0  0  0
  -21.0844   -8.8785   19.8946 H   0  0  0  0  0  0
  -22.3709  -10.9672   19.6152 H   0  0  0  0  0  0
  -21.2021   -7.6133   23.9718 H   0  0  0  0  0  0
  -21.1466   -6.0502   25.9077 H   0  0  0  0  0  0
  -22.0602   -2.7605   23.2840 H   0  0  0  0  0  0
  -22.4087  -11.9886   22.4821 H   0  0  0  0  0  0
  -21.1103  -13.1261   22.2608 H   0  0  0  0  0  0
  -24.6518  -15.8393   20.4922 H   0  0  0  0  0  0
  -26.2578  -15.6166   20.0214 H   0  0  0  0  0  0
  -26.7185  -32.5461   23.1104 H   0  0  0  0  0  0
  -25.0119  -33.9738   25.0469 H   0  0  0  0  0  0
  -22.7140  -31.3021   21.3985 H   0  0  0  0  0  0
  -23.3777  -35.9583   23.3260 H   0  0  0  0  0  0
  -24.3603  -36.8924   22.2055 H   0  0  0  0  0  0
  -23.7218  -37.6456   23.6667 H   0  0  0  0  0  0
  -26.0901  -31.5543   20.6007 H   0  0  0  0  0  0
  -26.8429  -30.8488   21.9972 H   0  0  0  0  0  0
  -28.1188  -28.9856   21.2012 H   0  0  0  0  0  0
  -26.0175  -25.9210   19.0134 H   0  0  0  0  0  0
  -23.9828  -27.3000   19.0095 H   0  0  0  0  0  0
  -23.7586  -30.5898   19.4022 H   0  0  0  0  0  0
  -22.7583  -29.2444   19.8559 H   0  0  0  0  0  0
  -25.1288  -36.1928   25.0823 H   0  0  0  0  0  0
  -21.0006  -28.3278   24.1393 H   0  0  0  0  0  0
  -20.5695  -26.2307   23.3609 H   0  0  0  0  0  0
  -21.6648  -26.7465   22.1192 H   0  0  0  0  0  0
  -19.6906  -25.6316   21.1229 H   0  0  0  0  0  0
  -19.6645  -27.3211   20.6738 H   0  0  0  0  0  0
  -17.4195  -26.6678   21.4061 H   0  0  0  0  0  0
  -18.0343  -26.0072   22.9044 H   0  0  0  0  0  0
  -19.7947  -30.7275   24.2295 H   0  0  0  0  0  0
  -17.5023  -31.6272   24.5168 H   0  0  0  0  0  0
  -15.5361  -30.2997   23.7627 H   0  0  0  0  0  0
  -15.8682  -28.0802   22.7091 H   0  0  0  0  0  0
  -24.5788  -30.7269   25.7823 H   0  0  0  0  0  0
  -24.9106  -32.2972   26.5024 H   0  0  0  0  0  0
  -25.8070  -30.8815   27.0183 H   0  0  0  0  0  0
  -26.2752  -29.6769   24.1199 H   0  0  0  0  0  0
  -27.3978  -29.7197   25.4600 H   0  0  0  0  0  0
  -27.8637  -30.4220   23.9276 H   0  0  0  0  0  0
  -27.2857  -33.3661   26.1863 H   0  0  0  0  0  0
  -28.3999  -32.6580   25.0270 H   0  0  0  0  0  0
  -28.0655  -31.8406   26.5462 H   0  0  0  0  0  0
  -28.2609  -38.0084   24.7519 H   0  0  0  0  0  0
  -28.1068  -36.2620   24.6285 H   0  0  0  0  0  0
  -27.2309  -37.1451   25.8875 H   0  0  0  0  0  0
  -20.9375  -29.8773   21.6885 H   0  0  0  0  0  0
  -26.0170  -38.2849   24.1410 H   0  0  0  0  0  0
  -31.5608  -19.9895   19.9857 H   0  0  0  0  0  0
  -31.8128  -17.5659   20.2298 H   0  0  0  0  0  0
  -27.6280  -17.2432   21.1362 H   0  0  0  0  0  0
  -29.5781  -24.3332   18.3938 H   0  0  0  0  0  0
  -26.1805  -19.0133   20.6993 H   0  0  0  0  0  0
  -26.7212  -20.6126   20.2329 H   0  0  0  0  0  0
  -26.7662  -20.1187   21.9347 H   0  0  0  0  0  0
  -28.4297  -25.2813   21.8784 H   0  0  0  0  0  0
  -27.0327  -24.9285   20.9273 H   0  0  0  0  0  0
  -28.8751  -15.3268   21.2028 H   0  0  0  0  0  0
  1 25  1  0  0  0
  1 30  2  0  0  0
  1 84  1  0  0  0
  2  3  1  0  0  0
  2 25  1  0  0  0
  2 87  1  0  0  0
  2 88  1  0  0  0
  3  4  1  0  0  0
  3 89  1  0  0  0
  3 90  1  0  0  0
  4  5  1  0  0  0
  4 91  1  0  0  0
  4 92  1  0  0  0
  5  6  1  0  0  0
  5 26  1  0  0  0
  5 93  1  0  0  0
  6 25  1  0  0  0
  6 94  1  0  0  0
  6 95  1  0  0  0
  7  8  2  0  0  0
  7 26  1  0  0  0
  7 29  1  0  0  0
  8  9  1  0  0  0
  8 22  1  0  0  0
  9 10  1  0  0  0
  9 27  2  0  0  0
 10 11  2  0  0  0
 10 15  1  0  0  0
 11 12  1  0  0  0
 11 96  1  0  0  0
 12 13  2  0  0  0
 12 97  1  0  0  0
 13 14  1  0  0  0
 13 31  1  0  0  0
 14 15  2  0  0  0
 14 98  1  0  0  0
 15 99  1  0  0  0
 16 17  2  0  0  0
 16 21  1  0  0  0
 16 31  1  0  0  0
 17 18  1  0  0  0
 17100  1  0  0  0
 18 19  2  0  0  0
 18101  1  0  0  0
 19 20  1  0  0  0
 19 24  1  0  0  0
 20 21  2  0  0  0
 20102  1  0  0  0
 21 23  1  0  0  0
 22 28  1  0  0  0
 22 32  2  0  0  0
 26 27  1  0  0  0
 28103  1  0  0  0
 28104  1  0  0  0
 29105  1  0  0  0
 29106  1  0  0  0
 33 34  1  0  0  0
 33 66  1  0  0  0
 33 70  2  0  0  0
 34 36  1  0  0  0
 34 59  1  0  0  0
 34107  1  0  0  0
 35 44  2  0  0  0
 35 45  1  0  0  0
 35 68  1  0  0  0
 36 56  1  0  0  0
 36108  1  0  0  0
 37 39  1  0  0  0
 37 47  1  0  0  0
 37 66  1  0  0  0
 37109  1  0  0  0
 38 43  2  0  0  0
 38 46  1  0  0  0
 38 47  1  0  0  0
 39 64  1  0  0  0
 39 67  2  0  0  0
 40 52  1  0  0  0
 40 53  2  0  0  0
 40 58  1  0  0  0
 41110  1  0  0  0
 41111  1  0  0  0
 41112  1  0  0  0
 41 48  1  0  0  0
 42 43  1  0  0  0
 42 66  1  0  0  0
 42113  1  0  0  0
 42114  1  0  0  0
 43 44  1  0  0  0
 44115  1  0  0  0
 45 46  2  0  0  0
 45116  1  0  0  0
 46117  1  0  0  0
 47118  1  0  0  0
 47119  1  0  0  0
 48 56  1  0  0  0
 48 65  1  0  0  0
 48120  1  0  0  0
 49 50  1  0  0  0
 49 53  1  0  0  0
 49 64  1  0  0  0
 49121  1  0  0  0
 50 51  1  0  0  0
 50122  1  0  0  0
 50123  1  0  0  0
 51 52  1  0  0  0
 51124  1  0  0  0
 51125  1  0  0  0
 52126  1  0  0  0
 52127  1  0  0  0
 53 54  1  0  0  0
 54 55  2  0  0  0
 54128  1  0  0  0
 55 57  1  0  0  0
 55129  1  0  0  0
 56 69  2  0  0  0
 57 58  2  0  0  0
 57130  1  0  0  0
 58131  1  0  0  0
 59 60  1  0  0  0
 59 61  1  0  0  0
 59 62  1  0  0  0
 60132  1  0  0  0
 60133  1  0  0  0
 60134  1  0  0  0
 61135  1  0  0  0
 61136  1  0  0  0
 61137  1  0  0  0
 62138  1  0  0  0
 62139  1  0  0  0
 62140  1  0  0  0
 63 65  1  0  0  0
 63141  1  0  0  0
 63142  1  0  0  0
 63143  1  0  0  0
 64144  1  0  0  0
 65145  1  0  0  0
 68 82  1  0  0  0
 71 72  2  0  0  0
 71 75  1  0  0  0
 71146  1  0  0  0
 72 76  1  0  0  0
 72147  1  0  0  0
 73 74  1  0  0  0
 73 76  2  0  0  0
 73148  1  0  0  0
 74 75  2  0  0  0
 74 81  1  0  0  0
 75 83  1  0  0  0
 76 84  1  0  0  0
 77 78  2  0  0  0
 77 79  1  0  0  0
 77149  1  0  0  0
 78 80  1  0  0  0
 78 82  1  0  0  0
 79 83  1  0  0  0
 79 85  2  0  0  0
 80 83  1  0  0  0
 80 86  2  0  0  0
 81150  1  0  0  0
 81151  1  0  0  0
 81152  1  0  0  0
 82153  1  0  0  0
 82154  1  0  0  0
 84155  1  0  0  0
M  ISO  4   1 100  68 101  82 101  84 100
M  END
> <chiral flag>
0

> <version>
0

> <s_m_source_file>
/data/baiqing/PycharmProjects/Reinvent-master-3.2/result/LINK_invent/BTK/process_docking_weight1_custom_product_contain_oxygen_bond_distance_aromatic_linkinvent_7_9_3/rearranged_h_0083.sdf

> <i_m_source_file_index>
11

> <r_mmod_Potential_Energy-OPLS-2005>
90.2781524658203

> <r_mmod_Stretch_Energy-OPLS-2005>
88.657958984375

> <r_mmod_Bend_Energy-OPLS-2005>
187.630935668945

> <r_mmod_Torsional_Energy-OPLS-2005>
265.532562255859

> <r_mmod_Improper_Torsional_Energy-OPLS-2005>
4.50110006332397

> <r_mmod_Van_der_Waal_Energy-OPLS-2005>
135.718719482422

> <r_mmod_Electrostatic_Energy-OPLS-2005>
-412.844421386719

> <r_mmod_Solvation_Energy-OPLS-2005>
-235.858764648438

> <b_mmod_Minimization_Converged-OPLS-2005>
0

> <r_mmod_RMS_Derivative-OPLS-2005>
1.90645480155945

$$$$
11
                    3D
 Structure written by MMmdl.
152160  0  0  1  0            999 V2000
  -30.7024  -14.5289   20.5407 C   0  0  0  0  0  0
  -30.4190  -12.3323   19.4402 C   0  0  0  0  0  0
  -29.4964  -12.4984   18.2154 C   0  0  0  0  0  0
  -28.0194  -12.3529   18.6285 C   0  0  0  0  0  0
  -27.6562  -13.2145   19.8682 C   0  0  2  0  0  0
  -28.7000  -13.0481   20.9964 C   0  0  0  0  0  0
  -25.2561  -13.8175   20.5679 C   0  0  0  0  0  0
  -24.1828  -13.0443   20.9187 C   0  0  0  0  0  0
  -24.6393  -11.6911   20.8741 C   0  0  0  0  0  0
  -23.9064  -10.4295   21.0404 C   0  0  0  0  0  0
  -24.3614   -9.4209   21.9182 C   0  0  0  0  0  0
  -23.6289   -8.2244   22.0756 C   0  0  0  0  0  0
  -22.4274   -8.0279   21.3544 C   0  0  0  0  0  0
  -21.9906   -9.0253   20.4649 C   0  0  0  0  0  0
  -22.7234  -10.2133   20.3056 C   0  0  0  0  0  0
  -21.6853   -6.0731   22.5277 C   0  0  0  0  0  0
  -21.4017   -6.5636   23.8211 C   0  0  0  0  0  0
  -21.3659   -5.6789   24.9173 C   0  0  0  0  0  0
  -21.6043   -4.3053   24.7225 C   0  0  0  0  0  0
  -21.8819   -3.8144   23.4347 C   0  0  0  0  0  0
  -21.9194   -4.6959   22.3402 C   0  0  0  0  0  0
  -22.7848  -13.5232   21.1846 C   0  0  0  0  0  0
  -22.1659   -4.2140   21.0982 F   0  0  0  0  0  0
  -21.5627   -3.4539   25.7740 F   0  0  0  0  0  0
  -30.0253  -13.3486   20.4334 N   0  0  0  0  0  0
  -26.3000  -12.9355   20.3347 N   0  0  0  0  0  0
  -25.9323  -11.6511   20.5774 N   0  0  0  0  0  0
  -22.0493  -12.8225   22.0406 N   0  0  0  0  0  0
  -25.4278  -15.1894   20.4074 N   0  0  0  0  0  0
  -31.8482  -14.6500   20.1008 O   0  0  0  0  0  0
  -21.6641   -6.8873   21.4240 O   0  0  0  0  0  0
  -22.3530  -14.5537   20.6693 O   0  0  0  0  0  0
  -24.6184  -31.8663   23.2082 C   0  0  0  0  0  0
  -25.9060  -32.4821   23.8393 C   0  0  1  0  0  0
  -27.2242  -27.3961   20.1046 C   0  0  0  0  0  0
  -25.5902  -33.8619   24.2328 N   0  0  0  0  0  0
  -23.4100  -30.4914   21.5483 C   0  0  2  0  0  0
  -24.8584  -28.9609   20.1065 C   0  0  0  0  0  0
  -22.7446  -29.4654   22.4955 C   0  0  0  0  0  0
  -18.0279  -28.1391   22.8491 C   0  0  0  0  0  0
  -24.1487  -36.7307   23.2639 C   0  0  0  0  0  0
  -25.9449  -30.8202   21.3703 C   0  0  0  0  0  0
  -26.0223  -29.4538   20.7133 C   0  0  0  0  0  0
  -27.2118  -28.6784   20.7114 C   0  0  0  0  0  0
  -26.0488  -26.9436   19.4650 C   0  0  0  0  0  0
  -24.8687  -27.7069   19.4755 C   0  0  0  0  0  0
  -23.6214  -29.8304   20.1607 C   0  0  0  0  0  0
  -25.4111  -36.3112   24.0339 C   0  0  1  0  0  0
  -20.5879  -28.3684   23.1303 C   0  0  2  0  0  0
  -20.6774  -26.9417   22.5413 C   0  0  0  0  0  0
  -19.5748  -26.6397   21.5211 C   0  0  0  0  0  0
  -18.1927  -26.7934   22.1626 C   0  0  0  0  0  0
  -19.1532  -28.8854   23.2894 C   0  0  0  0  0  0
  -18.9459  -30.1458   23.8908 C   0  0  0  0  0  0
  -17.6462  -30.6594   24.0570 C   0  0  0  0  0  0
  -25.9038  -34.9476   23.5133 C   0  0  0  0  0  0
  -16.5351  -29.9098   23.6329 C   0  0  0  0  0  0
  -16.7269  -28.6516   23.0348 C   0  0  0  0  0  0
  -26.4475  -31.6605   25.0729 C   0  0  0  0  0  0
  -25.3735  -31.3711   26.1472 C   0  0  0  0  0  0
  -27.0306  -30.3047   24.6113 C   0  0  0  0  0  0
  -27.6053  -32.4324   25.7487 C   0  0  0  0  0  0
  -27.5586  -37.1814   24.8470 C   0  0  0  0  0  0
  -21.4168  -29.3039   22.3699 N   0  0  0  0  0  0
  -26.4300  -37.3796   23.9408 N   0  0  0  0  0  0
  -24.6760  -31.0743   22.0997 N   0  0  0  0  0  0
  -23.4204  -28.8193   23.3008 O   0  0  0  0  0  0
  -28.3141  -26.5398   20.1722 O   0  0  0  0  0  0
  -26.5602  -34.8926   22.4697 O   0  0  0  0  0  0
  -23.5366  -32.1424   23.7456 O   0  0  0  0  0  0
  -32.0539  -18.7795   21.1899 C   0  0  0  0  0  0
  -31.0534  -19.7697   21.1620 C   0  0  0  0  0  0
  -31.7177  -17.4128   21.1334 C   0  0  0  0  0  0
  -29.3680  -18.0135   21.0083 C   0  0  0  0  0  0
  -29.6914  -19.4066   21.0728 C   0  0  0  0  0  0
  -30.3677  -16.9969   21.0269 C   0  0  0  0  0  0
  -28.0140  -25.2760   20.6766 C   0  0  0  0  0  0
  -28.5988  -20.4630   21.1713 C   0  0  0  0  0  0
  -28.6867  -24.1110   20.4715 C   0  0  0  0  0  0
  -28.1351  -22.8615   21.0411 C   0  0  0  0  0  0
  -29.9904  -15.5984   20.9874 N   0  0  0  0  0  0
  -28.8947  -21.7513   20.8372 N   0  0  0  0  0  0
  -27.4797  -20.0870   21.5398 O   0  0  0  0  0  0
  -27.0613  -22.8372   21.6559 O   0  0  0  0  0  0
  -29.8178  -24.0843   19.7506 O   0  0  0  0  0  0
  -31.4641  -12.4190   19.1386 H   0  0  0  0  0  0
  -30.3165  -11.3324   19.8654 H   0  0  0  0  0  0
  -29.7446  -11.7581   17.4535 H   0  0  0  0  0  0
  -29.6578  -13.4759   17.7578 H   0  0  0  0  0  0
  -27.8435  -11.2988   18.8470 H   0  0  0  0  0  0
  -27.3658  -12.6018   17.7914 H   0  0  0  0  0  0
  -27.6851  -14.2541   19.5413 H   0  0  0  0  0  0
  -28.6866  -12.0285   21.3839 H   0  0  0  0  0  0
  -28.4602  -13.6903   21.8449 H   0  0  0  0  0  0
  -25.2762   -9.5680   22.4753 H   0  0  0  0  0  0
  -23.9997   -7.4637   22.7478 H   0  0  0  0  0  0
  -21.0835   -8.8770   19.8958 H   0  0  0  0  0  0
  -22.3693  -10.9667   19.6161 H   0  0  0  0  0  0
  -21.2012   -7.6145   23.9708 H   0  0  0  0  0  0
  -21.1478   -6.0524   25.9073 H   0  0  0  0  0  0
  -22.0599   -2.7606   23.2853 H   0  0  0  0  0  0
  -22.4109  -11.9885   22.4786 H   0  0  0  0  0  0
  -21.1116  -13.1249   22.2619 H   0  0  0  0  0  0
  -24.6600  -15.8443   20.5114 H   0  0  0  0  0  0
  -26.2748  -15.6266   20.0670 H   0  0  0  0  0  0
  -26.7133  -32.5523   23.1157 H   0  0  0  0  0  0
  -25.0053  -33.9774   25.0475 H   0  0  0  0  0  0
  -22.6992  -31.3091   21.4107 H   0  0  0  0  0  0
  -23.3750  -35.9642   23.3315 H   0  0  0  0  0  0
  -24.3576  -36.8902   22.2051 H   0  0  0  0  0  0
  -23.7239  -37.6517   23.6639 H   0  0  0  0  0  0
  -26.0660  -31.5866   20.6032 H   0  0  0  0  0  0
  -26.8297  -30.8707   21.9930 H   0  0  0  0  0  0
  -28.1025  -29.0408   21.2046 H   0  0  0  0  0  0
  -26.0354  -25.9765   18.9825 H   0  0  0  0  0  0
  -23.9777  -27.3236   18.9963 H   0  0  0  0  0  0
  -23.7338  -30.6090   19.4052 H   0  0  0  0  0  0
  -22.7440  -29.2547   19.8600 H   0  0  0  0  0  0
  -25.1293  -36.1978   25.0833 H   0  0  0  0  0  0
  -20.9971  -28.3253   24.1423 H   0  0  0  0  0  0
  -20.5681  -26.2295   23.3606 H   0  0  0  0  0  0
  -21.6646  -26.7461   22.1205 H   0  0  0  0  0  0
  -19.6903  -25.6307   21.1238 H   0  0  0  0  0  0
  -19.6680  -27.3212   20.6744 H   0  0  0  0  0  0
  -17.4199  -26.6685   21.4026 H   0  0  0  0  0  0
  -18.0323  -26.0079   22.9027 H   0  0  0  0  0  0
  -19.7933  -30.7271   24.2283 H   0  0  0  0  0  0
  -17.5015  -31.6266   24.5181 H   0  0  0  0  0  0
  -15.5352  -30.3007   23.7638 H   0  0  0  0  0  0
  -15.8669  -28.0836   22.7057 H   0  0  0  0  0  0
  -24.5907  -30.7060   25.7808 H   0  0  0  0  0  0
  -24.8918  -32.2863   26.4925 H   0  0  0  0  0  0
  -25.8080  -30.8878   27.0230 H   0  0  0  0  0  0
  -26.2853  -29.6811   24.1161 H   0  0  0  0  0  0
  -27.4073  -29.7280   25.4570 H   0  0  0  0  0  0
  -27.8694  -30.4372   23.9274 H   0  0  0  0  0  0
  -27.2679  -33.3620   26.2082 H   0  0  0  0  0  0
  -28.3845  -32.6890   25.0299 H   0  0  0  0  0  0
  -28.0740  -31.8433   26.5379 H   0  0  0  0  0  0
  -28.2625  -38.0093   24.7513 H   0  0  0  0  0  0
  -28.1063  -36.2627   24.6311 H   0  0  0  0  0  0
  -27.2299  -37.1482   25.8872 H   0  0  0  0  0  0
  -20.9331  -29.8778   21.6935 H   0  0  0  0  0  0
  -26.0190  -38.2877   24.1397 H   0  0  0  0  0  0
  -33.0918  -19.0700   21.2776 H   0  0  0  0  0  0
  -31.3477  -20.8068   21.2457 H   0  0  0  0  0  0
  -32.5241  -16.6967   21.1898 H   0  0  0  0  0  0
  -28.3271  -17.7232   20.9594 H   0  0  0  0  0  0
  -27.1150  -25.2975   21.2824 H   0  0  0  0  0  0
  -29.0326  -15.3899   21.2229 H   0  0  0  0  0  0
  -29.7867  -21.9276   20.4028 H   0  0  0  0  0  0
  -29.9863  -24.9777   19.4788 H   0  0  0  0  0  0
  1 25  1  0  0  0
  1 30  2  0  0  0
  1 81  1  0  0  0
  2  3  1  0  0  0
  2 25  1  0  0  0
  2 86  1  0  0  0
  2 87  1  0  0  0
  3  4  1  0  0  0
  3 88  1  0  0  0
  3 89  1  0  0  0
  4  5  1  0  0  0
  4 90  1  0  0  0
  4 91  1  0  0  0
  5  6  1  0  0  0
  5 26  1  0  0  0
  5 92  1  0  0  0
  6 25  1  0  0  0
  6 93  1  0  0  0
  6 94  1  0  0  0
  7  8  2  0  0  0
  7 26  1  0  0  0
  7 29  1  0  0  0
  8  9  1  0  0  0
  8 22  1  0  0  0
  9 10  1  0  0  0
  9 27  2  0  0  0
 10 11  2  0  0  0
 10 15  1  0  0  0
 11 12  1  0  0  0
 11 95  1  0  0  0
 12 13  2  0  0  0
 12 96  1  0  0  0
 13 14  1  0  0  0
 13 31  1  0  0  0
 14 15  2  0  0  0
 14 97  1  0  0  0
 15 98  1  0  0  0
 16 17  2  0  0  0
 16 21  1  0  0  0
 16 31  1  0  0  0
 17 18  1  0  0  0
 17 99  1  0  0  0
 18 19  2  0  0  0
 18100  1  0  0  0
 19 20  1  0  0  0
 19 24  1  0  0  0
 20 21  2  0  0  0
 20101  1  0  0  0
 21 23  1  0  0  0
 22 28  1  0  0  0
 22 32  2  0  0  0
 26 27  1  0  0  0
 28102  1  0  0  0
 28103  1  0  0  0
 29104  1  0  0  0
 29105  1  0  0  0
 33 34  1  0  0  0
 33 66  1  0  0  0
 33 70  2  0  0  0
 34 36  1  0  0  0
 34 59  1  0  0  0
 34106  1  0  0  0
 35 44  2  0  0  0
 35 45  1  0  0  0
 35 68  1  0  0  0
 36 56  1  0  0  0
 36107  1  0  0  0
 37 39  1  0  0  0
 37 47  1  0  0  0
 37 66  1  0  0  0
 37108  1  0  0  0
 38 43  2  0  0  0
 38 46  1  0  0  0
 38 47  1  0  0  0
 39 64  1  0  0  0
 39 67  2  0  0  0
 40 52  1  0  0  0
 40 53  2  0  0  0
 40 58  1  0  0  0
 41109  1  0  0  0
 41110  1  0  0  0
 41111  1  0  0  0
 41 48  1  0  0  0
 42 43  1  0  0  0
 42 66  1  0  0  0
 42112  1  0  0  0
 42113  1  0  0  0
 43 44  1  0  0  0
 44114  1  0  0  0
 45 46  2  0  0  0
 45115  1  0  0  0
 46116  1  0  0  0
 47117  1  0  0  0
 47118  1  0  0  0
 48 56  1  0  0  0
 48 65  1  0  0  0
 48119  1  0  0  0
 49 50  1  0  0  0
 49 53  1  0  0  0
 49 64  1  0  0  0
 49120  1  0  0  0
 50 51  1  0  0  0
 50121  1  0  0  0
 50122  1  0  0  0
 51 52  1  0  0  0
 51123  1  0  0  0
 51124  1  0  0  0
 52125  1  0  0  0
 52126  1  0  0  0
 53 54  1  0  0  0
 54 55  2  0  0  0
 54127  1  0  0  0
 55 57  1  0  0  0
 55128  1  0  0  0
 56 69  2  0  0  0
 57 58  2  0  0  0
 57129  1  0  0  0
 58130  1  0  0  0
 59 60  1  0  0  0
 59 61  1  0  0  0
 59 62  1  0  0  0
 60131  1  0  0  0
 60132  1  0  0  0
 60133  1  0  0  0
 61134  1  0  0  0
 61135  1  0  0  0
 61136  1  0  0  0
 62137  1  0  0  0
 62138  1  0  0  0
 62139  1  0  0  0
 63 65  1  0  0  0
 63140  1  0  0  0
 63141  1  0  0  0
 63142  1  0  0  0
 64143  1  0  0  0
 65144  1  0  0  0
 68 77  1  0  0  0
 71 72  2  0  0  0
 71 73  1  0  0  0
 71145  1  0  0  0
 72 75  1  0  0  0
 72146  1  0  0  0
 73 76  2  0  0  0
 73147  1  0  0  0
 74 75  2  0  0  0
 74 76  1  0  0  0
 74148  1  0  0  0
 75 78  1  0  0  0
 76 81  1  0  0  0
 77 79  2  0  0  0
 77149  1  0  0  0
 78 82  1  0  0  0
 78 83  2  0  0  0
 79 80  1  0  0  0
 79 85  1  0  0  0
 80 82  1  0  0  0
 80 84  2  0  0  0
 81150  1  0  0  0
 82151  1  0  0  0
 85152  1  0  0  0
M  ISO  4   1 100  68 101  77 101  81 100
M  END
> <chiral flag>
0

> <version>
0

> <s_m_source_file>
/data/baiqing/PycharmProjects/Reinvent-master-3.2/result/LINK_invent/BTK/process_docking_weight1_custom_product_contain_oxygen_bond_distance_aromatic_linkinvent_7_9_3/rearranged_h_0083.sdf

> <i_m_source_file_index>
12

> <r_mmod_Potential_Energy-OPLS-2005>
-205.175643920898

> <r_mmod_Stretch_Energy-OPLS-2005>
51.0612640380859

> <r_mmod_Bend_Energy-OPLS-2005>
105.611999511719

> <r_mmod_Torsional_Energy-OPLS-2005>
215.506256103516

> <r_mmod_Improper_Torsional_Energy-OPLS-2005>
4.6236252784729

> <r_mmod_Van_der_Waal_Energy-OPLS-2005>
173.690811157227

> <r_mmod_Electrostatic_Energy-OPLS-2005>
-530.527587890625

> <r_mmod_Solvation_Energy-OPLS-2005>
-251.445129394531

> <b_mmod_Minimization_Converged-OPLS-2005>
0

> <r_mmod_RMS_Derivative-OPLS-2005>
0.895522236824036

$$$$
12
                    3D
 Structure written by MMmdl.
153162  0  0  1  0            999 V2000
  -30.5879  -14.9631   20.4116 C   0  0  0  0  0  0
  -30.4215  -12.5963   19.5182 C   0  0  0  0  0  0
  -29.5201  -12.5229   18.2656 C   0  0  0  0  0  0
  -28.0540  -12.3084   18.6789 C   0  0  0  0  0  0
  -27.6188  -13.2608   19.8237 C   0  0  2  0  0  0
  -28.6534  -13.3447   20.9629 C   0  0  0  0  0  0
  -25.2424  -13.8243   20.5724 C   0  0  0  0  0  0
  -24.1750  -13.0447   20.9216 C   0  0  0  0  0  0
  -24.6382  -11.6938   20.8729 C   0  0  0  0  0  0
  -23.9075  -10.4297   21.0389 C   0  0  0  0  0  0
  -24.3624   -9.4212   21.9171 C   0  0  0  0  0  0
  -23.6294   -8.2248   22.0748 C   0  0  0  0  0  0
  -22.4277   -8.0280   21.3540 C   0  0  0  0  0  0
  -21.9911   -9.0252   20.4643 C   0  0  0  0  0  0
  -22.7239  -10.2131   20.3045 C   0  0  0  0  0  0
  -21.6857   -6.0730   22.5277 C   0  0  0  0  0  0
  -21.4022   -6.5638   23.8209 C   0  0  0  0  0  0
  -21.3661   -5.6793   24.9173 C   0  0  0  0  0  0
  -21.6043   -4.3053   24.7224 C   0  0  0  0  0  0
  -21.8819   -3.8142   23.4347 C   0  0  0  0  0  0
  -21.9195   -4.6958   22.3402 C   0  0  0  0  0  0
  -22.7772  -13.5206   21.1884 C   0  0  0  0  0  0
  -22.1661   -4.2142   21.0977 F   0  0  0  0  0  0
  -21.5626   -3.4536   25.7735 F   0  0  0  0  0  0
  -29.9352  -13.7286   20.3650 N   0  0  0  0  0  0
  -26.2835  -12.9497   20.3187 N   0  0  0  0  0  0
  -25.9311  -11.6614   20.5692 N   0  0  0  0  0  0
  -22.0443  -12.8186   22.0449 N   0  0  0  0  0  0
  -25.4112  -15.1973   20.4225 N   0  0  0  0  0  0
  -31.7986  -14.9263   20.1682 O   0  0  0  0  0  0
  -21.6644   -6.8871   21.4237 O   0  0  0  0  0  0
  -22.3445  -14.5508   20.6731 O   0  0  0  0  0  0
  -24.6466  -31.8419   23.1864 C   0  0  0  0  0  0
  -25.9233  -32.4673   23.8258 C   0  0  1  0  0  0
  -27.2121  -27.1121   20.1417 C   0  0  0  0  0  0
  -25.5979  -33.8480   24.2177 N   0  0  0  0  0  0
  -23.4497  -30.4623   21.5333 C   0  0  2  0  0  0
  -24.8957  -28.8873   20.1079 C   0  0  0  0  0  0
  -22.7576  -29.4547   22.4857 C   0  0  0  0  0  0
  -18.0308  -28.1395   22.8476 C   0  0  0  0  0  0
  -24.1496  -36.7224   23.2643 C   0  0  0  0  0  0
  -26.0086  -30.7076   21.3884 C   0  0  0  0  0  0
  -26.0767  -29.3194   20.7237 C   0  0  0  0  0  0
  -27.2335  -28.4482   20.7228 C   0  0  0  0  0  0
  -25.9907  -26.7790   19.5141 C   0  0  0  0  0  0
  -24.8662  -27.6302   19.4893 C   0  0  0  0  0  0
  -23.6748  -29.7924   20.1525 C   0  0  0  0  0  0
  -25.4133  -36.3009   24.0313 C   0  0  1  0  0  0
  -20.5921  -28.3727   23.1228 C   0  0  2  0  0  0
  -20.6795  -26.9431   22.5396 C   0  0  0  0  0  0
  -19.5765  -26.6385   21.5207 C   0  0  0  0  0  0
  -18.1948  -26.7935   22.1621 C   0  0  0  0  0  0
  -19.1565  -28.8880   23.2843 C   0  0  0  0  0  0
  -18.9483  -30.1476   23.8869 C   0  0  0  0  0  0
  -17.6479  -30.6594   24.0556 C   0  0  0  0  0  0
  -25.9090  -34.9390   23.5052 C   0  0  0  0  0  0
  -16.5370  -29.9083   23.6340 C   0  0  0  0  0  0
  -16.7293  -28.6499   23.0362 C   0  0  0  0  0  0
  -26.4551  -31.6549   25.0707 C   0  0  0  0  0  0
  -25.3728  -31.3741   26.1394 C   0  0  0  0  0  0
  -27.0435  -30.2945   24.6317 C   0  0  0  0  0  0
  -27.6072  -32.4327   25.7496 C   0  0  0  0  0  0
  -27.5577  -37.1771   24.8474 C   0  0  0  0  0  0
  -21.4268  -29.3046   22.3596 N   0  0  0  0  0  0
  -26.4292  -37.3728   23.9410 N   0  0  0  0  0  0
  -24.7219  -31.0258   22.0906 N   0  0  0  0  0  0
  -23.4210  -28.8103   23.3023 O   0  0  0  0  0  0
  -28.2582  -26.1110   20.2505 O   0  0  0  0  0  0
  -26.5670  -34.8897   22.4628 O   0  0  0  0  0  0
  -23.5581  -32.1311   23.7073 O   0  0  0  0  0  0
  -30.5315  -17.4302   21.4619 C   0  0  0  0  0  0
  -30.2133  -18.8498   21.4750 C   0  0  0  0  0  0
  -29.0666  -17.1172   19.6622 C   0  0  0  0  0  0
  -29.9789  -16.4545   20.5640 C   0  0  0  0  0  0
  -29.3264  -19.5273   20.5632 C   0  0  0  0  0  0
  -28.7574  -18.5531   19.6549 C   0  0  0  0  0  0
  -28.5662  -23.4760   20.3138 C   0  0  0  0  0  0
  -28.9436  -23.2618   21.6993 C   0  0  0  0  0  0
  -28.6501  -22.0531   19.7288 C   0  0  0  0  0  0
  -28.2454  -24.7365   19.7046 C   0  0  0  0  0  0
  -29.3059  -21.7781   21.9233 C   0  0  0  0  0  0
  -28.0255  -24.7892   18.1969 C   0  0  0  0  0  0
  -29.0562  -21.0606   20.6530 N   0  0  0  0  0  0
  -28.9976  -24.1093   22.5974 O   0  0  0  0  0  0
  -28.4029  -21.7704   18.5523 O   0  0  0  0  0  0
  -27.8662  -18.9824   18.7317 F   0  0  0  0  0  0
  -31.4620  -12.7159   19.2141 H   0  0  0  0  0  0
  -30.3859  -11.6598   20.0765 H   0  0  0  0  0  0
  -29.8478  -11.7161   17.6085 H   0  0  0  0  0  0
  -29.6111  -13.4461   17.6913 H   0  0  0  0  0  0
  -27.9567  -11.2723   19.0059 H   0  0  0  0  0  0
  -27.3942  -12.4190   17.8175 H   0  0  0  0  0  0
  -27.5667  -14.2509   19.3705 H   0  0  0  0  0  0
  -28.7353  -12.3956   21.4938 H   0  0  0  0  0  0
  -28.3484  -14.0895   21.6995 H   0  0  0  0  0  0
  -25.2768   -9.5693   22.4747 H   0  0  0  0  0  0
  -24.0004   -7.4643   22.7472 H   0  0  0  0  0  0
  -21.0839   -8.8769   19.8953 H   0  0  0  0  0  0
  -22.3686  -10.9668   19.6157 H   0  0  0  0  0  0
  -21.2020   -7.6146   23.9709 H   0  0  0  0  0  0
  -21.1481   -6.0523   25.9075 H   0  0  0  0  0  0
  -22.0596   -2.7603   23.2848 H   0  0  0  0  0  0
  -22.4089  -11.9862   22.4835 H   0  0  0  0  0  0
  -21.1057  -13.1190   22.2665 H   0  0  0  0  0  0
  -24.6499  -15.8544   20.5527 H   0  0  0  0  0  0
  -26.2746  -15.6426   20.1396 H   0  0  0  0  0  0
  -26.7293  -32.5269   23.0978 H   0  0  0  0  0  0
  -25.0120  -33.9594   25.0320 H   0  0  0  0  0  0
  -22.7532  -31.2890   21.3792 H   0  0  0  0  0  0
  -23.3774  -35.9541   23.3300 H   0  0  0  0  0  0
  -24.3574  -36.8859   22.2058 H   0  0  0  0  0  0
  -23.7237  -37.6412   23.6685 H   0  0  0  0  0  0
  -26.1743  -31.4656   20.6217 H   0  0  0  0  0  0
  -26.8748  -30.7495   22.0373 H   0  0  0  0  0  0
  -28.1324  -28.7726   21.2279 H   0  0  0  0  0  0
  -25.8536  -25.8030   19.0780 H   0  0  0  0  0  0
  -23.9574  -27.2837   19.0166 H   0  0  0  0  0  0
  -23.8118  -30.5665   19.3968 H   0  0  0  0  0  0
  -22.7880  -29.2361   19.8431 H   0  0  0  0  0  0
  -25.1322  -36.1830   25.0805 H   0  0  0  0  0  0
  -21.0010  -28.3318   24.1350 H   0  0  0  0  0  0
  -20.5693  -26.2341   23.3615 H   0  0  0  0  0  0
  -21.6661  -26.7439   22.1190 H   0  0  0  0  0  0
  -19.6930  -25.6289   21.1250 H   0  0  0  0  0  0
  -19.6700  -27.3181   20.6724 H   0  0  0  0  0  0
  -17.4215  -26.6675   21.4026 H   0  0  0  0  0  0
  -18.0355  -26.0082   22.9024 H   0  0  0  0  0  0
  -19.7960  -30.7298   24.2224 H   0  0  0  0  0  0
  -17.5034  -31.6271   24.5162 H   0  0  0  0  0  0
  -15.5369  -30.2974   23.7687 H   0  0  0  0  0  0
  -15.8692  -28.0805   22.7101 H   0  0  0  0  0  0
  -24.5918  -30.7082   25.7707 H   0  0  0  0  0  0
  -24.8911  -32.2922   26.4767 H   0  0  0  0  0  0
  -25.8006  -30.8945   27.0205 H   0  0  0  0  0  0
  -26.3070  -29.6648   24.1312 H   0  0  0  0  0  0
  -27.4029  -29.7261   25.4906 H   0  0  0  0  0  0
  -27.8980  -30.4178   23.9659 H   0  0  0  0  0  0
  -27.2660  -33.3650   26.2013 H   0  0  0  0  0  0
  -28.3917  -32.6856   25.0348 H   0  0  0  0  0  0
  -28.0708  -31.8495   26.5465 H   0  0  0  0  0  0
  -28.2594  -38.0068   24.7515 H   0  0  0  0  0  0
  -28.1072  -36.2597   24.6314 H   0  0  0  0  0  0
  -27.2287  -37.1425   25.8875 H   0  0  0  0  0  0
  -20.9489  -29.8735   21.6748 H   0  0  0  0  0  0
  -26.0153  -38.2792   24.1415 H   0  0  0  0  0  0
  -31.2749  -17.0841   22.1672 H   0  0  0  0  0  0
  -30.7223  -19.4429   22.2203 H   0  0  0  0  0  0
  -28.6087  -16.5144   18.8914 H   0  0  0  0  0  0
  -28.6949  -21.3617   22.7244 H   0  0  0  0  0  0
  -30.3543  -21.7077   22.2117 H   0  0  0  0  0  0
  -27.1041  -24.2755   17.9209 H   0  0  0  0  0  0
  -28.8501  -24.3002   17.6770 H   0  0  0  0  0  0
  -27.9804  -25.8113   17.8213 H   0  0  0  0  0  0
  1 25  1  0  0  0
  1 30  2  0  0  0
  1 74  1  0  0  0
  2  3  1  0  0  0
  2 25  1  0  0  0
  2 87  1  0  0  0
  2 88  1  0  0  0
  3  4  1  0  0  0
  3 89  1  0  0  0
  3 90  1  0  0  0
  4  5  1  0  0  0
  4 91  1  0  0  0
  4 92  1  0  0  0
  5  6  1  0  0  0
  5 26  1  0  0  0
  5 93  1  0  0  0
  6 25  1  0  0  0
  6 94  1  0  0  0
  6 95  1  0  0  0
  7  8  2  0  0  0
  7 26  1  0  0  0
  7 29  1  0  0  0
  8  9  1  0  0  0
  8 22  1  0  0  0
  9 10  1  0  0  0
  9 27  2  0  0  0
 10 11  2  0  0  0
 10 15  1  0  0  0
 11 12  1  0  0  0
 11 96  1  0  0  0
 12 13  2  0  0  0
 12 97  1  0  0  0
 13 14  1  0  0  0
 13 31  1  0  0  0
 14 15  2  0  0  0
 14 98  1  0  0  0
 15 99  1  0  0  0
 16 17  2  0  0  0
 16 21  1  0  0  0
 16 31  1  0  0  0
 17 18  1  0  0  0
 17100  1  0  0  0
 18 19  2  0  0  0
 18101  1  0  0  0
 19 20  1  0  0  0
 19 24  1  0  0  0
 20 21  2  0  0  0
 20102  1  0  0  0
 21 23  1  0  0  0
 22 28  1  0  0  0
 22 32  2  0  0  0
 26 27  1  0  0  0
 28103  1  0  0  0
 28104  1  0  0  0
 29105  1  0  0  0
 29106  1  0  0  0
 33 34  1  0  0  0
 33 66  1  0  0  0
 33 70  2  0  0  0
 34 36  1  0  0  0
 34 59  1  0  0  0
 34107  1  0  0  0
 35 44  2  0  0  0
 35 45  1  0  0  0
 35 68  1  0  0  0
 36 56  1  0  0  0
 36108  1  0  0  0
 37 39  1  0  0  0
 37 47  1  0  0  0
 37 66  1  0  0  0
 37109  1  0  0  0
 38 43  2  0  0  0
 38 46  1  0  0  0
 38 47  1  0  0  0
 39 64  1  0  0  0
 39 67  2  0  0  0
 40 52  1  0  0  0
 40 53  2  0  0  0
 40 58  1  0  0  0
 41110  1  0  0  0
 41111  1  0  0  0
 41112  1  0  0  0
 41 48  1  0  0  0
 42 43  1  0  0  0
 42 66  1  0  0  0
 42113  1  0  0  0
 42114  1  0  0  0
 43 44  1  0  0  0
 44115  1  0  0  0
 45 46  2  0  0  0
 45116  1  0  0  0
 46117  1  0  0  0
 47118  1  0  0  0
 47119  1  0  0  0
 48 56  1  0  0  0
 48 65  1  0  0  0
 48120  1  0  0  0
 49 50  1  0  0  0
 49 53  1  0  0  0
 49 64  1  0  0  0
 49121  1  0  0  0
 50 51  1  0  0  0
 50122  1  0  0  0
 50123  1  0  0  0
 51 52  1  0  0  0
 51124  1  0  0  0
 51125  1  0  0  0
 52126  1  0  0  0
 52127  1  0  0  0
 53 54  1  0  0  0
 54 55  2  0  0  0
 54128  1  0  0  0
 55 57  1  0  0  0
 55129  1  0  0  0
 56 69  2  0  0  0
 57 58  2  0  0  0
 57130  1  0  0  0
 58131  1  0  0  0
 59 60  1  0  0  0
 59 61  1  0  0  0
 59 62  1  0  0  0
 60132  1  0  0  0
 60133  1  0  0  0
 60134  1  0  0  0
 61135  1  0  0  0
 61136  1  0  0  0
 61137  1  0  0  0
 62138  1  0  0  0
 62139  1  0  0  0
 62140  1  0  0  0
 63 65  1  0  0  0
 63141  1  0  0  0
 63142  1  0  0  0
 63143  1  0  0  0
 64144  1  0  0  0
 65145  1  0  0  0
 68 80  1  0  0  0
 71 72  2  0  0  0
 71 74  1  0  0  0
 71146  1  0  0  0
 72 75  1  0  0  0
 72147  1  0  0  0
 73 74  2  0  0  0
 73 76  1  0  0  0
 73148  1  0  0  0
 75 76  2  0  0  0
 75 83  1  0  0  0
 76 86  1  0  0  0
 77 78  1  0  0  0
 77 79  1  0  0  0
 77 80  2  0  0  0
 78 81  1  0  0  0
 78 84  2  0  0  0
 79 83  1  0  0  0
 79 85  2  0  0  0
 80 82  1  0  0  0
 81 83  1  0  0  0
 81149  1  0  0  0
 81150  1  0  0  0
 82151  1  0  0  0
 82152  1  0  0  0
 82153  1  0  0  0
M  ISO  4   1 100  68 101  74 100  80 101
M  END
> <chiral flag>
0

> <version>
0

> <s_m_source_file>
/data/baiqing/PycharmProjects/Reinvent-master-3.2/result/LINK_invent/BTK/process_docking_weight1_custom_product_contain_oxygen_bond_distance_aromatic_linkinvent_7_9_3/rearranged_h_0083.sdf

> <i_m_source_file_index>
13

> <r_mmod_Potential_Energy-OPLS-2005>
623.951049804688

> <r_mmod_Stretch_Energy-OPLS-2005>
239.790710449219

> <r_mmod_Bend_Energy-OPLS-2005>
303.004516601562

> <r_mmod_Torsional_Energy-OPLS-2005>
250.727600097656

> <r_mmod_Improper_Torsional_Energy-OPLS-2005>
5.62134504318237

> <r_mmod_Van_der_Waal_Energy-OPLS-2005>
129.612274169922

> <r_mmod_Electrostatic_Energy-OPLS-2005>
-297.6826171875

> <r_mmod_Solvation_Energy-OPLS-2005>
-218.70588684082

> <b_mmod_Minimization_Converged-OPLS-2005>
0

> <r_mmod_RMS_Derivative-OPLS-2005>
0.826606571674347

$$$$
13
                    3D
 Structure written by MMmdl.
153162  0  0  1  0            999 V2000
  -30.5979  -14.6934   20.4887 C   0  0  0  0  0  0
  -30.4446  -12.4247   19.4602 C   0  0  0  0  0  0
  -29.5117  -12.5151   18.2307 C   0  0  0  0  0  0
  -28.0356  -12.3436   18.6430 C   0  0  0  0  0  0
  -27.6522  -13.2207   19.8645 C   0  0  2  0  0  0
  -28.6985  -13.0920   20.9948 C   0  0  0  0  0  0
  -25.2544  -13.8169   20.5688 C   0  0  0  0  0  0
  -24.1814  -13.0424   20.9168 C   0  0  0  0  0  0
  -24.6397  -11.6901   20.8729 C   0  0  0  0  0  0
  -23.9069  -10.4285   21.0400 C   0  0  0  0  0  0
  -24.3619   -9.4203   21.9181 C   0  0  0  0  0  0
  -23.6291   -8.2240   22.0755 C   0  0  0  0  0  0
  -22.4273   -8.0280   21.3545 C   0  0  0  0  0  0
  -21.9910   -9.0252   20.4645 C   0  0  0  0  0  0
  -22.7241  -10.2129   20.3051 C   0  0  0  0  0  0
  -21.6852   -6.0735   22.5280 C   0  0  0  0  0  0
  -21.4014   -6.5640   23.8213 C   0  0  0  0  0  0
  -21.3659   -5.6794   24.9176 C   0  0  0  0  0  0
  -21.6044   -4.3056   24.7226 C   0  0  0  0  0  0
  -21.8819   -3.8147   23.4348 C   0  0  0  0  0  0
  -21.9192   -4.6963   22.3403 C   0  0  0  0  0  0
  -22.7837  -13.5215   21.1842 C   0  0  0  0  0  0
  -22.1660   -4.2149   21.0981 F   0  0  0  0  0  0
  -21.5630   -3.4540   25.7739 F   0  0  0  0  0  0
  -30.0094  -13.4521   20.4303 N   0  0  0  0  0  0
  -26.2988  -12.9363   20.3340 N   0  0  0  0  0  0
  -25.9333  -11.6512   20.5766 N   0  0  0  0  0  0
  -22.0490  -12.8204   22.0406 N   0  0  0  0  0  0
  -25.4224  -15.1892   20.4148 N   0  0  0  0  0  0
  -31.7597  -14.8613   20.1054 O   0  0  0  0  0  0
  -21.6637   -6.8878   21.4242 O   0  0  0  0  0  0
  -22.3512  -14.5522   20.6701 O   0  0  0  0  0  0
  -24.6283  -31.8577   23.2010 C   0  0  0  0  0  0
  -25.9120  -32.4770   23.8348 C   0  0  1  0  0  0
  -27.2263  -27.2965   20.1271 C   0  0  0  0  0  0
  -25.5929  -33.8572   24.2274 N   0  0  0  0  0  0
  -23.4244  -30.4799   21.5432 C   0  0  2  0  0  0
  -24.8740  -28.9309   20.1114 C   0  0  0  0  0  0
  -22.7488  -29.4611   22.4923 C   0  0  0  0  0  0
  -18.0289  -28.1387   22.8486 C   0  0  0  0  0  0
  -24.1489  -36.7288   23.2639 C   0  0  0  0  0  0
  -25.9672  -30.7807   21.3774 C   0  0  0  0  0  0
  -26.0429  -29.4048   20.7223 C   0  0  0  0  0  0
  -27.2230  -28.5979   20.7235 C   0  0  0  0  0  0
  -26.0394  -26.8855   19.4814 C   0  0  0  0  0  0
  -24.8746  -27.6766   19.4817 C   0  0  0  0  0  0
  -23.6423  -29.8133   20.1593 C   0  0  0  0  0  0
  -25.4115  -36.3079   24.0329 C   0  0  1  0  0  0
  -20.5891  -28.3695   23.1276 C   0  0  2  0  0  0
  -20.6779  -26.9414   22.5410 C   0  0  0  0  0  0
  -19.5754  -26.6384   21.5212 C   0  0  0  0  0  0
  -18.1933  -26.7930   22.1624 C   0  0  0  0  0  0
  -19.1542  -28.8857   23.2876 C   0  0  0  0  0  0
  -18.9464  -30.1459   23.8893 C   0  0  0  0  0  0
  -17.6464  -30.6588   24.0563 C   0  0  0  0  0  0
  -25.9053  -34.9448   23.5102 C   0  0  0  0  0  0
  -16.5355  -29.9085   23.6332 C   0  0  0  0  0  0
  -16.7277  -28.6504   23.0353 C   0  0  0  0  0  0
  -26.4500  -31.6584   25.0724 C   0  0  0  0  0  0
  -25.3730  -31.3724   26.1447 C   0  0  0  0  0  0
  -27.0347  -30.3007   24.6190 C   0  0  0  0  0  0
  -27.6056  -32.4322   25.7498 C   0  0  0  0  0  0
  -27.5580  -37.1801   24.8466 C   0  0  0  0  0  0
  -21.4199  -29.3043   22.3666 N   0  0  0  0  0  0
  -26.4292  -37.3775   23.9408 N   0  0  0  0  0  0
  -24.6920  -31.0566   22.0973 N   0  0  0  0  0  0
  -23.4198  -28.8153   23.3017 O   0  0  0  0  0  0
  -28.3171  -26.4066   20.1562 O   0  0  0  0  0  0
  -26.5621  -34.8917   22.4668 O   0  0  0  0  0  0
  -23.5439  -32.1385   23.7320 O   0  0  0  0  0  0
  -30.7271  -19.4210   20.0260 C   0  0  0  0  0  0
  -30.8436  -17.9947   20.1472 C   0  0  0  0  0  0
  -28.5313  -19.3472   20.9654 C   0  0  0  0  0  0
  -29.5685  -20.1643   20.4267 C   0  0  0  0  0  0
  -29.7952  -17.1990   20.6840 C   0  0  0  0  0  0
  -28.6423  -17.9262   21.0862 C   0  0  0  0  0  0
  -28.8606  -23.9314   20.2539 C   0  0  0  0  0  0
  -28.4896  -22.5402   20.6268 C   0  0  0  0  0  0
  -28.0680  -25.0437   20.4719 C   0  0  0  0  0  0
  -30.2138  -23.8944   19.6114 C   0  0  0  0  0  0
  -30.5984  -22.3974   19.6545 C   0  0  0  0  0  0
  -29.4878  -21.6513   20.2719 N   0  0  0  0  0  0
  -29.7723  -15.7333   20.8479 N   0  0  0  0  0  0
  -27.4328  -22.2197   21.1791 O   0  0  0  0  0  0
  -27.5985  -17.2319   21.6001 F   0  0  0  0  0  0
  -31.4835  -12.5622   19.1555 H   0  0  0  0  0  0
  -30.3941  -11.4325   19.9114 H   0  0  0  0  0  0
  -29.7837  -11.7585   17.4934 H   0  0  0  0  0  0
  -29.6438  -13.4809   17.7403 H   0  0  0  0  0  0
  -27.8810  -11.2911   18.8829 H   0  0  0  0  0  0
  -27.3792  -12.5620   17.7999 H   0  0  0  0  0  0
  -27.6627  -14.2532   19.5148 H   0  0  0  0  0  0
  -28.7219  -12.0721   21.3816 H   0  0  0  0  0  0
  -28.4359  -13.7246   21.8440 H   0  0  0  0  0  0
  -25.2766   -9.5678   22.4753 H   0  0  0  0  0  0
  -24.0000   -7.4632   22.7476 H   0  0  0  0  0  0
  -21.0841   -8.8771   19.8951 H   0  0  0  0  0  0
  -22.3703  -10.9666   19.6158 H   0  0  0  0  0  0
  -21.2007   -7.6148   23.9715 H   0  0  0  0  0  0
  -21.1482   -6.0526   25.9079 H   0  0  0  0  0  0
  -22.0598   -2.7609   23.2849 H   0  0  0  0  0  0
  -22.4116  -11.9865   22.4786 H   0  0  0  0  0  0
  -21.1111  -13.1228   22.2626 H   0  0  0  0  0  0
  -24.6628  -15.8433   20.5659 H   0  0  0  0  0  0
  -26.2957  -15.6491   20.1916 H   0  0  0  0  0  0
  -26.7187  -32.5438   23.1095 H   0  0  0  0  0  0
  -25.0082  -33.9715   25.0424 H   0  0  0  0  0  0
  -22.7193  -31.3009   21.3978 H   0  0  0  0  0  0
  -23.3754  -35.9618   23.3304 H   0  0  0  0  0  0
  -24.3578  -36.8905   22.2052 H   0  0  0  0  0  0
  -23.7240  -37.6490   23.6659 H   0  0  0  0  0  0
  -26.1007  -31.5417   20.6073 H   0  0  0  0  0  0
  -26.8466  -30.8317   22.0077 H   0  0  0  0  0  0
  -28.1189  -28.9530   21.2131 H   0  0  0  0  0  0
  -26.0022  -25.9236   18.9901 H   0  0  0  0  0  0
  -23.9807  -27.3089   18.9966 H   0  0  0  0  0  0
  -23.7635  -30.5893   19.4027 H   0  0  0  0  0  0
  -22.7624  -29.2434   19.8556 H   0  0  0  0  0  0
  -25.1296  -36.1932   25.0822 H   0  0  0  0  0  0
  -20.9983  -28.3272   24.1398 H   0  0  0  0  0  0
  -20.5681  -26.2303   23.3611 H   0  0  0  0  0  0
  -21.6647  -26.7440   22.1204 H   0  0  0  0  0  0
  -19.6915  -25.6295   21.1244 H   0  0  0  0  0  0
  -19.6692  -27.3194   20.6742 H   0  0  0  0  0  0
  -17.4203  -26.6678   21.4026 H   0  0  0  0  0  0
  -18.0332  -26.0071   22.9021 H   0  0  0  0  0  0
  -19.7939  -30.7276   24.2261 H   0  0  0  0  0  0
  -17.5018  -31.6268   24.5165 H   0  0  0  0  0  0
  -15.5356  -30.2987   23.7657 H   0  0  0  0  0  0
  -15.8677  -28.0822   22.7070 H   0  0  0  0  0  0
  -24.5911  -30.7065   25.7776 H   0  0  0  0  0  0
  -24.8914  -32.2889   26.4864 H   0  0  0  0  0  0
  -25.8055  -30.8910   27.0227 H   0  0  0  0  0  0
  -26.2926  -29.6754   24.1212 H   0  0  0  0  0  0
  -27.4038  -29.7267   25.4699 H   0  0  0  0  0  0
  -27.8799  -30.4290   23.9423 H   0  0  0  0  0  0
  -27.2666  -33.3626   26.2064 H   0  0  0  0  0  0
  -28.3875  -32.6872   25.0332 H   0  0  0  0  0  0
  -28.0714  -31.8452   26.5424 H   0  0  0  0  0  0
  -28.2599  -38.0097   24.7513 H   0  0  0  0  0  0
  -28.1075  -36.2628   24.6296 H   0  0  0  0  0  0
  -27.2296  -37.1455   25.8868 H   0  0  0  0  0  0
  -20.9380  -29.8763   21.6872 H   0  0  0  0  0  0
  -26.0174  -38.2851   24.1408 H   0  0  0  0  0  0
  -31.5735  -19.9432   19.6036 H   0  0  0  0  0  0
  -31.7555  -17.5196   19.8150 H   0  0  0  0  0  0
  -27.6072  -19.7916   21.2993 H   0  0  0  0  0  0
  -27.1091  -24.9273   20.9609 H   0  0  0  0  0  0
  -30.9184  -24.5110   20.1709 H   0  0  0  0  0  0
  -30.1575  -24.2690   18.5887 H   0  0  0  0  0  0
  -31.5083  -22.2560   20.2394 H   0  0  0  0  0  0
  -30.7868  -22.0224   18.6475 H   0  0  0  0  0  0
  -28.8859  -15.4059   21.2020 H   0  0  0  0  0  0
  1 25  1  0  0  0
  1 30  2  0  0  0
  1 83  1  0  0  0
  2  3  1  0  0  0
  2 25  1  0  0  0
  2 86  1  0  0  0
  2 87  1  0  0  0
  3  4  1  0  0  0
  3 88  1  0  0  0
  3 89  1  0  0  0
  4  5  1  0  0  0
  4 90  1  0  0  0
  4 91  1  0  0  0
  5  6  1  0  0  0
  5 26  1  0  0  0
  5 92  1  0  0  0
  6 25  1  0  0  0
  6 93  1  0  0  0
  6 94  1  0  0  0
  7  8  2  0  0  0
  7 26  1  0  0  0
  7 29  1  0  0  0
  8  9  1  0  0  0
  8 22  1  0  0  0
  9 10  1  0  0  0
  9 27  2  0  0  0
 10 11  2  0  0  0
 10 15  1  0  0  0
 11 12  1  0  0  0
 11 95  1  0  0  0
 12 13  2  0  0  0
 12 96  1  0  0  0
 13 14  1  0  0  0
 13 31  1  0  0  0
 14 15  2  0  0  0
 14 97  1  0  0  0
 15 98  1  0  0  0
 16 17  2  0  0  0
 16 21  1  0  0  0
 16 31  1  0  0  0
 17 18  1  0  0  0
 17 99  1  0  0  0
 18 19  2  0  0  0
 18100  1  0  0  0
 19 20  1  0  0  0
 19 24  1  0  0  0
 20 21  2  0  0  0
 20101  1  0  0  0
 21 23  1  0  0  0
 22 28  1  0  0  0
 22 32  2  0  0  0
 26 27  1  0  0  0
 28102  1  0  0  0
 28103  1  0  0  0
 29104  1  0  0  0
 29105  1  0  0  0
 33 34  1  0  0  0
 33 66  1  0  0  0
 33 70  2  0  0  0
 34 36  1  0  0  0
 34 59  1  0  0  0
 34106  1  0  0  0
 35 44  2  0  0  0
 35 45  1  0  0  0
 35 68  1  0  0  0
 36 56  1  0  0  0
 36107  1  0  0  0
 37 39  1  0  0  0
 37 47  1  0  0  0
 37 66  1  0  0  0
 37108  1  0  0  0
 38 43  2  0  0  0
 38 46  1  0  0  0
 38 47  1  0  0  0
 39 64  1  0  0  0
 39 67  2  0  0  0
 40 52  1  0  0  0
 40 53  2  0  0  0
 40 58  1  0  0  0
 41109  1  0  0  0
 41110  1  0  0  0
 41111  1  0  0  0
 41 48  1  0  0  0
 42 43  1  0  0  0
 42 66  1  0  0  0
 42112  1  0  0  0
 42113  1  0  0  0
 43 44  1  0  0  0
 44114  1  0  0  0
 45 46  2  0  0  0
 45115  1  0  0  0
 46116  1  0  0  0
 47117  1  0  0  0
 47118  1  0  0  0
 48 56  1  0  0  0
 48 65  1  0  0  0
 48119  1  0  0  0
 49 50  1  0  0  0
 49 53  1  0  0  0
 49 64  1  0  0  0
 49120  1  0  0  0
 50 51  1  0  0  0
 50121  1  0  0  0
 50122  1  0  0  0
 51 52  1  0  0  0
 51123  1  0  0  0
 51124  1  0  0  0
 52125  1  0  0  0
 52126  1  0  0  0
 53 54  1  0  0  0
 54 55  2  0  0  0
 54127  1  0  0  0
 55 57  1  0  0  0
 55128  1  0  0  0
 56 69  2  0  0  0
 57 58  2  0  0  0
 57129  1  0  0  0
 58130  1  0  0  0
 59 60  1  0  0  0
 59 61  1  0  0  0
 59 62  1  0  0  0
 60131  1  0  0  0
 60132  1  0  0  0
 60133  1  0  0  0
 61134  1  0  0  0
 61135  1  0  0  0
 61136  1  0  0  0
 62137  1  0  0  0
 62138  1  0  0  0
 62139  1  0  0  0
 63 65  1  0  0  0
 63140  1  0  0  0
 63141  1  0  0  0
 63142  1  0  0  0
 64143  1  0  0  0
 65144  1  0  0  0
 68 79  1  0  0  0
 71 72  2  0  0  0
 71 74  1  0  0  0
 71145  1  0  0  0
 72 75  1  0  0  0
 72146  1  0  0  0
 73 74  2  0  0  0
 73 76  1  0  0  0
 73147  1  0  0  0
 74 82  1  0  0  0
 75 76  2  0  0  0
 75 83  1  0  0  0
 76 85  1  0  0  0
 77 78  1  0  0  0
 77 79  2  0  0  0
 77 80  1  0  0  0
 78 82  1  0  0  0
 78 84  2  0  0  0
 79148  1  0  0  0
 80 81  1  0  0  0
 80149  1  0  0  0
 80150  1  0  0  0
 81 82  1  0  0  0
 81151  1  0  0  0
 81152  1  0  0  0
 83153  1  0  0  0
M  ISO  4   1 100  68 101  79 101  83 100
M  END
> <chiral flag>
0

> <version>
0

> <s_m_source_file>
/data/baiqing/PycharmProjects/Reinvent-master-3.2/result/LINK_invent/BTK/process_docking_weight1_custom_product_contain_oxygen_bond_distance_aromatic_linkinvent_7_9_3/rearranged_h_0083.sdf

> <i_m_source_file_index>
14

> <r_mmod_Potential_Energy-OPLS-2005>
151.382583618164

> <r_mmod_Stretch_Energy-OPLS-2005>
94.0138702392578

> <r_mmod_Bend_Energy-OPLS-2005>
173.480941772461

> <r_mmod_Torsional_Energy-OPLS-2005>
248.82829284668

> <r_mmod_Improper_Torsional_Energy-OPLS-2005>
3.5439281463623

> <r_mmod_Van_der_Waal_Energy-OPLS-2005>
141.800140380859

> <r_mmod_Electrostatic_Energy-OPLS-2005>
-373.318511962891

> <r_mmod_Solvation_Energy-OPLS-2005>
-201.809494018555

> <b_mmod_Minimization_Converged-OPLS-2005>
0

> <r_mmod_RMS_Derivative-OPLS-2005>
0.223294451832771

$$$$
14
                    3D
 Structure written by MMmdl.
150159  0  0  1  0            999 V2000
  -30.5812  -14.8839   20.4356 C   0  0  0  0  0  0
  -30.4336  -12.5472   19.4879 C   0  0  0  0  0  0
  -29.5143  -12.5187   18.2467 C   0  0  0  0  0  0
  -28.0459  -12.3181   18.6661 C   0  0  0  0  0  0
  -27.6310  -13.2453   19.8391 C   0  0  2  0  0  0
  -28.6761  -13.2557   20.9749 C   0  0  0  0  0  0
  -25.2466  -13.8216   20.5712 C   0  0  0  0  0  0
  -24.1780  -13.0440   20.9227 C   0  0  0  0  0  0
  -24.6394  -11.6925   20.8757 C   0  0  0  0  0  0
  -23.9078  -10.4294   21.0409 C   0  0  0  0  0  0
  -24.3626   -9.4207   21.9185 C   0  0  0  0  0  0
  -23.6298   -8.2244   22.0754 C   0  0  0  0  0  0
  -22.4280   -8.0282   21.3545 C   0  0  0  0  0  0
  -21.9919   -9.0257   20.4646 C   0  0  0  0  0  0
  -22.7250  -10.2135   20.3057 C   0  0  0  0  0  0
  -21.6855   -6.0736   22.5279 C   0  0  0  0  0  0
  -21.4016   -6.5640   23.8212 C   0  0  0  0  0  0
  -21.3660   -5.6793   24.9174 C   0  0  0  0  0  0
  -21.6044   -4.3056   24.7225 C   0  0  0  0  0  0
  -21.8819   -3.8147   23.4346 C   0  0  0  0  0  0
  -21.9194   -4.6964   22.3402 C   0  0  0  0  0  0
  -22.7799  -13.5210   21.1881 C   0  0  0  0  0  0
  -22.1662   -4.2149   21.0980 F   0  0  0  0  0  0
  -21.5628   -3.4539   25.7737 F   0  0  0  0  0  0
  -29.9572  -13.6444   20.3736 N   0  0  0  0  0  0
  -26.2892  -12.9446   20.3255 N   0  0  0  0  0  0
  -25.9326  -11.6576   20.5748 N   0  0  0  0  0  0
  -22.0452  -12.8196   22.0437 N   0  0  0  0  0  0
  -25.4118  -15.1947   20.4133 N   0  0  0  0  0  0
  -31.7866  -14.9199   20.1698 O   0  0  0  0  0  0
  -21.6643   -6.8880   21.4241 O   0  0  0  0  0  0
  -22.3480  -14.5513   20.6725 O   0  0  0  0  0  0
  -24.6401  -31.8475   23.1918 C   0  0  0  0  0  0
  -25.9187  -32.4714   23.8295 C   0  0  1  0  0  0
  -27.2151  -27.1728   20.1491 C   0  0  0  0  0  0
  -25.5948  -33.8519   24.2211 N   0  0  0  0  0  0
  -23.4425  -30.4679   21.5363 C   0  0  2  0  0  0
  -24.8933  -28.9016   20.1103 C   0  0  0  0  0  0
  -22.7553  -29.4562   22.4871 C   0  0  0  0  0  0
  -18.0302  -28.1394   22.8478 C   0  0  0  0  0  0
  -24.1491  -36.7265   23.2642 C   0  0  0  0  0  0
  -25.9963  -30.7316   21.3876 C   0  0  0  0  0  0
  -26.0690  -29.3456   20.7311 C   0  0  0  0  0  0
  -27.2343  -28.4948   20.7389 C   0  0  0  0  0  0
  -26.0200  -26.8255   19.4843 C   0  0  0  0  0  0
  -24.8786  -27.6526   19.4725 C   0  0  0  0  0  0
  -23.6681  -29.7995   20.1546 C   0  0  0  0  0  0
  -25.4122  -36.3044   24.0319 C   0  0  1  0  0  0
  -20.5913  -28.3717   23.1242 C   0  0  2  0  0  0
  -20.6787  -26.9423   22.5404 C   0  0  0  0  0  0
  -19.5761  -26.6382   21.5212 C   0  0  0  0  0  0
  -18.1942  -26.7933   22.1623 C   0  0  0  0  0  0
  -19.1558  -28.8873   23.2853 C   0  0  0  0  0  0
  -18.9475  -30.1470   23.8878 C   0  0  0  0  0  0
  -17.6472  -30.6591   24.0560 C   0  0  0  0  0  0
  -25.9069  -34.9418   23.5072 C   0  0  0  0  0  0
  -16.5363  -29.9084   23.6335 C   0  0  0  0  0  0
  -16.7287  -28.6503   23.0356 C   0  0  0  0  0  0
  -26.4521  -31.6571   25.0722 C   0  0  0  0  0  0
  -25.3712  -31.3747   26.1420 C   0  0  0  0  0  0
  -27.0388  -30.2972   24.6284 C   0  0  0  0  0  0
  -27.6052  -32.4335   25.7508 C   0  0  0  0  0  0
  -27.5576  -37.1789   24.8465 C   0  0  0  0  0  0
  -21.4249  -29.3048   22.3618 N   0  0  0  0  0  0
  -26.4289  -37.3753   23.9407 N   0  0  0  0  0  0
  -24.7124  -31.0359   22.0939 N   0  0  0  0  0  0
  -23.4210  -28.8106   23.3008 O   0  0  0  0  0  0
  -28.2445  -26.1747   20.1870 O   0  0  0  0  0  0
  -26.5651  -34.8908   22.4648 O   0  0  0  0  0  0
  -23.5527  -32.1337   23.7156 O   0  0  0  0  0  0
  -31.9721  -19.1735   21.1764 C   0  0  0  0  0  0
  -31.1410  -20.2748   20.8958 C   0  0  0  0  0  0
  -31.5249  -17.8480   21.0492 C   0  0  0  0  0  0
  -29.7912  -20.1713   20.4815 C   0  0  0  0  0  0
  -30.2105  -17.5483   20.6358 C   0  0  0  0  0  0
  -29.3615  -18.7451   20.3825 C   0  0  0  0  0  0
  -28.4314  -23.5150   20.4495 C   0  0  0  0  0  0
  -29.5860  -22.8509   19.8303 C   0  0  0  0  0  0
  -27.8974  -24.8215   20.5939 C   0  0  0  0  0  0
  -28.0171  -22.0981   20.9862 C   0  0  0  0  0  0
  -29.1332  -21.5213   20.1896 N   0  0  0  0  0  0
  -29.8214  -16.0752   20.5475 N   0  0  0  0  0  0
  -30.5869  -23.3241   19.3328 O   0  0  0  0  0  0
  -28.0832  -18.5132   19.9977 F   0  0  0  0  0  0
  -31.4702  -12.6868   19.1772 H   0  0  0  0  0  0
  -30.4072  -11.5910   20.0130 H   0  0  0  0  0  0
  -29.8213  -11.7244   17.5650 H   0  0  0  0  0  0
  -29.6143  -13.4540   17.6936 H   0  0  0  0  0  0
  -27.9311  -11.2753   18.9639 H   0  0  0  0  0  0
  -27.3832  -12.4648   17.8123 H   0  0  0  0  0  0
  -27.5997  -14.2511   19.4196 H   0  0  0  0  0  0
  -28.7486  -12.2780   21.4533 H   0  0  0  0  0  0
  -28.3890  -13.9625   21.7552 H   0  0  0  0  0  0
  -25.2769   -9.5684   22.4763 H   0  0  0  0  0  0
  -24.0006   -7.4635   22.7474 H   0  0  0  0  0  0
  -21.0850   -8.8778   19.8952 H   0  0  0  0  0  0
  -22.3708  -10.9675   19.6168 H   0  0  0  0  0  0
  -21.2009   -7.6149   23.9716 H   0  0  0  0  0  0
  -21.1482   -6.0523   25.9077 H   0  0  0  0  0  0
  -22.0598   -2.7610   23.2846 H   0  0  0  0  0  0
  -22.4078  -11.9863   22.4827 H   0  0  0  0  0  0
  -21.1066  -13.1210   22.2641 H   0  0  0  0  0  0
  -24.6395  -15.8423   20.5262 H   0  0  0  0  0  0
  -26.2504  -15.6413   20.0663 H   0  0  0  0  0  0
  -26.7253  -32.5336   23.1028 H   0  0  0  0  0  0
  -25.0076  -33.9641   25.0345 H   0  0  0  0  0  0
  -22.7434  -31.2928   21.3841 H   0  0  0  0  0  0
  -23.3757  -35.9593   23.3295 H   0  0  0  0  0  0
  -24.3576  -36.8903   22.2057 H   0  0  0  0  0  0
  -23.7243  -37.6458   23.6682 H   0  0  0  0  0  0
  -26.1480  -31.4870   20.6154 H   0  0  0  0  0  0
  -26.8683  -30.7819   22.0280 H   0  0  0  0  0  0
  -28.1302  -28.8252   21.2453 H   0  0  0  0  0  0
  -25.9513  -25.8648   18.9940 H   0  0  0  0  0  0
  -23.9821  -27.3085   18.9751 H   0  0  0  0  0  0
  -23.8019  -30.5750   19.3997 H   0  0  0  0  0  0
  -22.7839  -29.2395   19.8445 H   0  0  0  0  0  0
  -25.1309  -36.1877   25.0811 H   0  0  0  0  0  0
  -21.0005  -28.3306   24.1363 H   0  0  0  0  0  0
  -20.5682  -26.2331   23.3621 H   0  0  0  0  0  0
  -21.6654  -26.7433   22.1201 H   0  0  0  0  0  0
  -19.6923  -25.6287   21.1254 H   0  0  0  0  0  0
  -19.6698  -27.3181   20.6732 H   0  0  0  0  0  0
  -17.4211  -26.6677   21.4028 H   0  0  0  0  0  0
  -18.0343  -26.0080   22.9025 H   0  0  0  0  0  0
  -19.7951  -30.7292   24.2239 H   0  0  0  0  0  0
  -17.5025  -31.6269   24.5165 H   0  0  0  0  0  0
  -15.5362  -30.2980   23.7671 H   0  0  0  0  0  0
  -15.8688  -28.0815   22.7082 H   0  0  0  0  0  0
  -24.5905  -30.7079   25.7742 H   0  0  0  0  0  0
  -24.8885  -32.2923   26.4792 H   0  0  0  0  0  0
  -25.8003  -30.8961   27.0232 H   0  0  0  0  0  0
  -26.3003  -29.6697   24.1281 H   0  0  0  0  0  0
  -27.4002  -29.7266   25.4849 H   0  0  0  0  0  0
  -27.8909  -30.4218   23.9598 H   0  0  0  0  0  0
  -27.2641  -33.3647   26.2044 H   0  0  0  0  0  0
  -28.3885  -32.6879   25.0356 H   0  0  0  0  0  0
  -28.0696  -31.8490   26.5460 H   0  0  0  0  0  0
  -28.2589  -38.0091   24.7511 H   0  0  0  0  0  0
  -28.1078  -36.2620   24.6296 H   0  0  0  0  0  0
  -27.2293  -37.1440   25.8868 H   0  0  0  0  0  0
  -20.9454  -29.8763   21.6803 H   0  0  0  0  0  0
  -26.0159  -38.2823   24.1408 H   0  0  0  0  0  0
  -32.9892  -19.3537   21.4962 H   0  0  0  0  0  0
  -31.5834  -21.2540   21.0118 H   0  0  0  0  0  0
  -32.2242  -17.0625   21.2930 H   0  0  0  0  0  0
  -26.9932  -24.8750   21.1840 H   0  0  0  0  0  0
  -27.0522  -21.6980   20.6711 H   0  0  0  0  0  0
  -28.1568  -21.9232   22.0548 H   0  0  0  0  0  0
  -28.8262  -15.9145   20.5639 H   0  0  0  0  0  0
  1 25  1  0  0  0
  1 30  2  0  0  0
  1 82  1  0  0  0
  2  3  1  0  0  0
  2 25  1  0  0  0
  2 85  1  0  0  0
  2 86  1  0  0  0
  3  4  1  0  0  0
  3 87  1  0  0  0
  3 88  1  0  0  0
  4  5  1  0  0  0
  4 89  1  0  0  0
  4 90  1  0  0  0
  5  6  1  0  0  0
  5 26  1  0  0  0
  5 91  1  0  0  0
  6 25  1  0  0  0
  6 92  1  0  0  0
  6 93  1  0  0  0
  7  8  2  0  0  0
  7 26  1  0  0  0
  7 29  1  0  0  0
  8  9  1  0  0  0
  8 22  1  0  0  0
  9 10  1  0  0  0
  9 27  2  0  0  0
 10 11  2  0  0  0
 10 15  1  0  0  0
 11 12  1  0  0  0
 11 94  1  0  0  0
 12 13  2  0  0  0
 12 95  1  0  0  0
 13 14  1  0  0  0
 13 31  1  0  0  0
 14 15  2  0  0  0
 14 96  1  0  0  0
 15 97  1  0  0  0
 16 17  2  0  0  0
 16 21  1  0  0  0
 16 31  1  0  0  0
 17 18  1  0  0  0
 17 98  1  0  0  0
 18 19  2  0  0  0
 18 99  1  0  0  0
 19 20  1  0  0  0
 19 24  1  0  0  0
 20 21  2  0  0  0
 20100  1  0  0  0
 21 23  1  0  0  0
 22 28  1  0  0  0
 22 32  2  0  0  0
 26 27  1  0  0  0
 28101  1  0  0  0
 28102  1  0  0  0
 29103  1  0  0  0
 29104  1  0  0  0
 33 34  1  0  0  0
 33 66  1  0  0  0
 33 70  2  0  0  0
 34 36  1  0  0  0
 34 59  1  0  0  0
 34105  1  0  0  0
 35 44  2  0  0  0
 35 45  1  0  0  0
 35 68  1  0  0  0
 36 56  1  0  0  0
 36106  1  0  0  0
 37 39  1  0  0  0
 37 47  1  0  0  0
 37 66  1  0  0  0
 37107  1  0  0  0
 38 43  2  0  0  0
 38 46  1  0  0  0
 38 47  1  0  0  0
 39 64  1  0  0  0
 39 67  2  0  0  0
 40 52  1  0  0  0
 40 53  2  0  0  0
 40 58  1  0  0  0
 41108  1  0  0  0
 41109  1  0  0  0
 41110  1  0  0  0
 41 48  1  0  0  0
 42 43  1  0  0  0
 42 66  1  0  0  0
 42111  1  0  0  0
 42112  1  0  0  0
 43 44  1  0  0  0
 44113  1  0  0  0
 45 46  2  0  0  0
 45114  1  0  0  0
 46115  1  0  0  0
 47116  1  0  0  0
 47117  1  0  0  0
 48 56  1  0  0  0
 48 65  1  0  0  0
 48118  1  0  0  0
 49 50  1  0  0  0
 49 53  1  0  0  0
 49 64  1  0  0  0
 49119  1  0  0  0
 50 51  1  0  0  0
 50120  1  0  0  0
 50121  1  0  0  0
 51 52  1  0  0  0
 51122  1  0  0  0
 51123  1  0  0  0
 52124  1  0  0  0
 52125  1  0  0  0
 53 54  1  0  0  0
 54 55  2  0  0  0
 54126  1  0  0  0
 55 57  1  0  0  0
 55127  1  0  0  0
 56 69  2  0  0  0
 57 58  2  0  0  0
 57128  1  0  0  0
 58129  1  0  0  0
 59 60  1  0  0  0
 59 61  1  0  0  0
 59 62  1  0  0  0
 60130  1  0  0  0
 60131  1  0  0  0
 60132  1  0  0  0
 61133  1  0  0  0
 61134  1  0  0  0
 61135  1  0  0  0
 62136  1  0  0  0
 62137  1  0  0  0
 62138  1  0  0  0
 63 65  1  0  0  0
 63139  1  0  0  0
 63140  1  0  0  0
 63141  1  0  0  0
 64142  1  0  0  0
 65143  1  0  0  0
 68 79  1  0  0  0
 71 72  2  0  0  0
 71 73  1  0  0  0
 71144  1  0  0  0
 72 74  1  0  0  0
 72145  1  0  0  0
 73 75  2  0  0  0
 73146  1  0  0  0
 74 76  2  0  0  0
 74 81  1  0  0  0
 75 76  1  0  0  0
 75 82  1  0  0  0
 76 84  1  0  0  0
 77 78  1  0  0  0
 77 79  2  0  0  0
 77 80  1  0  0  0
 78 81  1  0  0  0
 78 83  2  0  0  0
 79147  1  0  0  0
 80 81  1  0  0  0
 80148  1  0  0  0
 80149  1  0  0  0
 82150  1  0  0  0
M  ISO  4   1 100  68 101  79 101  82 100
M  END
> <chiral flag>
0

> <version>
0

> <s_m_source_file>
/data/baiqing/PycharmProjects/Reinvent-master-3.2/result/LINK_invent/BTK/process_docking_weight1_custom_product_contain_oxygen_bond_distance_aromatic_linkinvent_7_9_3/rearranged_h_0083.sdf

> <i_m_source_file_index>
15

> <r_mmod_Potential_Energy-OPLS-2005>
424.202697753906

> <r_mmod_Stretch_Energy-OPLS-2005>
192.246795654297

> <r_mmod_Bend_Energy-OPLS-2005>
278.433990478516

> <r_mmod_Torsional_Energy-OPLS-2005>
242.282638549805

> <r_mmod_Improper_Torsional_Energy-OPLS-2005>
9.47599697113037

> <r_mmod_Van_der_Waal_Energy-OPLS-2005>
133.535385131836

> <r_mmod_Electrostatic_Energy-OPLS-2005>
-373.323394775391

> <r_mmod_Solvation_Energy-OPLS-2005>
-217.390335083008

> <b_mmod_Minimization_Converged-OPLS-2005>
0

> <r_mmod_RMS_Derivative-OPLS-2005>
0.174578055739403

$$$$
15
                    3D
 Structure written by MMmdl.
151160  0  0  1  0            999 V2000
  -30.5780  -14.8448   20.4523 C   0  0  0  0  0  0
  -30.4456  -12.5210   19.4862 C   0  0  0  0  0  0
  -29.5195  -12.5194   18.2458 C   0  0  0  0  0  0
  -28.0468  -12.3120   18.6536 C   0  0  0  0  0  0
  -27.6369  -13.2163   19.8427 C   0  0  2  0  0  0
  -28.6850  -13.1586   20.9781 C   0  0  0  0  0  0
  -25.2520  -13.8153   20.5684 C   0  0  0  0  0  0
  -24.1792  -13.0414   20.9159 C   0  0  0  0  0  0
  -24.6373  -11.6890   20.8720 C   0  0  0  0  0  0
  -23.9050  -10.4279   21.0398 C   0  0  0  0  0  0
  -24.3611   -9.4205   21.9177 C   0  0  0  0  0  0
  -23.6290   -8.2240   22.0748 C   0  0  0  0  0  0
  -22.4273   -8.0275   21.3542 C   0  0  0  0  0  0
  -21.9897   -9.0244   20.4644 C   0  0  0  0  0  0
  -22.7219  -10.2124   20.3050 C   0  0  0  0  0  0
  -21.6854   -6.0745   22.5285 C   0  0  0  0  0  0
  -21.4016   -6.5648   23.8219 C   0  0  0  0  0  0
  -21.3651   -5.6793   24.9174 C   0  0  0  0  0  0
  -21.6038   -4.3058   24.7222 C   0  0  0  0  0  0
  -21.8822   -3.8155   23.4345 C   0  0  0  0  0  0
  -21.9195   -4.6972   22.3405 C   0  0  0  0  0  0
  -22.7824  -13.5216   21.1846 C   0  0  0  0  0  0
  -22.1666   -4.2160   21.0982 F   0  0  0  0  0  0
  -21.5615   -3.4536   25.7735 F   0  0  0  0  0  0
  -29.9730  -13.5885   20.4102 N   0  0  0  0  0  0
  -26.2913  -12.9315   20.3248 N   0  0  0  0  0  0
  -25.9296  -11.6480   20.5730 N   0  0  0  0  0  0
  -22.0480  -12.8210   22.0413 N   0  0  0  0  0  0
  -25.4231  -15.1886   20.4224 N   0  0  0  0  0  0
  -31.7697  -14.9145   20.1330 O   0  0  0  0  0  0
  -21.6633   -6.8880   21.4245 O   0  0  0  0  0  0
  -22.3506  -14.5528   20.6705 O   0  0  0  0  0  0
  -24.6378  -31.8507   23.1948 C   0  0  0  0  0  0
  -25.9179  -32.4728   23.8308 C   0  0  1  0  0  0
  -27.2209  -27.2049   20.1223 C   0  0  0  0  0  0
  -25.5950  -33.8532   24.2228 N   0  0  0  0  0  0
  -23.4368  -30.4753   21.5399 C   0  0  2  0  0  0
  -24.8842  -28.9190   20.1096 C   0  0  0  0  0  0
  -22.7536  -29.4586   22.4883 C   0  0  0  0  0  0
  -18.0303  -28.1388   22.8482 C   0  0  0  0  0  0
  -24.1498  -36.7276   23.2641 C   0  0  0  0  0  0
  -25.9903  -30.7457   21.3850 C   0  0  0  0  0  0
  -26.0613  -29.3648   20.7232 C   0  0  0  0  0  0
  -27.2285  -28.5212   20.7198 C   0  0  0  0  0  0
  -26.0046  -26.8440   19.4898 C   0  0  0  0  0  0
  -24.8647  -27.6680   19.4829 C   0  0  0  0  0  0
  -23.6583  -29.8123   20.1566 C   0  0  0  0  0  0
  -25.4125  -36.3055   24.0321 C   0  0  1  0  0  0
  -20.5913  -28.3711   23.1245 C   0  0  2  0  0  0
  -20.6789  -26.9420   22.5399 C   0  0  0  0  0  0
  -19.5759  -26.6379   21.5210 C   0  0  0  0  0  0
  -18.1945  -26.7926   22.1631 C   0  0  0  0  0  0
  -19.1559  -28.8866   23.2858 C   0  0  0  0  0  0
  -18.9477  -30.1465   23.8877 C   0  0  0  0  0  0
  -17.6474  -30.6587   24.0558 C   0  0  0  0  0  0
  -25.9065  -34.9424   23.5077 C   0  0  0  0  0  0
  -16.5365  -29.9082   23.6333 C   0  0  0  0  0  0
  -16.7288  -28.6500   23.0353 C   0  0  0  0  0  0
  -26.4518  -31.6569   25.0719 C   0  0  0  0  0  0
  -25.3721  -31.3743   26.1427 C   0  0  0  0  0  0
  -27.0369  -30.2971   24.6254 C   0  0  0  0  0  0
  -27.6059  -32.4323   25.7496 C   0  0  0  0  0  0
  -27.5578  -37.1802   24.8469 C   0  0  0  0  0  0
  -21.4237  -29.3052   22.3626 N   0  0  0  0  0  0
  -26.4298  -37.3756   23.9398 N   0  0  0  0  0  0
  -24.7078  -31.0427   22.0954 N   0  0  0  0  0  0
  -23.4210  -28.8121   23.2999 O   0  0  0  0  0  0
  -28.2973  -26.2604   20.1977 O   0  0  0  0  0  0
  -26.5645  -34.8907   22.4652 O   0  0  0  0  0  0
  -23.5514  -32.1357   23.7207 O   0  0  0  0  0  0
  -32.1459  -19.2473   20.9696 C   0  0  0  0  0  0
  -31.6300  -17.9397   20.8963 C   0  0  0  0  0  0
  -31.3274  -20.3862   20.8176 C   0  0  0  0  0  0
  -29.4613  -18.9366   20.4833 C   0  0  0  0  0  0
  -30.2615  -17.7050   20.6519 C   0  0  0  0  0  0
  -29.9347  -20.3302   20.5628 C   0  0  0  0  0  0
  -28.6640  -23.6457   20.0720 C   0  0  0  0  0  0
  -28.4554  -22.3354   19.4313 C   0  0  0  0  0  0
  -28.1674  -24.9086   19.7025 C   0  0  0  0  0  0
  -29.6941  -16.2232   20.6908 C   0  0  0  0  0  0
  -29.5781  -22.9299   21.0994 C   0  0  0  0  0  0
  -28.4499  -16.1514   20.9099 N   0  0  0  0  0  0
  -29.1941  -21.6405   20.4255 N   0  0  0  0  0  0
  -27.9268  -22.0494   18.3764 O   0  0  0  0  0  0
  -31.4806  -12.6690   19.1737 H   0  0  0  0  0  0
  -30.4269  -11.5478   19.9793 H   0  0  0  0  0  0
  -29.8249  -11.7393   17.5473 H   0  0  0  0  0  0
  -29.6233  -13.4656   17.7127 H   0  0  0  0  0  0
  -27.9236  -11.2633   18.9261 H   0  0  0  0  0  0
  -27.3877  -12.4826   17.8013 H   0  0  0  0  0  0
  -27.6143  -14.2215   19.4268 H   0  0  0  0  0  0
  -28.7603  -12.1429   21.3698 H   0  0  0  0  0  0
  -28.3968  -13.7664   21.8357 H   0  0  0  0  0  0
  -25.2759   -9.5680   22.4741 H   0  0  0  0  0  0
  -24.0000   -7.4634   22.7468 H   0  0  0  0  0  0
  -21.0822   -8.8760   19.8962 H   0  0  0  0  0  0
  -22.3675  -10.9657   19.6156 H   0  0  0  0  0  0
  -21.2018   -7.6159   23.9725 H   0  0  0  0  0  0
  -21.1458   -6.0525   25.9076 H   0  0  0  0  0  0
  -22.0608   -2.7617   23.2843 H   0  0  0  0  0  0
  -22.4106  -11.9870   22.4790 H   0  0  0  0  0  0
  -21.1105  -13.1239   22.2647 H   0  0  0  0  0  0
  -24.6660  -15.8420   20.5909 H   0  0  0  0  0  0
  -26.3107  -15.6539   20.2577 H   0  0  0  0  0  0
  -26.7242  -32.5362   23.1042 H   0  0  0  0  0  0
  -25.0078  -33.9655   25.0362 H   0  0  0  0  0  0
  -22.7369  -31.3005   21.3927 H   0  0  0  0  0  0
  -23.3748  -35.9623   23.3315 H   0  0  0  0  0  0
  -24.3581  -36.8889   22.2053 H   0  0  0  0  0  0
  -23.7269  -37.6487   23.6661 H   0  0  0  0  0  0
  -26.1401  -31.5053   20.6164 H   0  0  0  0  0  0
  -26.8632  -30.7917   22.0240 H   0  0  0  0  0  0
  -28.1253  -28.8565   21.2215 H   0  0  0  0  0  0
  -25.8660  -25.8862   19.0170 H   0  0  0  0  0  0
  -23.9609  -27.3164   19.0034 H   0  0  0  0  0  0
  -23.7887  -30.5899   19.4029 H   0  0  0  0  0  0
  -22.7749  -29.2517   19.8457 H   0  0  0  0  0  0
  -25.1314  -36.1897   25.0815 H   0  0  0  0  0  0
  -21.0011  -28.3296   24.1363 H   0  0  0  0  0  0
  -20.5693  -26.2321   23.3612 H   0  0  0  0  0  0
  -21.6655  -26.7438   22.1189 H   0  0  0  0  0  0
  -19.6920  -25.6287   21.1245 H   0  0  0  0  0  0
  -19.6686  -27.3185   20.6734 H   0  0  0  0  0  0
  -17.4207  -26.6664   21.4041 H   0  0  0  0  0  0
  -18.0355  -26.0073   22.9036 H   0  0  0  0  0  0
  -19.7951  -30.7291   24.2234 H   0  0  0  0  0  0
  -17.5025  -31.6263   24.5168 H   0  0  0  0  0  0
  -15.5364  -30.2979   23.7661 H   0  0  0  0  0  0
  -15.8690  -28.0813   22.7073 H   0  0  0  0  0  0
  -24.5889  -30.7105   25.7747 H   0  0  0  0  0  0
  -24.8924  -32.2923   26.4831 H   0  0  0  0  0  0
  -25.8019  -30.8923   27.0216 H   0  0  0  0  0  0
  -26.2968  -29.6706   24.1262 H   0  0  0  0  0  0
  -27.4002  -29.7256   25.4804 H   0  0  0  0  0  0
  -27.8871  -30.4220   23.9545 H   0  0  0  0  0  0
  -27.2652  -33.3628   26.2047 H   0  0  0  0  0  0
  -28.3878  -32.6875   25.0331 H   0  0  0  0  0  0
  -28.0712  -31.8464   26.5431 H   0  0  0  0  0  0
  -28.2612  -38.0083   24.7481 H   0  0  0  0  0  0
  -28.1057  -36.2608   24.6344 H   0  0  0  0  0  0
  -27.2284  -37.1509   25.8871 H   0  0  0  0  0  0
  -20.9432  -29.8779   21.6830 H   0  0  0  0  0  0
  -26.0171  -38.2834   24.1372 H   0  0  0  0  0  0
  -33.2012  -19.3825   21.1642 H   0  0  0  0  0  0
  -32.3113  -17.1190   21.0649 H   0  0  0  0  0  0
  -31.8206  -21.3431   20.8928 H   0  0  0  0  0  0
  -28.4030  -18.7986   20.3116 H   0  0  0  0  0  0
  -27.5930  -24.9065   18.7907 H   0  0  0  0  0  0
  -29.2747  -22.9443   22.1472 H   0  0  0  0  0  0
  -30.6402  -23.1619   21.0191 H   0  0  0  0  0  0
  -28.1652  -15.1809   20.9390 H   0  0  0  0  0  0
  1 25  1  0  0  0
  1 30  2  0  0  0
  1 80  1  0  0  0
  2  3  1  0  0  0
  2 25  1  0  0  0
  2 85  1  0  0  0
  2 86  1  0  0  0
  3  4  1  0  0  0
  3 87  1  0  0  0
  3 88  1  0  0  0
  4  5  1  0  0  0
  4 89  1  0  0  0
  4 90  1  0  0  0
  5  6  1  0  0  0
  5 26  1  0  0  0
  5 91  1  0  0  0
  6 25  1  0  0  0
  6 92  1  0  0  0
  6 93  1  0  0  0
  7  8  2  0  0  0
  7 26  1  0  0  0
  7 29  1  0  0  0
  8  9  1  0  0  0
  8 22  1  0  0  0
  9 10  1  0  0  0
  9 27  2  0  0  0
 10 11  2  0  0  0
 10 15  1  0  0  0
 11 12  1  0  0  0
 11 94  1  0  0  0
 12 13  2  0  0  0
 12 95  1  0  0  0
 13 14  1  0  0  0
 13 31  1  0  0  0
 14 15  2  0  0  0
 14 96  1  0  0  0
 15 97  1  0  0  0
 16 17  2  0  0  0
 16 21  1  0  0  0
 16 31  1  0  0  0
 17 18  1  0  0  0
 17 98  1  0  0  0
 18 19  2  0  0  0
 18 99  1  0  0  0
 19 20  1  0  0  0
 19 24  1  0  0  0
 20 21  2  0  0  0
 20100  1  0  0  0
 21 23  1  0  0  0
 22 28  1  0  0  0
 22 32  2  0  0  0
 26 27  1  0  0  0
 28101  1  0  0  0
 28102  1  0  0  0
 29103  1  0  0  0
 29104  1  0  0  0
 33 34  1  0  0  0
 33 66  1  0  0  0
 33 70  2  0  0  0
 34 36  1  0  0  0
 34 59  1  0  0  0
 34105  1  0  0  0
 35 44  2  0  0  0
 35 45  1  0  0  0
 35 68  1  0  0  0
 36 56  1  0  0  0
 36106  1  0  0  0
 37 39  1  0  0  0
 37 47  1  0  0  0
 37 66  1  0  0  0
 37107  1  0  0  0
 38 43  2  0  0  0
 38 46  1  0  0  0
 38 47  1  0  0  0
 39 64  1  0  0  0
 39 67  2  0  0  0
 40 52  1  0  0  0
 40 53  2  0  0  0
 40 58  1  0  0  0
 41108  1  0  0  0
 41109  1  0  0  0
 41110  1  0  0  0
 41 48  1  0  0  0
 42 43  1  0  0  0
 42 66  1  0  0  0
 42111  1  0  0  0
 42112  1  0  0  0
 43 44  1  0  0  0
 44113  1  0  0  0
 45 46  2  0  0  0
 45114  1  0  0  0
 46115  1  0  0  0
 47116  1  0  0  0
 47117  1  0  0  0
 48 56  1  0  0  0
 48 65  1  0  0  0
 48118  1  0  0  0
 49 50  1  0  0  0
 49 53  1  0  0  0
 49 64  1  0  0  0
 49119  1  0  0  0
 50 51  1  0  0  0
 50120  1  0  0  0
 50121  1  0  0  0
 51 52  1  0  0  0
 51122  1  0  0  0
 51123  1  0  0  0
 52124  1  0  0  0
 52125  1  0  0  0
 53 54  1  0  0  0
 54 55  2  0  0  0
 54126  1  0  0  0
 55 57  1  0  0  0
 55127  1  0  0  0
 56 69  2  0  0  0
 57 58  2  0  0  0
 57128  1  0  0  0
 58129  1  0  0  0
 59 60  1  0  0  0
 59 61  1  0  0  0
 59 62  1  0  0  0
 60130  1  0  0  0
 60131  1  0  0  0
 60132  1  0  0  0
 61133  1  0  0  0
 61134  1  0  0  0
 61135  1  0  0  0
 62136  1  0  0  0
 62137  1  0  0  0
 62138  1  0  0  0
 63 65  1  0  0  0
 63139  1  0  0  0
 63140  1  0  0  0
 63141  1  0  0  0
 64142  1  0  0  0
 65143  1  0  0  0
 68 79  1  0  0  0
 71 72  2  0  0  0
 71 73  1  0  0  0
 71144  1  0  0  0
 72 75  1  0  0  0
 72145  1  0  0  0
 73 76  2  0  0  0
 73146  1  0  0  0
 74 75  2  0  0  0
 74 76  1  0  0  0
 74147  1  0  0  0
 75 80  1  0  0  0
 76 83  1  0  0  0
 77 78  1  0  0  0
 77 79  2  0  0  0
 77 81  1  0  0  0
 78 83  1  0  0  0
 78 84  2  0  0  0
 79148  1  0  0  0
 80 82  2  0  0  0
 81 83  1  0  0  0
 81149  1  0  0  0
 81150  1  0  0  0
 82151  1  0  0  0
M  ISO  4   1 100  68 101  79 101  80 100
M  END
> <chiral flag>
0

> <version>
0

> <s_m_source_file>
/data/baiqing/PycharmProjects/Reinvent-master-3.2/result/LINK_invent/BTK/process_docking_weight1_custom_product_contain_oxygen_bond_distance_aromatic_linkinvent_7_9_3/rearranged_h_0083.sdf

> <i_m_source_file_index>
16

> <r_mmod_Potential_Energy-OPLS-2005>
493.995880126953

> <r_mmod_Stretch_Energy-OPLS-2005>
180.474960327148

> <r_mmod_Bend_Energy-OPLS-2005>
275.950042724609

> <r_mmod_Torsional_Energy-OPLS-2005>
206.027923583984

> <r_mmod_Improper_Torsional_Energy-OPLS-2005>
7.1858549118042

> <r_mmod_Van_der_Waal_Energy-OPLS-2005>
152.413803100586

> <r_mmod_Electrostatic_Energy-OPLS-2005>
-245.902709960938

> <r_mmod_Solvation_Energy-OPLS-2005>
-207.888626098633

> <b_mmod_Minimization_Converged-OPLS-2005>
0

> <r_mmod_RMS_Derivative-OPLS-2005>
1.14839720726013

$$$$
16
                    3D
 Structure written by MMmdl.
154163  0  0  1  0            999 V2000
  -30.5614  -14.7692   20.4729 C   0  0  0  0  0  0
  -30.4475  -12.4709   19.4752 C   0  0  0  0  0  0
  -29.5171  -12.5231   18.2404 C   0  0  0  0  0  0
  -28.0425  -12.3398   18.6512 C   0  0  0  0  0  0
  -27.6480  -13.2281   19.8611 C   0  0  2  0  0  0
  -28.6931  -13.1300   20.9951 C   0  0  0  0  0  0
  -25.2528  -13.8183   20.5656 C   0  0  0  0  0  0
  -24.1821  -13.0434   20.9184 C   0  0  0  0  0  0
  -24.6416  -11.6918   20.8755 C   0  0  0  0  0  0
  -23.9085  -10.4296   21.0413 C   0  0  0  0  0  0
  -24.3635   -9.4199   21.9184 C   0  0  0  0  0  0
  -23.6300   -8.2235   22.0753 C   0  0  0  0  0  0
  -22.4280   -8.0280   21.3537 C   0  0  0  0  0  0
  -21.9917   -9.0270   20.4647 C   0  0  0  0  0  0
  -22.7255  -10.2143   20.3060 C   0  0  0  0  0  0
  -21.6855   -6.0738   22.5280 C   0  0  0  0  0  0
  -21.4020   -6.5646   23.8213 C   0  0  0  0  0  0
  -21.3659   -5.6796   24.9172 C   0  0  0  0  0  0
  -21.6039   -4.3058   24.7220 C   0  0  0  0  0  0
  -21.8824   -3.8147   23.4343 C   0  0  0  0  0  0
  -21.9191   -4.6966   22.3402 C   0  0  0  0  0  0
  -22.7841  -13.5218   21.1848 C   0  0  0  0  0  0
  -22.1660   -4.2154   21.0980 F   0  0  0  0  0  0
  -21.5617   -3.4543   25.7725 F   0  0  0  0  0  0
  -29.9945  -13.5116   20.4273 N   0  0  0  0  0  0
  -26.2976  -12.9388   20.3320 N   0  0  0  0  0  0
  -25.9356  -11.6534   20.5793 N   0  0  0  0  0  0
  -22.0506  -12.8220   22.0422 N   0  0  0  0  0  0
  -25.4180  -15.1895   20.4014 N   0  0  0  0  0  0
  -31.7256  -14.9334   20.0937 O   0  0  0  0  0  0
  -21.6638   -6.8879   21.4239 O   0  0  0  0  0  0
  -22.3532  -14.5535   20.6701 O   0  0  0  0  0  0
  -24.6316  -31.8526   23.1957 C   0  0  0  0  0  0
  -25.9143  -32.4731   23.8311 C   0  0  1  0  0  0
  -27.2245  -27.2483   20.1276 C   0  0  0  0  0  0
  -25.5937  -33.8537   24.2233 N   0  0  0  0  0  0
  -23.4306  -30.4724   21.5382 C   0  0  2  0  0  0
  -24.8797  -28.9187   20.1032 C   0  0  0  0  0  0
  -22.7517  -29.4576   22.4896 C   0  0  0  0  0  0
  -18.0302  -28.1377   22.8474 C   0  0  0  0  0  0
  -24.1493  -36.7277   23.2641 C   0  0  0  0  0  0
  -25.9775  -30.7587   21.3809 C   0  0  0  0  0  0
  -26.0496  -29.3819   20.7186 C   0  0  0  0  0  0
  -27.2207  -28.5566   20.7242 C   0  0  0  0  0  0
  -26.0303  -26.8544   19.4826 C   0  0  0  0  0  0
  -24.8764  -27.6646   19.4728 C   0  0  0  0  0  0
  -23.6491  -29.8045   20.1541 C   0  0  0  0  0  0
  -25.4122  -36.3049   24.0318 C   0  0  1  0  0  0
  -20.5907  -28.3689   23.1255 C   0  0  2  0  0  0
  -20.6784  -26.9402   22.5406 C   0  0  0  0  0  0
  -19.5764  -26.6364   21.5207 C   0  0  0  0  0  0
  -18.1944  -26.7915   22.1622 C   0  0  0  0  0  0
  -19.1556  -28.8857   23.2855 C   0  0  0  0  0  0
  -18.9473  -30.1457   23.8863 C   0  0  0  0  0  0
  -17.6471  -30.6584   24.0553 C   0  0  0  0  0  0
  -25.9062  -34.9422   23.5082 C   0  0  0  0  0  0
  -16.5362  -29.9071   23.6330 C   0  0  0  0  0  0
  -16.7286  -28.6494   23.0341 C   0  0  0  0  0  0
  -26.4505  -31.6582   25.0721 C   0  0  0  0  0  0
  -25.3731  -31.3744   26.1445 C   0  0  0  0  0  0
  -27.0383  -30.3001   24.6248 C   0  0  0  0  0  0
  -27.6043  -32.4352   25.7489 C   0  0  0  0  0  0
  -27.5583  -37.1785   24.8453 C   0  0  0  0  0  0
  -21.4228  -29.3029   22.3645 N   0  0  0  0  0  0
  -26.4287  -37.3762   23.9414 N   0  0  0  0  0  0
  -24.6987  -31.0469   22.0940 N   0  0  0  0  0  0
  -23.4216  -28.8130   23.3009 O   0  0  0  0  0  0
  -28.2956  -26.3291   20.2584 O   0  0  0  0  0  0
  -26.5631  -34.8902   22.4646 O   0  0  0  0  0  0
  -23.5464  -32.1347   23.7245 O   0  0  0  0  0  0
  -30.4083  -19.5447   19.8016 C   0  0  0  0  0  0
  -30.6012  -18.1236   19.9513 C   0  0  0  0  0  0
  -28.4487  -19.4537   21.0972 C   0  0  0  0  0  0
  -29.3244  -20.3047   20.3529 C   0  0  0  0  0  0
  -29.6903  -17.3007   20.6695 C   0  0  0  0  0  0
  -28.5969  -18.0196   21.2426 C   0  0  0  0  0  0
  -28.6164  -23.7752   19.8955 C   0  0  0  0  0  0
  -28.7651  -22.6033   19.0310 C   0  0  0  0  0  0
  -28.3547  -25.1014   19.5335 C   0  0  0  0  0  0
  -28.8601  -22.8431   21.1195 C   0  0  0  0  0  0
  -26.5114  -17.8464   22.4395 C   0  0  0  0  0  0
  -29.1291  -21.7696   20.1130 N   0  0  0  0  0  0
  -29.7246  -15.8173   20.8316 N   0  0  0  0  0  0
  -28.5707  -22.4638   17.8408 O   0  0  0  0  0  0
  -27.6897  -17.2358   21.9282 O   0  0  0  0  0  0
  -31.4841  -12.6212   19.1700 H   0  0  0  0  0  0
  -30.4133  -11.4869   19.9454 H   0  0  0  0  0  0
  -29.8027  -11.7565   17.5178 H   0  0  0  0  0  0
  -29.6356  -13.4812   17.7324 H   0  0  0  0  0  0
  -27.9019  -11.2883   18.9035 H   0  0  0  0  0  0
  -27.3851  -12.5385   17.8045 H   0  0  0  0  0  0
  -27.6480  -14.2566   19.4987 H   0  0  0  0  0  0
  -28.7385  -12.1150   21.3938 H   0  0  0  0  0  0
  -28.4210  -13.7701   21.8363 H   0  0  0  0  0  0
  -25.2792   -9.5662   22.4752 H   0  0  0  0  0  0
  -24.0003   -7.4632   22.7481 H   0  0  0  0  0  0
  -21.0838   -8.8805   19.8972 H   0  0  0  0  0  0
  -22.3723  -10.9691   19.6167 H   0  0  0  0  0  0
  -21.2031   -7.6158   23.9721 H   0  0  0  0  0  0
  -21.1470   -6.0522   25.9073 H   0  0  0  0  0  0
  -22.0603   -2.7611   23.2841 H   0  0  0  0  0  0
  -22.4129  -11.9871   22.4786 H   0  0  0  0  0  0
  -21.1131  -13.1239   22.2659 H   0  0  0  0  0  0
  -24.6437  -15.8365   20.4988 H   0  0  0  0  0  0
  -26.2704  -15.6360   20.0862 H   0  0  0  0  0  0
  -26.7210  -32.5365   23.1052 H   0  0  0  0  0  0
  -25.0093  -33.9671   25.0378 H   0  0  0  0  0  0
  -22.7274  -31.2944   21.3902 H   0  0  0  0  0  0
  -23.3744  -35.9620   23.3292 H   0  0  0  0  0  0
  -24.3584  -36.8910   22.2056 H   0  0  0  0  0  0
  -23.7254  -37.6480   23.6673 H   0  0  0  0  0  0
  -26.1260  -31.5212   20.6150 H   0  0  0  0  0  0
  -26.8510  -30.8006   22.0199 H   0  0  0  0  0  0
  -28.1093  -28.8962   21.2376 H   0  0  0  0  0  0
  -25.9551  -25.8828   19.0178 H   0  0  0  0  0  0
  -23.9796  -27.3014   18.9906 H   0  0  0  0  0  0
  -23.7694  -30.5795   19.3964 H   0  0  0  0  0  0
  -22.7681  -29.2363   19.8509 H   0  0  0  0  0  0
  -25.1302  -36.1885   25.0809 H   0  0  0  0  0  0
  -20.9990  -28.3261   24.1378 H   0  0  0  0  0  0
  -20.5673  -26.2296   23.3611 H   0  0  0  0  0  0
  -21.6649  -26.7422   22.1203 H   0  0  0  0  0  0
  -19.6926  -25.6270   21.1239 H   0  0  0  0  0  0
  -19.6702  -27.3164   20.6730 H   0  0  0  0  0  0
  -17.4213  -26.6648   21.4025 H   0  0  0  0  0  0
  -18.0359  -26.0065   22.9031 H   0  0  0  0  0  0
  -19.7950  -30.7284   24.2206 H   0  0  0  0  0  0
  -17.5024  -31.6243   24.5185 H   0  0  0  0  0  0
  -15.5361  -30.2962   23.7674 H   0  0  0  0  0  0
  -15.8684  -28.0808   22.7057 H   0  0  0  0  0  0
  -24.5881  -30.7124   25.7771 H   0  0  0  0  0  0
  -24.8958  -32.2925   26.4882 H   0  0  0  0  0  0
  -25.8044  -30.8899   27.0213 H   0  0  0  0  0  0
  -26.2998  -29.6718   24.1261 H   0  0  0  0  0  0
  -27.4046  -29.7296   25.4791 H   0  0  0  0  0  0
  -27.8870  -30.4276   23.9526 H   0  0  0  0  0  0
  -27.2628  -33.3643   26.2065 H   0  0  0  0  0  0
  -28.3850  -32.6943   25.0324 H   0  0  0  0  0  0
  -28.0726  -31.8498   26.5409 H   0  0  0  0  0  0
  -28.2565  -38.0114   24.7543 H   0  0  0  0  0  0
  -28.1111  -36.2650   24.6223 H   0  0  0  0  0  0
  -27.2304  -37.1354   25.8851 H   0  0  0  0  0  0
  -20.9421  -29.8741   21.6834 H   0  0  0  0  0  0
  -26.0147  -38.2821   24.1447 H   0  0  0  0  0  0
  -31.1446  -20.0811   19.2193 H   0  0  0  0  0  0
  -31.4583  -17.6668   19.4769 H   0  0  0  0  0  0
  -27.5980  -19.9452   21.5413 H   0  0  0  0  0  0
  -28.2398  -25.3159   18.4806 H   0  0  0  0  0  0
  -27.9919  -22.6068   21.7372 H   0  0  0  0  0  0
  -29.7283  -23.0462   21.7487 H   0  0  0  0  0  0
  -25.8902  -17.0878   22.9159 H   0  0  0  0  0  0
  -25.9176  -18.3011   21.6453 H   0  0  0  0  0  0
  -26.7449  -18.5980   23.1942 H   0  0  0  0  0  0
  -28.8632  -15.4717   21.2291 H   0  0  0  0  0  0
  1 25  1  0  0  0
  1 30  2  0  0  0
  1 83  1  0  0  0
  2  3  1  0  0  0
  2 25  1  0  0  0
  2 86  1  0  0  0
  2 87  1  0  0  0
  3  4  1  0  0  0
  3 88  1  0  0  0
  3 89  1  0  0  0
  4  5  1  0  0  0
  4 90  1  0  0  0
  4 91  1  0  0  0
  5  6  1  0  0  0
  5 26  1  0  0  0
  5 92  1  0  0  0
  6 25  1  0  0  0
  6 93  1  0  0  0
  6 94  1  0  0  0
  7  8  2  0  0  0
  7 26  1  0  0  0
  7 29  1  0  0  0
  8  9  1  0  0  0
  8 22  1  0  0  0
  9 10  1  0  0  0
  9 27  2  0  0  0
 10 11  2  0  0  0
 10 15  1  0  0  0
 11 12  1  0  0  0
 11 95  1  0  0  0
 12 13  2  0  0  0
 12 96  1  0  0  0
 13 14  1  0  0  0
 13 31  1  0  0  0
 14 15  2  0  0  0
 14 97  1  0  0  0
 15 98  1  0  0  0
 16 17  2  0  0  0
 16 21  1  0  0  0
 16 31  1  0  0  0
 17 18  1  0  0  0
 17 99  1  0  0  0
 18 19  2  0  0  0
 18100  1  0  0  0
 19 20  1  0  0  0
 19 24  1  0  0  0
 20 21  2  0  0  0
 20101  1  0  0  0
 21 23  1  0  0  0
 22 28  1  0  0  0
 22 32  2  0  0  0
 26 27  1  0  0  0
 28102  1  0  0  0
 28103  1  0  0  0
 29104  1  0  0  0
 29105  1  0  0  0
 33 34  1  0  0  0
 33 66  1  0  0  0
 33 70  2  0  0  0
 34 36  1  0  0  0
 34 59  1  0  0  0
 34106  1  0  0  0
 35 44  2  0  0  0
 35 45  1  0  0  0
 35 68  1  0  0  0
 36 56  1  0  0  0
 36107  1  0  0  0
 37 39  1  0  0  0
 37 47  1  0  0  0
 37 66  1  0  0  0
 37108  1  0  0  0
 38 43  2  0  0  0
 38 46  1  0  0  0
 38 47  1  0  0  0
 39 64  1  0  0  0
 39 67  2  0  0  0
 40 52  1  0  0  0
 40 53  2  0  0  0
 40 58  1  0  0  0
 41109  1  0  0  0
 41110  1  0  0  0
 41111  1  0  0  0
 41 48  1  0  0  0
 42 43  1  0  0  0
 42 66  1  0  0  0
 42112  1  0  0  0
 42113  1  0  0  0
 43 44  1  0  0  0
 44114  1  0  0  0
 45 46  2  0  0  0
 45115  1  0  0  0
 46116  1  0  0  0
 47117  1  0  0  0
 47118  1  0  0  0
 48 56  1  0  0  0
 48 65  1  0  0  0
 48119  1  0  0  0
 49 50  1  0  0  0
 49 53  1  0  0  0
 49 64  1  0  0  0
 49120  1  0  0  0
 50 51  1  0  0  0
 50121  1  0  0  0
 50122  1  0  0  0
 51 52  1  0  0  0
 51123  1  0  0  0
 51124  1  0  0  0
 52125  1  0  0  0
 52126  1  0  0  0
 53 54  1  0  0  0
 54 55  2  0  0  0
 54127  1  0  0  0
 55 57  1  0  0  0
 55128  1  0  0  0
 56 69  2  0  0  0
 57 58  2  0  0  0
 57129  1  0  0  0
 58130  1  0  0  0
 59 60  1  0  0  0
 59 61  1  0  0  0
 59 62  1  0  0  0
 60131  1  0  0  0
 60132  1  0  0  0
 60133  1  0  0  0
 61134  1  0  0  0
 61135  1  0  0  0
 61136  1  0  0  0
 62137  1  0  0  0
 62138  1  0  0  0
 62139  1  0  0  0
 63 65  1  0  0  0
 63140  1  0  0  0
 63141  1  0  0  0
 63142  1  0  0  0
 64143  1  0  0  0
 65144  1  0  0  0
 68 79  1  0  0  0
 71 72  2  0  0  0
 71 74  1  0  0  0
 71145  1  0  0  0
 72 75  1  0  0  0
 72146  1  0  0  0
 73 74  2  0  0  0
 73 76  1  0  0  0
 73147  1  0  0  0
 74 82  1  0  0  0
 75 76  2  0  0  0
 75 83  1  0  0  0
 76 85  1  0  0  0
 77 78  1  0  0  0
 77 79  2  0  0  0
 77 80  1  0  0  0
 78 82  1  0  0  0
 78 84  2  0  0  0
 79148  1  0  0  0
 80 82  1  0  0  0
 80149  1  0  0  0
 80150  1  0  0  0
 81 85  1  0  0  0
 81151  1  0  0  0
 81152  1  0  0  0
 81153  1  0  0  0
 83154  1  0  0  0
M  ISO  4   1 100  68 101  79 101  83 100
M  END
> <chiral flag>
0

> <version>
0

> <s_m_source_file>
/data/baiqing/PycharmProjects/Reinvent-master-3.2/result/LINK_invent/BTK/process_docking_weight1_custom_product_contain_oxygen_bond_distance_aromatic_linkinvent_7_9_3/rearranged_h_0083.sdf

> <i_m_source_file_index>
17

> <r_mmod_Potential_Energy-OPLS-2005>
225.648254394531

> <r_mmod_Stretch_Energy-OPLS-2005>
114.527809143066

> <r_mmod_Bend_Energy-OPLS-2005>
265.770904541016

> <r_mmod_Torsional_Energy-OPLS-2005>
244.882293701172

> <r_mmod_Improper_Torsional_Energy-OPLS-2005>
4.77471446990967

> <r_mmod_Van_der_Waal_Energy-OPLS-2005>
135.355651855469

> <r_mmod_Electrostatic_Energy-OPLS-2005>
-421.474884033203

> <r_mmod_Solvation_Energy-OPLS-2005>
-217.851089477539

> <b_mmod_Minimization_Converged-OPLS-2005>
0

> <r_mmod_RMS_Derivative-OPLS-2005>
2.02037358283997

$$$$
17
                    3D
 Structure written by MMmdl.
152161  0  0  1  0            999 V2000
  -30.5061  -15.0604   20.3397 C   0  0  0  0  0  0
  -30.4480  -12.6517   19.4834 C   0  0  0  0  0  0
  -29.5181  -12.4613   18.2594 C   0  0  0  0  0  0
  -28.0527  -12.2722   18.6936 C   0  0  0  0  0  0
  -27.6193  -13.2407   19.8251 C   0  0  2  0  0  0
  -28.6733  -13.3488   20.9441 C   0  0  0  0  0  0
  -25.2465  -13.8197   20.5766 C   0  0  0  0  0  0
  -24.1765  -13.0432   20.9251 C   0  0  0  0  0  0
  -24.6370  -11.6914   20.8787 C   0  0  0  0  0  0
  -23.9057  -10.4287   21.0424 C   0  0  0  0  0  0
  -24.3612   -9.4198   21.9194 C   0  0  0  0  0  0
  -23.6290   -8.2232   22.0755 C   0  0  0  0  0  0
  -22.4273   -8.0273   21.3542 C   0  0  0  0  0  0
  -21.9910   -9.0248   20.4645 C   0  0  0  0  0  0
  -22.7236  -10.2129   20.3063 C   0  0  0  0  0  0
  -21.6850   -6.0731   22.5278 C   0  0  0  0  0  0
  -21.4013   -6.5636   23.8211 C   0  0  0  0  0  0
  -21.3660   -5.6790   24.9173 C   0  0  0  0  0  0
  -21.6044   -4.3053   24.7225 C   0  0  0  0  0  0
  -21.8819   -3.8143   23.4347 C   0  0  0  0  0  0
  -21.9192   -4.6959   22.3402 C   0  0  0  0  0  0
  -22.7787  -13.5211   21.1886 C   0  0  0  0  0  0
  -22.1661   -4.2144   21.0980 F   0  0  0  0  0  0
  -21.5630   -3.4539   25.7739 F   0  0  0  0  0  0
  -29.9190  -13.7851   20.2982 N   0  0  0  0  0  0
  -26.2864  -12.9400   20.3294 N   0  0  0  0  0  0
  -25.9302  -11.6544   20.5805 N   0  0  0  0  0  0
  -22.0430  -12.8201   22.0438 N   0  0  0  0  0  0
  -25.4178  -15.1925   20.4216 N   0  0  0  0  0  0
  -31.7433  -15.0750   20.2923 O   0  0  0  0  0  0
  -21.6636   -6.8872   21.4238 O   0  0  0  0  0  0
  -22.3475  -14.5513   20.6721 O   0  0  0  0  0  0
  -24.6478  -31.8389   23.1825 C   0  0  0  0  0  0
  -25.9227  -32.4668   23.8237 C   0  0  1  0  0  0
  -27.2208  -27.0890   20.1685 C   0  0  0  0  0  0
  -25.5954  -33.8475   24.2156 N   0  0  0  0  0  0
  -23.4543  -30.4546   21.5291 C   0  0  2  0  0  0
  -24.9056  -28.8669   20.1140 C   0  0  0  0  0  0
  -22.7589  -29.4520   22.4844 C   0  0  0  0  0  0
  -18.0306  -28.1399   22.8475 C   0  0  0  0  0  0
  -24.1491  -36.7244   23.2645 C   0  0  0  0  0  0
  -26.0124  -30.6989   21.3863 C   0  0  0  0  0  0
  -26.0847  -29.3037   20.7315 C   0  0  0  0  0  0
  -27.2444  -28.4335   20.7341 C   0  0  0  0  0  0
  -26.0150  -26.7578   19.5165 C   0  0  0  0  0  0
  -24.8861  -27.6094   19.4888 C   0  0  0  0  0  0
  -23.6842  -29.7756   20.1518 C   0  0  0  0  0  0
  -25.4128  -36.3017   24.0311 C   0  0  1  0  0  0
  -20.5921  -28.3730   23.1226 C   0  0  2  0  0  0
  -20.6788  -26.9427   22.5405 C   0  0  0  0  0  0
  -19.5764  -26.6381   21.5212 C   0  0  0  0  0  0
  -18.1945  -26.7936   22.1623 C   0  0  0  0  0  0
  -19.1564  -28.8883   23.2841 C   0  0  0  0  0  0
  -18.9480  -30.1477   23.8870 C   0  0  0  0  0  0
  -17.6476  -30.6595   24.0558 C   0  0  0  0  0  0
  -25.9080  -34.9393   23.5048 C   0  0  0  0  0  0
  -16.5367  -29.9086   23.6337 C   0  0  0  0  0  0
  -16.7290  -28.6504   23.0359 C   0  0  0  0  0  0
  -26.4533  -31.6556   25.0701 C   0  0  0  0  0  0
  -25.3703  -31.3757   26.1386 C   0  0  0  0  0  0
  -27.0409  -30.2947   24.6314 C   0  0  0  0  0  0
  -27.6050  -32.4334   25.7497 C   0  0  0  0  0  0
  -27.5572  -37.1784   24.8469 C   0  0  0  0  0  0
  -21.4276  -29.3046   22.3592 N   0  0  0  0  0  0
  -26.4288  -37.3733   23.9403 N   0  0  0  0  0  0
  -24.7250  -31.0200   22.0877 N   0  0  0  0  0  0
  -23.4208  -28.8078   23.3021 O   0  0  0  0  0  0
  -28.2697  -26.0873   20.2152 O   0  0  0  0  0  0
  -26.5674  -34.8902   22.4632 O   0  0  0  0  0  0
  -23.5586  -32.1284   23.7019 O   0  0  0  0  0  0
  -29.9812  -20.0999   21.0976 C   0  0  0  0  0  0
  -28.3321  -19.9456   19.5111 C   0  0  0  0  0  0
  -30.2393  -18.6474   21.0180 C   0  0  0  0  0  0
  -28.5613  -18.5071   19.4277 C   0  0  0  0  0  0
  -29.0188  -20.8977   20.3450 C   0  0  0  0  0  0
  -29.5495  -17.7283   20.1452 C   0  0  0  0  0  0
  -29.1452  -23.6174   21.1290 C   0  0  0  0  0  0
  -28.0682  -23.3087   19.4035 C   0  0  0  0  0  0
  -27.9924  -24.5430   20.4409 C   0  0  2  0  0  0
  -29.5946  -16.0048   18.3683 C   0  0  0  0  0  0
  -28.7185  -22.4302   20.4341 N   0  0  0  0  0  0
  -29.7764  -16.2050   19.8226 N   0  0  0  0  0  0
  -30.0618  -23.7864   21.9081 O   0  0  0  0  0  0
  -31.4667  -12.8453   19.1434 H   0  0  0  0  0  0
  -30.4981  -11.7397   20.0804 H   0  0  0  0  0  0
  -29.8434  -11.5969   17.6790 H   0  0  0  0  0  0
  -29.5876  -13.3059   17.5789 H   0  0  0  0  0  0
  -27.9560  -11.2433   19.0421 H   0  0  0  0  0  0
  -27.3861  -12.3636   17.8353 H   0  0  0  0  0  0
  -27.5471  -14.2197   19.3587 H   0  0  0  0  0  0
  -28.8006  -12.4001   21.4674 H   0  0  0  0  0  0
  -28.3632  -14.0835   21.6890 H   0  0  0  0  0  0
  -25.2755   -9.5674   22.4773 H   0  0  0  0  0  0
  -23.9997   -7.4621   22.7472 H   0  0  0  0  0  0
  -21.0843   -8.8767   19.8948 H   0  0  0  0  0  0
  -22.3695  -10.9671   19.6175 H   0  0  0  0  0  0
  -21.2006   -7.6145   23.9712 H   0  0  0  0  0  0
  -21.1483   -6.0522   25.9076 H   0  0  0  0  0  0
  -22.0600   -2.7606   23.2849 H   0  0  0  0  0  0
  -22.4055  -11.9874   22.4841 H   0  0  0  0  0  0
  -21.1040  -13.1213   22.2628 H   0  0  0  0  0  0
  -24.6586  -15.8523   20.5510 H   0  0  0  0  0  0
  -26.2836  -15.6343   20.1393 H   0  0  0  0  0  0
  -26.7293  -32.5262   23.0963 H   0  0  0  0  0  0
  -25.0066  -33.9578   25.0280 H   0  0  0  0  0  0
  -22.7592  -31.2814   21.3683 H   0  0  0  0  0  0
  -23.3757  -35.9573   23.3301 H   0  0  0  0  0  0
  -24.3567  -36.8887   22.2060 H   0  0  0  0  0  0
  -23.7247  -37.6437   23.6692 H   0  0  0  0  0  0
  -26.1710  -31.4492   20.6106 H   0  0  0  0  0  0
  -26.8813  -30.7534   22.0307 H   0  0  0  0  0  0
  -28.1447  -28.7662   21.2311 H   0  0  0  0  0  0
  -25.9269  -25.7924   19.0389 H   0  0  0  0  0  0
  -23.9864  -27.2695   18.9947 H   0  0  0  0  0  0
  -23.8254  -30.5461   19.3930 H   0  0  0  0  0  0
  -22.7980  -29.2194   19.8409 H   0  0  0  0  0  0
  -25.1320  -36.1839   25.0804 H   0  0  0  0  0  0
  -21.0011  -28.3326   24.1348 H   0  0  0  0  0  0
  -20.5675  -26.2345   23.3630 H   0  0  0  0  0  0
  -21.6654  -26.7425   22.1208 H   0  0  0  0  0  0
  -19.6924  -25.6285   21.1261 H   0  0  0  0  0  0
  -19.6700  -27.3175   20.6729 H   0  0  0  0  0  0
  -17.4212  -26.6677   21.4029 H   0  0  0  0  0  0
  -18.0347  -26.0085   22.9027 H   0  0  0  0  0  0
  -19.7955  -30.7299   24.2230 H   0  0  0  0  0  0
  -17.5028  -31.6271   24.5165 H   0  0  0  0  0  0
  -15.5366  -30.2979   23.7676 H   0  0  0  0  0  0
  -15.8691  -28.0813   22.7093 H   0  0  0  0  0  0
  -24.5893  -30.7095   25.7702 H   0  0  0  0  0  0
  -24.8881  -32.2943   26.4740 H   0  0  0  0  0  0
  -25.7973  -30.8977   27.0211 H   0  0  0  0  0  0
  -26.3040  -29.6655   24.1308 H   0  0  0  0  0  0
  -27.3994  -29.7264   25.4907 H   0  0  0  0  0  0
  -27.8956  -30.4172   23.9657 H   0  0  0  0  0  0
  -27.2631  -33.3656   26.2006 H   0  0  0  0  0  0
  -28.3898  -32.6861   25.0355 H   0  0  0  0  0  0
  -28.0676  -31.8506   26.5471 H   0  0  0  0  0  0
  -28.2594  -38.0074   24.7493 H   0  0  0  0  0  0
  -28.1064  -36.2601   24.6328 H   0  0  0  0  0  0
  -27.2283  -37.1467   25.8871 H   0  0  0  0  0  0
  -20.9500  -29.8745   21.6750 H   0  0  0  0  0  0
  -26.0152  -38.2803   24.1393 H   0  0  0  0  0  0
  -30.5947  -20.6442   21.8016 H   0  0  0  0  0  0
  -27.5479  -20.3366   18.8789 H   0  0  0  0  0  0
  -31.0283  -18.2494   21.6399 H   0  0  0  0  0  0
  -27.9226  -17.9838   18.7313 H   0  0  0  0  0  0
  -28.7183  -23.4967   18.5454 H   0  0  0  0  0  0
  -27.0906  -22.9499   19.0787 H   0  0  0  0  0  0
  -27.0630  -24.4693   21.0067 H   0  0  0  0  0  0
  -28.5826  -15.6848   18.1280 H   0  0  0  0  0  0
  -30.2957  -15.2957   17.9260 H   0  0  0  0  0  0
  -29.7890  -16.9169   17.8034 H   0  0  0  0  0  0
  1 25  1  0  0  0
  1 30  2  0  0  0
  1 82  1  0  0  0
  2  3  1  0  0  0
  2 25  1  0  0  0
  2 84  1  0  0  0
  2 85  1  0  0  0
  3  4  1  0  0  0
  3 86  1  0  0  0
  3 87  1  0  0  0
  4  5  1  0  0  0
  4 88  1  0  0  0
  4 89  1  0  0  0
  5  6  1  0  0  0
  5 26  1  0  0  0
  5 90  1  0  0  0
  6 25  1  0  0  0
  6 91  1  0  0  0
  6 92  1  0  0  0
  7  8  2  0  0  0
  7 26  1  0  0  0
  7 29  1  0  0  0
  8  9  1  0  0  0
  8 22  1  0  0  0
  9 10  1  0  0  0
  9 27  2  0  0  0
 10 11  2  0  0  0
 10 15  1  0  0  0
 11 12  1  0  0  0
 11 93  1  0  0  0
 12 13  2  0  0  0
 12 94  1  0  0  0
 13 14  1  0  0  0
 13 31  1  0  0  0
 14 15  2  0  0  0
 14 95  1  0  0  0
 15 96  1  0  0  0
 16 17  2  0  0  0
 16 21  1  0  0  0
 16 31  1  0  0  0
 17 18  1  0  0  0
 17 97  1  0  0  0
 18 19  2  0  0  0
 18 98  1  0  0  0
 19 20  1  0  0  0
 19 24  1  0  0  0
 20 21  2  0  0  0
 20 99  1  0  0  0
 21 23  1  0  0  0
 22 28  1  0  0  0
 22 32  2  0  0  0
 26 27  1  0  0  0
 28100  1  0  0  0
 28101  1  0  0  0
 29102  1  0  0  0
 29103  1  0  0  0
 33 34  1  0  0  0
 33 66  1  0  0  0
 33 70  2  0  0  0
 34 36  1  0  0  0
 34 59  1  0  0  0
 34104  1  0  0  0
 35 44  2  0  0  0
 35 45  1  0  0  0
 35 68  1  0  0  0
 36 56  1  0  0  0
 36105  1  0  0  0
 37 39  1  0  0  0
 37 47  1  0  0  0
 37 66  1  0  0  0
 37106  1  0  0  0
 38 43  2  0  0  0
 38 46  1  0  0  0
 38 47  1  0  0  0
 39 64  1  0  0  0
 39 67  2  0  0  0
 40 52  1  0  0  0
 40 53  2  0  0  0
 40 58  1  0  0  0
 41107  1  0  0  0
 41108  1  0  0  0
 41109  1  0  0  0
 41 48  1  0  0  0
 42 43  1  0  0  0
 42 66  1  0  0  0
 42110  1  0  0  0
 42111  1  0  0  0
 43 44  1  0  0  0
 44112  1  0  0  0
 45 46  2  0  0  0
 45113  1  0  0  0
 46114  1  0  0  0
 47115  1  0  0  0
 47116  1  0  0  0
 48 56  1  0  0  0
 48 65  1  0  0  0
 48117  1  0  0  0
 49 50  1  0  0  0
 49 53  1  0  0  0
 49 64  1  0  0  0
 49118  1  0  0  0
 50 51  1  0  0  0
 50119  1  0  0  0
 50120  1  0  0  0
 51 52  1  0  0  0
 51121  1  0  0  0
 51122  1  0  0  0
 52123  1  0  0  0
 52124  1  0  0  0
 53 54  1  0  0  0
 54 55  2  0  0  0
 54125  1  0  0  0
 55 57  1  0  0  0
 55126  1  0  0  0
 56 69  2  0  0  0
 57 58  2  0  0  0
 57127  1  0  0  0
 58128  1  0  0  0
 59 60  1  0  0  0
 59 61  1  0  0  0
 59 62  1  0  0  0
 60129  1  0  0  0
 60130  1  0  0  0
 60131  1  0  0  0
 61132  1  0  0  0
 61133  1  0  0  0
 61134  1  0  0  0
 62135  1  0  0  0
 62136  1  0  0  0
 62137  1  0  0  0
 63 65  1  0  0  0
 63138  1  0  0  0
 63139  1  0  0  0
 63140  1  0  0  0
 64141  1  0  0  0
 65142  1  0  0  0
 68 79  1  0  0  0
 71 73  2  0  0  0
 71 75  1  0  0  0
 71143  1  0  0  0
 72 74  1  0  0  0
 72 75  2  0  0  0
 72144  1  0  0  0
 73 76  1  0  0  0
 73145  1  0  0  0
 74 76  2  0  0  0
 74146  1  0  0  0
 75 81  1  0  0  0
 76 82  1  0  0  0
 77 79  1  0  0  0
 77 81  1  0  0  0
 77 83  2  0  0  0
 78 79  1  0  0  0
 78 81  1  0  0  0
 78147  1  0  0  0
 78148  1  0  0  0
 79149  1  0  0  0
 80 82  1  0  0  0
 80150  1  0  0  0
 80151  1  0  0  0
 80152  1  0  0  0
M  ISO  4   1 100  68 101  79 101  82 100
M  END
> <chiral flag>
0

> <version>
0

> <s_m_source_file>
/data/baiqing/PycharmProjects/Reinvent-master-3.2/result/LINK_invent/BTK/process_docking_weight1_custom_product_contain_oxygen_bond_distance_aromatic_linkinvent_7_9_3/rearranged_h_0083.sdf

> <i_m_source_file_index>
18

> <r_mmod_Potential_Energy-OPLS-2005>
878.167297363281

> <r_mmod_Stretch_Energy-OPLS-2005>
285.161254882812

> <r_mmod_Bend_Energy-OPLS-2005>
352.581970214844

> <r_mmod_Torsional_Energy-OPLS-2005>
316.948699951172

> <r_mmod_Improper_Torsional_Energy-OPLS-2005>
25.434232711792

> <r_mmod_Van_der_Waal_Energy-OPLS-2005>
138.607269287109

> <r_mmod_Electrostatic_Energy-OPLS-2005>
-289.611999511719

> <r_mmod_Solvation_Energy-OPLS-2005>
-217.417953491211

> <b_mmod_Minimization_Converged-OPLS-2005>
0

> <r_mmod_RMS_Derivative-OPLS-2005>
0.28738135099411

$$$$
18
                    3D
 Structure written by MMmdl.
147156  0  0  1  0            999 V2000
  -30.5614  -14.8516   20.4407 C   0  0  0  0  0  0
  -30.4431  -12.5214   19.4895 C   0  0  0  0  0  0
  -29.5197  -12.5213   18.2490 C   0  0  0  0  0  0
  -28.0484  -12.3250   18.6628 C   0  0  0  0  0  0
  -27.6392  -13.2378   19.8487 C   0  0  2  0  0  0
  -28.6830  -13.2075   20.9867 C   0  0  0  0  0  0
  -25.2502  -13.8203   20.5703 C   0  0  0  0  0  0
  -24.1800  -13.0440   20.9215 C   0  0  0  0  0  0
  -24.6399  -11.6920   20.8748 C   0  0  0  0  0  0
  -23.9077  -10.4294   21.0406 C   0  0  0  0  0  0
  -24.3625   -9.4208   21.9184 C   0  0  0  0  0  0
  -23.6297   -8.2244   22.0754 C   0  0  0  0  0  0
  -22.4279   -8.0283   21.3544 C   0  0  0  0  0  0
  -21.9916   -9.0257   20.4646 C   0  0  0  0  0  0
  -22.7248  -10.2135   20.3056 C   0  0  0  0  0  0
  -21.6855   -6.0736   22.5278 C   0  0  0  0  0  0
  -21.4015   -6.5640   23.8212 C   0  0  0  0  0  0
  -21.3660   -5.6793   24.9174 C   0  0  0  0  0  0
  -21.6044   -4.3056   24.7225 C   0  0  0  0  0  0
  -21.8819   -3.8147   23.4346 C   0  0  0  0  0  0
  -21.9193   -4.6964   22.3402 C   0  0  0  0  0  0
  -22.7820  -13.5217   21.1872 C   0  0  0  0  0  0
  -22.1662   -4.2149   21.0979 F   0  0  0  0  0  0
  -21.5628   -3.4539   25.7738 F   0  0  0  0  0  0
  -29.9744  -13.5958   20.4035 N   0  0  0  0  0  0
  -26.2928  -12.9417   20.3273 N   0  0  0  0  0  0
  -25.9332  -11.6555   20.5748 N   0  0  0  0  0  0
  -22.0469  -12.8205   22.0428 N   0  0  0  0  0  0
  -25.4180  -15.1931   20.4121 N   0  0  0  0  0  0
  -31.7510  -14.9546   20.1220 O   0  0  0  0  0  0
  -21.6642   -6.8880   21.4241 O   0  0  0  0  0  0
  -22.3503  -14.5522   20.6717 O   0  0  0  0  0  0
  -24.6384  -31.8491   23.1936 C   0  0  0  0  0  0
  -25.9178  -32.4723   23.8306 C   0  0  1  0  0  0
  -27.2181  -27.1909   20.1446 C   0  0  0  0  0  0
  -25.5945  -33.8528   24.2222 N   0  0  0  0  0  0
  -23.4404  -30.4700   21.5376 C   0  0  2  0  0  0
  -24.8919  -28.9089   20.1086 C   0  0  0  0  0  0
  -22.7547  -29.4568   22.4876 C   0  0  0  0  0  0
  -18.0301  -28.1393   22.8480 C   0  0  0  0  0  0
  -24.1491  -36.7269   23.2641 C   0  0  0  0  0  0
  -25.9930  -30.7383   21.3879 C   0  0  0  0  0  0
  -26.0663  -29.3545   20.7305 C   0  0  0  0  0  0
  -27.2328  -28.5081   20.7398 C   0  0  0  0  0  0
  -26.0262  -26.8427   19.4719 C   0  0  0  0  0  0
  -24.8808  -27.6631   19.4652 C   0  0  0  0  0  0
  -23.6651  -29.8035   20.1549 C   0  0  0  0  0  0
  -25.4121  -36.3050   24.0320 C   0  0  1  0  0  0
  -20.5911  -28.3714   23.1245 C   0  0  2  0  0  0
  -20.6788  -26.9422   22.5403 C   0  0  0  0  0  0
  -19.5759  -26.6382   21.5212 C   0  0  0  0  0  0
  -18.1942  -26.7931   22.1627 C   0  0  0  0  0  0
  -19.1557  -28.8871   23.2855 C   0  0  0  0  0  0
  -18.9475  -30.1469   23.8878 C   0  0  0  0  0  0
  -17.6472  -30.6590   24.0560 C   0  0  0  0  0  0
  -25.9066  -34.9422   23.5077 C   0  0  0  0  0  0
  -16.5363  -29.9084   23.6335 C   0  0  0  0  0  0
  -16.7286  -28.6503   23.0355 C   0  0  0  0  0  0
  -26.4518  -31.6573   25.0726 C   0  0  0  0  0  0
  -25.3716  -31.3746   26.1429 C   0  0  0  0  0  0
  -27.0381  -30.2976   24.6276 C   0  0  0  0  0  0
  -27.6053  -32.4333   25.7509 C   0  0  0  0  0  0
  -27.5576  -37.1793   24.8467 C   0  0  0  0  0  0
  -21.4244  -29.3048   22.3623 N   0  0  0  0  0  0
  -26.4290  -37.3756   23.9406 N   0  0  0  0  0  0
  -24.7098  -31.0389   22.0951 N   0  0  0  0  0  0
  -23.4210  -28.8110   23.3005 O   0  0  0  0  0  0
  -28.2485  -26.1974   20.1975 O   0  0  0  0  0  0
  -26.5646  -34.8909   22.4652 O   0  0  0  0  0  0
  -23.5513  -32.1346   23.7181 O   0  0  0  0  0  0
  -30.8136  -19.5836   19.9579 C   0  0  0  0  0  0
  -30.9874  -18.1322   20.0425 C   0  0  0  0  0  0
  -29.5898  -20.1090   20.3390 C   0  0  0  0  0  0
  -29.9092  -17.3883   20.4923 C   0  0  0  0  0  0
  -28.4270  -23.5421   20.4483 C   0  0  0  0  0  0
  -29.6488  -22.8783   19.9627 C   0  0  0  0  0  0
  -27.8730  -24.8394   20.5437 C   0  0  0  0  0  0
  -27.9037  -22.1250   20.8672 C   0  0  0  0  0  0
  -29.1676  -21.5700   20.3306 N   0  0  0  0  0  0
  -29.7480  -15.9787   20.6621 N   0  0  0  0  0  0
  -30.6551  -23.3340   19.4599 O   0  0  0  0  0  0
  -28.6364  -18.6485   20.8250 S   0  0  0  0  0  0
  -31.4799  -12.6685   19.1827 H   0  0  0  0  0  0
  -30.4164  -11.5536   19.9926 H   0  0  0  0  0  0
  -29.8205  -11.7371   17.5530 H   0  0  0  0  0  0
  -29.6265  -13.4651   17.7120 H   0  0  0  0  0  0
  -27.9241  -11.2788   18.9447 H   0  0  0  0  0  0
  -27.3885  -12.4904   17.8104 H   0  0  0  0  0  0
  -27.6211  -14.2520   19.4490 H   0  0  0  0  0  0
  -28.7435  -12.2147   21.4350 H   0  0  0  0  0  0
  -28.3984  -13.8883   21.7905 H   0  0  0  0  0  0
  -25.2769   -9.5683   22.4760 H   0  0  0  0  0  0
  -24.0004   -7.4636   22.7474 H   0  0  0  0  0  0
  -21.0847   -8.8778   19.8952 H   0  0  0  0  0  0
  -22.3705  -10.9675   19.6166 H   0  0  0  0  0  0
  -21.2009   -7.6149   23.9715 H   0  0  0  0  0  0
  -21.1482   -6.0523   25.9077 H   0  0  0  0  0  0
  -22.0598   -2.7609   23.2846 H   0  0  0  0  0  0
  -22.4092  -11.9870   22.4816 H   0  0  0  0  0  0
  -21.1085  -13.1224   22.2634 H   0  0  0  0  0  0
  -24.6459  -15.8422   20.5188 H   0  0  0  0  0  0
  -26.2558  -15.6336   20.0549 H   0  0  0  0  0  0
  -26.7244  -32.5351   23.1041 H   0  0  0  0  0  0
  -25.0075  -33.9653   25.0357 H   0  0  0  0  0  0
  -22.7404  -31.2945   21.3870 H   0  0  0  0  0  0
  -23.3755  -35.9600   23.3299 H   0  0  0  0  0  0
  -24.3577  -36.8902   22.2056 H   0  0  0  0  0  0
  -23.7245  -37.6466   23.6676 H   0  0  0  0  0  0
  -26.1431  -31.4950   20.6166 H   0  0  0  0  0  0
  -26.8656  -30.7880   22.0274 H   0  0  0  0  0  0
  -28.1260  -28.8381   21.2515 H   0  0  0  0  0  0
  -25.9603  -25.8863   18.9728 H   0  0  0  0  0  0
  -23.9862  -27.3187   18.9645 H   0  0  0  0  0  0
  -23.7964  -30.5801   19.4005 H   0  0  0  0  0  0
  -22.7819  -29.2418   19.8454 H   0  0  0  0  0  0
  -25.1307  -36.1887   25.0812 H   0  0  0  0  0  0
  -21.0004  -28.3300   24.1366 H   0  0  0  0  0  0
  -20.5687  -26.2326   23.3617 H   0  0  0  0  0  0
  -21.6653  -26.7436   22.1196 H   0  0  0  0  0  0
  -19.6921  -25.6288   21.1253 H   0  0  0  0  0  0
  -19.6693  -27.3183   20.6734 H   0  0  0  0  0  0
  -17.4208  -26.6671   21.4034 H   0  0  0  0  0  0
  -18.0346  -26.0079   22.9030 H   0  0  0  0  0  0
  -19.7950  -30.7291   24.2238 H   0  0  0  0  0  0
  -17.5025  -31.6269   24.5165 H   0  0  0  0  0  0
  -15.5362  -30.2980   23.7670 H   0  0  0  0  0  0
  -15.8687  -28.0816   22.7080 H   0  0  0  0  0  0
  -24.5890  -30.7103   25.7747 H   0  0  0  0  0  0
  -24.8912  -32.2925   26.4827 H   0  0  0  0  0  0
  -25.8008  -30.8932   27.0225 H   0  0  0  0  0  0
  -26.2992  -29.6704   24.1276 H   0  0  0  0  0  0
  -27.4003  -29.7265   25.4834 H   0  0  0  0  0  0
  -27.8895  -30.4226   23.9582 H   0  0  0  0  0  0
  -27.2646  -33.3645   26.2048 H   0  0  0  0  0  0
  -28.3884  -32.6876   25.0354 H   0  0  0  0  0  0
  -28.0699  -31.8486   26.5458 H   0  0  0  0  0  0
  -28.2592  -38.0090   24.7507 H   0  0  0  0  0  0
  -28.1073  -36.2619   24.6304 H   0  0  0  0  0  0
  -27.2291  -37.1452   25.8869 H   0  0  0  0  0  0
  -20.9445  -29.8766   21.6813 H   0  0  0  0  0  0
  -26.0162  -38.2827   24.1403 H   0  0  0  0  0  0
  -31.6290  -20.1996   19.6059 H   0  0  0  0  0  0
  -31.9287  -17.6877   19.7509 H   0  0  0  0  0  0
  -26.8997  -24.8685   21.0132 H   0  0  0  0  0  0
  -27.0363  -21.7343   20.3327 H   0  0  0  0  0  0
  -27.8019  -21.9273   21.9356 H   0  0  0  0  0  0
  -28.8161  -15.7116   20.9416 H   0  0  0  0  0  0
  1 25  1  0  0  0
  1 30  2  0  0  0
  1 80  1  0  0  0
  2  3  1  0  0  0
  2 25  1  0  0  0
  2 83  1  0  0  0
  2 84  1  0  0  0
  3  4  1  0  0  0
  3 85  1  0  0  0
  3 86  1  0  0  0
  4  5  1  0  0  0
  4 87  1  0  0  0
  4 88  1  0  0  0
  5  6  1  0  0  0
  5 26  1  0  0  0
  5 89  1  0  0  0
  6 25  1  0  0  0
  6 90  1  0  0  0
  6 91  1  0  0  0
  7  8  2  0  0  0
  7 26  1  0  0  0
  7 29  1  0  0  0
  8  9  1  0  0  0
  8 22  1  0  0  0
  9 10  1  0  0  0
  9 27  2  0  0  0
 10 11  2  0  0  0
 10 15  1  0  0  0
 11 12  1  0  0  0
 11 92  1  0  0  0
 12 13  2  0  0  0
 12 93  1  0  0  0
 13 14  1  0  0  0
 13 31  1  0  0  0
 14 15  2  0  0  0
 14 94  1  0  0  0
 15 95  1  0  0  0
 16 17  2  0  0  0
 16 21  1  0  0  0
 16 31  1  0  0  0
 17 18  1  0  0  0
 17 96  1  0  0  0
 18 19  2  0  0  0
 18 97  1  0  0  0
 19 20  1  0  0  0
 19 24  1  0  0  0
 20 21  2  0  0  0
 20 98  1  0  0  0
 21 23  1  0  0  0
 22 28  1  0  0  0
 22 32  2  0  0  0
 26 27  1  0  0  0
 28 99  1  0  0  0
 28100  1  0  0  0
 29101  1  0  0  0
 29102  1  0  0  0
 33 34  1  0  0  0
 33 66  1  0  0  0
 33 70  2  0  0  0
 34 36  1  0  0  0
 34 59  1  0  0  0
 34103  1  0  0  0
 35 44  2  0  0  0
 35 45  1  0  0  0
 35 68  1  0  0  0
 36 56  1  0  0  0
 36104  1  0  0  0
 37 39  1  0  0  0
 37 47  1  0  0  0
 37 66  1  0  0  0
 37105  1  0  0  0
 38 43  2  0  0  0
 38 46  1  0  0  0
 38 47  1  0  0  0
 39 64  1  0  0  0
 39 67  2  0  0  0
 40 52  1  0  0  0
 40 53  2  0  0  0
 40 58  1  0  0  0
 41106  1  0  0  0
 41107  1  0  0  0
 41108  1  0  0  0
 41 48  1  0  0  0
 42 43  1  0  0  0
 42 66  1  0  0  0
 42109  1  0  0  0
 42110  1  0  0  0
 43 44  1  0  0  0
 44111  1  0  0  0
 45 46  2  0  0  0
 45112  1  0  0  0
 46113  1  0  0  0
 47114  1  0  0  0
 47115  1  0  0  0
 48 56  1  0  0  0
 48 65  1  0  0  0
 48116  1  0  0  0
 49 50  1  0  0  0
 49 53  1  0  0  0
 49 64  1  0  0  0
 49117  1  0  0  0
 50 51  1  0  0  0
 50118  1  0  0  0
 50119  1  0  0  0
 51 52  1  0  0  0
 51120  1  0  0  0
 51121  1  0  0  0
 52122  1  0  0  0
 52123  1  0  0  0
 53 54  1  0  0  0
 54 55  2  0  0  0
 54124  1  0  0  0
 55 57  1  0  0  0
 55125  1  0  0  0
 56 69  2  0  0  0
 57 58  2  0  0  0
 57126  1  0  0  0
 58127  1  0  0  0
 59 60  1  0  0  0
 59 61  1  0  0  0
 59 62  1  0  0  0
 60128  1  0  0  0
 60129  1  0  0  0
 60130  1  0  0  0
 61131  1  0  0  0
 61132  1  0  0  0
 61133  1  0  0  0
 62134  1  0  0  0
 62135  1  0  0  0
 62136  1  0  0  0
 63 65  1  0  0  0
 63137  1  0  0  0
 63138  1  0  0  0
 63139  1  0  0  0
 64140  1  0  0  0
 65141  1  0  0  0
 68 77  1  0  0  0
 71 72  1  0  0  0
 71 73  2  0  0  0
 71142  1  0  0  0
 72 74  2  0  0  0
 72143  1  0  0  0
 73 79  1  0  0  0
 73 82  1  0  0  0
 74 80  1  0  0  0
 74 82  1  0  0  0
 75 76  1  0  0  0
 75 77  2  0  0  0
 75 78  1  0  0  0
 76 79  1  0  0  0
 76 81  2  0  0  0
 77144  1  0  0  0
 78 79  1  0  0  0
 78145  1  0  0  0
 78146  1  0  0  0
 80147  1  0  0  0
M  ISO  4   1 100  68 101  77 101  80 100
M  END
> <chiral flag>
0

> <version>
0

> <s_m_source_file>
/data/baiqing/PycharmProjects/Reinvent-master-3.2/result/LINK_invent/BTK/process_docking_weight1_custom_product_contain_oxygen_bond_distance_aromatic_linkinvent_7_9_3/rearranged_h_0083.sdf

> <i_m_source_file_index>
19

> <r_mmod_Potential_Energy-OPLS-2005>
332.723358154297

> <r_mmod_Stretch_Energy-OPLS-2005>
151.551712036133

> <r_mmod_Bend_Energy-OPLS-2005>
282.878509521484

> <r_mmod_Torsional_Energy-OPLS-2005>
216.682312011719

> <r_mmod_Improper_Torsional_Energy-OPLS-2005>
4.05678224563599

> <r_mmod_Van_der_Waal_Energy-OPLS-2005>
111.339981079102

> <r_mmod_Electrostatic_Energy-OPLS-2005>
-350.105133056641

> <r_mmod_Solvation_Energy-OPLS-2005>
-226.226470947266

> <b_mmod_Minimization_Converged-OPLS-2005>
0

> <r_mmod_RMS_Derivative-OPLS-2005>
0.158820033073425

$$$$
19
                    3D
 Structure written by MMmdl.
155164  0  0  1  0            999 V2000
  -30.3067  -13.9991   21.1358 C   0  0  0  0  0  0
  -30.7202  -12.4547   19.1402 C   0  0  0  0  0  0
  -29.7156  -12.5938   17.9077 C   0  0  0  0  0  0
  -28.1682  -12.6067   18.1848 C   0  0  0  0  0  0
  -28.0534  -13.3034   19.5148 C   0  0  2  0  0  0
  -28.8758  -12.2963   20.3988 C   0  0  0  0  0  0
  -25.9912  -14.3243   20.2368 C   0  0  0  0  0  0
  -24.4053  -13.6809   21.1365 C   0  0  0  0  0  0
  -24.3727  -12.3904   21.6006 C   0  0  0  0  0  0
  -23.8353  -10.8710   21.2847 C   0  0  0  0  0  0
  -24.3161   -9.7417   22.0440 C   0  0  0  0  0  0
  -23.6876   -8.4527   22.0886 C   0  0  0  0  0  0
  -22.5108   -8.1852   21.3512 C   0  0  0  0  0  0
  -22.1005   -9.2162   20.4690 C   0  0  0  0  0  0
  -22.7486  -10.4977   20.4239 C   0  0  0  0  0  0
  -21.7509   -6.1450   22.4993 C   0  0  0  0  0  0
  -21.4501   -6.6121   23.8001 C   0  0  0  0  0  0
  -21.3795   -5.7154   24.8904 C   0  0  0  0  0  0
  -21.6027   -4.3385   24.6947 C   0  0  0  0  0  0
  -21.8753   -3.8589   23.4019 C   0  0  0  0  0  0
  -21.9396   -4.7525   22.3136 C   0  0  0  0  0  0
  -22.7604  -14.0032   21.3338 C   0  0  0  0  0  0
  -22.1776   -4.2577   21.0749 F   0  0  0  0  0  0
  -21.5490   -3.4790   25.7416 F   0  0  0  0  0  0
  -30.1328  -12.8750   20.4236 N   0  0  0  0  0  0
  -26.7041  -13.7968   20.0040 N   0  0  0  0  0  0
  -25.0932  -13.5180   20.9370 N   0  0  0  0  0  0
  -21.9896  -13.1927   22.0923 N   0  0  0  0  0  0
  -26.6620  -15.4293   19.5407 N   0  0  0  0  0  0
  -31.2473  -14.7454   20.7671 O   0  0  0  0  0  0
  -21.7881   -6.9899   21.3960 O   0  0  0  0  0  0
  -22.1658  -14.9022   20.7612 O   0  0  0  0  0  0
  -24.7056  -31.7714   23.1439 C   0  0  0  0  0  0
  -25.9582  -32.4275   23.7983 C   0  0  1  0  0  0
  -26.6232  -26.2223   20.3272 C   0  0  0  0  0  0
  -25.6082  -33.8147   24.1806 N   0  0  0  0  0  0
  -23.5139  -30.4037   21.5064 C   0  0  2  0  0  0
  -24.8748  -28.7066   20.0704 C   0  0  0  0  0  0
  -22.7746  -29.4216   22.4577 C   0  0  0  0  0  0
  -18.0316  -28.1429   22.8434 C   0  0  0  0  0  0
  -24.1486  -36.7061   23.2644 C   0  0  0  0  0  0
  -26.0926  -30.3232   21.4836 C   0  0  0  0  0  0
  -26.0371  -28.8620   20.8241 C   0  0  0  0  0  0
  -26.9186  -27.6317   20.9336 C   0  0  0  0  0  0
  -25.6250  -26.4334   19.3717 C   0  0  0  0  0  0
  -24.7533  -27.5477   19.2969 C   0  0  0  0  0  0
  -23.7572  -29.7563   20.1135 C   0  0  0  0  0  0
  -25.4153  -36.2796   24.0250 C   0  0  1  0  0  0
  -20.5953  -28.3781   23.1086 C   0  0  2  0  0  0
  -20.6786  -26.9428   22.5390 C   0  0  0  0  0  0
  -19.5767  -26.6353   21.5206 C   0  0  0  0  0  0
  -18.1943  -26.7954   22.1604 C   0  0  0  0  0  0
  -19.1589  -28.8926   23.2745 C   0  0  0  0  0  0
  -18.9514  -30.1508   23.8797 C   0  0  0  0  0  0
  -17.6511  -30.6609   24.0549 C   0  0  0  0  0  0
  -25.9181  -34.9196   23.4879 C   0  0  0  0  0  0
  -16.5387  -29.9097   23.6368 C   0  0  0  0  0  0
  -16.7301  -28.6524   23.0370 C   0  0  0  0  0  0
  -26.4649  -31.6508   25.0781 C   0  0  0  0  0  0
  -25.3621  -31.3966   26.1345 C   0  0  0  0  0  0
  -27.0676  -30.2807   24.7047 C   0  0  0  0  0  0
  -27.6024  -32.4491   25.7589 C   0  0  0  0  0  0
  -27.5566  -37.1672   24.8441 C   0  0  0  0  0  0
  -21.4387  -29.3004   22.3362 N   0  0  0  0  0  0
  -26.4227  -37.3621   23.9446 N   0  0  0  0  0  0
  -24.8043  -30.8831   22.0893 N   0  0  0  0  0  0
  -23.4138  -28.7770   23.2928 O   0  0  0  0  0  0
  -26.9884  -24.6562   20.5610 O   0  0  0  0  0  0
  -26.5839  -34.8829   22.4514 O   0  0  0  0  0  0
  -23.6065  -32.1035   23.6226 O   0  0  0  0  0  0
  -24.9596  -12.6647   18.9037 C   0  0  0  0  0  0
  -26.3018  -11.7113   20.5007 C   0  0  0  0  0  0
  -24.1920  -14.7762   19.0682 C   0  0  0  0  0  0
  -26.0067  -15.1764   22.3088 C   0  0  0  0  0  0
  -24.6219  -20.3918   21.4276 C   0  0  0  0  0  0
  -25.9084  -19.3240   20.2998 C   0  0  0  0  0  0
  -26.8769  -13.2033   22.2081 C   0  0  0  0  0  0
  -25.7510  -20.8820   20.6130 C   0  0  0  0  0  0
  -24.7721  -16.1199   20.8198 C   0  0  0  0  0  0
  -24.2643  -18.9902   21.4907 C   0  0  0  0  0  0
  -28.3193  -13.4497   22.8577 C   0  0  0  0  0  0
  -26.3127  -22.8741   20.1244 C   0  0  0  0  0  0
  -25.0176  -17.9933   20.7883 N   0  0  0  0  0  0
  -29.4074  -14.1566   22.2351 N   0  0  0  0  0  0
  -28.4129  -13.1904   24.0577 O   0  0  0  0  0  0
  -23.1993  -18.5204   22.1913 O   0  0  0  0  0  0
  -31.6351  -13.0133   18.9333 H   0  0  0  0  0  0
  -31.0531  -11.4187   19.2353 H   0  0  0  0  0  0
  -29.9573  -11.8484   17.1495 H   0  0  0  0  0  0
  -29.9538  -13.5444   17.4272 H   0  0  0  0  0  0
  -27.7404  -11.6022   18.1803 H   0  0  0  0  0  0
  -27.6465  -13.1590   17.4007 H   0  0  0  0  0  0
  -28.6216  -14.2139   19.3140 H   0  0  0  0  0  0
  -28.9428  -11.3141   19.9175 H   0  0  0  0  0  0
  -28.5823  -11.7546   21.2845 H   0  0  0  0  0  0
  -25.1572   -9.9099   22.7021 H   0  0  0  0  0  0
  -24.0995   -7.6922   22.7363 H   0  0  0  0  0  0
  -21.2416   -9.0504   19.8345 H   0  0  0  0  0  0
  -22.3240  -11.2624   19.7885 H   0  0  0  0  0  0
  -21.2741   -7.6649   23.9649 H   0  0  0  0  0  0
  -21.1565   -6.0859   25.8809 H   0  0  0  0  0  0
  -22.0311   -2.8029   23.2417 H   0  0  0  0  0  0
  -22.3708  -12.4183   22.6140 H   0  0  0  0  0  0
  -21.0000  -13.3869   22.1564 H   0  0  0  0  0  0
  -26.2229  -16.3364   19.4580 H   0  0  0  0  0  0
  -27.3726  -15.2778   18.8406 H   0  0  0  0  0  0
  -26.7660  -32.4544   23.0655 H   0  0  0  0  0  0
  -25.0128  -33.9177   24.9892 H   0  0  0  0  0  0
  -22.8549  -31.2596   21.3465 H   0  0  0  0  0  0
  -23.3832  -35.9297   23.3134 H   0  0  0  0  0  0
  -24.3560  -36.8925   22.2094 H   0  0  0  0  0  0
  -23.7128  -37.6124   23.6863 H   0  0  0  0  0  0
  -26.3902  -31.0140   20.6938 H   0  0  0  0  0  0
  -26.9239  -30.3353   22.1733 H   0  0  0  0  0  0
  -27.7377  -27.6993   21.6368 H   0  0  0  0  0  0
  -25.3478  -25.5803   18.7691 H   0  0  0  0  0  0
  -23.9059  -27.4633   18.6314 H   0  0  0  0  0  0
  -24.0170  -30.5372   19.3980 H   0  0  0  0  0  0
  -22.8301  -29.3157   19.7444 H   0  0  0  0  0  0
  -25.1355  -36.1505   25.0728 H   0  0  0  0  0  0
  -21.0051  -28.3449   24.1209 H   0  0  0  0  0  0
  -20.5662  -26.2406   23.3666 H   0  0  0  0  0  0
  -21.6641  -26.7371   22.1198 H   0  0  0  0  0  0
  -19.6931  -25.6239   21.1295 H   0  0  0  0  0  0
  -19.6732  -27.3108   20.6693 H   0  0  0  0  0  0
  -17.4219  -26.6675   21.4008 H   0  0  0  0  0  0
  -18.0338  -26.0122   22.9025 H   0  0  0  0  0  0
  -19.7989  -30.7338   24.2135 H   0  0  0  0  0  0
  -17.5065  -31.6288   24.5159 H   0  0  0  0  0  0
  -15.5385  -30.2981   23.7759 H   0  0  0  0  0  0
  -15.8691  -28.0825   22.7152 H   0  0  0  0  0  0
  -24.5803  -30.7317   25.7660 H   0  0  0  0  0  0
  -24.8824  -32.3246   26.4471 H   0  0  0  0  0  0
  -25.7707  -30.9318   27.0330 H   0  0  0  0  0  0
  -26.3434  -29.6187   24.2302 H   0  0  0  0  0  0
  -27.4146  -29.7564   25.5964 H   0  0  0  0  0  0
  -27.9408  -30.3838   24.0604 H   0  0  0  0  0  0
  -27.2506  -33.3909   26.1822 H   0  0  0  0  0  0
  -28.3989  -32.6885   25.0528 H   0  0  0  0  0  0
  -28.0535  -31.8891   26.5796 H   0  0  0  0  0  0
  -28.2425  -38.0124   24.7682 H   0  0  0  0  0  0
  -28.1229  -36.2662   24.6027 H   0  0  0  0  0  0
  -27.2321  -37.0988   25.8841 H   0  0  0  0  0  0
  -20.9685  -29.8717   21.6478 H   0  0  0  0  0  0
  -26.0017  -38.2624   24.1589 H   0  0  0  0  0  0
  -24.7129  -12.0940   18.0203 H   0  0  0  0  0  0
  -26.7533  -10.7387   20.3644 H   0  0  0  0  0  0
  -23.6713  -15.2074   18.2261 H   0  0  0  0  0  0
  -26.4617  -15.8493   23.0206 H   0  0  0  0  0  0
  -24.0017  -21.0998   21.9602 H   0  0  0  0  0  0
  -26.7019  -18.9926   19.6441 H   0  0  0  0  0  0
  -25.4560  -23.1494   19.5112 H   0  0  0  0  0  0
  -27.0722  -22.6243   19.3840 H   0  0  0  0  0  0
  -29.7730  -14.8590   22.8573 H   0  0  0  0  0  0
  -23.0666  -17.6135   21.9300 H   0  0  0  0  0  0
  1 25  1  0  0  0
  1 30  2  0  0  0
  1 84  1  0  0  0
  2  3  1  0  0  0
  2 25  1  0  0  0
  2 87  1  0  0  0
  2 88  1  0  0  0
  3  4  1  0  0  0
  3 89  1  0  0  0
  3 90  1  0  0  0
  4  5  1  0  0  0
  4 91  1  0  0  0
  4 92  1  0  0  0
  5  6  1  0  0  0
  5 26  1  0  0  0
  5 93  1  0  0  0
  6 25  1  0  0  0
  6 94  1  0  0  0
  6 95  1  0  0  0
  7  8  2  0  0  0
  7 26  1  0  0  0
  7 29  1  0  0  0
  8  9  1  0  0  0
  8 22  1  0  0  0
  9 10  1  0  0  0
  9 27  2  0  0  0
 10 11  2  0  0  0
 10 15  1  0  0  0
 11 12  1  0  0  0
 11 96  1  0  0  0
 12 13  2  0  0  0
 12 97  1  0  0  0
 13 14  1  0  0  0
 13 31  1  0  0  0
 14 15  2  0  0  0
 14 98  1  0  0  0
 15 99  1  0  0  0
 16 17  2  0  0  0
 16 21  1  0  0  0
 16 31  1  0  0  0
 17 18  1  0  0  0
 17100  1  0  0  0
 18 19  2  0  0  0
 18101  1  0  0  0
 19 20  1  0  0  0
 19 24  1  0  0  0
 20 21  2  0  0  0
 20102  1  0  0  0
 21 23  1  0  0  0
 22 28  1  0  0  0
 22 32  2  0  0  0
 26 27  1  0  0  0
 28103  1  0  0  0
 28104  1  0  0  0
 29105  1  0  0  0
 29106  1  0  0  0
 33 34  1  0  0  0
 33 66  1  0  0  0
 33 70  2  0  0  0
 34 36  1  0  0  0
 34 59  1  0  0  0
 34107  1  0  0  0
 35 44  2  0  0  0
 35 45  1  0  0  0
 35 68  1  0  0  0
 36 56  1  0  0  0
 36108  1  0  0  0
 37 39  1  0  0  0
 37 47  1  0  0  0
 37 66  1  0  0  0
 37109  1  0  0  0
 38 43  2  0  0  0
 38 46  1  0  0  0
 38 47  1  0  0  0
 39 64  1  0  0  0
 39 67  2  0  0  0
 40 52  1  0  0  0
 40 53  2  0  0  0
 40 58  1  0  0  0
 41110  1  0  0  0
 41111  1  0  0  0
 41112  1  0  0  0
 41 48  1  0  0  0
 42 43  1  0  0  0
 42 66  1  0  0  0
 42113  1  0  0  0
 42114  1  0  0  0
 43 44  1  0  0  0
 44115  1  0  0  0
 45 46  2  0  0  0
 45116  1  0  0  0
 46117  1  0  0  0
 47118  1  0  0  0
 47119  1  0  0  0
 48 56  1  0  0  0
 48 65  1  0  0  0
 48120  1  0  0  0
 49 50  1  0  0  0
 49 53  1  0  0  0
 49 64  1  0  0  0
 49121  1  0  0  0
 50 51  1  0  0  0
 50122  1  0  0  0
 50123  1  0  0  0
 51 52  1  0  0  0
 51124  1  0  0  0
 51125  1  0  0  0
 52126  1  0  0  0
 52127  1  0  0  0
 53 54  1  0  0  0
 54 55  2  0  0  0
 54128  1  0  0  0
 55 57  1  0  0  0
 55129  1  0  0  0
 56 69  2  0  0  0
 57 58  2  0  0  0
 57130  1  0  0  0
 58131  1  0  0  0
 59 60  1  0  0  0
 59 61  1  0  0  0
 59 62  1  0  0  0
 60132  1  0  0  0
 60133  1  0  0  0
 60134  1  0  0  0
 61135  1  0  0  0
 61136  1  0  0  0
 61137  1  0  0  0
 62138  1  0  0  0
 62139  1  0  0  0
 62140  1  0  0  0
 63 65  1  0  0  0
 63141  1  0  0  0
 63142  1  0  0  0
 63143  1  0  0  0
 64144  1  0  0  0
 65145  1  0  0  0
 68 82  1  0  0  0
 71 72  2  0  0  0
 71 73  1  0  0  0
 71146  1  0  0  0
 72 77  1  0  0  0
 72147  1  0  0  0
 73 79  2  0  0  0
 73148  1  0  0  0
 74 77  2  0  0  0
 74 79  1  0  0  0
 74149  1  0  0  0
 75 78  1  0  0  0
 75 80  2  0  0  0
 75150  1  0  0  0
 76 78  2  0  0  0
 76 83  1  0  0  0
 76151  1  0  0  0
 77 81  1  0  0  0
 78 82  1  0  0  0
 79 83  1  0  0  0
 80 83  1  0  0  0
 80 86  1  0  0  0
 81 84  1  0  0  0
 81 85  2  0  0  0
 82152  1  0  0  0
 82153  1  0  0  0
 84154  1  0  0  0
 86155  1  0  0  0
M  ISO  4   1 100  68 101  82 101  84 100
M  END
> <chiral flag>
0

> <version>
0

> <s_m_source_file>
/data/baiqing/PycharmProjects/Reinvent-master-3.2/result/LINK_invent/BTK/process_docking_weight1_custom_product_contain_oxygen_bond_distance_aromatic_linkinvent_7_9_3/rearranged_h_0083.sdf

> <i_m_source_file_index>
20

> <r_mmod_Potential_Energy-OPLS-2005>
21613.916015625

> <r_mmod_Stretch_Energy-OPLS-2005>
12161.2490234375

> <r_mmod_Bend_Energy-OPLS-2005>
2590.52392578125

> <r_mmod_Torsional_Energy-OPLS-2005>
527.595275878906

> <r_mmod_Improper_Torsional_Energy-OPLS-2005>
65.379753112793

> <r_mmod_Van_der_Waal_Energy-OPLS-2005>
4301.12158203125

> <r_mmod_Electrostatic_Energy-OPLS-2005>
-451.585083007812

> <r_mmod_Solvation_Energy-OPLS-2005>
-228.26887512207

> <b_mmod_Minimization_Converged-OPLS-2005>
0

> <r_mmod_RMS_Derivative-OPLS-2005>
4.84941053390503

$$$$
20
                    3D
 Structure written by MMmdl.
154162  0  0  1  0            999 V2000
  -30.6382  -14.5634   20.5357 C   0  0  0  0  0  0
  -30.4364  -12.3527   19.4398 C   0  0  0  0  0  0
  -29.5078  -12.5247   18.2171 C   0  0  0  0  0  0
  -28.0263  -12.3803   18.6212 C   0  0  0  0  0  0
  -27.6617  -13.2147   19.8784 C   0  0  2  0  0  0
  -28.7034  -13.0092   21.0017 C   0  0  0  0  0  0
  -25.2576  -13.8179   20.5692 C   0  0  0  0  0  0
  -24.1828  -13.0446   20.9169 C   0  0  0  0  0  0
  -24.6388  -11.6914   20.8702 C   0  0  0  0  0  0
  -23.9053  -10.4297   21.0378 C   0  0  0  0  0  0
  -24.3611   -9.4218   21.9157 C   0  0  0  0  0  0
  -23.6291   -8.2250   22.0747 C   0  0  0  0  0  0
  -22.4264   -8.0282   21.3548 C   0  0  0  0  0  0
  -21.9890   -9.0250   20.4643 C   0  0  0  0  0  0
  -22.7220  -10.2131   20.3039 C   0  0  0  0  0  0
  -21.6858   -6.0723   22.5278 C   0  0  0  0  0  0
  -21.4022   -6.5626   23.8211 C   0  0  0  0  0  0
  -21.3664   -5.6775   24.9169 C   0  0  0  0  0  0
  -21.6047   -4.3040   24.7220 C   0  0  0  0  0  0
  -21.8824   -3.8136   23.4342 C   0  0  0  0  0  0
  -21.9198   -4.6952   22.3398 C   0  0  0  0  0  0
  -22.7847  -13.5242   21.1844 C   0  0  0  0  0  0
  -22.1664   -4.2143   21.0973 F   0  0  0  0  0  0
  -21.5631   -3.4523   25.7733 F   0  0  0  0  0  0
  -30.0283  -13.3440   20.4520 N   0  0  0  0  0  0
  -26.3020  -12.9361   20.3360 N   0  0  0  0  0  0
  -25.9322  -11.6514   20.5741 N   0  0  0  0  0  0
  -22.0490  -12.8244   22.0407 N   0  0  0  0  0  0
  -25.4298  -15.1907   20.4177 N   0  0  0  0  0  0
  -31.7743  -14.7562   20.0885 O   0  0  0  0  0  0
  -21.6647   -6.8867   21.4240 O   0  0  0  0  0  0
  -22.3527  -14.5544   20.6691 O   0  0  0  0  0  0
  -24.6240  -31.8626   23.2048 C   0  0  0  0  0  0
  -25.9102  -32.4791   23.8365 C   0  0  1  0  0  0
  -27.2299  -27.3685   20.0995 C   0  0  0  0  0  0
  -25.5932  -33.8584   24.2298 N   0  0  0  0  0  0
  -23.4147  -30.4882   21.5458 C   0  0  2  0  0  0
  -24.8601  -28.9484   20.1091 C   0  0  0  0  0  0
  -22.7455  -29.4657   22.4944 C   0  0  0  0  0  0
  -18.0293  -28.1388   22.8484 C   0  0  0  0  0  0
  -24.1491  -36.7296   23.2639 C   0  0  0  0  0  0
  -25.9516  -30.8063   21.3701 C   0  0  0  0  0  0
  -26.0263  -29.4392   20.7095 C   0  0  0  0  0  0
  -27.2131  -28.6561   20.7036 C   0  0  0  0  0  0
  -26.0356  -26.9061   19.4998 C   0  0  0  0  0  0
  -24.8624  -27.6827   19.5007 C   0  0  0  0  0  0
  -23.6273  -29.8249   20.1595 C   0  0  0  0  0  0
  -25.4111  -36.3091   24.0340 C   0  0  1  0  0  0
  -20.5891  -28.3691   23.1283 C   0  0  2  0  0  0
  -20.6787  -26.9411   22.5414 C   0  0  0  0  0  0
  -19.5761  -26.6386   21.5216 C   0  0  0  0  0  0
  -18.1938  -26.7935   22.1624 C   0  0  0  0  0  0
  -19.1544  -28.8852   23.2879 C   0  0  0  0  0  0
  -18.9470  -30.1456   23.8897 C   0  0  0  0  0  0
  -17.6472  -30.6588   24.0567 C   0  0  0  0  0  0
  -25.9043  -34.9458   23.5115 C   0  0  0  0  0  0
  -16.5362  -29.9091   23.6330 C   0  0  0  0  0  0
  -16.7281  -28.6508   23.0345 C   0  0  0  0  0  0
  -26.4495  -31.6597   25.0725 C   0  0  0  0  0  0
  -25.3752  -31.3735   26.1476 C   0  0  0  0  0  0
  -27.0334  -30.3027   24.6152 C   0  0  0  0  0  0
  -27.6047  -32.4343   25.7501 C   0  0  0  0  0  0
  -27.5579  -37.1807   24.8466 C   0  0  0  0  0  0
  -21.4174  -29.3052   22.3676 N   0  0  0  0  0  0
  -26.4294  -37.3780   23.9406 N   0  0  0  0  0  0
  -24.6818  -31.0678   22.0981 N   0  0  0  0  0  0
  -23.4186  -28.8216   23.3033 O   0  0  0  0  0  0
  -28.3516  -26.5431   20.1611 O   0  0  0  0  0  0
  -26.5592  -34.8927   22.4671 O   0  0  0  0  0  0
  -23.5410  -32.1423   23.7392 O   0  0  0  0  0  0
  -30.5230  -19.0263   19.5478 C   0  0  0  0  0  0
  -29.1132  -19.2588   21.4919 C   0  0  0  0  0  0
  -30.5866  -17.6203   19.7436 C   0  0  0  0  0  0
  -29.1672  -17.8497   21.6833 C   0  0  0  0  0  0
  -29.7829  -19.8831   20.4064 C   0  0  0  0  0  0
  -29.9079  -16.9993   20.8215 C   0  0  0  0  0  0
  -28.5183  -25.5670   19.1886 C   0  0  0  0  0  0
  -29.7864  -21.4016   20.1767 C   0  0  0  0  0  0
  -28.5744  -24.2004   19.2990 C   0  0  0  0  0  0
  -28.4461  -23.4714   20.5899 C   0  0  0  0  0  0
  -28.6576  -23.4136   17.9942 C   0  0  0  0  0  0
  -29.8712  -15.5670   21.0424 N   0  0  0  0  0  0
  -28.7627  -22.1396   20.6786 N   0  0  0  0  0  0
  -30.7263  -21.8937   19.5453 O   0  0  0  0  0  0
  -27.9111  -23.9876   21.5744 O   0  0  0  0  0  0
  -31.4808  -12.4709   19.1436 H   0  0  0  0  0  0
  -30.3562  -11.3427   19.8452 H   0  0  0  0  0  0
  -29.7596  -11.7975   17.4443 H   0  0  0  0  0  0
  -29.6690  -13.5078   17.7708 H   0  0  0  0  0  0
  -27.8366  -11.3238   18.8098 H   0  0  0  0  0  0
  -27.3828  -12.6638   17.7876 H   0  0  0  0  0  0
  -27.6984  -14.2626   19.5794 H   0  0  0  0  0  0
  -28.6960  -11.9729   21.3444 H   0  0  0  0  0  0
  -28.4578  -13.6047   21.8821 H   0  0  0  0  0  0
  -25.2767   -9.5708   22.4707 H   0  0  0  0  0  0
  -24.0021   -7.4644   22.7467 H   0  0  0  0  0  0
  -21.0818   -8.8759   19.8946 H   0  0  0  0  0  0
  -22.3677  -10.9658   19.6134 H   0  0  0  0  0  0
  -21.2019   -7.6134   23.9720 H   0  0  0  0  0  0
  -21.1481   -6.0496   25.9072 H   0  0  0  0  0  0
  -22.0601   -2.7600   23.2838 H   0  0  0  0  0  0
  -22.4113  -11.9910   22.4802 H   0  0  0  0  0  0
  -21.1107  -13.1270   22.2610 H   0  0  0  0  0  0
  -24.6652  -15.8465   20.5349 H   0  0  0  0  0  0
  -26.2892  -15.6352   20.1195 H   0  0  0  0  0  0
  -26.7171  -32.5473   23.1113 H   0  0  0  0  0  0
  -25.0142  -33.9724   25.0489 H   0  0  0  0  0  0
  -22.7077  -31.3086   21.4034 H   0  0  0  0  0  0
  -23.3752  -35.9631   23.3320 H   0  0  0  0  0  0
  -24.3583  -36.8896   22.2052 H   0  0  0  0  0  0
  -23.7260  -37.6514   23.6634 H   0  0  0  0  0  0
  -26.0791  -31.5749   20.6070 H   0  0  0  0  0  0
  -26.8326  -30.8498   21.9986 H   0  0  0  0  0  0
  -28.1081  -29.0224   21.1863 H   0  0  0  0  0  0
  -25.9873  -25.9231   19.0530 H   0  0  0  0  0  0
  -23.9643  -27.2907   19.0437 H   0  0  0  0  0  0
  -23.7487  -30.6034   19.4056 H   0  0  0  0  0  0
  -22.7475  -29.2559   19.8557 H   0  0  0  0  0  0
  -25.1292  -36.1947   25.0836 H   0  0  0  0  0  0
  -20.9968  -28.3275   24.1410 H   0  0  0  0  0  0
  -20.5707  -26.2289   23.3613 H   0  0  0  0  0  0
  -21.6654  -26.7462   22.1193 H   0  0  0  0  0  0
  -19.6917  -25.6295   21.1249 H   0  0  0  0  0  0
  -19.6705  -27.3195   20.6745 H   0  0  0  0  0  0
  -17.4207  -26.6687   21.4027 H   0  0  0  0  0  0
  -18.0324  -26.0082   22.9024 H   0  0  0  0  0  0
  -19.7950  -30.7267   24.2262 H   0  0  0  0  0  0
  -17.5036  -31.6270   24.5165 H   0  0  0  0  0  0
  -15.5365  -30.2994   23.7650 H   0  0  0  0  0  0
  -15.8684  -28.0832   22.7047 H   0  0  0  0  0  0
  -24.5909  -30.7086   25.7836 H   0  0  0  0  0  0
  -24.8967  -32.2909   26.4916 H   0  0  0  0  0  0
  -25.8121  -30.8923   27.0239 H   0  0  0  0  0  0
  -26.2897  -29.6783   24.1182 H   0  0  0  0  0  0
  -27.4064  -29.7271   25.4635 H   0  0  0  0  0  0
  -27.8751  -30.4333   23.9344 H   0  0  0  0  0  0
  -27.2627  -33.3633   26.2076 H   0  0  0  0  0  0
  -28.3856  -32.6933   25.0336 H   0  0  0  0  0  0
  -28.0704  -31.8480   26.5435 H   0  0  0  0  0  0
  -28.2606  -38.0089   24.7485 H   0  0  0  0  0  0
  -28.1064  -36.2623   24.6321 H   0  0  0  0  0  0
  -27.2288  -37.1497   25.8866 H   0  0  0  0  0  0
  -20.9333  -29.8763   21.6890 H   0  0  0  0  0  0
  -26.0186  -38.2862   24.1391 H   0  0  0  0  0  0
  -31.0600  -19.4511   18.7100 H   0  0  0  0  0  0
  -28.5498  -19.8511   22.1988 H   0  0  0  0  0  0
  -31.1529  -17.0283   19.0385 H   0  0  0  0  0  0
  -28.6261  -17.4236   22.5172 H   0  0  0  0  0  0
  -28.5913  -26.0391   18.2193 H   0  0  0  0  0  0
  -28.2151  -23.9789   17.1737 H   0  0  0  0  0  0
  -28.1080  -22.4735   18.0492 H   0  0  0  0  0  0
  -29.6907  -23.2107   17.7160 H   0  0  0  0  0  0
  -29.0532  -15.2342   21.5305 H   0  0  0  0  0  0
  -28.2412  -21.6444   21.3805 H   0  0  0  0  0  0
  1 25  1  0  0  0
  1 30  2  0  0  0
  1 82  1  0  0  0
  2  3  1  0  0  0
  2 25  1  0  0  0
  2 86  1  0  0  0
  2 87  1  0  0  0
  3  4  1  0  0  0
  3 88  1  0  0  0
  3 89  1  0  0  0
  4  5  1  0  0  0
  4 90  1  0  0  0
  4 91  1  0  0  0
  5  6  1  0  0  0
  5 26  1  0  0  0
  5 92  1  0  0  0
  6 25  1  0  0  0
  6 93  1  0  0  0
  6 94  1  0  0  0
  7  8  2  0  0  0
  7 26  1  0  0  0
  7 29  1  0  0  0
  8  9  1  0  0  0
  8 22  1  0  0  0
  9 10  1  0  0  0
  9 27  2  0  0  0
 10 11  2  0  0  0
 10 15  1  0  0  0
 11 12  1  0  0  0
 11 95  1  0  0  0
 12 13  2  0  0  0
 12 96  1  0  0  0
 13 14  1  0  0  0
 13 31  1  0  0  0
 14 15  2  0  0  0
 14 97  1  0  0  0
 15 98  1  0  0  0
 16 17  2  0  0  0
 16 21  1  0  0  0
 16 31  1  0  0  0
 17 18  1  0  0  0
 17 99  1  0  0  0
 18 19  2  0  0  0
 18100  1  0  0  0
 19 20  1  0  0  0
 19 24  1  0  0  0
 20 21  2  0  0  0
 20101  1  0  0  0
 21 23  1  0  0  0
 22 28  1  0  0  0
 22 32  2  0  0  0
 26 27  1  0  0  0
 28102  1  0  0  0
 28103  1  0  0  0
 29104  1  0  0  0
 29105  1  0  0  0
 33 34  1  0  0  0
 33 66  1  0  0  0
 33 70  2  0  0  0
 34 36  1  0  0  0
 34 59  1  0  0  0
 34106  1  0  0  0
 35 44  2  0  0  0
 35 45  1  0  0  0
 35 68  1  0  0  0
 36 56  1  0  0  0
 36107  1  0  0  0
 37 39  1  0  0  0
 37 47  1  0  0  0
 37 66  1  0  0  0
 37108  1  0  0  0
 38 43  2  0  0  0
 38 46  1  0  0  0
 38 47  1  0  0  0
 39 64  1  0  0  0
 39 67  2  0  0  0
 40 52  1  0  0  0
 40 53  2  0  0  0
 40 58  1  0  0  0
 41109  1  0  0  0
 41110  1  0  0  0
 41111  1  0  0  0
 41 48  1  0  0  0
 42 43  1  0  0  0
 42 66  1  0  0  0
 42112  1  0  0  0
 42113  1  0  0  0
 43 44  1  0  0  0
 44114  1  0  0  0
 45 46  2  0  0  0
 45115  1  0  0  0
 46116  1  0  0  0
 47117  1  0  0  0
 47118  1  0  0  0
 48 56  1  0  0  0
 48 65  1  0  0  0
 48119  1  0  0  0
 49 50  1  0  0  0
 49 53  1  0  0  0
 49 64  1  0  0  0
 49120  1  0  0  0
 50 51  1  0  0  0
 50121  1  0  0  0
 50122  1  0  0  0
 51 52  1  0  0  0
 51123  1  0  0  0
 51124  1  0  0  0
 52125  1  0  0  0
 52126  1  0  0  0
 53 54  1  0  0  0
 54 55  2  0  0  0
 54127  1  0  0  0
 55 57  1  0  0  0
 55128  1  0  0  0
 56 69  2  0  0  0
 57 58  2  0  0  0
 57129  1  0  0  0
 58130  1  0  0  0
 59 60  1  0  0  0
 59 61  1  0  0  0
 59 62  1  0  0  0
 60131  1  0  0  0
 60132  1  0  0  0
 60133  1  0  0  0
 61134  1  0  0  0
 61135  1  0  0  0
 61136  1  0  0  0
 62137  1  0  0  0
 62138  1  0  0  0
 62139  1  0  0  0
 63 65  1  0  0  0
 63140  1  0  0  0
 63141  1  0  0  0
 63142  1  0  0  0
 64143  1  0  0  0
 65144  1  0  0  0
 68 77  1  0  0  0
 71 73  2  0  0  0
 71 75  1  0  0  0
 71145  1  0  0  0
 72 74  1  0  0  0
 72 75  2  0  0  0
 72146  1  0  0  0
 73 76  1  0  0  0
 73147  1  0  0  0
 74 76  2  0  0  0
 74148  1  0  0  0
 75 78  1  0  0  0
 76 82  1  0  0  0
 77 79  2  0  0  0
 77149  1  0  0  0
 78 83  1  0  0  0
 78 84  2  0  0  0
 79 80  1  0  0  0
 79 81  1  0  0  0
 80 83  1  0  0  0
 80 85  2  0  0  0
 81150  1  0  0  0
 81151  1  0  0  0
 81152  1  0  0  0
 82153  1  0  0  0
 83154  1  0  0  0
M  ISO  4   1 100  68 101  77 101  82 100
M  END
> <chiral flag>
0

> <version>
0

> <s_m_source_file>
/data/baiqing/PycharmProjects/Reinvent-master-3.2/result/LINK_invent/BTK/process_docking_weight1_custom_product_contain_oxygen_bond_distance_aromatic_linkinvent_7_9_3/rearranged_h_0083.sdf

> <i_m_source_file_index>
21

> <r_mmod_Potential_Energy-OPLS-2005>
-59.9501647949219

> <r_mmod_Stretch_Energy-OPLS-2005>
58.1501083374023

> <r_mmod_Bend_Energy-OPLS-2005>
146.909576416016

> <r_mmod_Torsional_Energy-OPLS-2005>
267.599945068359

> <r_mmod_Improper_Torsional_Energy-OPLS-2005>
6.66718053817749

> <r_mmod_Van_der_Waal_Energy-OPLS-2005>
160.501205444336

> <r_mmod_Electrostatic_Energy-OPLS-2005>
-484.819183349609

> <r_mmod_Solvation_Energy-OPLS-2005>
-244.549423217773

> <b_mmod_Minimization_Converged-OPLS-2005>
0

> <r_mmod_RMS_Derivative-OPLS-2005>
1.85966801643372

$$$$
21
                    3D
 Structure written by MMmdl.
150159  0  0  1  0            999 V2000
  -30.5692  -14.7421   20.4850 C   0  0  0  0  0  0
  -30.4511  -12.4556   19.4667 C   0  0  0  0  0  0
  -29.5167  -12.5196   18.2354 C   0  0  0  0  0  0
  -28.0415  -12.3384   18.6472 C   0  0  0  0  0  0
  -27.6514  -13.2208   19.8618 C   0  0  2  0  0  0
  -28.6968  -13.1055   20.9942 C   0  0  0  0  0  0
  -25.2559  -13.8174   20.5689 C   0  0  0  0  0  0
  -24.1830  -13.0437   20.9196 C   0  0  0  0  0  0
  -24.6401  -11.6907   20.8741 C   0  0  0  0  0  0
  -23.9068  -10.4291   21.0407 C   0  0  0  0  0  0
  -24.3618   -9.4205   21.9186 C   0  0  0  0  0  0
  -23.6292   -8.2241   22.0755 C   0  0  0  0  0  0
  -22.4275   -8.0280   21.3543 C   0  0  0  0  0  0
  -21.9909   -9.0255   20.4647 C   0  0  0  0  0  0
  -22.7237  -10.2136   20.3058 C   0  0  0  0  0  0
  -21.6853   -6.0734   22.5277 C   0  0  0  0  0  0
  -21.4013   -6.5638   23.8211 C   0  0  0  0  0  0
  -21.3661   -5.6792   24.9174 C   0  0  0  0  0  0
  -21.6046   -4.3055   24.7226 C   0  0  0  0  0  0
  -21.8819   -3.8144   23.4347 C   0  0  0  0  0  0
  -21.9194   -4.6961   22.3402 C   0  0  0  0  0  0
  -22.7851  -13.5229   21.1858 C   0  0  0  0  0  0
  -22.1663   -4.2146   21.0980 F   0  0  0  0  0  0
  -21.5630   -3.4539   25.7739 F   0  0  0  0  0  0
  -30.0028  -13.4861   20.4307 N   0  0  0  0  0  0
  -26.2984  -12.9356   20.3309 N   0  0  0  0  0  0
  -25.9333  -11.6509   20.5755 N   0  0  0  0  0  0
  -22.0493  -12.8223   22.0415 N   0  0  0  0  0  0
  -25.4275  -15.1895   20.4100 N   0  0  0  0  0  0
  -31.7264  -14.9244   20.0924 O   0  0  0  0  0  0
  -21.6639   -6.8876   21.4239 O   0  0  0  0  0  0
  -22.3536  -14.5535   20.6704 O   0  0  0  0  0  0
  -24.6314  -31.8549   23.1984 C   0  0  0  0  0  0
  -25.9134  -32.4756   23.8333 C   0  0  1  0  0  0
  -27.2250  -27.2670   20.1294 C   0  0  0  0  0  0
  -25.5927  -33.8558   24.2257 N   0  0  0  0  0  0
  -23.4299  -30.4768   21.5412 C   0  0  2  0  0  0
  -24.8813  -28.9255   20.1089 C   0  0  0  0  0  0
  -22.7508  -29.4598   22.4904 C   0  0  0  0  0  0
  -18.0293  -28.1387   22.8484 C   0  0  0  0  0  0
  -24.1489  -36.7287   23.2640 C   0  0  0  0  0  0
  -25.9762  -30.7685   21.3801 C   0  0  0  0  0  0
  -26.0527  -29.3913   20.7223 C   0  0  0  0  0  0
  -27.2303  -28.5734   20.7248 C   0  0  0  0  0  0
  -26.0356  -26.8726   19.4803 C   0  0  0  0  0  0
  -24.8772  -27.6731   19.4764 C   0  0  0  0  0  0
  -23.6501  -29.8107   20.1576 C   0  0  0  0  0  0
  -25.4115  -36.3072   24.0326 C   0  0  1  0  0  0
  -20.5898  -28.3700   23.1263 C   0  0  2  0  0  0
  -20.6781  -26.9416   22.5405 C   0  0  0  0  0  0
  -19.5756  -26.6381   21.5211 C   0  0  0  0  0  0
  -18.1937  -26.7927   22.1628 C   0  0  0  0  0  0
  -19.1547  -28.8861   23.2868 C   0  0  0  0  0  0
  -18.9469  -30.1460   23.8888 C   0  0  0  0  0  0
  -17.6468  -30.6588   24.0562 C   0  0  0  0  0  0
  -25.9054  -34.9440   23.5096 C   0  0  0  0  0  0
  -16.5358  -29.9085   23.6332 C   0  0  0  0  0  0
  -16.7280  -28.6503   23.0354 C   0  0  0  0  0  0
  -26.4501  -31.6579   25.0723 C   0  0  0  0  0  0
  -25.3721  -31.3735   26.1441 C   0  0  0  0  0  0
  -27.0351  -30.2993   24.6217 C   0  0  0  0  0  0
  -27.6049  -32.4325   25.7499 C   0  0  0  0  0  0
  -27.5577  -37.1802   24.8467 C   0  0  0  0  0  0
  -21.4213  -29.3046   22.3649 N   0  0  0  0  0  0
  -26.4294  -37.3768   23.9402 N   0  0  0  0  0  0
  -24.6980  -31.0509   22.0963 N   0  0  0  0  0  0
  -23.4201  -28.8136   23.3008 O   0  0  0  0  0  0
  -28.2753  -26.3204   20.1787 O   0  0  0  0  0  0
  -26.5632  -34.8914   22.4668 O   0  0  0  0  0  0
  -23.5459  -32.1370   23.7272 O   0  0  0  0  0  0
  -28.4147  -19.3382   21.3791 C   0  0  0  0  0  0
  -28.6190  -17.9253   21.4410 C   0  0  0  0  0  0
  -30.5052  -18.1406   20.0189 C   0  0  0  0  0  0
  -29.2142  -20.2597   20.6377 C   0  0  0  0  0  0
  -29.6714  -17.2542   20.7664 C   0  0  0  0  0  0
  -30.2800  -19.5711   19.9586 C   0  0  0  0  0  0
  -28.4329  -23.7445   20.6059 C   0  0  0  0  0  0
  -27.9293  -22.5503   21.2765 C   0  0  0  0  0  0
  -27.9469  -25.0473   20.7329 C   0  0  0  0  0  0
  -29.4929  -22.8503   19.8929 C   0  0  0  0  0  0
  -28.8819  -21.7191   20.6560 N   0  0  0  0  0  0
  -29.7268  -15.7694   20.8755 N   0  0  0  0  0  0
  -27.0121  -22.4075   22.0586 O   0  0  0  0  0  0
  -31.1316  -20.3109   19.2077 F   0  0  0  0  0  0
  -31.4873  -12.6086   19.1603 H   0  0  0  0  0  0
  -30.4187  -11.4666   19.9261 H   0  0  0  0  0  0
  -29.7977  -11.7565   17.5082 H   0  0  0  0  0  0
  -29.6392  -13.4802   17.7325 H   0  0  0  0  0  0
  -27.8950  -11.2863   18.8949 H   0  0  0  0  0  0
  -27.3838  -12.5451   17.8020 H   0  0  0  0  0  0
  -27.6590  -14.2508   19.5047 H   0  0  0  0  0  0
  -28.7335  -12.0856   21.3802 H   0  0  0  0  0  0
  -28.4237  -13.7328   21.8440 H   0  0  0  0  0  0
  -25.2766   -9.5679   22.4757 H   0  0  0  0  0  0
  -24.0002   -7.4631   22.7474 H   0  0  0  0  0  0
  -21.0839   -8.8773   19.8953 H   0  0  0  0  0  0
  -22.3696  -10.9675   19.6166 H   0  0  0  0  0  0
  -21.2003   -7.6146   23.9713 H   0  0  0  0  0  0
  -21.1484   -6.0523   25.9077 H   0  0  0  0  0  0
  -22.0597   -2.7606   23.2849 H   0  0  0  0  0  0
  -22.4110  -11.9886   22.4805 H   0  0  0  0  0  0
  -21.1109  -13.1249   22.2618 H   0  0  0  0  0  0
  -24.6575  -15.8417   20.5111 H   0  0  0  0  0  0
  -26.2692  -15.6257   20.0557 H   0  0  0  0  0  0
  -26.7202  -32.5412   23.1077 H   0  0  0  0  0  0
  -25.0057  -33.9692   25.0390 H   0  0  0  0  0  0
  -22.7266  -31.2991   21.3942 H   0  0  0  0  0  0
  -23.3747  -35.9625   23.3312 H   0  0  0  0  0  0
  -24.3575  -36.8900   22.2053 H   0  0  0  0  0  0
  -23.7250  -37.6494   23.6659 H   0  0  0  0  0  0
  -26.1149  -31.5293   20.6105 H   0  0  0  0  0  0
  -26.8530  -30.8180   22.0142 H   0  0  0  0  0  0
  -28.1244  -28.9185   21.2249 H   0  0  0  0  0  0
  -25.9906  -25.9060   18.9985 H   0  0  0  0  0  0
  -23.9820  -27.3108   18.9898 H   0  0  0  0  0  0
  -23.7730  -30.5874   19.4019 H   0  0  0  0  0  0
  -22.7692  -29.2432   19.8524 H   0  0  0  0  0  0
  -25.1299  -36.1923   25.0821 H   0  0  0  0  0  0
  -20.9994  -28.3282   24.1382 H   0  0  0  0  0  0
  -20.5678  -26.2313   23.3613 H   0  0  0  0  0  0
  -21.6649  -26.7436   22.1201 H   0  0  0  0  0  0
  -19.6918  -25.6290   21.1246 H   0  0  0  0  0  0
  -19.6690  -27.3187   20.6737 H   0  0  0  0  0  0
  -17.4204  -26.6666   21.4035 H   0  0  0  0  0  0
  -18.0347  -26.0071   22.9028 H   0  0  0  0  0  0
  -19.7944  -30.7279   24.2254 H   0  0  0  0  0  0
  -17.5022  -31.6267   24.5165 H   0  0  0  0  0  0
  -15.5359  -30.2987   23.7655 H   0  0  0  0  0  0
  -15.8680  -28.0818   22.7075 H   0  0  0  0  0  0
  -24.5883  -30.7104   25.7763 H   0  0  0  0  0  0
  -24.8932  -32.2912   26.4868 H   0  0  0  0  0  0
  -25.8030  -30.8900   27.0218 H   0  0  0  0  0  0
  -26.2942  -29.6738   24.1227 H   0  0  0  0  0  0
  -27.4010  -29.7259   25.4744 H   0  0  0  0  0  0
  -27.8829  -30.4260   23.9480 H   0  0  0  0  0  0
  -27.2645  -33.3622   26.2070 H   0  0  0  0  0  0
  -28.3863  -32.6891   25.0335 H   0  0  0  0  0  0
  -28.0714  -31.8458   26.5423 H   0  0  0  0  0  0
  -28.2605  -38.0089   24.7496 H   0  0  0  0  0  0
  -28.1064  -36.2619   24.6320 H   0  0  0  0  0  0
  -27.2292  -37.1482   25.8870 H   0  0  0  0  0  0
  -20.9399  -29.8771   21.6856 H   0  0  0  0  0  0
  -26.0176  -38.2846   24.1388 H   0  0  0  0  0  0
  -27.5767  -19.7268   21.9396 H   0  0  0  0  0  0
  -27.9237  -17.3468   22.0337 H   0  0  0  0  0  0
  -31.3323  -17.7308   19.4585 H   0  0  0  0  0  0
  -27.1165  -25.1720   21.4163 H   0  0  0  0  0  0
  -30.5402  -22.9998   20.1597 H   0  0  0  0  0  0
  -29.3912  -22.7119   18.8152 H   0  0  0  0  0  0
  -28.8841  -15.3800   21.2699 H   0  0  0  0  0  0
  1 25  1  0  0  0
  1 30  2  0  0  0
  1 82  1  0  0  0
  2  3  1  0  0  0
  2 25  1  0  0  0
  2 85  1  0  0  0
  2 86  1  0  0  0
  3  4  1  0  0  0
  3 87  1  0  0  0
  3 88  1  0  0  0
  4  5  1  0  0  0
  4 89  1  0  0  0
  4 90  1  0  0  0
  5  6  1  0  0  0
  5 26  1  0  0  0
  5 91  1  0  0  0
  6 25  1  0  0  0
  6 92  1  0  0  0
  6 93  1  0  0  0
  7  8  2  0  0  0
  7 26  1  0  0  0
  7 29  1  0  0  0
  8  9  1  0  0  0
  8 22  1  0  0  0
  9 10  1  0  0  0
  9 27  2  0  0  0
 10 11  2  0  0  0
 10 15  1  0  0  0
 11 12  1  0  0  0
 11 94  1  0  0  0
 12 13  2  0  0  0
 12 95  1  0  0  0
 13 14  1  0  0  0
 13 31  1  0  0  0
 14 15  2  0  0  0
 14 96  1  0  0  0
 15 97  1  0  0  0
 16 17  2  0  0  0
 16 21  1  0  0  0
 16 31  1  0  0  0
 17 18  1  0  0  0
 17 98  1  0  0  0
 18 19  2  0  0  0
 18 99  1  0  0  0
 19 20  1  0  0  0
 19 24  1  0  0  0
 20 21  2  0  0  0
 20100  1  0  0  0
 21 23  1  0  0  0
 22 28  1  0  0  0
 22 32  2  0  0  0
 26 27  1  0  0  0
 28101  1  0  0  0
 28102  1  0  0  0
 29103  1  0  0  0
 29104  1  0  0  0
 33 34  1  0  0  0
 33 66  1  0  0  0
 33 70  2  0  0  0
 34 36  1  0  0  0
 34 59  1  0  0  0
 34105  1  0  0  0
 35 44  2  0  0  0
 35 45  1  0  0  0
 35 68  1  0  0  0
 36 56  1  0  0  0
 36106  1  0  0  0
 37 39  1  0  0  0
 37 47  1  0  0  0
 37 66  1  0  0  0
 37107  1  0  0  0
 38 43  2  0  0  0
 38 46  1  0  0  0
 38 47  1  0  0  0
 39 64  1  0  0  0
 39 67  2  0  0  0
 40 52  1  0  0  0
 40 53  2  0  0  0
 40 58  1  0  0  0
 41108  1  0  0  0
 41109  1  0  0  0
 41110  1  0  0  0
 41 48  1  0  0  0
 42 43  1  0  0  0
 42 66  1  0  0  0
 42111  1  0  0  0
 42112  1  0  0  0
 43 44  1  0  0  0
 44113  1  0  0  0
 45 46  2  0  0  0
 45114  1  0  0  0
 46115  1  0  0  0
 47116  1  0  0  0
 47117  1  0  0  0
 48 56  1  0  0  0
 48 65  1  0  0  0
 48118  1  0  0  0
 49 50  1  0  0  0
 49 53  1  0  0  0
 49 64  1  0  0  0
 49119  1  0  0  0
 50 51  1  0  0  0
 50120  1  0  0  0
 50121  1  0  0  0
 51 52  1  0  0  0
 51122  1  0  0  0
 51123  1  0  0  0
 52124  1  0  0  0
 52125  1  0  0  0
 53 54  1  0  0  0
 54 55  2  0  0  0
 54126  1  0  0  0
 55 57  1  0  0  0
 55127  1  0  0  0
 56 69  2  0  0  0
 57 58  2  0  0  0
 57128  1  0  0  0
 58129  1  0  0  0
 59 60  1  0  0  0
 59 61  1  0  0  0
 59 62  1  0  0  0
 60130  1  0  0  0
 60131  1  0  0  0
 60132  1  0  0  0
 61133  1  0  0  0
 61134  1  0  0  0
 61135  1  0  0  0
 62136  1  0  0  0
 62137  1  0  0  0
 62138  1  0  0  0
 63 65  1  0  0  0
 63139  1  0  0  0
 63140  1  0  0  0
 63141  1  0  0  0
 64142  1  0  0  0
 65143  1  0  0  0
 68 79  1  0  0  0
 71 72  2  0  0  0
 71 74  1  0  0  0
 71144  1  0  0  0
 72 75  1  0  0  0
 72145  1  0  0  0
 73 75  2  0  0  0
 73 76  1  0  0  0
 73146  1  0  0  0
 74 76  2  0  0  0
 74 81  1  0  0  0
 75 82  1  0  0  0
 76 84  1  0  0  0
 77 78  1  0  0  0
 77 79  2  0  0  0
 77 80  1  0  0  0
 78 81  1  0  0  0
 78 83  2  0  0  0
 79147  1  0  0  0
 80 81  1  0  0  0
 80148  1  0  0  0
 80149  1  0  0  0
 82150  1  0  0  0
M  ISO  4   1 100  68 101  79 101  82 100
M  END
> <chiral flag>
0

> <version>
0

> <s_m_source_file>
/data/baiqing/PycharmProjects/Reinvent-master-3.2/result/LINK_invent/BTK/process_docking_weight1_custom_product_contain_oxygen_bond_distance_aromatic_linkinvent_7_9_3/rearranged_h_0083.sdf

> <i_m_source_file_index>
22

> <r_mmod_Potential_Energy-OPLS-2005>
227.970703125

> <r_mmod_Stretch_Energy-OPLS-2005>
107.681640625

> <r_mmod_Bend_Energy-OPLS-2005>
270.576690673828

> <r_mmod_Torsional_Energy-OPLS-2005>
220.03254699707

> <r_mmod_Improper_Torsional_Energy-OPLS-2005>
3.48363852500916

> <r_mmod_Van_der_Waal_Energy-OPLS-2005>
134.12727355957

> <r_mmod_Electrostatic_Energy-OPLS-2005>
-381.995819091797

> <r_mmod_Solvation_Energy-OPLS-2005>
-213.960922241211

> <b_mmod_Minimization_Converged-OPLS-2005>
0

> <r_mmod_RMS_Derivative-OPLS-2005>
0.390327841043472

$$$$
22
                    3D
 Structure written by MMmdl.
157166  0  0  1  0            999 V2000
  -30.5982  -14.7883   20.4474 C   0  0  0  0  0  0
  -30.4267  -12.4794   19.4868 C   0  0  0  0  0  0
  -29.5055  -12.5095   18.2450 C   0  0  0  0  0  0
  -28.0352  -12.3306   18.6615 C   0  0  0  0  0  0
  -27.6379  -13.2406   19.8531 C   0  0  2  0  0  0
  -28.6817  -13.1905   20.9931 C   0  0  0  0  0  0
  -25.2457  -13.8218   20.5732 C   0  0  0  0  0  0
  -24.1770  -13.0417   20.9231 C   0  0  0  0  0  0
  -24.6405  -11.6917   20.8778 C   0  0  0  0  0  0
  -23.9090  -10.4295   21.0435 C   0  0  0  0  0  0
  -24.3632   -9.4201   21.9199 C   0  0  0  0  0  0
  -23.6310   -8.2228   22.0766 C   0  0  0  0  0  0
  -22.4283   -8.0287   21.3563 C   0  0  0  0  0  0
  -21.9953   -9.0253   20.4639 C   0  0  0  0  0  0
  -22.7282  -10.2134   20.3065 C   0  0  0  0  0  0
  -21.6859   -6.0752   22.5304 C   0  0  0  0  0  0
  -21.4018   -6.5652   23.8244 C   0  0  0  0  0  0
  -21.3643   -5.6800   24.9200 C   0  0  0  0  0  0
  -21.6052   -4.3069   24.7254 C   0  0  0  0  0  0
  -21.8809   -3.8155   23.4375 C   0  0  0  0  0  0
  -21.9193   -4.6974   22.3434 C   0  0  0  0  0  0
  -22.7788  -13.5178   21.1863 C   0  0  0  0  0  0
  -22.1655   -4.2151   21.1018 F   0  0  0  0  0  0
  -21.5609   -3.4550   25.7765 F   0  0  0  0  0  0
  -29.9852  -13.5496   20.4195 N   0  0  0  0  0  0
  -26.2906  -12.9449   20.3315 N   0  0  0  0  0  0
  -25.9339  -11.6576   20.5779 N   0  0  0  0  0  0
  -22.0438  -12.8142   22.0418 N   0  0  0  0  0  0
  -25.4057  -15.1947   20.4186 N   0  0  0  0  0  0
  -31.7659  -14.8870   20.0575 O   0  0  0  0  0  0
  -21.6635   -6.8895   21.4277 O   0  0  0  0  0  0
  -22.3468  -14.5491   20.6722 O   0  0  0  0  0  0
  -24.6373  -31.8494   23.1988 C   0  0  0  0  0  0
  -25.9183  -32.4737   23.8326 C   0  0  1  0  0  0
  -27.2249  -27.2087   20.1394 C   0  0  0  0  0  0
  -25.5968  -33.8545   24.2257 N   0  0  0  0  0  0
  -23.4340  -30.4740   21.5435 C   0  0  2  0  0  0
  -24.8844  -28.9132   20.1165 C   0  0  0  0  0  0
  -22.7509  -29.4579   22.4907 C   0  0  0  0  0  0
  -18.0273  -28.1378   22.8476 C   0  0  0  0  0  0
  -24.1485  -36.7243   23.2633 C   0  0  0  0  0  0
  -25.9867  -30.7446   21.3867 C   0  0  0  0  0  0
  -26.0579  -29.3626   20.7326 C   0  0  0  0  0  0
  -27.2252  -28.5227   20.7383 C   0  0  0  0  0  0
  -26.0291  -26.8571   19.4660 C   0  0  0  0  0  0
  -24.8765  -27.6674   19.4751 C   0  0  0  0  0  0
  -23.6568  -29.8055   20.1613 C   0  0  0  0  0  0
  -25.4107  -36.3035   24.0325 C   0  0  1  0  0  0
  -20.5890  -28.3693   23.1247 C   0  0  2  0  0  0
  -20.6776  -26.9408   22.5393 C   0  0  0  0  0  0
  -19.5752  -26.6375   21.5192 C   0  0  0  0  0  0
  -18.1922  -26.7917   22.1600 C   0  0  0  0  0  0
  -19.1540  -28.8852   23.2851 C   0  0  0  0  0  0
  -18.9470  -30.1459   23.8861 C   0  0  0  0  0  0
  -17.6477  -30.6589   24.0546 C   0  0  0  0  0  0
  -25.9076  -34.9424   23.5085 C   0  0  0  0  0  0
  -16.5358  -29.9079   23.6352 C   0  0  0  0  0  0
  -16.7266  -28.6495   23.0366 C   0  0  0  0  0  0
  -26.4540  -31.6567   25.0727 C   0  0  0  0  0  0
  -25.3762  -31.3718   26.1449 C   0  0  0  0  0  0
  -27.0429  -30.2981   24.6242 C   0  0  0  0  0  0
  -27.6073  -32.4326   25.7517 C   0  0  0  0  0  0
  -27.5562  -37.1774   24.8457 C   0  0  0  0  0  0
  -21.4212  -29.3028   22.3636 N   0  0  0  0  0  0
  -26.4257  -37.3751   23.9415 N   0  0  0  0  0  0
  -24.7059  -31.0431   22.0985 N   0  0  0  0  0  0
  -23.4182  -28.8105   23.3006 O   0  0  0  0  0  0
  -28.3168  -26.2867   20.2069 O   0  0  0  0  0  0
  -26.5644  -34.8907   22.4640 O   0  0  0  0  0  0
  -23.5513  -32.1341   23.7261 O   0  0  0  0  0  0
  -29.3667  -18.4092   17.9927 C   0  0  0  0  0  0
  -29.2783  -19.6732   18.6109 C   0  0  0  0  0  0
  -29.6141  -17.2347   18.7271 C   0  0  0  0  0  0
  -29.6728  -18.5905   20.7505 C   0  0  0  0  0  0
  -29.4337  -19.8413   20.0079 C   0  0  0  0  0  0
  -29.7694  -17.2595   20.1287 C   0  0  0  0  0  0
  -29.0091  -23.7887   20.4072 C   0  0  0  0  0  0
  -28.6390  -22.3368   20.0734 C   0  0  0  0  0  0
  -31.1696  -22.8073   21.3673 C   0  0  0  0  0  0
  -32.5125  -22.8114   21.4163 C   0  0  0  0  0  0
  -28.1527  -24.8511   20.0849 C   0  0  0  0  0  0
  -30.3700  -24.0650   21.0502 C   0  0  0  0  0  0
  -30.3540  -21.5528   21.6389 C   0  0  0  0  0  0
  -29.4291  -21.2605   20.5395 N   0  0  0  0  0  0
  -29.8690  -15.9258   20.8047 N   0  0  0  0  0  0
  -27.6385  -22.0926   19.3913 O   0  0  0  0  0  0
  -31.4658  -12.5968   19.1757 H   0  0  0  0  0  0
  -30.3702  -11.5053   19.9740 H   0  0  0  0  0  0
  -29.7873  -11.7192   17.5483 H   0  0  0  0  0  0
  -29.6280  -13.4532   17.7091 H   0  0  0  0  0  0
  -27.8958  -11.2851   18.9379 H   0  0  0  0  0  0
  -27.3782  -12.5048   17.8091 H   0  0  0  0  0  0
  -27.6250  -14.2597   19.4660 H   0  0  0  0  0  0
  -28.7121  -12.1975   21.4437 H   0  0  0  0  0  0
  -28.4069  -13.8769   21.7924 H   0  0  0  0  0  0
  -25.2769   -9.5672   22.4769 H   0  0  0  0  0  0
  -24.0017   -7.4622   22.7504 H   0  0  0  0  0  0
  -21.0890   -8.8800   19.8917 H   0  0  0  0  0  0
  -22.3770  -10.9689   19.6180 H   0  0  0  0  0  0
  -21.2024   -7.6168   23.9745 H   0  0  0  0  0  0
  -21.1460   -6.0540   25.9097 H   0  0  0  0  0  0
  -22.0598   -2.7611   23.2899 H   0  0  0  0  0  0
  -22.4077  -11.9841   22.4861 H   0  0  0  0  0  0
  -21.1033  -13.1134   22.2548 H   0  0  0  0  0  0
  -24.6245  -15.8325   20.5253 H   0  0  0  0  0  0
  -26.2447  -15.6511   20.0852 H   0  0  0  0  0  0
  -26.7230  -32.5369   23.1046 H   0  0  0  0  0  0
  -25.0154  -33.9653   25.0441 H   0  0  0  0  0  0
  -22.7325  -31.2989   21.3940 H   0  0  0  0  0  0
  -23.3773  -35.9552   23.3276 H   0  0  0  0  0  0
  -24.3541  -36.8909   22.2042 H   0  0  0  0  0  0
  -23.7227  -37.6425   23.6691 H   0  0  0  0  0  0
  -26.1315  -31.4956   20.6099 H   0  0  0  0  0  0
  -26.8643  -30.7943   22.0185 H   0  0  0  0  0  0
  -28.1190  -28.8618   21.2415 H   0  0  0  0  0  0
  -25.9363  -25.9292   18.9257 H   0  0  0  0  0  0
  -23.9803  -27.3202   18.9787 H   0  0  0  0  0  0
  -23.7851  -30.5823   19.4068 H   0  0  0  0  0  0
  -22.7744  -29.2421   19.8520 H   0  0  0  0  0  0
  -25.1286  -36.1860   25.0825 H   0  0  0  0  0  0
  -20.9966  -28.3290   24.1366 H   0  0  0  0  0  0
  -20.5661  -26.2311   23.3594 H   0  0  0  0  0  0
  -21.6649  -26.7398   22.1223 H   0  0  0  0  0  0
  -19.6934  -25.6285   21.1227 H   0  0  0  0  0  0
  -19.6720  -27.3174   20.6719 H   0  0  0  0  0  0
  -17.4202  -26.6662   21.3990 H   0  0  0  0  0  0
  -18.0328  -26.0053   22.8991 H   0  0  0  0  0  0
  -19.7948  -30.7280   24.2226 H   0  0  0  0  0  0
  -17.5030  -31.6263   24.5150 H   0  0  0  0  0  0
  -15.5365  -30.2978   23.7700 H   0  0  0  0  0  0
  -15.8657  -28.0807   22.7113 H   0  0  0  0  0  0
  -24.5967  -30.7016   25.7790 H   0  0  0  0  0  0
  -24.8924  -32.2899   26.4800 H   0  0  0  0  0  0
  -25.8102  -30.8962   27.0261 H   0  0  0  0  0  0
  -26.3040  -29.6695   24.1246 H   0  0  0  0  0  0
  -27.4099  -29.7257   25.4777 H   0  0  0  0  0  0
  -27.8928  -30.4268   23.9530 H   0  0  0  0  0  0
  -27.2659  -33.3653   26.2013 H   0  0  0  0  0  0
  -28.3933  -32.6834   25.0385 H   0  0  0  0  0  0
  -28.0678  -31.8499   26.5506 H   0  0  0  0  0  0
  -28.2564  -38.0095   24.7544 H   0  0  0  0  0  0
  -28.1103  -36.2627   24.6264 H   0  0  0  0  0  0
  -27.2281  -37.1376   25.8866 H   0  0  0  0  0  0
  -20.9426  -29.8739   21.6817 H   0  0  0  0  0  0
  -26.0141  -38.2816   24.1483 H   0  0  0  0  0  0
  -29.2436  -18.3432   16.9205 H   0  0  0  0  0  0
  -29.1124  -20.5309   17.9744 H   0  0  0  0  0  0
  -29.6444  -16.2955   18.1908 H   0  0  0  0  0  0
  -29.7786  -18.6542   21.8242 H   0  0  0  0  0  0
  -33.0827  -23.7088   21.2248 H   0  0  0  0  0  0
  -33.0735  -21.9199   21.6606 H   0  0  0  0  0  0
  -27.2121  -24.5890   19.6342 H   0  0  0  0  0  0
  -30.2106  -24.6063   21.9841 H   0  0  0  0  0  0
  -30.9524  -24.7212   20.3994 H   0  0  0  0  0  0
  -29.7824  -21.6913   22.5572 H   0  0  0  0  0  0
  -31.0312  -20.7161   21.8139 H   0  0  0  0  0  0
  -29.0740  -15.7140   21.3896 H   0  0  0  0  0  0
  1 25  1  0  0  0
  1 30  2  0  0  0
  1 85  1  0  0  0
  2  3  1  0  0  0
  2 25  1  0  0  0
  2 87  1  0  0  0
  2 88  1  0  0  0
  3  4  1  0  0  0
  3 89  1  0  0  0
  3 90  1  0  0  0
  4  5  1  0  0  0
  4 91  1  0  0  0
  4 92  1  0  0  0
  5  6  1  0  0  0
  5 26  1  0  0  0
  5 93  1  0  0  0
  6 25  1  0  0  0
  6 94  1  0  0  0
  6 95  1  0  0  0
  7  8  2  0  0  0
  7 26  1  0  0  0
  7 29  1  0  0  0
  8  9  1  0  0  0
  8 22  1  0  0  0
  9 10  1  0  0  0
  9 27  2  0  0  0
 10 11  2  0  0  0
 10 15  1  0  0  0
 11 12  1  0  0  0
 11 96  1  0  0  0
 12 13  2  0  0  0
 12 97  1  0  0  0
 13 14  1  0  0  0
 13 31  1  0  0  0
 14 15  2  0  0  0
 14 98  1  0  0  0
 15 99  1  0  0  0
 16 17  2  0  0  0
 16 21  1  0  0  0
 16 31  1  0  0  0
 17 18  1  0  0  0
 17100  1  0  0  0
 18 19  2  0  0  0
 18101  1  0  0  0
 19 20  1  0  0  0
 19 24  1  0  0  0
 20 21  2  0  0  0
 20102  1  0  0  0
 21 23  1  0  0  0
 22 28  1  0  0  0
 22 32  2  0  0  0
 26 27  1  0  0  0
 28103  1  0  0  0
 28104  1  0  0  0
 29105  1  0  0  0
 29106  1  0  0  0
 33 34  1  0  0  0
 33 66  1  0  0  0
 33 70  2  0  0  0
 34 36  1  0  0  0
 34 59  1  0  0  0
 34107  1  0  0  0
 35 44  2  0  0  0
 35 45  1  0  0  0
 35 68  1  0  0  0
 36 56  1  0  0  0
 36108  1  0  0  0
 37 39  1  0  0  0
 37 47  1  0  0  0
 37 66  1  0  0  0
 37109  1  0  0  0
 38 43  2  0  0  0
 38 46  1  0  0  0
 38 47  1  0  0  0
 39 64  1  0  0  0
 39 67  2  0  0  0
 40 52  1  0  0  0
 40 53  2  0  0  0
 40 58  1  0  0  0
 41110  1  0  0  0
 41111  1  0  0  0
 41112  1  0  0  0
 41 48  1  0  0  0
 42 43  1  0  0  0
 42 66  1  0  0  0
 42113  1  0  0  0
 42114  1  0  0  0
 43 44  1  0  0  0
 44115  1  0  0  0
 45 46  2  0  0  0
 45116  1  0  0  0
 46117  1  0  0  0
 47118  1  0  0  0
 47119  1  0  0  0
 48 56  1  0  0  0
 48 65  1  0  0  0
 48120  1  0  0  0
 49 50  1  0  0  0
 49 53  1  0  0  0
 49 64  1  0  0  0
 49121  1  0  0  0
 50 51  1  0  0  0
 50122  1  0  0  0
 50123  1  0  0  0
 51 52  1  0  0  0
 51124  1  0  0  0
 51125  1  0  0  0
 52126  1  0  0  0
 52127  1  0  0  0
 53 54  1  0  0  0
 54 55  2  0  0  0
 54128  1  0  0  0
 55 57  1  0  0  0
 55129  1  0  0  0
 56 69  2  0  0  0
 57 58  2  0  0  0
 57130  1  0  0  0
 58131  1  0  0  0
 59 60  1  0  0  0
 59 61  1  0  0  0
 59 62  1  0  0  0
 60132  1  0  0  0
 60133  1  0  0  0
 60134  1  0  0  0
 61135  1  0  0  0
 61136  1  0  0  0
 61137  1  0  0  0
 62138  1  0  0  0
 62139  1  0  0  0
 62140  1  0  0  0
 63 65  1  0  0  0
 63141  1  0  0  0
 63142  1  0  0  0
 63143  1  0  0  0
 64144  1  0  0  0
 65145  1  0  0  0
 68 81  1  0  0  0
 71 72  2  0  0  0
 71 73  1  0  0  0
 71146  1  0  0  0
 72 75  1  0  0  0
 72147  1  0  0  0
 73 76  2  0  0  0
 73148  1  0  0  0
 74 75  2  0  0  0
 74 76  1  0  0  0
 74149  1  0  0  0
 75 84  1  0  0  0
 76 85  1  0  0  0
 77 78  1  0  0  0
 77 81  2  0  0  0
 77 82  1  0  0  0
 78 84  1  0  0  0
 78 86  2  0  0  0
 79 80  2  0  0  0
 79 82  1  0  0  0
 79 83  1  0  0  0
 80150  1  0  0  0
 80151  1  0  0  0
 81152  1  0  0  0
 82153  1  0  0  0
 82154  1  0  0  0
 83 84  1  0  0  0
 83155  1  0  0  0
 83156  1  0  0  0
 85157  1  0  0  0
M  ISO  4   1 100  68 101  81 101  85 100
M  END
> <chiral flag>
0

> <version>
0

> <s_m_source_file>
/data/baiqing/PycharmProjects/Reinvent-master-3.2/result/LINK_invent/BTK/process_docking_weight1_custom_product_contain_oxygen_bond_distance_aromatic_linkinvent_7_9_3/rearranged_h_0083.sdf

> <i_m_source_file_index>
23

> <r_mmod_Potential_Energy-OPLS-2005>
363.910461425781

> <r_mmod_Stretch_Energy-OPLS-2005>
165.546951293945

> <r_mmod_Bend_Energy-OPLS-2005>
173.438415527344

> <r_mmod_Torsional_Energy-OPLS-2005>
293.623748779297

> <r_mmod_Improper_Torsional_Energy-OPLS-2005>
4.86868762969971

> <r_mmod_Van_der_Waal_Energy-OPLS-2005>
156.760269165039

> <r_mmod_Electrostatic_Energy-OPLS-2005>
-328.052917480469

> <r_mmod_Solvation_Energy-OPLS-2005>
-212.746627807617

> <b_mmod_Minimization_Converged-OPLS-2005>
0

> <r_mmod_RMS_Derivative-OPLS-2005>
3.41902709007263

$$$$
23
                    3D
 Structure written by MMmdl.
153162  0  0  1  0            999 V2000
  -30.5610  -14.7790   20.4633 C   0  0  0  0  0  0
  -30.4471  -12.4740   19.4775 C   0  0  0  0  0  0
  -29.5173  -12.5190   18.2418 C   0  0  0  0  0  0
  -28.0437  -12.3325   18.6538 C   0  0  0  0  0  0
  -27.6478  -13.2267   19.8584 C   0  0  2  0  0  0
  -28.6915  -13.1385   20.9945 C   0  0  0  0  0  0
  -25.2540  -13.8182   20.5691 C   0  0  0  0  0  0
  -24.1821  -13.0437   20.9200 C   0  0  0  0  0  0
  -24.6406  -11.6913   20.8749 C   0  0  0  0  0  0
  -23.9076  -10.4293   21.0407 C   0  0  0  0  0  0
  -24.3625   -9.4204   21.9184 C   0  0  0  0  0  0
  -23.6296   -8.2241   22.0756 C   0  0  0  0  0  0
  -22.4276   -8.0285   21.3544 C   0  0  0  0  0  0
  -21.9916   -9.0261   20.4649 C   0  0  0  0  0  0
  -22.7249  -10.2138   20.3056 C   0  0  0  0  0  0
  -21.6852   -6.0739   22.5278 C   0  0  0  0  0  0
  -21.4015   -6.5643   23.8210 C   0  0  0  0  0  0
  -21.3657   -5.6796   24.9173 C   0  0  0  0  0  0
  -21.6041   -4.3059   24.7222 C   0  0  0  0  0  0
  -21.8820   -3.8151   23.4344 C   0  0  0  0  0  0
  -21.9192   -4.6967   22.3402 C   0  0  0  0  0  0
  -22.7841  -13.5223   21.1855 C   0  0  0  0  0  0
  -22.1660   -4.2153   21.0979 F   0  0  0  0  0  0
  -21.5626   -3.4542   25.7733 F   0  0  0  0  0  0
  -29.9938  -13.5198   20.4261 N   0  0  0  0  0  0
  -26.2969  -12.9379   20.3305 N   0  0  0  0  0  0
  -25.9337  -11.6525   20.5764 N   0  0  0  0  0  0
  -22.0492  -12.8217   22.0420 N   0  0  0  0  0  0
  -25.4242  -15.1905   20.4098 N   0  0  0  0  0  0
  -31.7220  -14.9402   20.0718 O   0  0  0  0  0  0
  -21.6639   -6.8882   21.4239 O   0  0  0  0  0  0
  -22.3523  -14.5526   20.6699 O   0  0  0  0  0  0
  -24.6334  -31.8515   23.1948 C   0  0  0  0  0  0
  -25.9147  -32.4734   23.8304 C   0  0  1  0  0  0
  -27.2319  -27.2453   20.1186 C   0  0  0  0  0  0
  -25.5930  -33.8538   24.2229 N   0  0  0  0  0  0
  -23.4325  -30.4715   21.5381 C   0  0  2  0  0  0
  -24.8821  -28.9154   20.1042 C   0  0  0  0  0  0
  -22.7517  -29.4577   22.4898 C   0  0  0  0  0  0
  -18.0294  -28.1388   22.8484 C   0  0  0  0  0  0
  -24.1488  -36.7274   23.2640 C   0  0  0  0  0  0
  -25.9793  -30.7586   21.3768 C   0  0  0  0  0  0
  -26.0538  -29.3805   20.7144 C   0  0  0  0  0  0
  -27.2275  -28.5566   20.7127 C   0  0  0  0  0  0
  -26.0304  -26.8447   19.4936 C   0  0  0  0  0  0
  -24.8767  -27.6561   19.4827 C   0  0  0  0  0  0
  -23.6517  -29.8028   20.1546 C   0  0  0  0  0  0
  -25.4116  -36.3057   24.0322 C   0  0  1  0  0  0
  -20.5900  -28.3700   23.1265 C   0  0  2  0  0  0
  -20.6780  -26.9413   22.5411 C   0  0  0  0  0  0
  -19.5755  -26.6382   21.5216 C   0  0  0  0  0  0
  -18.1937  -26.7928   22.1628 C   0  0  0  0  0  0
  -19.1548  -28.8863   23.2867 C   0  0  0  0  0  0
  -18.9469  -30.1463   23.8887 C   0  0  0  0  0  0
  -17.6467  -30.6588   24.0563 C   0  0  0  0  0  0
  -25.9061  -34.9430   23.5083 C   0  0  0  0  0  0
  -16.5358  -29.9085   23.6331 C   0  0  0  0  0  0
  -16.7280  -28.6503   23.0352 C   0  0  0  0  0  0
  -26.4511  -31.6574   25.0708 C   0  0  0  0  0  0
  -25.3725  -31.3730   26.1420 C   0  0  0  0  0  0
  -27.0375  -30.2989   24.6218 C   0  0  0  0  0  0
  -27.6049  -32.4333   25.7487 C   0  0  0  0  0  0
  -27.5581  -37.1783   24.8461 C   0  0  0  0  0  0
  -21.4221  -29.3036   22.3646 N   0  0  0  0  0  0
  -26.4285  -37.3763   23.9416 N   0  0  0  0  0  0
  -24.7009  -31.0454   22.0931 N   0  0  0  0  0  0
  -23.4202  -28.8126   23.3018 O   0  0  0  0  0  0
  -28.3079  -26.3242   20.2463 O   0  0  0  0  0  0
  -26.5643  -34.8915   22.4659 O   0  0  0  0  0  0
  -23.5476  -32.1349   23.7226 O   0  0  0  0  0  0
  -28.8299  -19.5561   21.4629 C   0  0  0  0  0  0
  -30.0612  -19.5092   19.4683 C   0  0  0  0  0  0
  -28.9933  -18.1331   21.5971 C   0  0  0  0  0  0
  -30.2642  -18.0828   19.6008 C   0  0  0  0  0  0
  -29.3329  -20.3467   20.3839 C   0  0  0  0  0  0
  -29.7221  -17.3225   20.6782 C   0  0  0  0  0  0
  -28.7106  -23.8209   19.7852 C   0  0  0  0  0  0
  -28.7523  -22.9941   20.9992 C   0  0  0  0  0  0
  -28.4855  -25.1611   19.4322 C   0  0  0  0  0  0
  -29.0351  -22.5422   18.9613 C   0  0  0  0  0  0
  -28.5809  -25.5599   17.9672 C   0  0  0  0  0  0
  -29.1297  -21.8293   20.2528 N   0  0  0  0  0  0
  -29.7394  -15.8347   20.8454 N   0  0  0  0  0  0
  -28.5027  -23.2585   22.1575 O   0  0  0  0  0  0
  -31.4846  -12.6215   19.1730 H   0  0  0  0  0  0
  -30.4131  -11.4916   19.9516 H   0  0  0  0  0  0
  -29.8054  -11.7488   17.5249 H   0  0  0  0  0  0
  -29.6345  -13.4744   17.7284 H   0  0  0  0  0  0
  -27.9068  -11.2827   18.9153 H   0  0  0  0  0  0
  -27.3839  -12.5224   17.8062 H   0  0  0  0  0  0
  -27.6475  -14.2521   19.4879 H   0  0  0  0  0  0
  -28.7342  -12.1275   21.4021 H   0  0  0  0  0  0
  -28.4142  -13.7849   21.8281 H   0  0  0  0  0  0
  -25.2771   -9.5675   22.4759 H   0  0  0  0  0  0
  -24.0000   -7.4633   22.7480 H   0  0  0  0  0  0
  -21.0844   -8.8787   19.8957 H   0  0  0  0  0  0
  -22.3710  -10.9681   19.6169 H   0  0  0  0  0  0
  -21.2011   -7.6152   23.9716 H   0  0  0  0  0  0
  -21.1477   -6.0527   25.9076 H   0  0  0  0  0  0
  -22.0601   -2.7613   23.2843 H   0  0  0  0  0  0
  -22.4115  -11.9878   22.4798 H   0  0  0  0  0  0
  -21.1114  -13.1241   22.2635 H   0  0  0  0  0  0
  -24.6549  -15.8432   20.5125 H   0  0  0  0  0  0
  -26.2695  -15.6289   20.0667 H   0  0  0  0  0  0
  -26.7212  -32.5376   23.1041 H   0  0  0  0  0  0
  -25.0058  -33.9666   25.0361 H   0  0  0  0  0  0
  -22.7302  -31.2945   21.3897 H   0  0  0  0  0  0
  -23.3752  -35.9604   23.3295 H   0  0  0  0  0  0
  -24.3577  -36.8906   22.2056 H   0  0  0  0  0  0
  -23.7240  -37.6471   23.6673 H   0  0  0  0  0  0
  -26.1212  -31.5206   20.6092 H   0  0  0  0  0  0
  -26.8551  -30.8062   22.0125 H   0  0  0  0  0  0
  -28.1200  -28.9010   21.2157 H   0  0  0  0  0  0
  -25.9556  -25.8643   19.0469 H   0  0  0  0  0  0
  -23.9763  -27.2880   19.0101 H   0  0  0  0  0  0
  -23.7747  -30.5790   19.3985 H   0  0  0  0  0  0
  -22.7703  -29.2356   19.8503 H   0  0  0  0  0  0
  -25.1299  -36.1895   25.0813 H   0  0  0  0  0  0
  -20.9993  -28.3282   24.1386 H   0  0  0  0  0  0
  -20.5681  -26.2310   23.3619 H   0  0  0  0  0  0
  -21.6646  -26.7432   22.1205 H   0  0  0  0  0  0
  -19.6917  -25.6292   21.1248 H   0  0  0  0  0  0
  -19.6695  -27.3191   20.6745 H   0  0  0  0  0  0
  -17.4205  -26.6674   21.4031 H   0  0  0  0  0  0
  -18.0338  -26.0073   22.9030 H   0  0  0  0  0  0
  -19.7946  -30.7283   24.2249 H   0  0  0  0  0  0
  -17.5022  -31.6266   24.5171 H   0  0  0  0  0  0
  -15.5359  -30.2985   23.7661 H   0  0  0  0  0  0
  -15.8680  -28.0822   22.7069 H   0  0  0  0  0  0
  -24.5918  -30.7057   25.7751 H   0  0  0  0  0  0
  -24.8895  -32.2898   26.4806 H   0  0  0  0  0  0
  -25.8036  -30.8942   27.0219 H   0  0  0  0  0  0
  -26.2973  -29.6715   24.1235 H   0  0  0  0  0  0
  -27.4045  -29.7272   25.4752 H   0  0  0  0  0  0
  -27.8851  -30.4262   23.9479 H   0  0  0  0  0  0
  -27.2636  -33.3630   26.2050 H   0  0  0  0  0  0
  -28.3863  -32.6899   25.0323 H   0  0  0  0  0  0
  -28.0714  -31.8473   26.5415 H   0  0  0  0  0  0
  -28.2575  -38.0102   24.7539 H   0  0  0  0  0  0
  -28.1100  -36.2635   24.6247 H   0  0  0  0  0  0
  -27.2304  -37.1380   25.8863 H   0  0  0  0  0  0
  -20.9413  -29.8746   21.6835 H   0  0  0  0  0  0
  -26.0159  -38.2829   24.1442 H   0  0  0  0  0  0
  -28.2587  -20.0595   22.2302 H   0  0  0  0  0  0
  -30.5038  -19.9832   18.6039 H   0  0  0  0  0  0
  -28.5248  -17.6564   22.4469 H   0  0  0  0  0  0
  -30.8222  -17.5702   18.8295 H   0  0  0  0  0  0
  -29.9813  -22.5217   18.4185 H   0  0  0  0  0  0
  -28.2359  -22.1393   18.3368 H   0  0  0  0  0  0
  -27.6543  -25.3257   17.4434 H   0  0  0  0  0  0
  -29.3919  -25.0246   17.4728 H   0  0  0  0  0  0
  -28.7787  -26.6262   17.8557 H   0  0  0  0  0  0
  -28.9115  -15.4834   21.3031 H   0  0  0  0  0  0
  1 25  1  0  0  0
  1 30  2  0  0  0
  1 83  1  0  0  0
  2  3  1  0  0  0
  2 25  1  0  0  0
  2 85  1  0  0  0
  2 86  1  0  0  0
  3  4  1  0  0  0
  3 87  1  0  0  0
  3 88  1  0  0  0
  4  5  1  0  0  0
  4 89  1  0  0  0
  4 90  1  0  0  0
  5  6  1  0  0  0
  5 26  1  0  0  0
  5 91  1  0  0  0
  6 25  1  0  0  0
  6 92  1  0  0  0
  6 93  1  0  0  0
  7  8  2  0  0  0
  7 26  1  0  0  0
  7 29  1  0  0  0
  8  9  1  0  0  0
  8 22  1  0  0  0
  9 10  1  0  0  0
  9 27  2  0  0  0
 10 11  2  0  0  0
 10 15  1  0  0  0
 11 12  1  0  0  0
 11 94  1  0  0  0
 12 13  2  0  0  0
 12 95  1  0  0  0
 13 14  1  0  0  0
 13 31  1  0  0  0
 14 15  2  0  0  0
 14 96  1  0  0  0
 15 97  1  0  0  0
 16 17  2  0  0  0
 16 21  1  0  0  0
 16 31  1  0  0  0
 17 18  1  0  0  0
 17 98  1  0  0  0
 18 19  2  0  0  0
 18 99  1  0  0  0
 19 20  1  0  0  0
 19 24  1  0  0  0
 20 21  2  0  0  0
 20100  1  0  0  0
 21 23  1  0  0  0
 22 28  1  0  0  0
 22 32  2  0  0  0
 26 27  1  0  0  0
 28101  1  0  0  0
 28102  1  0  0  0
 29103  1  0  0  0
 29104  1  0  0  0
 33 34  1  0  0  0
 33 66  1  0  0  0
 33 70  2  0  0  0
 34 36  1  0  0  0
 34 59  1  0  0  0
 34105  1  0  0  0
 35 44  2  0  0  0
 35 45  1  0  0  0
 35 68  1  0  0  0
 36 56  1  0  0  0
 36106  1  0  0  0
 37 39  1  0  0  0
 37 47  1  0  0  0
 37 66  1  0  0  0
 37107  1  0  0  0
 38 43  2  0  0  0
 38 46  1  0  0  0
 38 47  1  0  0  0
 39 64  1  0  0  0
 39 67  2  0  0  0
 40 52  1  0  0  0
 40 53  2  0  0  0
 40 58  1  0  0  0
 41108  1  0  0  0
 41109  1  0  0  0
 41110  1  0  0  0
 41 48  1  0  0  0
 42 43  1  0  0  0
 42 66  1  0  0  0
 42111  1  0  0  0
 42112  1  0  0  0
 43 44  1  0  0  0
 44113  1  0  0  0
 45 46  2  0  0  0
 45114  1  0  0  0
 46115  1  0  0  0
 47116  1  0  0  0
 47117  1  0  0  0
 48 56  1  0  0  0
 48 65  1  0  0  0
 48118  1  0  0  0
 49 50  1  0  0  0
 49 53  1  0  0  0
 49 64  1  0  0  0
 49119  1  0  0  0
 50 51  1  0  0  0
 50120  1  0  0  0
 50121  1  0  0  0
 51 52  1  0  0  0
 51122  1  0  0  0
 51123  1  0  0  0
 52124  1  0  0  0
 52125  1  0  0  0
 53 54  1  0  0  0
 54 55  2  0  0  0
 54126  1  0  0  0
 55 57  1  0  0  0
 55127  1  0  0  0
 56 69  2  0  0  0
 57 58  2  0  0  0
 57128  1  0  0  0
 58129  1  0  0  0
 59 60  1  0  0  0
 59 61  1  0  0  0
 59 62  1  0  0  0
 60130  1  0  0  0
 60131  1  0  0  0
 60132  1  0  0  0
 61133  1  0  0  0
 61134  1  0  0  0
 61135  1  0  0  0
 62136  1  0  0  0
 62137  1  0  0  0
 62138  1  0  0  0
 63 65  1  0  0  0
 63139  1  0  0  0
 63140  1  0  0  0
 63141  1  0  0  0
 64142  1  0  0  0
 65143  1  0  0  0
 68 79  1  0  0  0
 71 73  2  0  0  0
 71 75  1  0  0  0
 71144  1  0  0  0
 72 74  1  0  0  0
 72 75  2  0  0  0
 72145  1  0  0  0
 73 76  1  0  0  0
 73146  1  0  0  0
 74 76  2  0  0  0
 74147  1  0  0  0
 75 82  1  0  0  0
 76 83  1  0  0  0
 77 78  1  0  0  0
 77 79  2  0  0  0
 77 80  1  0  0  0
 78 82  1  0  0  0
 78 84  2  0  0  0
 79 81  1  0  0  0
 80 82  1  0  0  0
 80148  1  0  0  0
 80149  1  0  0  0
 81150  1  0  0  0
 81151  1  0  0  0
 81152  1  0  0  0
 83153  1  0  0  0
M  ISO  4   1 100  68 101  79 101  83 100
M  END
> <chiral flag>
0

> <version>
0

> <s_m_source_file>
/data/baiqing/PycharmProjects/Reinvent-master-3.2/result/LINK_invent/BTK/process_docking_weight1_custom_product_contain_oxygen_bond_distance_aromatic_linkinvent_7_9_3/rearranged_h_0083.sdf

> <i_m_source_file_index>
24

> <r_mmod_Potential_Energy-OPLS-2005>
273.821990966797

> <r_mmod_Stretch_Energy-OPLS-2005>
121.812492370605

> <r_mmod_Bend_Energy-OPLS-2005>
259.293365478516

> <r_mmod_Torsional_Energy-OPLS-2005>
237.053619384766

> <r_mmod_Improper_Torsional_Energy-OPLS-2005>
4.42620372772217

> <r_mmod_Van_der_Waal_Energy-OPLS-2005>
130.200256347656

> <r_mmod_Electrostatic_Energy-OPLS-2005>
-357.091491699219

> <r_mmod_Solvation_Energy-OPLS-2005>
-224.281585693359

> <b_mmod_Minimization_Converged-OPLS-2005>
0

> <r_mmod_RMS_Derivative-OPLS-2005>
0.780097603797913

$$$$
24
                    3D
 Structure written by MMmdl.
148157  0  0  1  0            999 V2000
  -30.5459  -15.0345   20.3921 C   0  0  0  0  0  0
  -30.4223  -12.6459   19.5159 C   0  0  0  0  0  0
  -29.5219  -12.5260   18.2668 C   0  0  0  0  0  0
  -28.0588  -12.2969   18.6829 C   0  0  0  0  0  0
  -27.6101  -13.2642   19.8097 C   0  0  2  0  0  0
  -28.6391  -13.3774   20.9481 C   0  0  0  0  0  0
  -25.2382  -13.8276   20.5656 C   0  0  0  0  0  0
  -24.1733  -13.0466   20.9238 C   0  0  0  0  0  0
  -24.6373  -11.6954   20.8736 C   0  0  0  0  0  0
  -23.9078  -10.4309   21.0406 C   0  0  0  0  0  0
  -24.3622   -9.4221   21.9186 C   0  0  0  0  0  0
  -23.6313   -8.2253   22.0750 C   0  0  0  0  0  0
  -22.4295   -8.0278   21.3552 C   0  0  0  0  0  0
  -21.9917   -9.0243   20.4636 C   0  0  0  0  0  0
  -22.7243  -10.2138   20.3053 C   0  0  0  0  0  0
  -21.6856   -6.0738   22.5293 C   0  0  0  0  0  0
  -21.4008   -6.5644   23.8221 C   0  0  0  0  0  0
  -21.3660   -5.6792   24.9188 C   0  0  0  0  0  0
  -21.6058   -4.3054   24.7234 C   0  0  0  0  0  0
  -21.8815   -3.8149   23.4351 C   0  0  0  0  0  0
  -21.9185   -4.6967   22.3413 C   0  0  0  0  0  0
  -22.7749  -13.5202   21.1932 C   0  0  0  0  0  0
  -22.1664   -4.2140   21.0984 F   0  0  0  0  0  0
  -21.5628   -3.4538   25.7753 F   0  0  0  0  0  0
  -29.9137  -13.7841   20.3463 N   0  0  0  0  0  0
  -26.2780  -12.9525   20.3110 N   0  0  0  0  0  0
  -25.9292  -11.6657   20.5682 N   0  0  0  0  0  0
  -22.0406  -12.8152   22.0450 N   0  0  0  0  0  0
  -25.4072  -15.2019   20.4147 N   0  0  0  0  0  0
  -31.7675  -14.9967   20.2006 O   0  0  0  0  0  0
  -21.6656   -6.8871   21.4255 O   0  0  0  0  0  0
  -22.3457  -14.5511   20.6795 O   0  0  0  0  0  0
  -24.6455  -31.8408   23.1832 C   0  0  0  0  0  0
  -25.9196  -32.4677   23.8260 C   0  0  1  0  0  0
  -27.2260  -27.0846   20.1457 C   0  0  0  0  0  0
  -25.5920  -33.8490   24.2175 N   0  0  0  0  0  0
  -23.4551  -30.4539   21.5306 C   0  0  2  0  0  0
  -24.9090  -28.8723   20.1061 C   0  0  0  0  0  0
  -22.7585  -29.4511   22.4862 C   0  0  0  0  0  0
  -18.0306  -28.1379   22.8459 C   0  0  0  0  0  0
  -24.1539  -36.7289   23.2655 C   0  0  0  0  0  0
  -26.0138  -30.6951   21.3919 C   0  0  0  0  0  0
  -26.0856  -29.3016   20.7299 C   0  0  0  0  0  0
  -27.2399  -28.4202   20.7394 C   0  0  0  0  0  0
  -26.0198  -26.7715   19.4794 C   0  0  0  0  0  0
  -24.8901  -27.6218   19.4674 C   0  0  0  0  0  0
  -23.6851  -29.7758   20.1529 C   0  0  0  0  0  0
  -25.4183  -36.3049   24.0302 C   0  0  1  0  0  0
  -20.5914  -28.3717   23.1244 C   0  0  2  0  0  0
  -20.6801  -26.9426   22.5393 C   0  0  0  0  0  0
  -19.5767  -26.6359   21.5201 C   0  0  0  0  0  0
  -18.1954  -26.7896   22.1625 C   0  0  0  0  0  0
  -19.1564  -28.8865   23.2836 C   0  0  0  0  0  0
  -18.9459  -30.1463   23.8877 C   0  0  0  0  0  0
  -17.6450  -30.6571   24.0552 C   0  0  0  0  0  0
  -25.9067  -34.9390   23.5045 C   0  0  0  0  0  0
  -16.5348  -29.9063   23.6329 C   0  0  0  0  0  0
  -16.7286  -28.6481   23.0348 C   0  0  0  0  0  0
  -26.4498  -31.6549   25.0717 C   0  0  0  0  0  0
  -25.3670  -31.3730   26.1401 C   0  0  0  0  0  0
  -27.0360  -30.2935   24.6311 C   0  0  0  0  0  0
  -27.6048  -32.4291   25.7531 C   0  0  0  0  0  0
  -27.5533  -37.1938   24.8555 C   0  0  0  0  0  0
  -21.4273  -29.3038   22.3611 N   0  0  0  0  0  0
  -26.4438  -37.3658   23.9212 N   0  0  0  0  0  0
  -24.7248  -31.0182   22.0902 N   0  0  0  0  0  0
  -23.4208  -28.8097   23.3045 O   0  0  0  0  0  0
  -28.2365  -26.0440   20.2879 O   0  0  0  0  0  0
  -26.5670  -34.8868   22.4636 O   0  0  0  0  0  0
  -23.5551  -32.1336   23.7000 O   0  0  0  0  0  0
  -29.1848  -17.1794   19.3543 C   0  0  0  0  0  0
  -28.8800  -18.6129   19.2710 C   0  0  0  0  0  0
  -30.2301  -17.5584   21.3946 C   0  0  0  0  0  0
  -29.8964  -16.5330   20.4293 C   0  0  0  0  0  0
  -29.1974  -19.6621   20.2284 C   0  0  0  0  0  0
  -29.8848  -18.9840   21.3161 C   0  0  0  0  0  0
  -28.4959  -23.3310   19.9467 C   0  0  0  0  0  0
  -28.5421  -22.1469   19.0401 C   0  0  0  0  0  0
  -28.2272  -24.7180   19.6309 C   0  0  0  0  0  0
  -28.8418  -22.2941   21.1025 C   0  0  0  0  0  0
  -28.8836  -21.1920   20.0640 N   0  0  0  0  0  0
  -28.3693  -22.0886   17.8383 O   0  0  0  0  0  0
  -30.2978  -19.7614   22.3520 F   0  0  0  0  0  0
  -31.4573  -12.7901   19.2048 H   0  0  0  0  0  0
  -30.4184  -11.7229   20.0946 H   0  0  0  0  0  0
  -29.8642  -11.7067   17.6324 H   0  0  0  0  0  0
  -29.5982  -13.4374   17.6693 H   0  0  0  0  0  0
  -27.9700  -11.2646   19.0270 H   0  0  0  0  0  0
  -27.3992  -12.3832   17.8177 H   0  0  0  0  0  0
  -27.5498  -14.2479   19.3408 H   0  0  0  0  0  0
  -28.7412  -12.4340   21.4886 H   0  0  0  0  0  0
  -28.3143  -14.1272   21.6741 H   0  0  0  0  0  0
  -25.2762   -9.5694   22.4772 H   0  0  0  0  0  0
  -24.0006   -7.4638   22.7460 H   0  0  0  0  0  0
  -21.0854   -8.8777   19.8930 H   0  0  0  0  0  0
  -22.3716  -10.9676   19.6163 H   0  0  0  0  0  0
  -21.2010   -7.6147   23.9724 H   0  0  0  0  0  0
  -21.1492   -6.0528   25.9087 H   0  0  0  0  0  0
  -22.0593   -2.7599   23.2879 H   0  0  0  0  0  0
  -22.4072  -11.9829   22.4831 H   0  0  0  0  0  0
  -21.1021  -13.1157   22.2642 H   0  0  0  0  0  0
  -24.6480  -15.8579   20.5575 H   0  0  0  0  0  0
  -26.2676  -15.6481   20.1176 H   0  0  0  0  0  0
  -26.7281  -32.5265   23.1017 H   0  0  0  0  0  0
  -25.0028  -33.9615   25.0297 H   0  0  0  0  0  0
  -22.7575  -31.2802   21.3734 H   0  0  0  0  0  0
  -23.3612  -35.9888   23.3814 H   0  0  0  0  0  0
  -24.3449  -36.8370   22.1965 H   0  0  0  0  0  0
  -23.7642  -37.6772   23.6355 H   0  0  0  0  0  0
  -26.1701  -31.4482   20.6194 H   0  0  0  0  0  0
  -26.8824  -30.7539   22.0358 H   0  0  0  0  0  0
  -28.1287  -28.7317   21.2691 H   0  0  0  0  0  0
  -25.9090  -25.8051   19.0108 H   0  0  0  0  0  0
  -23.9875  -27.2823   18.9792 H   0  0  0  0  0  0
  -23.8200  -30.5518   19.3992 H   0  0  0  0  0  0
  -22.7982  -29.2204   19.8440 H   0  0  0  0  0  0
  -25.1445  -36.1978   25.0829 H   0  0  0  0  0  0
  -20.9988  -28.3307   24.1380 H   0  0  0  0  0  0
  -20.5681  -26.2338   23.3616 H   0  0  0  0  0  0
  -21.6678  -26.7436   22.1199 H   0  0  0  0  0  0
  -19.6953  -25.6258   21.1249 H   0  0  0  0  0  0
  -19.6686  -27.3175   20.6743 H   0  0  0  0  0  0
  -17.4197  -26.6606   21.4056 H   0  0  0  0  0  0
  -18.0412  -26.0055   22.9063 H   0  0  0  0  0  0
  -19.7940  -30.7283   24.2261 H   0  0  0  0  0  0
  -17.4998  -31.6261   24.5136 H   0  0  0  0  0  0
  -15.5346  -30.2956   23.7636 H   0  0  0  0  0  0
  -15.8694  -28.0776   22.7090 H   0  0  0  0  0  0
  -24.5912  -30.7011   25.7709 H   0  0  0  0  0  0
  -24.8776  -32.2891   26.4714 H   0  0  0  0  0  0
  -25.7924  -30.8976   27.0252 H   0  0  0  0  0  0
  -26.2980  -29.6658   24.1290 H   0  0  0  0  0  0
  -27.3938  -29.7221   25.4886 H   0  0  0  0  0  0
  -27.8923  -30.4159   23.9682 H   0  0  0  0  0  0
  -27.2648  -33.3558   26.2186 H   0  0  0  0  0  0
  -28.3852  -32.6875   25.0364 H   0  0  0  0  0  0
  -28.0780  -31.8366   26.5377 H   0  0  0  0  0  0
  -28.3007  -37.9698   24.6863 H   0  0  0  0  0  0
  -28.0524  -36.2294   24.7455 H   0  0  0  0  0  0
  -27.2101  -37.2872   25.8872 H   0  0  0  0  0  0
  -20.9507  -29.8738   21.6760 H   0  0  0  0  0  0
  -26.0359  -38.2865   24.0633 H   0  0  0  0  0  0
  -28.9040  -16.5658   18.5079 H   0  0  0  0  0  0
  -28.3745  -18.9295   18.3666 H   0  0  0  0  0  0
  -30.8171  -17.2564   22.2529 H   0  0  0  0  0  0
  -28.0457  -24.9034   18.5811 H   0  0  0  0  0  0
  -28.0433  -22.0961   21.8200 H   0  0  0  0  0  0
  -29.7926  -22.4027   21.6222 H   0  0  0  0  0  0
  1 25  1  0  0  0
  1 30  2  0  0  0
  1 74  1  0  0  0
  2  3  1  0  0  0
  2 25  1  0  0  0
  2 84  1  0  0  0
  2 85  1  0  0  0
  3  4  1  0  0  0
  3 86  1  0  0  0
  3 87  1  0  0  0
  4  5  1  0  0  0
  4 88  1  0  0  0
  4 89  1  0  0  0
  5  6  1  0  0  0
  5 26  1  0  0  0
  5 90  1  0  0  0
  6 25  1  0  0  0
  6 91  1  0  0  0
  6 92  1  0  0  0
  7  8  2  0  0  0
  7 26  1  0  0  0
  7 29  1  0  0  0
  8  9  1  0  0  0
  8 22  1  0  0  0
  9 10  1  0  0  0
  9 27  2  0  0  0
 10 11  2  0  0  0
 10 15  1  0  0  0
 11 12  1  0  0  0
 11 93  1  0  0  0
 12 13  2  0  0  0
 12 94  1  0  0  0
 13 14  1  0  0  0
 13 31  1  0  0  0
 14 15  2  0  0  0
 14 95  1  0  0  0
 15 96  1  0  0  0
 16 17  2  0  0  0
 16 21  1  0  0  0
 16 31  1  0  0  0
 17 18  1  0  0  0
 17 97  1  0  0  0
 18 19  2  0  0  0
 18 98  1  0  0  0
 19 20  1  0  0  0
 19 24  1  0  0  0
 20 21  2  0  0  0
 20 99  1  0  0  0
 21 23  1  0  0  0
 22 28  1  0  0  0
 22 32  2  0  0  0
 26 27  1  0  0  0
 28100  1  0  0  0
 28101  1  0  0  0
 29102  1  0  0  0
 29103  1  0  0  0
 33 34  1  0  0  0
 33 66  1  0  0  0
 33 70  2  0  0  0
 34 36  1  0  0  0
 34 59  1  0  0  0
 34104  1  0  0  0
 35 44  2  0  0  0
 35 45  1  0  0  0
 35 68  1  0  0  0
 36 56  1  0  0  0
 36105  1  0  0  0
 37 39  1  0  0  0
 37 47  1  0  0  0
 37 66  1  0  0  0
 37106  1  0  0  0
 38 43  2  0  0  0
 38 46  1  0  0  0
 38 47  1  0  0  0
 39 64  1  0  0  0
 39 67  2  0  0  0
 40 52  1  0  0  0
 40 53  2  0  0  0
 40 58  1  0  0  0
 41107  1  0  0  0
 41108  1  0  0  0
 41109  1  0  0  0
 41 48  1  0  0  0
 42 43  1  0  0  0
 42 66  1  0  0  0
 42110  1  0  0  0
 42111  1  0  0  0
 43 44  1  0  0  0
 44112  1  0  0  0
 45 46  2  0  0  0
 45113  1  0  0  0
 46114  1  0  0  0
 47115  1  0  0  0
 47116  1  0  0  0
 48 56  1  0  0  0
 48 65  1  0  0  0
 48117  1  0  0  0
 49 50  1  0  0  0
 49 53  1  0  0  0
 49 64  1  0  0  0
 49118  1  0  0  0
 50 51  1  0  0  0
 50119  1  0  0  0
 50120  1  0  0  0
 51 52  1  0  0  0
 51121  1  0  0  0
 51122  1  0  0  0
 52123  1  0  0  0
 52124  1  0  0  0
 53 54  1  0  0  0
 54 55  2  0  0  0
 54125  1  0  0  0
 55 57  1  0  0  0
 55126  1  0  0  0
 56 69  2  0  0  0
 57 58  2  0  0  0
 57127  1  0  0  0
 58128  1  0  0  0
 59 60  1  0  0  0
 59 61  1  0  0  0
 59 62  1  0  0  0
 60129  1  0  0  0
 60130  1  0  0  0
 60131  1  0  0  0
 61132  1  0  0  0
 61133  1  0  0  0
 61134  1  0  0  0
 62135  1  0  0  0
 62136  1  0  0  0
 62137  1  0  0  0
 63 65  1  0  0  0
 63138  1  0  0  0
 63139  1  0  0  0
 63140  1  0  0  0
 64141  1  0  0  0
 65142  1  0  0  0
 68 79  1  0  0  0
 71 72  2  0  0  0
 71 74  1  0  0  0
 71143  1  0  0  0
 72 75  1  0  0  0
 72144  1  0  0  0
 73 74  2  0  0  0
 73 76  1  0  0  0
 73145  1  0  0  0
 75 76  2  0  0  0
 75 81  1  0  0  0
 76 83  1  0  0  0
 77 78  1  0  0  0
 77 79  2  0  0  0
 77 80  1  0  0  0
 78 81  1  0  0  0
 78 82  2  0  0  0
 79146  1  0  0  0
 80 81  1  0  0  0
 80147  1  0  0  0
 80148  1  0  0  0
M  ISO  4   1 100  68 101  74 100  79 101
M  END
> <chiral flag>
0

> <version>
0

> <s_m_source_file>
/data/baiqing/PycharmProjects/Reinvent-master-3.2/result/LINK_invent/BTK/process_docking_weight1_custom_product_contain_oxygen_bond_distance_aromatic_linkinvent_7_9_3/rearranged_h_0083.sdf

> <i_m_source_file_index>
25

> <r_mmod_Potential_Energy-OPLS-2005>
719.475402832031

> <r_mmod_Stretch_Energy-OPLS-2005>
262.685394287109

> <r_mmod_Bend_Energy-OPLS-2005>
364.148162841797

> <r_mmod_Torsional_Energy-OPLS-2005>
228.766220092773

> <r_mmod_Improper_Torsional_Energy-OPLS-2005>
7.13418245315552

> <r_mmod_Van_der_Waal_Energy-OPLS-2005>
125.559326171875

> <r_mmod_Electrostatic_Energy-OPLS-2005>
-328.788055419922

> <r_mmod_Solvation_Energy-OPLS-2005>
-200.345352172852

> <b_mmod_Minimization_Converged-OPLS-2005>
0

> <r_mmod_RMS_Derivative-OPLS-2005>
5.63292407989502

$$$$
25
                    3D
 Structure written by MMmdl.
149157  0  0  1  0            999 V2000
  -30.4884  -15.1283   20.3431 C   0  0  0  0  0  0
  -30.4428  -12.7015   19.4957 C   0  0  0  0  0  0
  -29.5244  -12.5063   18.2653 C   0  0  0  0  0  0
  -28.0666  -12.2562   18.7017 C   0  0  0  0  0  0
  -27.6082  -13.2207   19.8246 C   0  0  2  0  0  0
  -28.6600  -13.3883   20.9425 C   0  0  0  0  0  0
  -25.2451  -13.8098   20.5819 C   0  0  0  0  0  0
  -24.1732  -13.0375   20.9279 C   0  0  0  0  0  0
  -24.6314  -11.6849   20.8809 C   0  0  0  0  0  0
  -23.9010  -10.4249   21.0441 C   0  0  0  0  0  0
  -24.3585   -9.4169   21.9209 C   0  0  0  0  0  0
  -23.6272   -8.2203   22.0767 C   0  0  0  0  0  0
  -22.4254   -8.0257   21.3551 C   0  0  0  0  0  0
  -21.9881   -9.0222   20.4649 C   0  0  0  0  0  0
  -22.7194  -10.2106   20.3076 C   0  0  0  0  0  0
  -21.6838   -6.0724   22.5283 C   0  0  0  0  0  0
  -21.3984   -6.5630   23.8210 C   0  0  0  0  0  0
  -21.3655   -5.6784   24.9178 C   0  0  0  0  0  0
  -21.6054   -4.3049   24.7230 C   0  0  0  0  0  0
  -21.8825   -3.8142   23.4350 C   0  0  0  0  0  0
  -21.9186   -4.6956   22.3405 C   0  0  0  0  0  0
  -22.7770  -13.5200   21.1897 C   0  0  0  0  0  0
  -22.1664   -4.2149   21.0980 F   0  0  0  0  0  0
  -21.5645   -3.4529   25.7741 F   0  0  0  0  0  0
  -29.9030  -13.8432   20.2998 N   0  0  0  0  0  0
  -26.2805  -12.9244   20.3326 N   0  0  0  0  0  0
  -25.9235  -11.6415   20.5818 N   0  0  0  0  0  0
  -22.0390  -12.8217   22.0444 N   0  0  0  0  0  0
  -25.4172  -15.1831   20.4306 N   0  0  0  0  0  0
  -31.7241  -15.1306   20.2639 O   0  0  0  0  0  0
  -21.6617   -6.8861   21.4244 O   0  0  0  0  0  0
  -22.3493  -14.5513   20.6725 O   0  0  0  0  0  0
  -24.6499  -31.8362   23.1817 C   0  0  0  0  0  0
  -25.9238  -32.4652   23.8239 C   0  0  1  0  0  0
  -27.2252  -27.0559   20.1750 C   0  0  0  0  0  0
  -25.5956  -33.8461   24.2156 N   0  0  0  0  0  0
  -23.4596  -30.4495   21.5273 C   0  0  2  0  0  0
  -24.9140  -28.8600   20.1118 C   0  0  0  0  0  0
  -22.7604  -29.4489   22.4823 C   0  0  0  0  0  0
  -18.0307  -28.1409   22.8476 C   0  0  0  0  0  0
  -24.1488  -36.7231   23.2644 C   0  0  0  0  0  0
  -26.0195  -30.6819   21.3957 C   0  0  0  0  0  0
  -26.0894  -29.2831   20.7446 C   0  0  0  0  0  0
  -27.2399  -28.3954   20.7627 C   0  0  0  0  0  0
  -26.0260  -26.7548   19.4913 C   0  0  0  0  0  0
  -24.8983  -27.6106   19.4702 C   0  0  0  0  0  0
  -23.6932  -29.7716   20.1495 C   0  0  0  0  0  0
  -25.4126  -36.3007   24.0309 C   0  0  1  0  0  0
  -20.5927  -28.3736   23.1222 C   0  0  2  0  0  0
  -20.6789  -26.9425   22.5413 C   0  0  0  0  0  0
  -19.5760  -26.6378   21.5221 C   0  0  0  0  0  0
  -18.1941  -26.7946   22.1630 C   0  0  0  0  0  0
  -19.1566  -28.8892   23.2834 C   0  0  0  0  0  0
  -18.9477  -30.1487   23.8853 C   0  0  0  0  0  0
  -17.6474  -30.6597   24.0560 C   0  0  0  0  0  0
  -25.9083  -34.9384   23.5053 C   0  0  0  0  0  0
  -16.5367  -29.9087   23.6343 C   0  0  0  0  0  0
  -16.7292  -28.6513   23.0356 C   0  0  0  0  0  0
  -26.4537  -31.6553   25.0718 C   0  0  0  0  0  0
  -25.3697  -31.3772   26.1396 C   0  0  0  0  0  0
  -27.0417  -30.2933   24.6372 C   0  0  0  0  0  0
  -27.6047  -32.4345   25.7512 C   0  0  0  0  0  0
  -27.5572  -37.1769   24.8462 C   0  0  0  0  0  0
  -21.4283  -29.3038   22.3571 N   0  0  0  0  0  0
  -26.4281  -37.3729   23.9408 N   0  0  0  0  0  0
  -24.7295  -31.0138   22.0893 N   0  0  0  0  0  0
  -23.4206  -28.8049   23.3017 O   0  0  0  0  0  0
  -28.2767  -26.0415   20.2212 O   0  0  0  0  0  0
  -26.5676  -34.8894   22.4637 O   0  0  0  0  0  0
  -23.5596  -32.1284   23.6976 O   0  0  0  0  0  0
  -30.5562  -20.2598   21.2044 C   0  0  0  0  0  0
  -29.3685  -20.3772   20.5045 C   0  0  0  0  0  0
  -29.8779  -17.8677   20.4900 C   0  0  0  0  0  0
  -28.7763  -23.4626   20.3106 C   0  0  0  0  0  0
  -30.2505  -23.7462   20.4935 C   0  0  0  0  0  0
  -28.8104  -16.2733   18.9617 C   0  0  0  0  0  0
  -28.4550  -21.7729   20.2101 C   0  0  0  0  0  0
  -29.0411  -18.9624   20.1311 N   0  0  0  0  0  0
  -27.8958  -24.5165   20.2142 N   0  0  0  0  0  0
  -29.7180  -16.3551   20.1110 N   0  0  0  0  0  0
  -31.2080  -18.5924   21.3963 S   0  0  0  0  0  0
  -31.4633  -12.8943   19.1611 H   0  0  0  0  0  0
  -30.4901  -11.7912   20.0957 H   0  0  0  0  0  0
  -29.8794  -11.6722   17.6588 H   0  0  0  0  0  0
  -29.5748  -13.3833   17.6201 H   0  0  0  0  0  0
  -28.0055  -11.2278   19.0594 H   0  0  0  0  0  0
  -27.3935  -12.3202   17.8455 H   0  0  0  0  0  0
  -27.4895  -14.1666   19.3200 H   0  0  0  0  0  0
  -28.8070  -12.4583   21.4939 H   0  0  0  0  0  0
  -28.3248  -14.1327   21.6664 H   0  0  0  0  0  0
  -25.2740   -9.5641   22.4773 H   0  0  0  0  0  0
  -23.9989   -7.4586   22.7476 H   0  0  0  0  0  0
  -21.0821   -8.8718   19.8949 H   0  0  0  0  0  0
  -22.3655  -10.9644   19.6184 H   0  0  0  0  0  0
  -21.1944   -7.6133   23.9705 H   0  0  0  0  0  0
  -21.1486   -6.0520   25.9080 H   0  0  0  0  0  0
  -22.0610   -2.7607   23.2842 H   0  0  0  0  0  0
  -22.4005  -11.9891   22.4853 H   0  0  0  0  0  0
  -21.0998  -13.1252   22.2617 H   0  0  0  0  0  0
  -24.6569  -15.8419   20.5601 H   0  0  0  0  0  0
  -26.2859  -15.6266   20.1641 H   0  0  0  0  0  0
  -26.7307  -32.5234   23.0957 H   0  0  0  0  0  0
  -25.0062  -33.9571   25.0278 H   0  0  0  0  0  0
  -22.7660  -31.2766   21.3636 H   0  0  0  0  0  0
  -23.3762  -35.9548   23.3285 H   0  0  0  0  0  0
  -24.3568  -36.8896   22.2062 H   0  0  0  0  0  0
  -23.7229  -37.6409   23.6710 H   0  0  0  0  0  0
  -26.1858  -31.4291   20.6182 H   0  0  0  0  0  0
  -26.8847  -30.7366   22.0446 H   0  0  0  0  0  0
  -28.1347  -28.7121   21.2796 H   0  0  0  0  0  0
  -25.9365  -25.8001   18.9930 H   0  0  0  0  0  0
  -24.0037  -27.2830   18.9580 H   0  0  0  0  0  0
  -23.8343  -30.5425   19.3907 H   0  0  0  0  0  0
  -22.8075  -29.2149   19.8387 H   0  0  0  0  0  0
  -25.1315  -36.1822   25.0798 H   0  0  0  0  0  0
  -21.0015  -28.3335   24.1349 H   0  0  0  0  0  0
  -20.5685  -26.2340   23.3637 H   0  0  0  0  0  0
  -21.6652  -26.7422   22.1206 H   0  0  0  0  0  0
  -19.6917  -25.6277   21.1275 H   0  0  0  0  0  0
  -19.6712  -27.3172   20.6738 H   0  0  0  0  0  0
  -17.4214  -26.6689   21.4033 H   0  0  0  0  0  0
  -18.0330  -26.0099   22.9034 H   0  0  0  0  0  0
  -19.7948  -30.7314   24.2207 H   0  0  0  0  0  0
  -17.5024  -31.6274   24.5165 H   0  0  0  0  0  0
  -15.5365  -30.2976   23.7688 H   0  0  0  0  0  0
  -15.8693  -28.0818   22.7095 H   0  0  0  0  0  0
  -24.5875  -30.7126   25.7709 H   0  0  0  0  0  0
  -24.8885  -32.2966   26.4745 H   0  0  0  0  0  0
  -25.7954  -30.8986   27.0225 H   0  0  0  0  0  0
  -26.3067  -29.6631   24.1353 H   0  0  0  0  0  0
  -27.3957  -29.7268   25.4993 H   0  0  0  0  0  0
  -27.9005  -30.4136   23.9764 H   0  0  0  0  0  0
  -27.2623  -33.3668   26.2011 H   0  0  0  0  0  0
  -28.3899  -32.6871   25.0377 H   0  0  0  0  0  0
  -28.0668  -31.8526   26.5493 H   0  0  0  0  0  0
  -28.2566  -38.0086   24.7516 H   0  0  0  0  0  0
  -28.1094  -36.2614   24.6283 H   0  0  0  0  0  0
  -27.2288  -37.1399   25.8863 H   0  0  0  0  0  0
  -20.9508  -29.8734   21.6721 H   0  0  0  0  0  0
  -26.0140  -38.2789   24.1428 H   0  0  0  0  0  0
  -31.1089  -21.0745   21.6549 H   0  0  0  0  0  0
  -30.5130  -23.7038   21.5501 H   0  0  0  0  0  0
  -30.5081  -24.7327   20.1096 H   0  0  0  0  0  0
  -30.8461  -23.0083   19.9554 H   0  0  0  0  0  0
  -28.9836  -17.1029   18.2740 H   0  0  0  0  0  0
  -27.7740  -16.3467   19.2880 H   0  0  0  0  0  0
  -28.9446  -15.3884   18.3457 H   0  0  0  0  0  0
  -27.5531  -21.6516   20.8095 H   0  0  0  0  0  0
  -28.0761  -21.6530   19.1957 H   0  0  0  0  0  0
  1 25  1  0  0  0
  1 30  2  0  0  0
  1 80  1  0  0  0
  2  3  1  0  0  0
  2 25  1  0  0  0
  2 82  1  0  0  0
  2 83  1  0  0  0
  3  4  1  0  0  0
  3 84  1  0  0  0
  3 85  1  0  0  0
  4  5  1  0  0  0
  4 86  1  0  0  0
  4 87  1  0  0  0
  5  6  1  0  0  0
  5 26  1  0  0  0
  5 88  1  0  0  0
  6 25  1  0  0  0
  6 89  1  0  0  0
  6 90  1  0  0  0
  7  8  2  0  0  0
  7 26  1  0  0  0
  7 29  1  0  0  0
  8  9  1  0  0  0
  8 22  1  0  0  0
  9 10  1  0  0  0
  9 27  2  0  0  0
 10 11  2  0  0  0
 10 15  1  0  0  0
 11 12  1  0  0  0
 11 91  1  0  0  0
 12 13  2  0  0  0
 12 92  1  0  0  0
 13 14  1  0  0  0
 13 31  1  0  0  0
 14 15  2  0  0  0
 14 93  1  0  0  0
 15 94  1  0  0  0
 16 17  2  0  0  0
 16 21  1  0  0  0
 16 31  1  0  0  0
 17 18  1  0  0  0
 17 95  1  0  0  0
 18 19  2  0  0  0
 18 96  1  0  0  0
 19 20  1  0  0  0
 19 24  1  0  0  0
 20 21  2  0  0  0
 20 97  1  0  0  0
 21 23  1  0  0  0
 22 28  1  0  0  0
 22 32  2  0  0  0
 26 27  1  0  0  0
 28 98  1  0  0  0
 28 99  1  0  0  0
 29100  1  0  0  0
 29101  1  0  0  0
 33 34  1  0  0  0
 33 66  1  0  0  0
 33 70  2  0  0  0
 34 36  1  0  0  0
 34 59  1  0  0  0
 34102  1  0  0  0
 35 44  2  0  0  0
 35 45  1  0  0  0
 35 68  1  0  0  0
 36 56  1  0  0  0
 36103  1  0  0  0
 37 39  1  0  0  0
 37 47  1  0  0  0
 37 66  1  0  0  0
 37104  1  0  0  0
 38 43  2  0  0  0
 38 46  1  0  0  0
 38 47  1  0  0  0
 39 64  1  0  0  0
 39 67  2  0  0  0
 40 52  1  0  0  0
 40 53  2  0  0  0
 40 58  1  0  0  0
 41105  1  0  0  0
 41106  1  0  0  0
 41107  1  0  0  0
 41 48  1  0  0  0
 42 43  1  0  0  0
 42 66  1  0  0  0
 42108  1  0  0  0
 42109  1  0  0  0
 43 44  1  0  0  0
 44110  1  0  0  0
 45 46  2  0  0  0
 45111  1  0  0  0
 46112  1  0  0  0
 47113  1  0  0  0
 47114  1  0  0  0
 48 56  1  0  0  0
 48 65  1  0  0  0
 48115  1  0  0  0
 49 50  1  0  0  0
 49 53  1  0  0  0
 49 64  1  0  0  0
 49116  1  0  0  0
 50 51  1  0  0  0
 50117  1  0  0  0
 50118  1  0  0  0
 51 52  1  0  0  0
 51119  1  0  0  0
 51120  1  0  0  0
 52121  1  0  0  0
 52122  1  0  0  0
 53 54  1  0  0  0
 54 55  2  0  0  0
 54123  1  0  0  0
 55 57  1  0  0  0
 55124  1  0  0  0
 56 69  2  0  0  0
 57 58  2  0  0  0
 57125  1  0  0  0
 58126  1  0  0  0
 59 60  1  0  0  0
 59 61  1  0  0  0
 59 62  1  0  0  0
 60127  1  0  0  0
 60128  1  0  0  0
 60129  1  0  0  0
 61130  1  0  0  0
 61131  1  0  0  0
 61132  1  0  0  0
 62133  1  0  0  0
 62134  1  0  0  0
 62135  1  0  0  0
 63 65  1  0  0  0
 63136  1  0  0  0
 63137  1  0  0  0
 63138  1  0  0  0
 64139  1  0  0  0
 65140  1  0  0  0
 68 79  1  0  0  0
 71 72  2  0  0  0
 71 81  1  0  0  0
 71141  1  0  0  0
 72 77  1  0  0  0
 72 78  1  0  0  0
 73 78  2  0  0  0
 73 80  1  0  0  0
 73 81  1  0  0  0
 74 75  1  0  0  0
 74 77  1  0  0  0
 74 79  2  0  0  0
 75142  1  0  0  0
 75143  1  0  0  0
 75144  1  0  0  0
 76 80  1  0  0  0
 76145  1  0  0  0
 76146  1  0  0  0
 76147  1  0  0  0
 77148  1  0  0  0
 77149  1  0  0  0
M  ISO  4   1 100  68 101  79 101  80 100
M  END
> <chiral flag>
0

> <version>
0

> <s_m_source_file>
/data/baiqing/PycharmProjects/Reinvent-master-3.2/result/LINK_invent/BTK/process_docking_weight1_custom_product_contain_oxygen_bond_distance_aromatic_linkinvent_7_9_3/rearranged_h_0083.sdf

> <i_m_source_file_index>
26

> <r_mmod_Potential_Energy-OPLS-2005>
846.515014648438

> <r_mmod_Stretch_Energy-OPLS-2005>
366.713592529297

> <r_mmod_Bend_Energy-OPLS-2005>
311.38232421875

> <r_mmod_Torsional_Energy-OPLS-2005>
261.260437011719

> <r_mmod_Improper_Torsional_Energy-OPLS-2005>
10.8664588928223

> <r_mmod_Van_der_Waal_Energy-OPLS-2005>
116.961944580078

> <r_mmod_Electrostatic_Energy-OPLS-2005>
-320.826690673828

> <r_mmod_Solvation_Energy-OPLS-2005>
-211.601348876953

> <b_mmod_Minimization_Converged-OPLS-2005>
0

> <r_mmod_RMS_Derivative-OPLS-2005>
1.52664244174957

$$$$
26
                    3D
 Structure written by MMmdl.
150159  0  0  1  0            999 V2000
  -30.5729  -14.7439   20.4846 C   0  0  0  0  0  0
  -30.4506  -12.4572   19.4680 C   0  0  0  0  0  0
  -29.5163  -12.5185   18.2365 C   0  0  0  0  0  0
  -28.0410  -12.3387   18.6486 C   0  0  0  0  0  0
  -27.6511  -13.2227   19.8625 C   0  0  2  0  0  0
  -28.6967  -13.1104   20.9949 C   0  0  0  0  0  0
  -25.2544  -13.8170   20.5678 C   0  0  0  0  0  0
  -24.1818  -13.0431   20.9182 C   0  0  0  0  0  0
  -24.6402  -11.6908   20.8743 C   0  0  0  0  0  0
  -23.9073  -10.4290   21.0407 C   0  0  0  0  0  0
  -24.3622   -9.4205   21.9183 C   0  0  0  0  0  0
  -23.6295   -8.2241   22.0754 C   0  0  0  0  0  0
  -22.4276   -8.0281   21.3546 C   0  0  0  0  0  0
  -21.9913   -9.0257   20.4649 C   0  0  0  0  0  0
  -22.7245  -10.2134   20.3059 C   0  0  0  0  0  0
  -21.6853   -6.0733   22.5279 C   0  0  0  0  0  0
  -21.4013   -6.5637   23.8211 C   0  0  0  0  0  0
  -21.3659   -5.6792   24.9175 C   0  0  0  0  0  0
  -21.6045   -4.3054   24.7227 C   0  0  0  0  0  0
  -21.8821   -3.8146   23.4349 C   0  0  0  0  0  0
  -21.9193   -4.6961   22.3404 C   0  0  0  0  0  0
  -22.7841  -13.5223   21.1847 C   0  0  0  0  0  0
  -22.1658   -4.2144   21.0983 F   0  0  0  0  0  0
  -21.5636   -3.4538   25.7742 F   0  0  0  0  0  0
  -30.0028  -13.4897   20.4304 N   0  0  0  0  0  0
  -26.2985  -12.9366   20.3328 N   0  0  0  0  0  0
  -25.9337  -11.6516   20.5772 N   0  0  0  0  0  0
  -22.0491  -12.8218   22.0413 N   0  0  0  0  0  0
  -25.4238  -15.1887   20.4079 N   0  0  0  0  0  0
  -31.7307  -14.9218   20.0917 O   0  0  0  0  0  0
  -21.6643   -6.8876   21.4241 O   0  0  0  0  0  0
  -22.3518  -14.5524   20.6694 O   0  0  0  0  0  0
  -24.6312  -31.8552   23.1981 C   0  0  0  0  0  0
  -25.9133  -32.4756   23.8332 C   0  0  1  0  0  0
  -27.2254  -27.2666   20.1305 C   0  0  0  0  0  0
  -25.5925  -33.8558   24.2251 N   0  0  0  0  0  0
  -23.4299  -30.4766   21.5411 C   0  0  2  0  0  0
  -24.8814  -28.9256   20.1086 C   0  0  0  0  0  0
  -22.7508  -29.4596   22.4906 C   0  0  0  0  0  0
  -18.0296  -28.1381   22.8488 C   0  0  0  0  0  0
  -24.1489  -36.7288   23.2640 C   0  0  0  0  0  0
  -25.9760  -30.7680   21.3805 C   0  0  0  0  0  0
  -26.0526  -29.3912   20.7222 C   0  0  0  0  0  0
  -27.2300  -28.5729   20.7259 C   0  0  0  0  0  0
  -26.0365  -26.8730   19.4798 C   0  0  0  0  0  0
  -24.8778  -27.6733   19.4756 C   0  0  0  0  0  0
  -23.6499  -29.8102   20.1576 C   0  0  0  0  0  0
  -25.4116  -36.3072   24.0324 C   0  0  1  0  0  0
  -20.5899  -28.3698   23.1263 C   0  0  2  0  0  0
  -20.6780  -26.9414   22.5406 C   0  0  0  0  0  0
  -19.5753  -26.6379   21.5212 C   0  0  0  0  0  0
  -18.1937  -26.7921   22.1632 C   0  0  0  0  0  0
  -19.1550  -28.8857   23.2869 C   0  0  0  0  0  0
  -18.9470  -30.1459   23.8886 C   0  0  0  0  0  0
  -17.6468  -30.6585   24.0562 C   0  0  0  0  0  0
  -25.9055  -34.9441   23.5092 C   0  0  0  0  0  0
  -16.5359  -29.9082   23.6329 C   0  0  0  0  0  0
  -16.7282  -28.6498   23.0354 C   0  0  0  0  0  0
  -26.4499  -31.6580   25.0723 C   0  0  0  0  0  0
  -25.3722  -31.3746   26.1445 C   0  0  0  0  0  0
  -27.0342  -30.2990   24.6221 C   0  0  0  0  0  0
  -27.6045  -32.4328   25.7501 C   0  0  0  0  0  0
  -27.5579  -37.1799   24.8466 C   0  0  0  0  0  0
  -21.4213  -29.3045   22.3650 N   0  0  0  0  0  0
  -26.4293  -37.3768   23.9407 N   0  0  0  0  0  0
  -24.6978  -31.0512   22.0961 N   0  0  0  0  0  0
  -23.4203  -28.8140   23.3013 O   0  0  0  0  0  0
  -28.2755  -26.3192   20.1831 O   0  0  0  0  0  0
  -26.5635  -34.8917   22.4666 O   0  0  0  0  0  0
  -23.5459  -32.1376   23.7270 O   0  0  0  0  0  0
  -30.3145  -19.5787   20.0086 C   0  0  0  0  0  0
  -30.5504  -18.1502   20.0558 C   0  0  0  0  0  0
  -28.3987  -19.3223   21.3474 C   0  0  0  0  0  0
  -29.2225  -20.2587   20.6507 C   0  0  0  0  0  0
  -29.6892  -17.2567   20.7605 C   0  0  0  0  0  0
  -28.6057  -17.9086   21.4006 C   0  0  0  0  0  0
  -28.4365  -23.7433   20.6153 C   0  0  0  0  0  0
  -27.9263  -22.5486   21.2796 C   0  0  0  0  0  0
  -27.9439  -25.0446   20.7333 C   0  0  0  0  0  0
  -29.5123  -22.8520   19.9215 C   0  0  0  0  0  0
  -28.8910  -21.7178   20.6722 N   0  0  0  0  0  0
  -29.7381  -15.7750   20.8724 N   0  0  0  0  0  0
  -26.9982  -22.4039   22.0491 O   0  0  0  0  0  0
  -27.7206  -17.1472   22.0893 F   0  0  0  0  0  0
  -31.4870  -12.6091   19.1613 H   0  0  0  0  0  0
  -30.4182  -11.4692   19.9296 H   0  0  0  0  0  0
  -29.7977  -11.7532   17.5117 H   0  0  0  0  0  0
  -29.6392  -13.4774   17.7308 H   0  0  0  0  0  0
  -27.8952  -11.2872   18.8979 H   0  0  0  0  0  0
  -27.3831  -12.5438   17.8033 H   0  0  0  0  0  0
  -27.6575  -14.2525   19.5042 H   0  0  0  0  0  0
  -28.7333  -12.0916   21.3832 H   0  0  0  0  0  0
  -28.4234  -13.7411   21.8422 H   0  0  0  0  0  0
  -25.2768   -9.5677   22.4757 H   0  0  0  0  0  0
  -24.0004   -7.4632   22.7473 H   0  0  0  0  0  0
  -21.0844   -8.8778   19.8955 H   0  0  0  0  0  0
  -22.3704  -10.9674   19.6171 H   0  0  0  0  0  0
  -21.2001   -7.6143   23.9713 H   0  0  0  0  0  0
  -21.1480   -6.0522   25.9078 H   0  0  0  0  0  0
  -22.0599   -2.7606   23.2853 H   0  0  0  0  0  0
  -22.4114  -11.9884   22.4802 H   0  0  0  0  0  0
  -21.1115  -13.1246   22.2635 H   0  0  0  0  0  0
  -24.6615  -15.8447   20.5357 H   0  0  0  0  0  0
  -26.2880  -15.6369   20.1328 H   0  0  0  0  0  0
  -26.7203  -32.5410   23.1078 H   0  0  0  0  0  0
  -25.0051  -33.9694   25.0382 H   0  0  0  0  0  0
  -22.7265  -31.2988   21.3937 H   0  0  0  0  0  0
  -23.3748  -35.9625   23.3305 H   0  0  0  0  0  0
  -24.3576  -36.8910   22.2054 H   0  0  0  0  0  0
  -23.7250  -37.6493   23.6663 H   0  0  0  0  0  0
  -26.1156  -31.5286   20.6111 H   0  0  0  0  0  0
  -26.8523  -30.8172   22.0149 H   0  0  0  0  0  0
  -28.1233  -28.9176   21.2275 H   0  0  0  0  0  0
  -25.9923  -25.9065   18.9975 H   0  0  0  0  0  0
  -23.9827  -27.3111   18.9883 H   0  0  0  0  0  0
  -23.7723  -30.5864   19.4013 H   0  0  0  0  0  0
  -22.7695  -29.2415   19.8526 H   0  0  0  0  0  0
  -25.1300  -36.1918   25.0817 H   0  0  0  0  0  0
  -20.9995  -28.3277   24.1382 H   0  0  0  0  0  0
  -20.5676  -26.2312   23.3615 H   0  0  0  0  0  0
  -21.6647  -26.7430   22.1201 H   0  0  0  0  0  0
  -19.6914  -25.6288   21.1247 H   0  0  0  0  0  0
  -19.6683  -27.3186   20.6740 H   0  0  0  0  0  0
  -17.4201  -26.6662   21.4041 H   0  0  0  0  0  0
  -18.0349  -26.0063   22.9032 H   0  0  0  0  0  0
  -19.7947  -30.7278   24.2245 H   0  0  0  0  0  0
  -17.5024  -31.6263   24.5169 H   0  0  0  0  0  0
  -15.5359  -30.2983   23.7654 H   0  0  0  0  0  0
  -15.8683  -28.0814   22.7072 H   0  0  0  0  0  0
  -24.5856  -30.7150   25.7767 H   0  0  0  0  0  0
  -24.8970  -32.2933   26.4897 H   0  0  0  0  0  0
  -25.8023  -30.8883   27.0209 H   0  0  0  0  0  0
  -26.2930  -29.6739   24.1226 H   0  0  0  0  0  0
  -27.3995  -29.7251   25.4750 H   0  0  0  0  0  0
  -27.8825  -30.4253   23.9487 H   0  0  0  0  0  0
  -27.2630  -33.3619   26.2078 H   0  0  0  0  0  0
  -28.3852  -32.6907   25.0332 H   0  0  0  0  0  0
  -28.0715  -31.8461   26.5420 H   0  0  0  0  0  0
  -28.2598  -38.0093   24.7499 H   0  0  0  0  0  0
  -28.1070  -36.2622   24.6306 H   0  0  0  0  0  0
  -27.2294  -37.1467   25.8869 H   0  0  0  0  0  0
  -20.9401  -29.8775   21.6860 H   0  0  0  0  0  0
  -26.0171  -38.2845   24.1396 H   0  0  0  0  0  0
  -31.0171  -20.1776   19.4465 H   0  0  0  0  0  0
  -31.4023  -17.7474   19.5268 H   0  0  0  0  0  0
  -27.5371  -19.6972   21.8789 H   0  0  0  0  0  0
  -27.1021  -25.1664   21.4035 H   0  0  0  0  0  0
  -30.5540  -23.0043   20.2088 H   0  0  0  0  0  0
  -29.4314  -22.7135   18.8421 H   0  0  0  0  0  0
  -28.8870  -15.4125   21.2766 H   0  0  0  0  0  0
  1 25  1  0  0  0
  1 30  2  0  0  0
  1 82  1  0  0  0
  2  3  1  0  0  0
  2 25  1  0  0  0
  2 85  1  0  0  0
  2 86  1  0  0  0
  3  4  1  0  0  0
  3 87  1  0  0  0
  3 88  1  0  0  0
  4  5  1  0  0  0
  4 89  1  0  0  0
  4 90  1  0  0  0
  5  6  1  0  0  0
  5 26  1  0  0  0
  5 91  1  0  0  0
  6 25  1  0  0  0
  6 92  1  0  0  0
  6 93  1  0  0  0
  7  8  2  0  0  0
  7 26  1  0  0  0
  7 29  1  0  0  0
  8  9  1  0  0  0
  8 22  1  0  0  0
  9 10  1  0  0  0
  9 27  2  0  0  0
 10 11  2  0  0  0
 10 15  1  0  0  0
 11 12  1  0  0  0
 11 94  1  0  0  0
 12 13  2  0  0  0
 12 95  1  0  0  0
 13 14  1  0  0  0
 13 31  1  0  0  0
 14 15  2  0  0  0
 14 96  1  0  0  0
 15 97  1  0  0  0
 16 17  2  0  0  0
 16 21  1  0  0  0
 16 31  1  0  0  0
 17 18  1  0  0  0
 17 98  1  0  0  0
 18 19  2  0  0  0
 18 99  1  0  0  0
 19 20  1  0  0  0
 19 24  1  0  0  0
 20 21  2  0  0  0
 20100  1  0  0  0
 21 23  1  0  0  0
 22 28  1  0  0  0
 22 32  2  0  0  0
 26 27  1  0  0  0
 28101  1  0  0  0
 28102  1  0  0  0
 29103  1  0  0  0
 29104  1  0  0  0
 33 34  1  0  0  0
 33 66  1  0  0  0
 33 70  2  0  0  0
 34 36  1  0  0  0
 34 59  1  0  0  0
 34105  1  0  0  0
 35 44  2  0  0  0
 35 45  1  0  0  0
 35 68  1  0  0  0
 36 56  1  0  0  0
 36106  1  0  0  0
 37 39  1  0  0  0
 37 47  1  0  0  0
 37 66  1  0  0  0
 37107  1  0  0  0
 38 43  2  0  0  0
 38 46  1  0  0  0
 38 47  1  0  0  0
 39 64  1  0  0  0
 39 67  2  0  0  0
 40 52  1  0  0  0
 40 53  2  0  0  0
 40 58  1  0  0  0
 41108  1  0  0  0
 41109  1  0  0  0
 41110  1  0  0  0
 41 48  1  0  0  0
 42 43  1  0  0  0
 42 66  1  0  0  0
 42111  1  0  0  0
 42112  1  0  0  0
 43 44  1  0  0  0
 44113  1  0  0  0
 45 46  2  0  0  0
 45114  1  0  0  0
 46115  1  0  0  0
 47116  1  0  0  0
 47117  1  0  0  0
 48 56  1  0  0  0
 48 65  1  0  0  0
 48118  1  0  0  0
 49 50  1  0  0  0
 49 53  1  0  0  0
 49 64  1  0  0  0
 49119  1  0  0  0
 50 51  1  0  0  0
 50120  1  0  0  0
 50121  1  0  0  0
 51 52  1  0  0  0
 51122  1  0  0  0
 51123  1  0  0  0
 52124  1  0  0  0
 52125  1  0  0  0
 53 54  1  0  0  0
 54 55  2  0  0  0
 54126  1  0  0  0
 55 57  1  0  0  0
 55127  1  0  0  0
 56 69  2  0  0  0
 57 58  2  0  0  0
 57128  1  0  0  0
 58129  1  0  0  0
 59 60  1  0  0  0
 59 61  1  0  0  0
 59 62  1  0  0  0
 60130  1  0  0  0
 60131  1  0  0  0
 60132  1  0  0  0
 61133  1  0  0  0
 61134  1  0  0  0
 61135  1  0  0  0
 62136  1  0  0  0
 62137  1  0  0  0
 62138  1  0  0  0
 63 65  1  0  0  0
 63139  1  0  0  0
 63140  1  0  0  0
 63141  1  0  0  0
 64142  1  0  0  0
 65143  1  0  0  0
 68 79  1  0  0  0
 71 72  2  0  0  0
 71 74  1  0  0  0
 71144  1  0  0  0
 72 75  1  0  0  0
 72145  1  0  0  0
 73 74  2  0  0  0
 73 76  1  0  0  0
 73146  1  0  0  0
 74 81  1  0  0  0
 75 76  2  0  0  0
 75 82  1  0  0  0
 76 84  1  0  0  0
 77 78  1  0  0  0
 77 79  2  0  0  0
 77 80  1  0  0  0
 78 81  1  0  0  0
 78 83  2  0  0  0
 79147  1  0  0  0
 80 81  1  0  0  0
 80148  1  0  0  0
 80149  1  0  0  0
 82150  1  0  0  0
M  ISO  4   1 100  68 101  79 101  82 100
M  END
> <chiral flag>
0

> <version>
0

> <s_m_source_file>
/data/baiqing/PycharmProjects/Reinvent-master-3.2/result/LINK_invent/BTK/process_docking_weight1_custom_product_contain_oxygen_bond_distance_aromatic_linkinvent_7_9_3/rearranged_h_0083.sdf

> <i_m_source_file_index>
27

> <r_mmod_Potential_Energy-OPLS-2005>
198.142578125

> <r_mmod_Stretch_Energy-OPLS-2005>
106.317687988281

> <r_mmod_Bend_Energy-OPLS-2005>
271.832885742188

> <r_mmod_Torsional_Energy-OPLS-2005>
219.378356933594

> <r_mmod_Improper_Torsional_Energy-OPLS-2005>
3.23730540275574

> <r_mmod_Van_der_Waal_Energy-OPLS-2005>
133.984222412109

> <r_mmod_Electrostatic_Energy-OPLS-2005>
-415.522491455078

> <r_mmod_Solvation_Energy-OPLS-2005>
-209.682037353516

> <b_mmod_Minimization_Converged-OPLS-2005>
0

> <r_mmod_RMS_Derivative-OPLS-2005>
0.625052928924561

$$$$
27
                    3D
 Structure written by MMmdl.
154163  0  0  1  0            999 V2000
  -30.5937  -14.6869   20.4966 C   0  0  0  0  0  0
  -30.4457  -12.4209   19.4629 C   0  0  0  0  0  0
  -29.5156  -12.5150   18.2318 C   0  0  0  0  0  0
  -28.0379  -12.3437   18.6404 C   0  0  0  0  0  0
  -27.6533  -13.2176   19.8637 C   0  0  2  0  0  0
  -28.6969  -13.0819   20.9955 C   0  0  0  0  0  0
  -25.2563  -13.8173   20.5685 C   0  0  0  0  0  0
  -24.1828  -13.0441   20.9185 C   0  0  0  0  0  0
  -24.6392  -11.6912   20.8732 C   0  0  0  0  0  0
  -23.9060  -10.4296   21.0401 C   0  0  0  0  0  0
  -24.3613   -9.4211   21.9178 C   0  0  0  0  0  0
  -23.6287   -8.2248   22.0755 C   0  0  0  0  0  0
  -22.4268   -8.0285   21.3548 C   0  0  0  0  0  0
  -21.9901   -9.0258   20.4649 C   0  0  0  0  0  0
  -22.7231  -10.2134   20.3053 C   0  0  0  0  0  0
  -21.6858   -6.0733   22.5275 C   0  0  0  0  0  0
  -21.4018   -6.5635   23.8210 C   0  0  0  0  0  0
  -21.3660   -5.6786   24.9171 C   0  0  0  0  0  0
  -21.6043   -4.3049   24.7222 C   0  0  0  0  0  0
  -21.8820   -3.8143   23.4342 C   0  0  0  0  0  0
  -21.9195   -4.6960   22.3397 C   0  0  0  0  0  0
  -22.7849  -13.5238   21.1848 C   0  0  0  0  0  0
  -22.1663   -4.2148   21.0974 F   0  0  0  0  0  0
  -21.5627   -3.4531   25.7735 F   0  0  0  0  0  0
  -30.0091  -13.4445   20.4356 N   0  0  0  0  0  0
  -26.2985  -12.9350   20.3306 N   0  0  0  0  0  0
  -25.9322  -11.6505   20.5743 N   0  0  0  0  0  0
  -22.0484  -12.8240   22.0403 N   0  0  0  0  0  0
  -25.4283  -15.1894   20.4109 N   0  0  0  0  0  0
  -31.7518  -14.8608   20.1032 O   0  0  0  0  0  0
  -21.6640   -6.8876   21.4239 O   0  0  0  0  0  0
  -22.3538  -14.5548   20.6695 O   0  0  0  0  0  0
  -24.6280  -31.8580   23.2012 C   0  0  0  0  0  0
  -25.9119  -32.4770   23.8347 C   0  0  1  0  0  0
  -27.2250  -27.2997   20.1263 C   0  0  0  0  0  0
  -25.5922  -33.8573   24.2269 N   0  0  0  0  0  0
  -23.4235  -30.4802   21.5438 C   0  0  2  0  0  0
  -24.8721  -28.9318   20.1110 C   0  0  0  0  0  0
  -22.7487  -29.4612   22.4929 C   0  0  0  0  0  0
  -18.0291  -28.1382   22.8487 C   0  0  0  0  0  0
  -24.1487  -36.7296   23.2637 C   0  0  0  0  0  0
  -25.9658  -30.7811   21.3771 C   0  0  0  0  0  0
  -26.0407  -29.4059   20.7221 C   0  0  0  0  0  0
  -27.2207  -28.6000   20.7237 C   0  0  0  0  0  0
  -26.0387  -26.8879   19.4797 C   0  0  0  0  0  0
  -24.8732  -27.6778   19.4808 C   0  0  0  0  0  0
  -23.6401  -29.8137   20.1596 C   0  0  0  0  0  0
  -25.4108  -36.3080   24.0328 C   0  0  1  0  0  0
  -20.5892  -28.3691   23.1278 C   0  0  2  0  0  0
  -20.6782  -26.9413   22.5405 C   0  0  0  0  0  0
  -19.5754  -26.6380   21.5213 C   0  0  0  0  0  0
  -18.1934  -26.7924   22.1628 C   0  0  0  0  0  0
  -19.1543  -28.8854   23.2876 C   0  0  0  0  0  0
  -18.9464  -30.1456   23.8891 C   0  0  0  0  0  0
  -17.6464  -30.6585   24.0559 C   0  0  0  0  0  0
  -25.9047  -34.9449   23.5100 C   0  0  0  0  0  0
  -16.5356  -29.9080   23.6329 C   0  0  0  0  0  0
  -16.7278  -28.6498   23.0351 C   0  0  0  0  0  0
  -26.4492  -31.6592   25.0730 C   0  0  0  0  0  0
  -25.3718  -31.3748   26.1456 C   0  0  0  0  0  0
  -27.0344  -30.3012   24.6209 C   0  0  0  0  0  0
  -27.6046  -32.4331   25.7504 C   0  0  0  0  0  0
  -27.5581  -37.1794   24.8455 C   0  0  0  0  0  0
  -21.4198  -29.3044   22.3672 N   0  0  0  0  0  0
  -26.4283  -37.3778   23.9413 N   0  0  0  0  0  0
  -24.6912  -31.0569   22.0974 N   0  0  0  0  0  0
  -23.4199  -28.8153   23.3019 O   0  0  0  0  0  0
  -28.3171  -26.4129   20.1582 O   0  0  0  0  0  0
  -26.5618  -34.8922   22.4669 O   0  0  0  0  0  0
  -23.5438  -32.1389   23.7326 O   0  0  0  0  0  0
  -28.5738  -19.3587   21.0983 C   0  0  0  0  0  0
  -30.6724  -19.3915   19.9566 C   0  0  0  0  0  0
  -28.6813  -17.9380   21.2258 C   0  0  0  0  0  0
  -30.7823  -17.9658   20.0834 C   0  0  0  0  0  0
  -29.5644  -20.1527   20.4518 C   0  0  0  0  0  0
  -29.7807  -17.1864   20.7242 C   0  0  0  0  0  0
  -28.8670  -23.9310   20.2720 C   0  0  0  0  0  0
  -30.1820  -23.8284   19.7056 C   0  0  0  0  0  0
  -28.4868  -22.5343   20.6300 C   0  0  0  0  0  0
  -30.9410  -24.8539   19.2820 C   0  0  0  0  0  0
  -28.0703  -25.0478   20.4636 C   0  0  0  0  0  0
  -30.6089  -22.3770   19.6777 C   0  0  0  0  0  0
  -29.4919  -21.6375   20.2925 N   0  0  0  0  0  0
  -29.7677  -15.7195   20.8819 N   0  0  0  0  0  0
  -27.4147  -22.2150   21.1542 O   0  0  0  0  0  0
  -31.4860  -12.5568   19.1624 H   0  0  0  0  0  0
  -30.3926  -11.4276   19.9111 H   0  0  0  0  0  0
  -29.7893  -11.7597   17.4939 H   0  0  0  0  0  0
  -29.6508  -13.4813   17.7439 H   0  0  0  0  0  0
  -27.8808  -11.2906   18.8760 H   0  0  0  0  0  0
  -27.3850  -12.5670   17.7958 H   0  0  0  0  0  0
  -27.6681  -14.2511   19.5175 H   0  0  0  0  0  0
  -28.7190  -12.0590   21.3746 H   0  0  0  0  0  0
  -28.4320  -13.7070   21.8496 H   0  0  0  0  0  0
  -25.2760   -9.5692   22.4748 H   0  0  0  0  0  0
  -24.0003   -7.4640   22.7475 H   0  0  0  0  0  0
  -21.0833   -8.8774   19.8953 H   0  0  0  0  0  0
  -22.3689  -10.9673   19.6159 H   0  0  0  0  0  0
  -21.2013   -7.6144   23.9714 H   0  0  0  0  0  0
  -21.1479   -6.0514   25.9074 H   0  0  0  0  0  0
  -22.0599   -2.7606   23.2843 H   0  0  0  0  0  0
  -22.4093  -11.9903   22.4801 H   0  0  0  0  0  0
  -21.1107  -13.1282   22.2608 H   0  0  0  0  0  0
  -24.6596  -15.8430   20.5138 H   0  0  0  0  0  0
  -26.2718  -15.6257   20.0604 H   0  0  0  0  0  0
  -26.7193  -32.5430   23.1098 H   0  0  0  0  0  0
  -25.0059  -33.9716   25.0408 H   0  0  0  0  0  0
  -22.7187  -31.3015   21.3991 H   0  0  0  0  0  0
  -23.3751  -35.9626   23.3286 H   0  0  0  0  0  0
  -24.3584  -36.8931   22.2054 H   0  0  0  0  0  0
  -23.7243  -37.6494   23.6670 H   0  0  0  0  0  0
  -26.0987  -31.5420   20.6068 H   0  0  0  0  0  0
  -26.8459  -30.8321   22.0066 H   0  0  0  0  0  0
  -28.1157  -28.9540   21.2151 H   0  0  0  0  0  0
  -26.0014  -25.9259   18.9878 H   0  0  0  0  0  0
  -23.9798  -27.3100   18.9947 H   0  0  0  0  0  0
  -23.7595  -30.5895   19.4025 H   0  0  0  0  0  0
  -22.7598  -29.2437   19.8565 H   0  0  0  0  0  0
  -25.1288  -36.1924   25.0820 H   0  0  0  0  0  0
  -20.9985  -28.3266   24.1399 H   0  0  0  0  0  0
  -20.5689  -26.2299   23.3606 H   0  0  0  0  0  0
  -21.6650  -26.7442   22.1195 H   0  0  0  0  0  0
  -19.6912  -25.6289   21.1250 H   0  0  0  0  0  0
  -19.6685  -27.3187   20.6739 H   0  0  0  0  0  0
  -17.4201  -26.6670   21.4034 H   0  0  0  0  0  0
  -18.0332  -26.0064   22.9023 H   0  0  0  0  0  0
  -19.7938  -30.7275   24.2256 H   0  0  0  0  0  0
  -17.5016  -31.6267   24.5159 H   0  0  0  0  0  0
  -15.5356  -30.2978   23.7655 H   0  0  0  0  0  0
  -15.8679  -28.0814   22.7071 H   0  0  0  0  0  0
  -24.5855  -30.7144   25.7779 H   0  0  0  0  0  0
  -24.8957  -32.2930   26.4908 H   0  0  0  0  0  0
  -25.8024  -30.8886   27.0219 H   0  0  0  0  0  0
  -26.2935  -29.6756   24.1219 H   0  0  0  0  0  0
  -27.4020  -29.7277   25.4730 H   0  0  0  0  0  0
  -27.8811  -30.4299   23.9462 H   0  0  0  0  0  0
  -27.2645  -33.3617   26.2102 H   0  0  0  0  0  0
  -28.3845  -32.6917   25.0329 H   0  0  0  0  0  0
  -28.0729  -31.8448   26.5406 H   0  0  0  0  0  0
  -28.2575  -38.0115   24.7537 H   0  0  0  0  0  0
  -28.1103  -36.2650   24.6230 H   0  0  0  0  0  0
  -27.2308  -37.1381   25.8858 H   0  0  0  0  0  0
  -20.9378  -29.8765   21.6878 H   0  0  0  0  0  0
  -26.0162  -38.2849   24.1427 H   0  0  0  0  0  0
  -27.6947  -19.8228   21.5192 H   0  0  0  0  0  0
  -31.4812  -19.8985   19.4508 H   0  0  0  0  0  0
  -27.8770  -17.4185   21.7279 H   0  0  0  0  0  0
  -31.6526  -17.4774   19.6680 H   0  0  0  0  0  0
  -30.5999  -25.8776   19.3309 H   0  0  0  0  0  0
  -31.9287  -24.6833   18.8782 H   0  0  0  0  0  0
  -27.0987  -24.9246   20.9244 H   0  0  0  0  0  0
  -31.5281  -22.2385   20.2487 H   0  0  0  0  0  0
  -30.7724  -22.0521   18.6492 H   0  0  0  0  0  0
  -28.9002  -15.3650   21.2552 H   0  0  0  0  0  0
  1 25  1  0  0  0
  1 30  2  0  0  0
  1 84  1  0  0  0
  2  3  1  0  0  0
  2 25  1  0  0  0
  2 86  1  0  0  0
  2 87  1  0  0  0
  3  4  1  0  0  0
  3 88  1  0  0  0
  3 89  1  0  0  0
  4  5  1  0  0  0
  4 90  1  0  0  0
  4 91  1  0  0  0
  5  6  1  0  0  0
  5 26  1  0  0  0
  5 92  1  0  0  0
  6 25  1  0  0  0
  6 93  1  0  0  0
  6 94  1  0  0  0
  7  8  2  0  0  0
  7 26  1  0  0  0
  7 29  1  0  0  0
  8  9  1  0  0  0
  8 22  1  0  0  0
  9 10  1  0  0  0
  9 27  2  0  0  0
 10 11  2  0  0  0
 10 15  1  0  0  0
 11 12  1  0  0  0
 11 95  1  0  0  0
 12 13  2  0  0  0
 12 96  1  0  0  0
 13 14  1  0  0  0
 13 31  1  0  0  0
 14 15  2  0  0  0
 14 97  1  0  0  0
 15 98  1  0  0  0
 16 17  2  0  0  0
 16 21  1  0  0  0
 16 31  1  0  0  0
 17 18  1  0  0  0
 17 99  1  0  0  0
 18 19  2  0  0  0
 18100  1  0  0  0
 19 20  1  0  0  0
 19 24  1  0  0  0
 20 21  2  0  0  0
 20101  1  0  0  0
 21 23  1  0  0  0
 22 28  1  0  0  0
 22 32  2  0  0  0
 26 27  1  0  0  0
 28102  1  0  0  0
 28103  1  0  0  0
 29104  1  0  0  0
 29105  1  0  0  0
 33 34  1  0  0  0
 33 66  1  0  0  0
 33 70  2  0  0  0
 34 36  1  0  0  0
 34 59  1  0  0  0
 34106  1  0  0  0
 35 44  2  0  0  0
 35 45  1  0  0  0
 35 68  1  0  0  0
 36 56  1  0  0  0
 36107  1  0  0  0
 37 39  1  0  0  0
 37 47  1  0  0  0
 37 66  1  0  0  0
 37108  1  0  0  0
 38 43  2  0  0  0
 38 46  1  0  0  0
 38 47  1  0  0  0
 39 64  1  0  0  0
 39 67  2  0  0  0
 40 52  1  0  0  0
 40 53  2  0  0  0
 40 58  1  0  0  0
 41109  1  0  0  0
 41110  1  0  0  0
 41111  1  0  0  0
 41 48  1  0  0  0
 42 43  1  0  0  0
 42 66  1  0  0  0
 42112  1  0  0  0
 42113  1  0  0  0
 43 44  1  0  0  0
 44114  1  0  0  0
 45 46  2  0  0  0
 45115  1  0  0  0
 46116  1  0  0  0
 47117  1  0  0  0
 47118  1  0  0  0
 48 56  1  0  0  0
 48 65  1  0  0  0
 48119  1  0  0  0
 49 50  1  0  0  0
 49 53  1  0  0  0
 49 64  1  0  0  0
 49120  1  0  0  0
 50 51  1  0  0  0
 50121  1  0  0  0
 50122  1  0  0  0
 51 52  1  0  0  0
 51123  1  0  0  0
 51124  1  0  0  0
 52125  1  0  0  0
 52126  1  0  0  0
 53 54  1  0  0  0
 54 55  2  0  0  0
 54127  1  0  0  0
 55 57  1  0  0  0
 55128  1  0  0  0
 56 69  2  0  0  0
 57 58  2  0  0  0
 57129  1  0  0  0
 58130  1  0  0  0
 59 60  1  0  0  0
 59 61  1  0  0  0
 59 62  1  0  0  0
 60131  1  0  0  0
 60132  1  0  0  0
 60133  1  0  0  0
 61134  1  0  0  0
 61135  1  0  0  0
 61136  1  0  0  0
 62137  1  0  0  0
 62138  1  0  0  0
 62139  1  0  0  0
 63 65  1  0  0  0
 63140  1  0  0  0
 63141  1  0  0  0
 63142  1  0  0  0
 64143  1  0  0  0
 65144  1  0  0  0
 68 81  1  0  0  0
 71 73  2  0  0  0
 71 75  1  0  0  0
 71145  1  0  0  0
 72 74  1  0  0  0
 72 75  2  0  0  0
 72146  1  0  0  0
 73 76  1  0  0  0
 73147  1  0  0  0
 74 76  2  0  0  0
 74148  1  0  0  0
 75 83  1  0  0  0
 76 84  1  0  0  0
 77 78  1  0  0  0
 77 79  1  0  0  0
 77 81  2  0  0  0
 78 80  2  0  0  0
 78 82  1  0  0  0
 79 83  1  0  0  0
 79 85  2  0  0  0
 80149  1  0  0  0
 80150  1  0  0  0
 81151  1  0  0  0
 82 83  1  0  0  0
 82152  1  0  0  0
 82153  1  0  0  0
 84154  1  0  0  0
M  ISO  4   1 100  68 101  81 101  84 100
M  END
> <chiral flag>
0

> <version>
0

> <s_m_source_file>
/data/baiqing/PycharmProjects/Reinvent-master-3.2/result/LINK_invent/BTK/process_docking_weight1_custom_product_contain_oxygen_bond_distance_aromatic_linkinvent_7_9_3/rearranged_h_0083.sdf

> <i_m_source_file_index>
28

> <r_mmod_Potential_Energy-OPLS-2005>
213.749710083008

> <r_mmod_Stretch_Energy-OPLS-2005>
94.9645385742188

> <r_mmod_Bend_Energy-OPLS-2005>
196.454376220703

> <r_mmod_Torsional_Energy-OPLS-2005>
246.572250366211

> <r_mmod_Improper_Torsional_Energy-OPLS-2005>
3.60927796363831

> <r_mmod_Van_der_Waal_Energy-OPLS-2005>
143.749618530273

> <r_mmod_Electrostatic_Energy-OPLS-2005>
-326.163909912109

> <r_mmod_Solvation_Energy-OPLS-2005>
-208.378356933594

> <b_mmod_Minimization_Converged-OPLS-2005>
0

> <r_mmod_RMS_Derivative-OPLS-2005>
0.686327934265137

$$$$
28
                    3D
 Structure written by MMmdl.
156164  0  0  1  0            999 V2000
  -30.6863  -14.4823   20.5484 C   0  0  0  0  0  0
  -30.4389  -12.3078   19.4278 C   0  0  0  0  0  0
  -29.5024  -12.4877   18.2134 C   0  0  0  0  0  0
  -28.0221  -12.3575   18.6266 C   0  0  0  0  0  0
  -27.6700  -13.1972   19.8846 C   0  0  2  0  0  0
  -28.7146  -12.9721   21.0035 C   0  0  0  0  0  0
  -25.2661  -13.8173   20.5672 C   0  0  0  0  0  0
  -24.1869  -13.0489   20.9142 C   0  0  0  0  0  0
  -24.6368  -11.6937   20.8724 C   0  0  0  0  0  0
  -23.9027  -10.4334   21.0388 C   0  0  0  0  0  0
  -24.3600   -9.4269   21.9170 C   0  0  0  0  0  0
  -23.6295   -8.2298   22.0742 C   0  0  0  0  0  0
  -22.4282   -8.0299   21.3533 C   0  0  0  0  0  0
  -21.9889   -9.0271   20.4648 C   0  0  0  0  0  0
  -22.7187  -10.2163   20.3064 C   0  0  0  0  0  0
  -21.6868   -6.0749   22.5270 C   0  0  0  0  0  0
  -21.4010   -6.5639   23.8199 C   0  0  0  0  0  0
  -21.3656   -5.6783   24.9157 C   0  0  0  0  0  0
  -21.6053   -4.3049   24.7208 C   0  0  0  0  0  0
  -21.8843   -3.8143   23.4326 C   0  0  0  0  0  0
  -21.9216   -4.6974   22.3395 C   0  0  0  0  0  0
  -22.7885  -13.5317   21.1758 C   0  0  0  0  0  0
  -22.1675   -4.2156   21.0973 F   0  0  0  0  0  0
  -21.5633   -3.4542   25.7727 F   0  0  0  0  0  0
  -30.0431  -13.2864   20.4533 N   0  0  0  0  0  0
  -26.3081  -12.9288   20.3431 N   0  0  0  0  0  0
  -25.9311  -11.6467   20.5822 N   0  0  0  0  0  0
  -22.0485  -12.8394   22.0324 N   0  0  0  0  0  0
  -25.4507  -15.1880   20.4068 N   0  0  0  0  0  0
  -31.8222  -14.6683   20.1022 O   0  0  0  0  0  0
  -21.6661   -6.8885   21.4225 O   0  0  0  0  0  0
  -22.3606  -14.5611   20.6532 O   0  0  0  0  0  0
  -24.6200  -31.8668   23.2091 C   0  0  0  0  0  0
  -25.9080  -32.4815   23.8393 C   0  0  1  0  0  0
  -27.2201  -27.3912   20.1089 C   0  0  0  0  0  0
  -25.5898  -33.8610   24.2296 N   0  0  0  0  0  0
  -23.4081  -30.5017   21.5413 C   0  0  2  0  0  0
  -24.8512  -28.9634   20.1048 C   0  0  0  0  0  0
  -22.7425  -29.4705   22.4837 C   0  0  0  0  0  0
  -18.0292  -28.1415   22.8466 C   0  0  0  0  0  0
  -24.1471  -36.7331   23.2649 C   0  0  0  0  0  0
  -25.9422  -30.8234   21.3670 C   0  0  0  0  0  0
  -26.0121  -29.4559   20.7109 C   0  0  0  0  0  0
  -27.1958  -28.6775   20.7095 C   0  0  0  0  0  0
  -26.0326  -26.9172   19.5052 C   0  0  0  0  0  0
  -24.8573  -27.6964   19.4991 C   0  0  0  0  0  0
  -23.6239  -29.8490   20.1493 C   0  0  0  0  0  0
  -25.4093  -36.3106   24.0335 C   0  0  1  0  0  0
  -20.5893  -28.3723   23.1239 C   0  0  2  0  0  0
  -20.6772  -26.9436   22.5389 C   0  0  0  0  0  0
  -19.5748  -26.6394   21.5194 C   0  0  0  0  0  0
  -18.1933  -26.7949   22.1616 C   0  0  0  0  0  0
  -19.1549  -28.8873   23.2873 C   0  0  0  0  0  0
  -18.9483  -30.1461   23.8924 C   0  0  0  0  0  0
  -17.6490  -30.6613   24.0571 C   0  0  0  0  0  0
  -25.9030  -34.9475   23.5114 C   0  0  0  0  0  0
  -16.5375  -29.9133   23.6313 C   0  0  0  0  0  0
  -16.7282  -28.6547   23.0333 C   0  0  0  0  0  0
  -26.4477  -31.6637   25.0761 C   0  0  0  0  0  0
  -25.3727  -31.3788   26.1504 C   0  0  0  0  0  0
  -27.0319  -30.3064   24.6207 C   0  0  0  0  0  0
  -27.6023  -32.4380   25.7543 C   0  0  0  0  0  0
  -27.5562  -37.1833   24.8452 C   0  0  0  0  0  0
  -21.4146  -29.3097   22.3605 N   0  0  0  0  0  0
  -26.4266  -37.3799   23.9416 N   0  0  0  0  0  0
  -24.6749  -31.0791   22.0974 N   0  0  0  0  0  0
  -23.4170  -28.8228   23.2891 O   0  0  0  0  0  0
  -28.3872  -26.6434   20.1736 O   0  0  0  0  0  0
  -26.5595  -34.8935   22.4678 O   0  0  0  0  0  0
  -23.5387  -32.1410   23.7479 O   0  0  0  0  0  0
  -29.3063  -17.7840   18.0672 C   0  0  0  0  0  0
  -29.3383  -19.0537   18.6723 C   0  0  0  0  0  0
  -29.4943  -16.6258   18.8385 C   0  0  0  0  0  0
  -29.7333  -18.0028   20.8405 C   0  0  0  0  0  0
  -29.5321  -19.1844   20.0690 C   0  0  0  0  0  0
  -29.7374  -16.7169   20.2296 C   0  0  0  0  0  0
  -29.6738  -20.5678   20.6761 C   0  0  0  0  0  0
  -28.4496  -24.1006   20.1696 C   0  0  0  0  0  0
  -30.2370  -23.0300   18.5606 C   0  0  0  0  0  0
  -28.5656  -25.4422   19.3784 C   0  0  0  0  0  0
  -29.5098  -22.9621   19.9212 C   0  0  2  0  0  0
  -29.9379  -15.5166   20.9885 N   0  0  0  0  0  0
  -28.9997  -21.5757   20.0822 N   0  0  0  0  0  0
  -30.4289  -20.7487   21.6327 O   0  0  0  0  0  0
  -27.5243  -23.9548   20.9765 O   0  0  0  0  0  0
  -31.4793  -12.4277   19.1186 H   0  0  0  0  0  0
  -30.3691  -11.2962   19.8252 H   0  0  0  0  0  0
  -29.7398  -11.7470   17.4502 H   0  0  0  0  0  0
  -29.6722  -13.4584   17.7501 H   0  0  0  0  0  0
  -27.8276  -11.3027   18.8218 H   0  0  0  0  0  0
  -27.3723  -12.6391   17.7986 H   0  0  0  0  0  0
  -27.7154  -14.2446   19.5896 H   0  0  0  0  0  0
  -28.6976  -11.9312   21.3314 H   0  0  0  0  0  0
  -28.4885  -13.5669   21.8893 H   0  0  0  0  0  0
  -25.2756   -9.5787   22.4723 H   0  0  0  0  0  0
  -24.0041   -7.4723   22.7469 H   0  0  0  0  0  0
  -21.0811   -8.8767   19.8979 H   0  0  0  0  0  0
  -22.3601  -10.9702   19.6184 H   0  0  0  0  0  0
  -21.1953   -7.6138   23.9705 H   0  0  0  0  0  0
  -21.1445   -6.0491   25.9056 H   0  0  0  0  0  0
  -22.0616   -2.7606   23.2818 H   0  0  0  0  0  0
  -22.4064  -12.0105   22.4846 H   0  0  0  0  0  0
  -21.1093  -13.1446   22.2452 H   0  0  0  0  0  0
  -24.6965  -15.8587   20.5045 H   0  0  0  0  0  0
  -26.3179  -15.6150   20.1044 H   0  0  0  0  0  0
  -26.7156  -32.5487   23.1162 H   0  0  0  0  0  0
  -24.9997  -33.9739   25.0405 H   0  0  0  0  0  0
  -22.7019  -31.3236   21.4037 H   0  0  0  0  0  0
  -23.3715  -35.9681   23.3316 H   0  0  0  0  0  0
  -24.3567  -36.8955   22.2064 H   0  0  0  0  0  0
  -23.7241  -37.6548   23.6662 H   0  0  0  0  0  0
  -26.0652  -31.5924   20.6022 H   0  0  0  0  0  0
  -26.8270  -30.8697   21.9901 H   0  0  0  0  0  0
  -28.0891  -29.0522   21.1881 H   0  0  0  0  0  0
  -25.9757  -25.9341   19.0626 H   0  0  0  0  0  0
  -23.9584  -27.3119   19.0369 H   0  0  0  0  0  0
  -23.7639  -30.6370   19.4072 H   0  0  0  0  0  0
  -22.7400  -29.2992   19.8226 H   0  0  0  0  0  0
  -25.1281  -36.1963   25.0827 H   0  0  0  0  0  0
  -21.0029  -28.3322   24.1341 H   0  0  0  0  0  0
  -20.5641  -26.2348   23.3607 H   0  0  0  0  0  0
  -21.6646  -26.7436   22.1208 H   0  0  0  0  0  0
  -19.6909  -25.6291   21.1259 H   0  0  0  0  0  0
  -19.6703  -27.3174   20.6699 H   0  0  0  0  0  0
  -17.4189  -26.6670   21.4040 H   0  0  0  0  0  0
  -18.0362  -26.0110   22.9037 H   0  0  0  0  0  0
  -19.7972  -30.7252   24.2315 H   0  0  0  0  0  0
  -17.5073  -31.6299   24.5172 H   0  0  0  0  0  0
  -15.5391  -30.3080   23.7626 H   0  0  0  0  0  0
  -15.8664  -28.0902   22.7035 H   0  0  0  0  0  0
  -24.5835  -30.7212   25.7850 H   0  0  0  0  0  0
  -24.9007  -32.2976   26.4997 H   0  0  0  0  0  0
  -25.8062  -30.8909   27.0239 H   0  0  0  0  0  0
  -26.2911  -29.6844   24.1169 H   0  0  0  0  0  0
  -27.3952  -29.7303   25.4730 H   0  0  0  0  0  0
  -27.8801  -30.4371   23.9481 H   0  0  0  0  0  0
  -27.2593  -33.3630   26.2194 H   0  0  0  0  0  0
  -28.3813  -32.7035   25.0386 H   0  0  0  0  0  0
  -28.0718  -31.8474   26.5423 H   0  0  0  0  0  0
  -28.2576  -38.0133   24.7481 H   0  0  0  0  0  0
  -28.1055  -36.2661   24.6277 H   0  0  0  0  0  0
  -27.2282  -37.1497   25.8856 H   0  0  0  0  0  0
  -20.9262  -29.8872   21.6899 H   0  0  0  0  0  0
  -26.0146  -38.2866   24.1447 H   0  0  0  0  0  0
  -29.1589  -17.6938   17.0004 H   0  0  0  0  0  0
  -29.2518  -19.9279   18.0429 H   0  0  0  0  0  0
  -29.4588  -15.6673   18.3395 H   0  0  0  0  0  0
  -29.9262  -18.0925   21.9005 H   0  0  0  0  0  0
  -30.8316  -23.9362   18.4579 H   0  0  0  0  0  0
  -29.5390  -22.9849   17.7238 H   0  0  0  0  0  0
  -30.9327  -22.1969   18.4477 H   0  0  0  0  0  0
  -27.8960  -25.4093   18.5205 H   0  0  0  0  0  0
  -29.5666  -25.5199   18.9626 H   0  0  0  0  0  0
  -30.2830  -23.1169   20.6751 H   0  0  0  0  0  0
  -29.1653  -15.2541   21.5815 H   0  0  0  0  0  0
  -28.2897  -21.2909   19.4212 H   0  0  0  0  0  0
  1 25  1  0  0  0
  1 30  2  0  0  0
  1 82  1  0  0  0
  2  3  1  0  0  0
  2 25  1  0  0  0
  2 86  1  0  0  0
  2 87  1  0  0  0
  3  4  1  0  0  0
  3 88  1  0  0  0
  3 89  1  0  0  0
  4  5  1  0  0  0
  4 90  1  0  0  0
  4 91  1  0  0  0
  5  6  1  0  0  0
  5 26  1  0  0  0
  5 92  1  0  0  0
  6 25  1  0  0  0
  6 93  1  0  0  0
  6 94  1  0  0  0
  7  8  2  0  0  0
  7 26  1  0  0  0
  7 29  1  0  0  0
  8  9  1  0  0  0
  8 22  1  0  0  0
  9 10  1  0  0  0
  9 27  2  0  0  0
 10 11  2  0  0  0
 10 15  1  0  0  0
 11 12  1  0  0  0
 11 95  1  0  0  0
 12 13  2  0  0  0
 12 96  1  0  0  0
 13 14  1  0  0  0
 13 31  1  0  0  0
 14 15  2  0  0  0
 14 97  1  0  0  0
 15 98  1  0  0  0
 16 17  2  0  0  0
 16 21  1  0  0  0
 16 31  1  0  0  0
 17 18  1  0  0  0
 17 99  1  0  0  0
 18 19  2  0  0  0
 18100  1  0  0  0
 19 20  1  0  0  0
 19 24  1  0  0  0
 20 21  2  0  0  0
 20101  1  0  0  0
 21 23  1  0  0  0
 22 28  1  0  0  0
 22 32  2  0  0  0
 26 27  1  0  0  0
 28102  1  0  0  0
 28103  1  0  0  0
 29104  1  0  0  0
 29105  1  0  0  0
 33 34  1  0  0  0
 33 66  1  0  0  0
 33 70  2  0  0  0
 34 36  1  0  0  0
 34 59  1  0  0  0
 34106  1  0  0  0
 35 44  2  0  0  0
 35 45  1  0  0  0
 35 68  1  0  0  0
 36 56  1  0  0  0
 36107  1  0  0  0
 37 39  1  0  0  0
 37 47  1  0  0  0
 37 66  1  0  0  0
 37108  1  0  0  0
 38 43  2  0  0  0
 38 46  1  0  0  0
 38 47  1  0  0  0
 39 64  1  0  0  0
 39 67  2  0  0  0
 40 52  1  0  0  0
 40 53  2  0  0  0
 40 58  1  0  0  0
 41109  1  0  0  0
 41110  1  0  0  0
 41111  1  0  0  0
 41 48  1  0  0  0
 42 43  1  0  0  0
 42 66  1  0  0  0
 42112  1  0  0  0
 42113  1  0  0  0
 43 44  1  0  0  0
 44114  1  0  0  0
 45 46  2  0  0  0
 45115  1  0  0  0
 46116  1  0  0  0
 47117  1  0  0  0
 47118  1  0  0  0
 48 56  1  0  0  0
 48 65  1  0  0  0
 48119  1  0  0  0
 49 50  1  0  0  0
 49 53  1  0  0  0
 49 64  1  0  0  0
 49120  1  0  0  0
 50 51  1  0  0  0
 50121  1  0  0  0
 50122  1  0  0  0
 51 52  1  0  0  0
 51123  1  0  0  0
 51124  1  0  0  0
 52125  1  0  0  0
 52126  1  0  0  0
 53 54  1  0  0  0
 54 55  2  0  0  0
 54127  1  0  0  0
 55 57  1  0  0  0
 55128  1  0  0  0
 56 69  2  0  0  0
 57 58  2  0  0  0
 57129  1  0  0  0
 58130  1  0  0  0
 59 60  1  0  0  0
 59 61  1  0  0  0
 59 62  1  0  0  0
 60131  1  0  0  0
 60132  1  0  0  0
 60133  1  0  0  0
 61134  1  0  0  0
 61135  1  0  0  0
 61136  1  0  0  0
 62137  1  0  0  0
 62138  1  0  0  0
 62139  1  0  0  0
 63 65  1  0  0  0
 63140  1  0  0  0
 63141  1  0  0  0
 63142  1  0  0  0
 64143  1  0  0  0
 65144  1  0  0  0
 68 80  1  0  0  0
 71 72  2  0  0  0
 71 73  1  0  0  0
 71145  1  0  0  0
 72 75  1  0  0  0
 72146  1  0  0  0
 73 76  2  0  0  0
 73147  1  0  0  0
 74 75  2  0  0  0
 74 76  1  0  0  0
 74148  1  0  0  0
 75 77  1  0  0  0
 76 82  1  0  0  0
 77 83  1  0  0  0
 77 84  2  0  0  0
 78 80  1  0  0  0
 78 81  1  0  0  0
 78 85  2  0  0  0
 79149  1  0  0  0
 79150  1  0  0  0
 79151  1  0  0  0
 79 81  1  0  0  0
 80152  1  0  0  0
 80153  1  0  0  0
 81 83  1  0  0  0
 81154  1  0  0  0
 82155  1  0  0  0
 83156  1  0  0  0
M  ISO  4   1 100  68 101  80 101  82 100
M  END
> <chiral flag>
0

> <version>
0

> <s_m_source_file>
/data/baiqing/PycharmProjects/Reinvent-master-3.2/result/LINK_invent/BTK/process_docking_weight1_custom_product_contain_oxygen_bond_distance_aromatic_linkinvent_7_9_3/rearranged_h_0083.sdf

> <i_m_source_file_index>
29

> <r_mmod_Potential_Energy-OPLS-2005>
-53.7663955688477

> <r_mmod_Stretch_Energy-OPLS-2005>
48.4427833557129

> <r_mmod_Bend_Energy-OPLS-2005>
110.988105773926

> <r_mmod_Torsional_Energy-OPLS-2005>
280.048645019531

> <r_mmod_Improper_Torsional_Energy-OPLS-2005>
8.79540634155273

> <r_mmod_Van_der_Waal_Energy-OPLS-2005>
150.052947998047

> <r_mmod_Electrostatic_Energy-OPLS-2005>
-410.099761962891

> <r_mmod_Solvation_Energy-OPLS-2005>
-261.0888671875

> <b_mmod_Minimization_Converged-OPLS-2005>
0

> <r_mmod_RMS_Derivative-OPLS-2005>
3.62211441993713

$$$$
29
                    3D
 Structure written by MMmdl.
158168  0  0  1  0            999 V2000
  -30.7361  -14.4872   20.5217 C   0  0  0  0  0  0
  -30.4052  -12.3076   19.4346 C   0  0  0  0  0  0
  -29.4890  -12.4934   18.2081 C   0  0  0  0  0  0
  -28.0143  -12.3329   18.6231 C   0  0  0  0  0  0
  -27.6426  -13.1957   19.8552 C   0  0  2  0  0  0
  -28.6903  -13.0783   20.9838 C   0  0  0  0  0  0
  -25.2535  -13.8085   20.5675 C   0  0  0  0  0  0
  -24.1789  -13.0372   20.9166 C   0  0  0  0  0  0
  -24.6347  -11.6841   20.8720 C   0  0  0  0  0  0
  -23.9012  -10.4244   21.0393 C   0  0  0  0  0  0
  -24.3582   -9.4164   21.9174 C   0  0  0  0  0  0
  -23.6256   -8.2213   22.0746 C   0  0  0  0  0  0
  -22.4243   -8.0263   21.3537 C   0  0  0  0  0  0
  -21.9853   -9.0229   20.4642 C   0  0  0  0  0  0
  -22.7173  -10.2112   20.3044 C   0  0  0  0  0  0
  -21.6858   -6.0707   22.5277 C   0  0  0  0  0  0
  -21.4018   -6.5621   23.8204 C   0  0  0  0  0  0
  -21.3637   -5.6777   24.9167 C   0  0  0  0  0  0
  -21.6043   -4.3045   24.7219 C   0  0  0  0  0  0
  -21.8817   -3.8124   23.4346 C   0  0  0  0  0  0
  -21.9199   -4.6939   22.3397 C   0  0  0  0  0  0
  -22.7813  -13.5207   21.1835 C   0  0  0  0  0  0
  -22.1669   -4.2113   21.0967 F   0  0  0  0  0  0
  -21.5615   -3.4537   25.7741 F   0  0  0  0  0  0
  -30.0236  -13.3330   20.4163 N   0  0  0  0  0  0
  -26.2921  -12.9229   20.3291 N   0  0  0  0  0  0
  -25.9268  -11.6414   20.5779 N   0  0  0  0  0  0
  -22.0445  -12.8260   22.0417 N   0  0  0  0  0  0
  -25.4214  -15.1832   20.4094 N   0  0  0  0  0  0
  -31.9246  -14.5450   20.1984 O   0  0  0  0  0  0
  -21.6636   -6.8845   21.4241 O   0  0  0  0  0  0
  -22.3527  -14.5502   20.6655 O   0  0  0  0  0  0
  -24.6086  -31.8673   23.2109 C   0  0  0  0  0  0
  -25.9003  -32.4805   23.8413 C   0  0  1  0  0  0
  -27.2343  -27.4645   20.0992 C   0  0  0  0  0  0
  -25.5867  -33.8610   24.2331 N   0  0  0  0  0  0
  -23.3982  -30.4885   21.5479 C   0  0  2  0  0  0
  -24.8515  -28.9646   20.1056 C   0  0  0  0  0  0
  -22.7386  -29.4624   22.4981 C   0  0  0  0  0  0
  -18.0271  -28.1352   22.8474 C   0  0  0  0  0  0
  -24.1474  -36.7282   23.2641 C   0  0  0  0  0  0
  -25.9244  -30.8455   21.3622 C   0  0  0  0  0  0
  -26.0062  -29.4852   20.7034 C   0  0  0  0  0  0
  -27.2057  -28.7420   20.6988 C   0  0  0  0  0  0
  -26.0738  -26.9539   19.4912 C   0  0  0  0  0  0
  -24.8777  -27.6987   19.4928 C   0  0  0  0  0  0
  -23.6058  -29.8190   20.1626 C   0  0  0  0  0  0
  -25.4085  -36.3092   24.0342 C   0  0  1  0  0  0
  -20.5854  -28.3614   23.1310 C   0  0  2  0  0  0
  -20.6740  -26.9341   22.5411 C   0  0  0  0  0  0
  -19.5742  -26.6358   21.5177 C   0  0  0  0  0  0
  -18.1918  -26.7905   22.1584 C   0  0  0  0  0  0
  -19.1523  -28.8802   23.2902 C   0  0  0  0  0  0
  -18.9464  -30.1406   23.8910 C   0  0  0  0  0  0
  -17.6465  -30.6536   24.0570 C   0  0  0  0  0  0
  -25.9013  -34.9450   23.5123 C   0  0  0  0  0  0
  -16.5352  -29.9042   23.6313 C   0  0  0  0  0  0
  -16.7256  -28.6461   23.0328 C   0  0  0  0  0  0
  -26.4436  -31.6597   25.0729 C   0  0  0  0  0  0
  -25.3725  -31.3779   26.1518 C   0  0  0  0  0  0
  -27.0240  -30.3027   24.6110 C   0  0  0  0  0  0
  -27.6022  -32.4332   25.7438 C   0  0  0  0  0  0
  -27.5585  -37.1774   24.8443 C   0  0  0  0  0  0
  -21.4120  -29.2966   22.3707 N   0  0  0  0  0  0
  -26.4263  -37.3782   23.9431 N   0  0  0  0  0  0
  -24.6605  -31.0814   22.0983 N   0  0  0  0  0  0
  -23.4164  -28.8172   23.3028 O   0  0  0  0  0  0
  -28.3450  -26.6654   20.1611 O   0  0  0  0  0  0
  -26.5604  -34.8910   22.4704 O   0  0  0  0  0  0
  -23.5281  -32.1423   23.7516 O   0  0  0  0  0  0
  -29.4490  -20.3571   21.6574 C   0  0  0  0  0  0
  -31.6878  -19.4909   22.0095 C   0  0  0  0  0  0
  -31.1968  -21.8353   22.4180 C   0  0  0  0  0  0
  -30.3459  -19.2513   21.6084 C   0  0  0  0  0  0
  -29.8528  -21.6697   22.0094 C   0  0  0  0  0  0
  -32.1063  -20.7643   22.4339 C   0  0  0  0  0  0
  -29.2118  -16.2734   19.7877 C   0  0  0  0  0  0
  -29.9733  -15.7184   20.7259 C   0  0  0  0  0  0
  -28.7287  -24.7190   21.5267 C   0  0  0  0  0  0
  -30.4695  -16.7616   21.6031 C   0  0  0  0  0  0
  -28.8790  -23.9387   22.7184 C   0  0  0  0  0  0
  -29.1400  -17.6857   20.0480 C   0  0  0  0  0  0
  -28.4904  -26.0355   21.3715 C   0  0  0  0  0  0
  -28.9599  -23.5092   20.6598 C   0  0  0  0  0  0
  -29.9477  -17.9300   21.1300 N   0  0  0  0  0  0
  -28.9611  -22.7758   21.9447 N   0  0  0  0  0  0
  -33.4228  -20.9722   22.8487 N   0  0  0  0  0  0
  -31.2024  -16.6282   22.5914 O   0  0  0  0  0  0
  -29.0270  -24.2557   23.8822 O   0  0  0  0  0  0
  -28.2490  -18.6637   19.0178 S   0  0  0  0  0  0
  -31.4538  -12.3690   19.1391 H   0  0  0  0  0  0
  -30.2749  -11.3130   19.8631 H   0  0  0  0  0  0
  -29.7365  -11.7690   17.4304 H   0  0  0  0  0  0
  -29.6489  -13.4834   17.7732 H   0  0  0  0  0  0
  -27.8513  -11.2773   18.8452 H   0  0  0  0  0  0
  -27.3590  -12.5686   17.7843 H   0  0  0  0  0  0
  -27.6336  -14.2180   19.5014 H   0  0  0  0  0  0
  -28.6651  -12.0839   21.4310 H   0  0  0  0  0  0
  -28.4614  -13.7800   21.7886 H   0  0  0  0  0  0
  -25.2723   -9.5670   22.4754 H   0  0  0  0  0  0
  -23.9963   -7.4613   22.7479 H   0  0  0  0  0  0
  -21.0756   -8.8749   19.8955 H   0  0  0  0  0  0
  -22.3606  -10.9664   19.6177 H   0  0  0  0  0  0
  -21.2020   -7.6134   23.9699 H   0  0  0  0  0  0
  -21.1448   -6.0506   25.9066 H   0  0  0  0  0  0
  -22.0612   -2.7573   23.2874 H   0  0  0  0  0  0
  -22.4046  -11.9951   22.4889 H   0  0  0  0  0  0
  -21.1076  -13.1353   22.2602 H   0  0  0  0  0  0
  -24.6405  -15.8216   20.5065 H   0  0  0  0  0  0
  -26.2611  -15.6373   20.0762 H   0  0  0  0  0  0
  -26.7069  -32.5534   23.1179 H   0  0  0  0  0  0
  -25.0039  -33.9763   25.0494 H   0  0  0  0  0  0
  -22.6834  -31.3010   21.4073 H   0  0  0  0  0  0
  -23.3740  -35.9605   23.3255 H   0  0  0  0  0  0
  -24.3615  -36.8951   22.2070 H   0  0  0  0  0  0
  -23.7208  -37.6458   23.6691 H   0  0  0  0  0  0
  -26.0439  -31.6185   20.6017 H   0  0  0  0  0  0
  -26.8074  -30.8917   21.9884 H   0  0  0  0  0  0
  -28.0952  -29.1289   21.1774 H   0  0  0  0  0  0
  -26.0972  -25.9725   19.0436 H   0  0  0  0  0  0
  -23.9915  -27.2884   19.0279 H   0  0  0  0  0  0
  -23.6969  -30.5900   19.3976 H   0  0  0  0  0  0
  -22.7362  -29.2254   19.8757 H   0  0  0  0  0  0
  -25.1252  -36.1933   25.0826 H   0  0  0  0  0  0
  -20.9949  -28.3182   24.1435 H   0  0  0  0  0  0
  -20.5530  -26.2232   23.3595 H   0  0  0  0  0  0
  -21.6631  -26.7318   22.1288 H   0  0  0  0  0  0
  -19.6898  -25.6272   21.1184 H   0  0  0  0  0  0
  -19.6693  -27.3174   20.6718 H   0  0  0  0  0  0
  -17.4183  -26.6631   21.3997 H   0  0  0  0  0  0
  -18.0331  -26.0028   22.8949 H   0  0  0  0  0  0
  -19.7944  -30.7238   24.2252 H   0  0  0  0  0  0
  -17.5007  -31.6198   24.5201 H   0  0  0  0  0  0
  -15.5347  -30.2948   23.7635 H   0  0  0  0  0  0
  -15.8651  -28.0782   22.7053 H   0  0  0  0  0  0
  -24.5808  -30.7186   25.7929 H   0  0  0  0  0  0
  -24.9022  -32.2983   26.5004 H   0  0  0  0  0  0
  -25.8082  -30.8926   27.0263 H   0  0  0  0  0  0
  -26.2775  -29.6807   24.1141 H   0  0  0  0  0  0
  -27.3998  -29.7250   25.4574 H   0  0  0  0  0  0
  -27.8625  -30.4359   23.9264 H   0  0  0  0  0  0
  -27.2644  -33.3619   26.2062 H   0  0  0  0  0  0
  -28.3767  -32.6933   25.0197 H   0  0  0  0  0  0
  -28.0750  -31.8451   26.5321 H   0  0  0  0  0  0
  -28.2550  -38.0125   24.7562 H   0  0  0  0  0  0
  -28.1138  -36.2678   24.6116 H   0  0  0  0  0  0
  -27.2356  -37.1236   25.8861 H   0  0  0  0  0  0
  -20.9264  -29.8692   21.6943 H   0  0  0  0  0  0
  -26.0134  -38.2828   24.1535 H   0  0  0  0  0  0
  -28.4106  -20.2211   21.3910 H   0  0  0  0  0  0
  -32.4179  -18.6964   21.9873 H   0  0  0  0  0  0
  -31.5321  -22.8184   22.7103 H   0  0  0  0  0  0
  -28.8949  -15.8122   18.8641 H   0  0  0  0  0  0
  -28.3520  -26.7014   22.2134 H   0  0  0  0  0  0
  -29.9183  -23.4576   20.1398 H   0  0  0  0  0  0
  -28.1490  -23.1862   20.0015 H   0  0  0  0  0  0
  -34.0424  -20.1935   23.0583 H   0  0  0  0  0  0
  -33.7171  -21.8576   23.2573 H   0  0  0  0  0  0
  1 25  1  0  0  0
  1 30  2  0  0  0
  1 78  1  0  0  0
  2  3  1  0  0  0
  2 25  1  0  0  0
  2 91  1  0  0  0
  2 92  1  0  0  0
  3  4  1  0  0  0
  3 93  1  0  0  0
  3 94  1  0  0  0
  4  5  1  0  0  0
  4 95  1  0  0  0
  4 96  1  0  0  0
  5  6  1  0  0  0
  5 26  1  0  0  0
  5 97  1  0  0  0
  6 25  1  0  0  0
  6 98  1  0  0  0
  6 99  1  0  0  0
  7  8  2  0  0  0
  7 26  1  0  0  0
  7 29  1  0  0  0
  8  9  1  0  0  0
  8 22  1  0  0  0
  9 10  1  0  0  0
  9 27  2  0  0  0
 10 11  2  0  0  0
 10 15  1  0  0  0
 11 12  1  0  0  0
 11100  1  0  0  0
 12 13  2  0  0  0
 12101  1  0  0  0
 13 14  1  0  0  0
 13 31  1  0  0  0
 14 15  2  0  0  0
 14102  1  0  0  0
 15103  1  0  0  0
 16 17  2  0  0  0
 16 21  1  0  0  0
 16 31  1  0  0  0
 17 18  1  0  0  0
 17104  1  0  0  0
 18 19  2  0  0  0
 18105  1  0  0  0
 19 20  1  0  0  0
 19 24  1  0  0  0
 20 21  2  0  0  0
 20106  1  0  0  0
 21 23  1  0  0  0
 22 28  1  0  0  0
 22 32  2  0  0  0
 26 27  1  0  0  0
 28107  1  0  0  0
 28108  1  0  0  0
 29109  1  0  0  0
 29110  1  0  0  0
 33 34  1  0  0  0
 33 66  1  0  0  0
 33 70  2  0  0  0
 34 36  1  0  0  0
 34 59  1  0  0  0
 34111  1  0  0  0
 35 44  2  0  0  0
 35 45  1  0  0  0
 35 68  1  0  0  0
 36 56  1  0  0  0
 36112  1  0  0  0
 37 39  1  0  0  0
 37 47  1  0  0  0
 37 66  1  0  0  0
 37113  1  0  0  0
 38 43  2  0  0  0
 38 46  1  0  0  0
 38 47  1  0  0  0
 39 64  1  0  0  0
 39 67  2  0  0  0
 40 52  1  0  0  0
 40 53  2  0  0  0
 40 58  1  0  0  0
 41114  1  0  0  0
 41115  1  0  0  0
 41116  1  0  0  0
 41 48  1  0  0  0
 42 43  1  0  0  0
 42 66  1  0  0  0
 42117  1  0  0  0
 42118  1  0  0  0
 43 44  1  0  0  0
 44119  1  0  0  0
 45 46  2  0  0  0
 45120  1  0  0  0
 46121  1  0  0  0
 47122  1  0  0  0
 47123  1  0  0  0
 48 56  1  0  0  0
 48 65  1  0  0  0
 48124  1  0  0  0
 49 50  1  0  0  0
 49 53  1  0  0  0
 49 64  1  0  0  0
 49125  1  0  0  0
 50 51  1  0  0  0
 50126  1  0  0  0
 50127  1  0  0  0
 51 52  1  0  0  0
 51128  1  0  0  0
 51129  1  0  0  0
 52130  1  0  0  0
 52131  1  0  0  0
 53 54  1  0  0  0
 54 55  2  0  0  0
 54132  1  0  0  0
 55 57  1  0  0  0
 55133  1  0  0  0
 56 69  2  0  0  0
 57 58  2  0  0  0
 57134  1  0  0  0
 58135  1  0  0  0
 59 60  1  0  0  0
 59 61  1  0  0  0
 59 62  1  0  0  0
 60136  1  0  0  0
 60137  1  0  0  0
 60138  1  0  0  0
 61139  1  0  0  0
 61140  1  0  0  0
 61141  1  0  0  0
 62142  1  0  0  0
 62143  1  0  0  0
 62144  1  0  0  0
 63 65  1  0  0  0
 63145  1  0  0  0
 63146  1  0  0  0
 63147  1  0  0  0
 64148  1  0  0  0
 65149  1  0  0  0
 68 83  1  0  0  0
 71 74  2  0  0  0
 71 75  1  0  0  0
 71150  1  0  0  0
 72 74  1  0  0  0
 72 76  2  0  0  0
 72151  1  0  0  0
 73 75  2  0  0  0
 73 76  1  0  0  0
 73152  1  0  0  0
 74 85  1  0  0  0
 75 86  1  0  0  0
 76 87  1  0  0  0
 77 78  2  0  0  0
 77 82  1  0  0  0
 77153  1  0  0  0
 78 80  1  0  0  0
 79 81  1  0  0  0
 79 83  2  0  0  0
 79 84  1  0  0  0
 80 85  1  0  0  0
 80 88  2  0  0  0
 81 86  1  0  0  0
 81 89  2  0  0  0
 82 85  1  0  0  0
 82 90  2  0  0  0
 83154  1  0  0  0
 84 86  1  0  0  0
 84155  1  0  0  0
 84156  1  0  0  0
 87157  1  0  0  0
 87158  1  0  0  0
M  ISO  4   1 100  68 101  78 100  83 101
M  END
> <chiral flag>
0

> <version>
0

> <s_m_source_file>
/data/baiqing/PycharmProjects/Reinvent-master-3.2/result/LINK_invent/BTK/process_docking_weight1_custom_product_contain_oxygen_bond_distance_aromatic_linkinvent_7_9_3/rearranged_h_0083.sdf

> <i_m_source_file_index>
30

> <r_mmod_Potential_Energy-OPLS-2005>
208.264419555664

> <r_mmod_Stretch_Energy-OPLS-2005>
44.4328002929688

> <r_mmod_Bend_Energy-OPLS-2005>
217.64778137207

> <r_mmod_Torsional_Energy-OPLS-2005>
337.687225341797

> <r_mmod_Improper_Torsional_Energy-OPLS-2005>
18.4783382415771

> <r_mmod_Van_der_Waal_Energy-OPLS-2005>
152.37223815918

> <r_mmod_Electrostatic_Energy-OPLS-2005>
-336.724304199219

> <r_mmod_Solvation_Energy-OPLS-2005>
-249.188751220703

> <b_mmod_Minimization_Converged-OPLS-2005>
0

> <r_mmod_RMS_Derivative-OPLS-2005>
4.44825744628906

$$$$
30
                    3D
 Structure written by MMmdl.
152161  0  0  1  0            999 V2000
  -30.4358  -15.1365   20.3952 C   0  0  0  0  0  0
  -30.4572  -12.7075   19.5424 C   0  0  0  0  0  0
  -29.5528  -12.5615   18.2928 C   0  0  0  0  0  0
  -28.0890  -12.3052   18.6987 C   0  0  0  0  0  0
  -27.6257  -13.2608   19.8275 C   0  0  2  0  0  0
  -28.6521  -13.3578   20.9724 C   0  0  0  0  0  0
  -25.2474  -13.8236   20.5703 C   0  0  0  0  0  0
  -24.1784  -13.0459   20.9206 C   0  0  0  0  0  0
  -24.6411  -11.6938   20.8727 C   0  0  0  0  0  0
  -23.9087  -10.4313   21.0398 C   0  0  0  0  0  0
  -24.3640   -9.4224   21.9174 C   0  0  0  0  0  0
  -23.6305   -8.2263   22.0755 C   0  0  0  0  0  0
  -22.4292   -8.0300   21.3537 C   0  0  0  0  0  0
  -21.9928   -9.0277   20.4646 C   0  0  0  0  0  0
  -22.7259  -10.2149   20.3047 C   0  0  0  0  0  0
  -21.6857   -6.0748   22.5278 C   0  0  0  0  0  0
  -21.4012   -6.5642   23.8216 C   0  0  0  0  0  0
  -21.3661   -5.6791   24.9172 C   0  0  0  0  0  0
  -21.6039   -4.3057   24.7219 C   0  0  0  0  0  0
  -21.8816   -3.8153   23.4343 C   0  0  0  0  0  0
  -21.9193   -4.6974   22.3397 C   0  0  0  0  0  0
  -22.7804  -13.5228   21.1874 C   0  0  0  0  0  0
  -22.1657   -4.2151   21.0978 F   0  0  0  0  0  0
  -21.5628   -3.4544   25.7737 F   0  0  0  0  0  0
  -29.9200  -13.8222   20.3911 N   0  0  0  0  0  0
  -26.2878  -12.9470   20.3165 N   0  0  0  0  0  0
  -25.9343  -11.6588   20.5675 N   0  0  0  0  0  0
  -22.0460  -12.8214   22.0439 N   0  0  0  0  0  0
  -25.4196  -15.1975   20.4185 N   0  0  0  0  0  0
  -31.6400  -15.1961   20.1269 O   0  0  0  0  0  0
  -21.6644   -6.8899   21.4244 O   0  0  0  0  0  0
  -22.3472  -14.5521   20.6725 O   0  0  0  0  0  0
  -24.6553  -31.8323   23.1776 C   0  0  0  0  0  0
  -25.9270  -32.4625   23.8206 C   0  0  1  0  0  0
  -27.2086  -26.9986   20.1830 C   0  0  0  0  0  0
  -25.5974  -33.8441   24.2112 N   0  0  0  0  0  0
  -23.4655  -30.4457   21.5247 C   0  0  2  0  0  0
  -24.9168  -28.8451   20.1139 C   0  0  0  0  0  0
  -22.7627  -29.4478   22.4813 C   0  0  0  0  0  0
  -18.0324  -28.1375   22.8471 C   0  0  0  0  0  0
  -24.1498  -36.7230   23.2643 C   0  0  0  0  0  0
  -26.0300  -30.6586   21.3971 C   0  0  0  0  0  0
  -26.0978  -29.2546   20.7466 C   0  0  0  0  0  0
  -27.2425  -28.3485   20.7637 C   0  0  0  0  0  0
  -26.0056  -26.7292   19.4949 C   0  0  0  0  0  0
  -24.8903  -27.6004   19.4675 C   0  0  0  0  0  0
  -23.7002  -29.7658   20.1489 C   0  0  0  0  0  0
  -25.4134  -36.2991   24.0303 C   0  0  1  0  0  0
  -20.5939  -28.3731   23.1203 C   0  0  2  0  0  0
  -20.6815  -26.9428   22.5393 C   0  0  0  0  0  0
  -19.5785  -26.6353   21.5216 C   0  0  0  0  0  0
  -18.1971  -26.7899   22.1654 C   0  0  0  0  0  0
  -19.1577  -28.8881   23.2816 C   0  0  0  0  0  0
  -18.9487  -30.1471   23.8859 C   0  0  0  0  0  0
  -17.6480  -30.6574   24.0554 C   0  0  0  0  0  0
  -25.9089  -34.9372   23.5028 C   0  0  0  0  0  0
  -16.5371  -29.9063   23.6324 C   0  0  0  0  0  0
  -16.7304  -28.6476   23.0358 C   0  0  0  0  0  0
  -26.4555  -31.6534   25.0702 C   0  0  0  0  0  0
  -25.3692  -31.3778   26.1363 C   0  0  0  0  0  0
  -27.0428  -30.2898   24.6384 C   0  0  0  0  0  0
  -27.6053  -32.4333   25.7499 C   0  0  0  0  0  0
  -27.5573  -37.1778   24.8467 C   0  0  0  0  0  0
  -21.4304  -29.3048   22.3565 N   0  0  0  0  0  0
  -26.4289  -37.3718   23.9403 N   0  0  0  0  0  0
  -24.7374  -31.0053   22.0873 N   0  0  0  0  0  0
  -23.4215  -28.8031   23.3010 O   0  0  0  0  0  0
  -28.2226  -25.9266   20.1996 O   0  0  0  0  0  0
  -26.5693  -34.8896   22.4615 O   0  0  0  0  0  0
  -23.5633  -32.1257   23.6906 O   0  0  0  0  0  0
  -29.4845  -20.7235   18.3682 C   0  0  0  0  0  0
  -28.1354  -20.4672   18.7727 C   0  0  0  0  0  0
  -30.1296  -20.8604   19.5752 C   0  0  0  0  0  0
  -28.3477  -20.3442   20.1166 C   0  0  0  0  0  0
  -30.9540  -18.5091   20.3624 C   0  0  0  0  0  0
  -31.0881  -19.8600   20.0946 C   0  0  0  0  0  0
  -29.6753  -17.7157   20.5000 C   0  0  0  0  0  0
  -26.9617  -24.1516   21.3044 C   0  0  0  0  0  0
  -27.9838  -24.4579   20.4876 C   0  0  0  0  0  0
  -28.5060  -18.8609   20.8188 C   0  0  0  0  0  0
  -28.9023  -23.1756   19.8731 C   0  0  0  0  0  0
  -29.5166  -16.3303   20.5699 N   0  0  0  0  0  0
  -29.1254  -21.5728   20.2860 N   0  0  0  0  0  0
  -32.3500  -20.3165   20.1768 F   0  0  0  0  0  0
  -31.4855  -12.8972   19.2302 H   0  0  0  0  0  0
  -30.4904  -11.7744   20.1075 H   0  0  0  0  0  0
  -29.9164  -11.7539   17.6555 H   0  0  0  0  0  0
  -29.6113  -13.4733   17.6977 H   0  0  0  0  0  0
  -28.0215  -11.2734   19.0453 H   0  0  0  0  0  0
  -27.4326  -12.3794   17.8314 H   0  0  0  0  0  0
  -27.5708  -14.2468   19.3646 H   0  0  0  0  0  0
  -28.7732  -12.4001   21.4818 H   0  0  0  0  0  0
  -28.3086  -14.0693   21.7258 H   0  0  0  0  0  0
  -25.2789   -9.5691   22.4742 H   0  0  0  0  0  0
  -24.0005   -7.4658   22.7492 H   0  0  0  0  0  0
  -21.0846   -8.8803   19.8966 H   0  0  0  0  0  0
  -22.3723  -10.9683   19.6157 H   0  0  0  0  0  0
  -21.2003   -7.6153   23.9711 H   0  0  0  0  0  0
  -21.1479   -6.0529   25.9072 H   0  0  0  0  0  0
  -22.0596   -2.7616   23.2842 H   0  0  0  0  0  0
  -22.4084  -11.9883   22.4819 H   0  0  0  0  0  0
  -21.1081  -13.1230   22.2655 H   0  0  0  0  0  0
  -24.6689  -15.8659   20.5528 H   0  0  0  0  0  0
  -26.2944  -15.6295   20.1459 H   0  0  0  0  0  0
  -26.7331  -32.5188   23.0916 H   0  0  0  0  0  0
  -25.0072  -33.9526   25.0229 H   0  0  0  0  0  0
  -22.7751  -31.2753   21.3594 H   0  0  0  0  0  0
  -23.3761  -35.9559   23.3286 H   0  0  0  0  0  0
  -24.3577  -36.8894   22.2062 H   0  0  0  0  0  0
  -23.7260  -37.6425   23.6696 H   0  0  0  0  0  0
  -26.2006  -31.4000   20.6150 H   0  0  0  0  0  0
  -26.8954  -30.7167   22.0453 H   0  0  0  0  0  0
  -28.1385  -28.6570   21.2834 H   0  0  0  0  0  0
  -25.9055  -25.7756   18.9970 H   0  0  0  0  0  0
  -23.9943  -27.2843   18.9504 H   0  0  0  0  0  0
  -23.8494  -30.5362   19.3922 H   0  0  0  0  0  0
  -22.8116  -29.2167   19.8324 H   0  0  0  0  0  0
  -25.1328  -36.1796   25.0795 H   0  0  0  0  0  0
  -21.0026  -28.3335   24.1334 H   0  0  0  0  0  0
  -20.5697  -26.2367   23.3633 H   0  0  0  0  0  0
  -21.6685  -26.7411   22.1201 H   0  0  0  0  0  0
  -19.6954  -25.6251   21.1288 H   0  0  0  0  0  0
  -19.6715  -27.3134   20.6720 H   0  0  0  0  0  0
  -17.4210  -26.6568   21.4094 H   0  0  0  0  0  0
  -18.0426  -26.0091   22.9121 H   0  0  0  0  0  0
  -19.7968  -30.7294   24.2208 H   0  0  0  0  0  0
  -17.5018  -31.6241   24.5184 H   0  0  0  0  0  0
  -15.5366  -30.2940   23.7653 H   0  0  0  0  0  0
  -15.8697  -28.0766   22.7116 H   0  0  0  0  0  0
  -24.5887  -30.7114   25.7680 H   0  0  0  0  0  0
  -24.8866  -32.2974   26.4673 H   0  0  0  0  0  0
  -25.7931  -30.9030   27.0210 H   0  0  0  0  0  0
  -26.3066  -29.6602   24.1377 H   0  0  0  0  0  0
  -27.3956  -29.7247   25.5017 H   0  0  0  0  0  0
  -27.9013  -30.4093   23.9775 H   0  0  0  0  0  0
  -27.2624  -33.3665   26.1973 H   0  0  0  0  0  0
  -28.3917  -32.6845   25.0371 H   0  0  0  0  0  0
  -28.0650  -31.8530   26.5508 H   0  0  0  0  0  0
  -28.2581  -38.0081   24.7502 H   0  0  0  0  0  0
  -28.1081  -36.2615   24.6303 H   0  0  0  0  0  0
  -27.2292  -37.1430   25.8871 H   0  0  0  0  0  0
  -20.9530  -29.8728   21.6709 H   0  0  0  0  0  0
  -26.0143  -38.2784   24.1397 H   0  0  0  0  0  0
  -29.9090  -20.3630   17.4412 H   0  0  0  0  0  0
  -27.4537  -19.8863   18.1638 H   0  0  0  0  0  0
  -31.8342  -17.9532   20.6460 H   0  0  0  0  0  0
  -26.7387  -23.1204   21.5453 H   0  0  0  0  0  0
  -26.3314  -24.9089   21.7454 H   0  0  0  0  0  0
  -27.5516  -18.3475   20.6966 H   0  0  0  0  0  0
  -28.5634  -19.0356   21.8930 H   0  0  0  0  0  0
  -29.9096  -23.5925   19.8711 H   0  0  0  0  0  0
  -28.6275  -23.1803   18.8182 H   0  0  0  0  0  0
  1 25  1  0  0  0
  1 30  2  0  0  0
  1 82  1  0  0  0
  2  3  1  0  0  0
  2 25  1  0  0  0
  2 85  1  0  0  0
  2 86  1  0  0  0
  3  4  1  0  0  0
  3 87  1  0  0  0
  3 88  1  0  0  0
  4  5  1  0  0  0
  4 89  1  0  0  0
  4 90  1  0  0  0
  5  6  1  0  0  0
  5 26  1  0  0  0
  5 91  1  0  0  0
  6 25  1  0  0  0
  6 92  1  0  0  0
  6 93  1  0  0  0
  7  8  2  0  0  0
  7 26  1  0  0  0
  7 29  1  0  0  0
  8  9  1  0  0  0
  8 22  1  0  0  0
  9 10  1  0  0  0
  9 27  2  0  0  0
 10 11  2  0  0  0
 10 15  1  0  0  0
 11 12  1  0  0  0
 11 94  1  0  0  0
 12 13  2  0  0  0
 12 95  1  0  0  0
 13 14  1  0  0  0
 13 31  1  0  0  0
 14 15  2  0  0  0
 14 96  1  0  0  0
 15 97  1  0  0  0
 16 17  2  0  0  0
 16 21  1  0  0  0
 16 31  1  0  0  0
 17 18  1  0  0  0
 17 98  1  0  0  0
 18 19  2  0  0  0
 18 99  1  0  0  0
 19 20  1  0  0  0
 19 24  1  0  0  0
 20 21  2  0  0  0
 20100  1  0  0  0
 21 23  1  0  0  0
 22 28  1  0  0  0
 22 32  2  0  0  0
 26 27  1  0  0  0
 28101  1  0  0  0
 28102  1  0  0  0
 29103  1  0  0  0
 29104  1  0  0  0
 33 34  1  0  0  0
 33 66  1  0  0  0
 33 70  2  0  0  0
 34 36  1  0  0  0
 34 59  1  0  0  0
 34105  1  0  0  0
 35 44  2  0  0  0
 35 45  1  0  0  0
 35 68  1  0  0  0
 36 56  1  0  0  0
 36106  1  0  0  0
 37 39  1  0  0  0
 37 47  1  0  0  0
 37 66  1  0  0  0
 37107  1  0  0  0
 38 43  2  0  0  0
 38 46  1  0  0  0
 38 47  1  0  0  0
 39 64  1  0  0  0
 39 67  2  0  0  0
 40 52  1  0  0  0
 40 53  2  0  0  0
 40 58  1  0  0  0
 41108  1  0  0  0
 41109  1  0  0  0
 41110  1  0  0  0
 41 48  1  0  0  0
 42 43  1  0  0  0
 42 66  1  0  0  0
 42111  1  0  0  0
 42112  1  0  0  0
 43 44  1  0  0  0
 44113  1  0  0  0
 45 46  2  0  0  0
 45114  1  0  0  0
 46115  1  0  0  0
 47116  1  0  0  0
 47117  1  0  0  0
 48 56  1  0  0  0
 48 65  1  0  0  0
 48118  1  0  0  0
 49 50  1  0  0  0
 49 53  1  0  0  0
 49 64  1  0  0  0
 49119  1  0  0  0
 50 51  1  0  0  0
 50120  1  0  0  0
 50121  1  0  0  0
 51 52  1  0  0  0
 51122  1  0  0  0
 51123  1  0  0  0
 52124  1  0  0  0
 52125  1  0  0  0
 53 54  1  0  0  0
 54 55  2  0  0  0
 54126  1  0  0  0
 55 57  1  0  0  0
 55127  1  0  0  0
 56 69  2  0  0  0
 57 58  2  0  0  0
 57128  1  0  0  0
 58129  1  0  0  0
 59 60  1  0  0  0
 59 61  1  0  0  0
 59 62  1  0  0  0
 60130  1  0  0  0
 60131  1  0  0  0
 60132  1  0  0  0
 61133  1  0  0  0
 61134  1  0  0  0
 61135  1  0  0  0
 62136  1  0  0  0
 62137  1  0  0  0
 62138  1  0  0  0
 63 65  1  0  0  0
 63139  1  0  0  0
 63140  1  0  0  0
 63141  1  0  0  0
 64142  1  0  0  0
 65143  1  0  0  0
 68 79  1  0  0  0
 71 72  1  0  0  0
 71 73  2  0  0  0
 71144  1  0  0  0
 72 74  2  0  0  0
 72145  1  0  0  0
 73 76  1  0  0  0
 73 83  1  0  0  0
 74 80  1  0  0  0
 74 83  1  0  0  0
 75 76  2  0  0  0
 75 77  1  0  0  0
 75146  1  0  0  0
 76 84  1  0  0  0
 77 80  1  0  0  0
 77 82  2  0  0  0
 78 79  2  0  0  0
 78147  1  0  0  0
 78148  1  0  0  0
 79 81  1  0  0  0
 80149  1  0  0  0
 80150  1  0  0  0
 81 83  1  0  0  0
 81151  1  0  0  0
 81152  1  0  0  0
M  ISO  4   1 100  68 101  79 101  82 100
M  END
> <chiral flag>
0

> <version>
0

> <s_m_source_file>
/data/baiqing/PycharmProjects/Reinvent-master-3.2/result/LINK_invent/BTK/process_docking_weight1_custom_product_contain_oxygen_bond_distance_aromatic_linkinvent_7_9_3/rearranged_h_0083.sdf

> <i_m_source_file_index>
31

> <r_mmod_Potential_Energy-OPLS-2005>
1441.017578125

> <r_mmod_Stretch_Energy-OPLS-2005>
412.761993408203

> <r_mmod_Bend_Energy-OPLS-2005>
463.938781738281

> <r_mmod_Torsional_Energy-OPLS-2005>
515.59375

> <r_mmod_Improper_Torsional_Energy-OPLS-2005>
65.8460311889648

> <r_mmod_Van_der_Waal_Energy-OPLS-2005>
130.218185424805

> <r_mmod_Electrostatic_Energy-OPLS-2005>
-321.273834228516

> <r_mmod_Solvation_Energy-OPLS-2005>
-170.559173583984

> <b_mmod_Minimization_Converged-OPLS-2005>
0

> <r_mmod_RMS_Derivative-OPLS-2005>
2.4884295463562

$$$$
31
                    3D
 Structure written by MMmdl.
147156  0  0  1  0            999 V2000
  -30.5620  -14.8933   20.4125 C   0  0  0  0  0  0
  -30.4379  -12.5472   19.4907 C   0  0  0  0  0  0
  -29.5201  -12.5185   18.2476 C   0  0  0  0  0  0
  -28.0497  -12.3192   18.6620 C   0  0  0  0  0  0
  -27.6320  -13.2445   19.8361 C   0  0  2  0  0  0
  -28.6756  -13.2491   20.9733 C   0  0  0  0  0  0
  -25.2469  -13.8214   20.5685 C   0  0  0  0  0  0
  -24.1788  -13.0445   20.9226 C   0  0  0  0  0  0
  -24.6398  -11.6926   20.8751 C   0  0  0  0  0  0
  -23.9081  -10.4301   21.0417 C   0  0  0  0  0  0
  -24.3631   -9.4211   21.9193 C   0  0  0  0  0  0
  -23.6306   -8.2244   22.0764 C   0  0  0  0  0  0
  -22.4289   -8.0284   21.3549 C   0  0  0  0  0  0
  -21.9925   -9.0262   20.4650 C   0  0  0  0  0  0
  -22.7252  -10.2144   20.3066 C   0  0  0  0  0  0
  -21.6854   -6.0737   22.5284 C   0  0  0  0  0  0
  -21.4010   -6.5638   23.8217 C   0  0  0  0  0  0
  -21.3660   -5.6791   24.9178 C   0  0  0  0  0  0
  -21.6046   -4.3055   24.7225 C   0  0  0  0  0  0
  -21.8818   -3.8145   23.4350 C   0  0  0  0  0  0
  -21.9192   -4.6962   22.3408 C   0  0  0  0  0  0
  -22.7810  -13.5220   21.1879 C   0  0  0  0  0  0
  -22.1659   -4.2145   21.0986 F   0  0  0  0  0  0
  -21.5634   -3.4542   25.7739 F   0  0  0  0  0  0
  -29.9604  -13.6410   20.3801 N   0  0  0  0  0  0
  -26.2894  -12.9442   20.3213 N   0  0  0  0  0  0
  -25.9330  -11.6571   20.5724 N   0  0  0  0  0  0
  -22.0446  -12.8225   22.0438 N   0  0  0  0  0  0
  -25.4121  -15.1942   20.4093 N   0  0  0  0  0  0
  -31.7667  -14.9498   20.1399 O   0  0  0  0  0  0
  -21.6649   -6.8883   21.4247 O   0  0  0  0  0  0
  -22.3496  -14.5515   20.6708 O   0  0  0  0  0  0
  -24.6396  -31.8475   23.1928 C   0  0  0  0  0  0
  -25.9186  -32.4712   23.8298 C   0  0  1  0  0  0
  -27.2159  -27.1679   20.1434 C   0  0  0  0  0  0
  -25.5949  -33.8521   24.2213 N   0  0  0  0  0  0
  -23.4434  -30.4688   21.5362 C   0  0  2  0  0  0
  -24.8956  -28.9057   20.1073 C   0  0  0  0  0  0
  -22.7552  -29.4572   22.4864 C   0  0  0  0  0  0
  -18.0301  -28.1398   22.8475 C   0  0  0  0  0  0
  -24.1500  -36.7274   23.2649 C   0  0  0  0  0  0
  -25.9981  -30.7281   21.3927 C   0  0  0  0  0  0
  -26.0711  -29.3432   20.7331 C   0  0  0  0  0  0
  -27.2337  -28.4867   20.7437 C   0  0  0  0  0  0
  -26.0248  -26.8388   19.4607 C   0  0  0  0  0  0
  -24.8833  -27.6644   19.4563 C   0  0  0  0  0  0
  -23.6700  -29.8030   20.1537 C   0  0  0  0  0  0
  -25.4135  -36.3049   24.0314 C   0  0  1  0  0  0
  -20.5914  -28.3733   23.1234 C   0  0  2  0  0  0
  -20.6793  -26.9440   22.5404 C   0  0  0  0  0  0
  -19.5769  -26.6384   21.5213 C   0  0  0  0  0  0
  -18.1948  -26.7932   22.1625 C   0  0  0  0  0  0
  -19.1559  -28.8881   23.2845 C   0  0  0  0  0  0
  -18.9480  -30.1473   23.8879 C   0  0  0  0  0  0
  -17.6480  -30.6598   24.0564 C   0  0  0  0  0  0
  -25.9065  -34.9416   23.5067 C   0  0  0  0  0  0
  -16.5368  -29.9096   23.6336 C   0  0  0  0  0  0
  -16.7285  -28.6513   23.0353 C   0  0  0  0  0  0
  -26.4521  -31.6562   25.0724 C   0  0  0  0  0  0
  -25.3709  -31.3754   26.1419 C   0  0  0  0  0  0
  -27.0385  -30.2955   24.6299 C   0  0  0  0  0  0
  -27.6047  -32.4322   25.7514 C   0  0  0  0  0  0
  -27.5556  -37.1836   24.8491 C   0  0  0  0  0  0
  -21.4248  -29.3062   22.3606 N   0  0  0  0  0  0
  -26.4320  -37.3732   23.9354 N   0  0  0  0  0  0
  -24.7129  -31.0349   22.0959 N   0  0  0  0  0  0
  -23.4200  -28.8112   23.3008 O   0  0  0  0  0  0
  -28.2376  -26.1564   20.1922 O   0  0  0  0  0  0
  -26.5650  -34.8901   22.4645 O   0  0  0  0  0  0
  -23.5524  -32.1354   23.7157 O   0  0  0  0  0  0
  -29.1321  -18.7408   20.5051 C   0  0  0  0  0  0
  -31.2908  -18.0238   19.9880 C   0  0  0  0  0  0
  -30.0553  -17.5574   20.3606 C   0  0  0  0  0  0
  -29.6619  -20.0476   20.2474 C   0  0  0  0  0  0
  -28.4118  -23.4751   20.3576 C   0  0  0  0  0  0
  -29.6744  -22.8310   19.9563 C   0  0  0  0  0  0
  -27.8477  -24.7748   20.4534 C   0  0  0  0  0  0
  -27.8653  -22.0322   20.6741 C   0  0  0  0  0  0
  -29.1823  -21.5007   20.2435 N   0  0  0  0  0  0
  -29.7764  -16.0666   20.5508 N   0  0  0  0  0  0
  -30.7138  -23.3126   19.5573 O   0  0  0  0  0  0
  -31.3455  -19.7798   19.8137 S   0  0  0  0  0  0
  -31.4738  -12.6914   19.1801 H   0  0  0  0  0  0
  -30.4148  -11.5890   20.0127 H   0  0  0  0  0  0
  -29.8276  -11.7227   17.5673 H   0  0  0  0  0  0
  -29.6233  -13.4513   17.6913 H   0  0  0  0  0  0
  -27.9350  -11.2766   18.9590 H   0  0  0  0  0  0
  -27.3898  -12.4647   17.8060 H   0  0  0  0  0  0
  -27.6017  -14.2519   19.4189 H   0  0  0  0  0  0
  -28.7450  -12.2671   21.4441 H   0  0  0  0  0  0
  -28.3859  -13.9487   21.7588 H   0  0  0  0  0  0
  -25.2778   -9.5680   22.4767 H   0  0  0  0  0  0
  -23.9998   -7.4641   22.7494 H   0  0  0  0  0  0
  -21.0850   -8.8793   19.8966 H   0  0  0  0  0  0
  -22.3715  -10.9689   19.6177 H   0  0  0  0  0  0
  -21.1999   -7.6145   23.9721 H   0  0  0  0  0  0
  -21.1484   -6.0521   25.9081 H   0  0  0  0  0  0
  -22.0594   -2.7612   23.2856 H   0  0  0  0  0  0
  -22.4043  -11.9872   22.4816 H   0  0  0  0  0  0
  -21.1072  -13.1276   22.2641 H   0  0  0  0  0  0
  -24.6369  -15.8402   20.5146 H   0  0  0  0  0  0
  -26.2425  -15.6348   20.0347 H   0  0  0  0  0  0
  -26.7252  -32.5337   23.1030 H   0  0  0  0  0  0
  -25.0062  -33.9645   25.0335 H   0  0  0  0  0  0
  -22.7452  -31.2943   21.3838 H   0  0  0  0  0  0
  -23.3721  -35.9658   23.3423 H   0  0  0  0  0  0
  -24.3542  -36.8787   22.2037 H   0  0  0  0  0  0
  -23.7332  -37.6539   23.6611 H   0  0  0  0  0  0
  -26.1533  -31.4850   20.6227 H   0  0  0  0  0  0
  -26.8684  -30.7766   22.0348 H   0  0  0  0  0  0
  -28.1257  -28.8113   21.2615 H   0  0  0  0  0  0
  -25.9548  -25.8907   18.9472 H   0  0  0  0  0  0
  -23.9909  -27.3271   18.9466 H   0  0  0  0  0  0
  -23.8056  -30.5805   19.4013 H   0  0  0  0  0  0
  -22.7869  -29.2428   19.8407 H   0  0  0  0  0  0
  -25.1347  -36.1907   25.0815 H   0  0  0  0  0  0
  -21.0001  -28.3329   24.1356 H   0  0  0  0  0  0
  -20.5698  -26.2352   23.3625 H   0  0  0  0  0  0
  -21.6658  -26.7457   22.1199 H   0  0  0  0  0  0
  -19.6942  -25.6287   21.1257 H   0  0  0  0  0  0
  -19.6701  -27.3185   20.6734 H   0  0  0  0  0  0
  -17.4216  -26.6666   21.4030 H   0  0  0  0  0  0
  -18.0360  -26.0080   22.9030 H   0  0  0  0  0  0
  -19.7959  -30.7286   24.2241 H   0  0  0  0  0  0
  -17.5041  -31.6273   24.5178 H   0  0  0  0  0  0
  -15.5372  -30.3001   23.7668 H   0  0  0  0  0  0
  -15.8681  -28.0830   22.7080 H   0  0  0  0  0  0
  -24.5886  -30.7106   25.7740 H   0  0  0  0  0  0
  -24.8908  -32.2945   26.4787 H   0  0  0  0  0  0
  -25.7990  -30.8960   27.0230 H   0  0  0  0  0  0
  -26.3006  -29.6674   24.1296 H   0  0  0  0  0  0
  -27.3989  -29.7251   25.4869 H   0  0  0  0  0  0
  -27.8920  -30.4188   23.9628 H   0  0  0  0  0  0
  -27.2624  -33.3626   26.2059 H   0  0  0  0  0  0
  -28.3881  -32.6872   25.0364 H   0  0  0  0  0  0
  -28.0690  -31.8470   26.5463 H   0  0  0  0  0  0
  -28.2701  -37.9995   24.7323 H   0  0  0  0  0  0
  -28.0913  -36.2519   24.6614 H   0  0  0  0  0  0
  -27.2224  -37.1847   25.8883 H   0  0  0  0  0  0
  -20.9456  -29.8770   21.6784 H   0  0  0  0  0  0
  -26.0206  -38.2839   24.1210 H   0  0  0  0  0  0
  -28.1012  -18.5870   20.7905 H   0  0  0  0  0  0
  -32.1915  -17.4552   19.7891 H   0  0  0  0  0  0
  -26.8408  -24.7792   20.8449 H   0  0  0  0  0  0
  -27.0575  -21.6572   20.0424 H   0  0  0  0  0  0
  -27.6602  -21.7942   21.7190 H   0  0  0  0  0  0
  -28.8148  -15.8543   20.7674 H   0  0  0  0  0  0
  1 25  1  0  0  0
  1 30  2  0  0  0
  1 80  1  0  0  0
  2  3  1  0  0  0
  2 25  1  0  0  0
  2 83  1  0  0  0
  2 84  1  0  0  0
  3  4  1  0  0  0
  3 85  1  0  0  0
  3 86  1  0  0  0
  4  5  1  0  0  0
  4 87  1  0  0  0
  4 88  1  0  0  0
  5  6  1  0  0  0
  5 26  1  0  0  0
  5 89  1  0  0  0
  6 25  1  0  0  0
  6 90  1  0  0  0
  6 91  1  0  0  0
  7  8  2  0  0  0
  7 26  1  0  0  0
  7 29  1  0  0  0
  8  9  1  0  0  0
  8 22  1  0  0  0
  9 10  1  0  0  0
  9 27  2  0  0  0
 10 11  2  0  0  0
 10 15  1  0  0  0
 11 12  1  0  0  0
 11 92  1  0  0  0
 12 13  2  0  0  0
 12 93  1  0  0  0
 13 14  1  0  0  0
 13 31  1  0  0  0
 14 15  2  0  0  0
 14 94  1  0  0  0
 15 95  1  0  0  0
 16 17  2  0  0  0
 16 21  1  0  0  0
 16 31  1  0  0  0
 17 18  1  0  0  0
 17 96  1  0  0  0
 18 19  2  0  0  0
 18 97  1  0  0  0
 19 20  1  0  0  0
 19 24  1  0  0  0
 20 21  2  0  0  0
 20 98  1  0  0  0
 21 23  1  0  0  0
 22 28  1  0  0  0
 22 32  2  0  0  0
 26 27  1  0  0  0
 28 99  1  0  0  0
 28100  1  0  0  0
 29101  1  0  0  0
 29102  1  0  0  0
 33 34  1  0  0  0
 33 66  1  0  0  0
 33 70  2  0  0  0
 34 36  1  0  0  0
 34 59  1  0  0  0
 34103  1  0  0  0
 35 44  2  0  0  0
 35 45  1  0  0  0
 35 68  1  0  0  0
 36 56  1  0  0  0
 36104  1  0  0  0
 37 39  1  0  0  0
 37 47  1  0  0  0
 37 66  1  0  0  0
 37105  1  0  0  0
 38 43  2  0  0  0
 38 46  1  0  0  0
 38 47  1  0  0  0
 39 64  1  0  0  0
 39 67  2  0  0  0
 40 52  1  0  0  0
 40 53  2  0  0  0
 40 58  1  0  0  0
 41106  1  0  0  0
 41107  1  0  0  0
 41108  1  0  0  0
 41 48  1  0  0  0
 42 43  1  0  0  0
 42 66  1  0  0  0
 42109  1  0  0  0
 42110  1  0  0  0
 43 44  1  0  0  0
 44111  1  0  0  0
 45 46  2  0  0  0
 45112  1  0  0  0
 46113  1  0  0  0
 47114  1  0  0  0
 47115  1  0  0  0
 48 56  1  0  0  0
 48 65  1  0  0  0
 48116  1  0  0  0
 49 50  1  0  0  0
 49 53  1  0  0  0
 49 64  1  0  0  0
 49117  1  0  0  0
 50 51  1  0  0  0
 50118  1  0  0  0
 50119  1  0  0  0
 51 52  1  0  0  0
 51120  1  0  0  0
 51121  1  0  0  0
 52122  1  0  0  0
 52123  1  0  0  0
 53 54  1  0  0  0
 54 55  2  0  0  0
 54124  1  0  0  0
 55 57  1  0  0  0
 55125  1  0  0  0
 56 69  2  0  0  0
 57 58  2  0  0  0
 57126  1  0  0  0
 58127  1  0  0  0
 59 60  1  0  0  0
 59 61  1  0  0  0
 59 62  1  0  0  0
 60128  1  0  0  0
 60129  1  0  0  0
 60130  1  0  0  0
 61131  1  0  0  0
 61132  1  0  0  0
 61133  1  0  0  0
 62134  1  0  0  0
 62135  1  0  0  0
 62136  1  0  0  0
 63 65  1  0  0  0
 63137  1  0  0  0
 63138  1  0  0  0
 63139  1  0  0  0
 64140  1  0  0  0
 65141  1  0  0  0
 68 77  1  0  0  0
 71 73  1  0  0  0
 71 74  2  0  0  0
 71142  1  0  0  0
 72 73  2  0  0  0
 72 82  1  0  0  0
 72143  1  0  0  0
 73 80  1  0  0  0
 74 79  1  0  0  0
 74 82  1  0  0  0
 75 76  1  0  0  0
 75 77  2  0  0  0
 75 78  1  0  0  0
 76 79  1  0  0  0
 76 81  2  0  0  0
 77144  1  0  0  0
 78 79  1  0  0  0
 78145  1  0  0  0
 78146  1  0  0  0
 80147  1  0  0  0
M  ISO  4   1 100  68 101  77 101  80 100
M  END
> <chiral flag>
0

> <version>
0

> <s_m_source_file>
/data/baiqing/PycharmProjects/Reinvent-master-3.2/result/LINK_invent/BTK/process_docking_weight1_custom_product_contain_oxygen_bond_distance_aromatic_linkinvent_7_9_3/rearranged_h_0083.sdf

> <i_m_source_file_index>
32

> <r_mmod_Potential_Energy-OPLS-2005>
410.191833496094

> <r_mmod_Stretch_Energy-OPLS-2005>
185.271026611328

> <r_mmod_Bend_Energy-OPLS-2005>
295.496063232422

> <r_mmod_Torsional_Energy-OPLS-2005>
217.246856689453

> <r_mmod_Improper_Torsional_Energy-OPLS-2005>
4.49388599395752

> <r_mmod_Van_der_Waal_Energy-OPLS-2005>
114.464317321777

> <r_mmod_Electrostatic_Energy-OPLS-2005>
-336.638366699219

> <r_mmod_Solvation_Energy-OPLS-2005>
-235.538360595703

> <b_mmod_Minimization_Converged-OPLS-2005>
0

> <r_mmod_RMS_Derivative-OPLS-2005>
1.29879009723663

$$$$
32
                    3D
 Structure written by MMmdl.
156164  0  0  1  0            999 V2000
  -30.6708  -14.5693   20.5119 C   0  0  0  0  0  0
  -30.4349  -12.3544   19.4226 C   0  0  0  0  0  0
  -29.5002  -12.4916   18.2012 C   0  0  0  0  0  0
  -28.0231  -12.3399   18.6206 C   0  0  0  0  0  0
  -27.6561  -13.2069   19.8550 C   0  0  2  0  0  0
  -28.7070  -13.0533   20.9780 C   0  0  0  0  0  0
  -25.2596  -13.8148   20.5673 C   0  0  0  0  0  0
  -24.1869  -13.0439   20.9179 C   0  0  0  0  0  0
  -24.6422  -11.6891   20.8732 C   0  0  0  0  0  0
  -23.9080  -10.4295   21.0405 C   0  0  0  0  0  0
  -24.3624   -9.4213   21.9190 C   0  0  0  0  0  0
  -23.6300   -8.2250   22.0761 C   0  0  0  0  0  0
  -22.4285   -8.0283   21.3554 C   0  0  0  0  0  0
  -21.9919   -9.0258   20.4654 C   0  0  0  0  0  0
  -22.7243  -10.2140   20.3059 C   0  0  0  0  0  0
  -21.6863   -6.0736   22.5288 C   0  0  0  0  0  0
  -21.4010   -6.5644   23.8217 C   0  0  0  0  0  0
  -21.3653   -5.6793   24.9182 C   0  0  0  0  0  0
  -21.6041   -4.3056   24.7228 C   0  0  0  0  0  0
  -21.8811   -3.8150   23.4356 C   0  0  0  0  0  0
  -21.9198   -4.6970   22.3411 C   0  0  0  0  0  0
  -22.7891  -13.5247   21.1828 C   0  0  0  0  0  0
  -22.1663   -4.2152   21.0990 F   0  0  0  0  0  0
  -21.5630   -3.4546   25.7748 F   0  0  0  0  0  0
  -30.0228  -13.3719   20.4024 N   0  0  0  0  0  0
  -26.3023  -12.9314   20.3291 N   0  0  0  0  0  0
  -25.9349  -11.6478   20.5728 N   0  0  0  0  0  0
  -22.0513  -12.8260   22.0373 N   0  0  0  0  0  0
  -25.4309  -15.1874   20.4094 N   0  0  0  0  0  0
  -31.8470  -14.7190   20.1745 O   0  0  0  0  0  0
  -21.6639   -6.8893   21.4250 O   0  0  0  0  0  0
  -22.3576  -14.5561   20.6680 O   0  0  0  0  0  0
  -24.6147  -31.8695   23.2047 C   0  0  0  0  0  0
  -25.9012  -32.4846   23.8367 C   0  0  1  0  0  0
  -27.2448  -27.4084   20.1082 C   0  0  0  0  0  0
  -25.5882  -33.8646   24.2328 N   0  0  0  0  0  0
  -23.4066  -30.4912   21.5456 C   0  0  2  0  0  0
  -24.8640  -28.9508   20.1140 C   0  0  0  0  0  0
  -22.7437  -29.4699   22.4967 C   0  0  0  0  0  0
  -18.0283  -28.1398   22.8496 C   0  0  0  0  0  0
  -24.1502  -36.7300   23.2633 C   0  0  0  0  0  0
  -25.9400  -30.8248   21.3673 C   0  0  0  0  0  0
  -26.0226  -29.4548   20.7200 C   0  0  0  0  0  0
  -27.2199  -28.6920   20.7142 C   0  0  0  0  0  0
  -26.0688  -26.9275   19.4999 C   0  0  0  0  0  0
  -24.8848  -27.6893   19.4951 C   0  0  0  0  0  0
  -23.6208  -29.8181   20.1624 C   0  0  0  0  0  0
  -25.4120  -36.3136   24.0350 C   0  0  1  0  0  0
  -20.5882  -28.3698   23.1283 C   0  0  2  0  0  0
  -20.6772  -26.9426   22.5422 C   0  0  0  0  0  0
  -19.5748  -26.6395   21.5197 C   0  0  0  0  0  0
  -18.1932  -26.7946   22.1597 C   0  0  0  0  0  0
  -19.1543  -28.8857   23.2897 C   0  0  0  0  0  0
  -18.9461  -30.1439   23.8954 C   0  0  0  0  0  0
  -17.6469  -30.6611   24.0551 C   0  0  0  0  0  0
  -25.9028  -34.9480   23.5146 C   0  0  0  0  0  0
  -16.5350  -29.9129   23.6321 C   0  0  0  0  0  0
  -16.7273  -28.6515   23.0390 C   0  0  0  0  0  0
  -26.4443  -31.6631   25.0695 C   0  0  0  0  0  0
  -25.3734  -31.3703   26.1460 C   0  0  0  0  0  0
  -27.0265  -30.3093   24.6052 C   0  0  0  0  0  0
  -27.6041  -32.4325   25.7460 C   0  0  0  0  0  0
  -27.5605  -37.1819   24.8466 C   0  0  0  0  0  0
  -21.4168  -29.3050   22.3675 N   0  0  0  0  0  0
  -26.4331  -37.3797   23.9410 N   0  0  0  0  0  0
  -24.6714  -31.0754   22.0972 N   0  0  0  0  0  0
  -23.4188  -28.8229   23.3016 O   0  0  0  0  0  0
  -28.3728  -26.6091   20.0557 O   0  0  0  0  0  0
  -26.5579  -34.8929   22.4704 O   0  0  0  0  0  0
  -23.5332  -32.1494   23.7404 O   0  0  0  0  0  0
  -30.7421  -18.5072   22.9736 C   0  0  0  0  0  0
  -30.5900  -19.6187   22.1183 C   0  0  0  0  0  0
  -30.5441  -17.1967   22.4936 C   0  0  0  0  0  0
  -30.0491  -18.1044   20.2884 C   0  0  0  0  0  0
  -30.2371  -19.4427   20.7597 C   0  0  0  0  0  0
  -30.2091  -16.9722   21.1443 C   0  0  0  0  0  0
  -28.6706  -25.8824   21.1882 C   0  0  0  0  0  0
  -28.9645  -24.5583   21.2807 C   0  0  0  0  0  0
  -31.0542  -20.6507   18.6522 C   0  0  0  0  0  0
  -30.0510  -20.6725   19.8224 C   0  0  2  0  0  0
  -29.8626  -15.6358   20.7386 N   0  0  0  0  0  0
  -30.1088  -22.0123   20.4832 N   0  0  0  0  0  0
  -27.7322  -22.7367   19.7875 O   0  0  0  0  0  0
  -29.7279  -23.9454   18.7780 O   0  0  0  0  0  0
  -29.0770  -23.3158   19.9383 S   0  0  0  0  0  0
  -31.4772  -12.4673   19.1192 H   0  0  0  0  0  0
  -30.3517  -11.3579   19.8598 H   0  0  0  0  0  0
  -29.7526  -11.7421   17.4500 H   0  0  0  0  0  0
  -29.6486  -13.4627   17.7234 H   0  0  0  0  0  0
  -27.8520  -11.2871   18.8425 H   0  0  0  0  0  0
  -27.3673  -12.5769   17.7828 H   0  0  0  0  0  0
  -27.6773  -14.2420   19.5140 H   0  0  0  0  0  0
  -28.7100  -12.0328   21.3623 H   0  0  0  0  0  0
  -28.4697  -13.6939   21.8300 H   0  0  0  0  0  0
  -25.2782   -9.5683   22.4751 H   0  0  0  0  0  0
  -24.0015   -7.4638   22.7499 H   0  0  0  0  0  0
  -21.0837   -8.8773   19.8968 H   0  0  0  0  0  0
  -22.3706  -10.9672   19.6161 H   0  0  0  0  0  0
  -21.1990   -7.6153   23.9721 H   0  0  0  0  0  0
  -21.1480   -6.0531   25.9086 H   0  0  0  0  0  0
  -22.0597   -2.7618   23.2856 H   0  0  0  0  0  0
  -22.4109  -11.9924   22.4778 H   0  0  0  0  0  0
  -21.1136  -13.1289   22.2563 H   0  0  0  0  0  0
  -24.6590  -15.8360   20.5174 H   0  0  0  0  0  0
  -26.2780  -15.6349   20.0810 H   0  0  0  0  0  0
  -26.7099  -32.5591   23.1139 H   0  0  0  0  0  0
  -25.0111  -33.9820   25.0523 H   0  0  0  0  0  0
  -22.6910  -31.3047   21.3985 H   0  0  0  0  0  0
  -23.3792  -35.9603   23.3320 H   0  0  0  0  0  0
  -24.3562  -36.8859   22.2034 H   0  0  0  0  0  0
  -23.7222  -37.6510   23.6614 H   0  0  0  0  0  0
  -26.0528  -31.5876   20.5937 H   0  0  0  0  0  0
  -26.8258  -30.8846   21.9900 H   0  0  0  0  0  0
  -28.1198  -29.0804   21.1726 H   0  0  0  0  0  0
  -26.0717  -25.9512   19.0346 H   0  0  0  0  0  0
  -24.0004  -27.2980   19.0118 H   0  0  0  0  0  0
  -23.7216  -30.5907   19.4007 H   0  0  0  0  0  0
  -22.7451  -29.2395   19.8647 H   0  0  0  0  0  0
  -25.1299  -36.2038   25.0849 H   0  0  0  0  0  0
  -20.9957  -28.3290   24.1409 H   0  0  0  0  0  0
  -20.5649  -26.2313   23.3609 H   0  0  0  0  0  0
  -21.6635  -26.7476   22.1215 H   0  0  0  0  0  0
  -19.6906  -25.6299   21.1234 H   0  0  0  0  0  0
  -19.6688  -27.3195   20.6714 H   0  0  0  0  0  0
  -17.4179  -26.6690   21.4015 H   0  0  0  0  0  0
  -18.0353  -26.0087   22.9009 H   0  0  0  0  0  0
  -19.7938  -30.7215   24.2377 H   0  0  0  0  0  0
  -17.5039  -31.6290   24.5137 H   0  0  0  0  0  0
  -15.5353  -30.3039   23.7627 H   0  0  0  0  0  0
  -15.8664  -28.0799   22.7187 H   0  0  0  0  0  0
  -24.5906  -30.7043   25.7806 H   0  0  0  0  0  0
  -24.8931  -32.2849   26.4975 H   0  0  0  0  0  0
  -25.8111  -30.8851   27.0205 H   0  0  0  0  0  0
  -26.2823  -29.6882   24.1074 H   0  0  0  0  0  0
  -27.4030  -29.7264   25.4478 H   0  0  0  0  0  0
  -27.8644  -30.4404   23.9186 H   0  0  0  0  0  0
  -27.2686  -33.3596   26.2108 H   0  0  0  0  0  0
  -28.3829  -32.6933   25.0282 H   0  0  0  0  0  0
  -28.0761  -31.8420   26.5339 H   0  0  0  0  0  0
  -28.2638  -38.0113   24.7540 H   0  0  0  0  0  0
  -28.1108  -36.2649   24.6301 H   0  0  0  0  0  0
  -27.2306  -37.1452   25.8864 H   0  0  0  0  0  0
  -20.9325  -29.8785   21.6897 H   0  0  0  0  0  0
  -26.0243  -38.2886   24.1437 H   0  0  0  0  0  0
  -30.9854  -18.6585   24.0158 H   0  0  0  0  0  0
  -30.7326  -20.6085   22.5278 H   0  0  0  0  0  0
  -30.6198  -16.3656   23.1812 H   0  0  0  0  0  0
  -29.7568  -17.9503   19.2599 H   0  0  0  0  0  0
  -28.6400  -26.5004   22.0725 H   0  0  0  0  0  0
  -29.1721  -24.1304   22.2483 H   0  0  0  0  0  0
  -30.9170  -19.7597   18.0369 H   0  0  0  0  0  0
  -32.0926  -20.6584   18.9902 H   0  0  0  0  0  0
  -30.9188  -21.5128   17.9973 H   0  0  0  0  0  0
  -29.0496  -20.5603   19.3991 H   0  0  0  0  0  0
  -28.8838  -15.4077   20.8137 H   0  0  0  0  0  0
  -31.0617  -22.3738   20.3999 H   0  0  0  0  0  0
  1 25  1  0  0  0
  1 30  2  0  0  0
  1 81  1  0  0  0
  2  3  1  0  0  0
  2 25  1  0  0  0
  2 86  1  0  0  0
  2 87  1  0  0  0
  3  4  1  0  0  0
  3 88  1  0  0  0
  3 89  1  0  0  0
  4  5  1  0  0  0
  4 90  1  0  0  0
  4 91  1  0  0  0
  5  6  1  0  0  0
  5 26  1  0  0  0
  5 92  1  0  0  0
  6 25  1  0  0  0
  6 93  1  0  0  0
  6 94  1  0  0  0
  7  8  2  0  0  0
  7 26  1  0  0  0
  7 29  1  0  0  0
  8  9  1  0  0  0
  8 22  1  0  0  0
  9 10  1  0  0  0
  9 27  2  0  0  0
 10 11  2  0  0  0
 10 15  1  0  0  0
 11 12  1  0  0  0
 11 95  1  0  0  0
 12 13  2  0  0  0
 12 96  1  0  0  0
 13 14  1  0  0  0
 13 31  1  0  0  0
 14 15  2  0  0  0
 14 97  1  0  0  0
 15 98  1  0  0  0
 16 17  2  0  0  0
 16 21  1  0  0  0
 16 31  1  0  0  0
 17 18  1  0  0  0
 17 99  1  0  0  0
 18 19  2  0  0  0
 18100  1  0  0  0
 19 20  1  0  0  0
 19 24  1  0  0  0
 20 21  2  0  0  0
 20101  1  0  0  0
 21 23  1  0  0  0
 22 28  1  0  0  0
 22 32  2  0  0  0
 26 27  1  0  0  0
 28102  1  0  0  0
 28103  1  0  0  0
 29104  1  0  0  0
 29105  1  0  0  0
 33 34  1  0  0  0
 33 66  1  0  0  0
 33 70  2  0  0  0
 34 36  1  0  0  0
 34 59  1  0  0  0
 34106  1  0  0  0
 35 44  2  0  0  0
 35 45  1  0  0  0
 35 68  1  0  0  0
 36 56  1  0  0  0
 36107  1  0  0  0
 37 39  1  0  0  0
 37 47  1  0  0  0
 37 66  1  0  0  0
 37108  1  0  0  0
 38 43  2  0  0  0
 38 46  1  0  0  0
 38 47  1  0  0  0
 39 64  1  0  0  0
 39 67  2  0  0  0
 40 52  1  0  0  0
 40 53  2  0  0  0
 40 58  1  0  0  0
 41109  1  0  0  0
 41110  1  0  0  0
 41111  1  0  0  0
 41 48  1  0  0  0
 42 43  1  0  0  0
 42 66  1  0  0  0
 42112  1  0  0  0
 42113  1  0  0  0
 43 44  1  0  0  0
 44114  1  0  0  0
 45 46  2  0  0  0
 45115  1  0  0  0
 46116  1  0  0  0
 47117  1  0  0  0
 47118  1  0  0  0
 48 56  1  0  0  0
 48 65  1  0  0  0
 48119  1  0  0  0
 49 50  1  0  0  0
 49 53  1  0  0  0
 49 64  1  0  0  0
 49120  1  0  0  0
 50 51  1  0  0  0
 50121  1  0  0  0
 50122  1  0  0  0
 51 52  1  0  0  0
 51123  1  0  0  0
 51124  1  0  0  0
 52125  1  0  0  0
 52126  1  0  0  0
 53 54  1  0  0  0
 54 55  2  0  0  0
 54127  1  0  0  0
 55 57  1  0  0  0
 55128  1  0  0  0
 56 69  2  0  0  0
 57 58  2  0  0  0
 57129  1  0  0  0
 58130  1  0  0  0
 59 60  1  0  0  0
 59 61  1  0  0  0
 59 62  1  0  0  0
 60131  1  0  0  0
 60132  1  0  0  0
 60133  1  0  0  0
 61134  1  0  0  0
 61135  1  0  0  0
 61136  1  0  0  0
 62137  1  0  0  0
 62138  1  0  0  0
 62139  1  0  0  0
 63 65  1  0  0  0
 63140  1  0  0  0
 63141  1  0  0  0
 63142  1  0  0  0
 64143  1  0  0  0
 65144  1  0  0  0
 68 77  1  0  0  0
 71 72  2  0  0  0
 71 73  1  0  0  0
 71145  1  0  0  0
 72 75  1  0  0  0
 72146  1  0  0  0
 73 76  2  0  0  0
 73147  1  0  0  0
 74 75  2  0  0  0
 74 76  1  0  0  0
 74148  1  0  0  0
 75 80  1  0  0  0
 76 81  1  0  0  0
 77 78  2  0  0  0
 77149  1  0  0  0
 78 85  1  0  0  0
 78150  1  0  0  0
 79151  1  0  0  0
 79152  1  0  0  0
 79153  1  0  0  0
 79 80  1  0  0  0
 80 82  1  0  0  0
 80154  1  0  0  0
 81155  1  0  0  0
 82156  1  0  0  0
 82 85  1  0  0  0
 83 85  2  0  0  0
 84 85  2  0  0  0
M  ISO  4   1 100  68 101  77 101  81 100
M  END
> <chiral flag>
0

> <version>
0

> <s_m_source_file>
/data/baiqing/PycharmProjects/Reinvent-master-3.2/result/LINK_invent/BTK/process_docking_weight1_custom_product_contain_oxygen_bond_distance_aromatic_linkinvent_7_9_3/rearranged_h_0083.sdf

> <i_m_source_file_index>
33

> <r_mmod_Potential_Energy-OPLS-2005>
-162.092102050781

> <r_mmod_Stretch_Energy-OPLS-2005>
46.6192283630371

> <r_mmod_Bend_Energy-OPLS-2005>
111.860649108887

> <r_mmod_Torsional_Energy-OPLS-2005>
246.905456542969

> <r_mmod_Improper_Torsional_Energy-OPLS-2005>
13.835410118103

> <r_mmod_Van_der_Waal_Energy-OPLS-2005>
131.759704589844

> <r_mmod_Electrostatic_Energy-OPLS-2005>
-499.032043457031

> <r_mmod_Solvation_Energy-OPLS-2005>
-239.673080444336

> <b_mmod_Minimization_Converged-OPLS-2005>
0

> <r_mmod_RMS_Derivative-OPLS-2005>
4.59001636505127

$$$$
33
                    3D
 Structure written by MMmdl.
150159  0  0  1  0            999 V2000
  -30.5876  -14.8703   20.4084 C   0  0  0  0  0  0
  -30.4291  -12.5301   19.4956 C   0  0  0  0  0  0
  -29.5166  -12.5139   18.2495 C   0  0  0  0  0  0
  -28.0447  -12.3253   18.6613 C   0  0  0  0  0  0
  -27.6320  -13.2475   19.8400 C   0  0  2  0  0  0
  -28.6751  -13.2535   20.9776 C   0  0  0  0  0  0
  -25.2473  -13.8228   20.5725 C   0  0  0  0  0  0
  -24.1790  -13.0445   20.9236 C   0  0  0  0  0  0
  -24.6409  -11.6931   20.8758 C   0  0  0  0  0  0
  -23.9095  -10.4296   21.0413 C   0  0  0  0  0  0
  -24.3643   -9.4205   21.9189 C   0  0  0  0  0  0
  -23.6311   -8.2243   22.0756 C   0  0  0  0  0  0
  -22.4292   -8.0284   21.3548 C   0  0  0  0  0  0
  -21.9935   -9.0263   20.4653 C   0  0  0  0  0  0
  -22.7267  -10.2139   20.3062 C   0  0  0  0  0  0
  -21.6857   -6.0742   22.5283 C   0  0  0  0  0  0
  -21.4016   -6.5645   23.8217 C   0  0  0  0  0  0
  -21.3661   -5.6793   24.9177 C   0  0  0  0  0  0
  -21.6042   -4.3056   24.7226 C   0  0  0  0  0  0
  -21.8818   -3.8152   23.4348 C   0  0  0  0  0  0
  -21.9198   -4.6970   22.3407 C   0  0  0  0  0  0
  -22.7807  -13.5205   21.1891 C   0  0  0  0  0  0
  -22.1661   -4.2155   21.0985 F   0  0  0  0  0  0
  -21.5631   -3.4541   25.7741 F   0  0  0  0  0  0
  -29.9609  -13.6317   20.3808 N   0  0  0  0  0  0
  -26.2901  -12.9462   20.3254 N   0  0  0  0  0  0
  -25.9339  -11.6589   20.5748 N   0  0  0  0  0  0
  -22.0468  -12.8183   22.0446 N   0  0  0  0  0  0
  -25.4122  -15.1962   20.4164 N   0  0  0  0  0  0
  -31.7964  -14.8855   20.1589 O   0  0  0  0  0  0
  -21.6646   -6.8886   21.4246 O   0  0  0  0  0  0
  -22.3484  -14.5505   20.6737 O   0  0  0  0  0  0
  -24.6389  -31.8485   23.1933 C   0  0  0  0  0  0
  -25.9179  -32.4719   23.8310 C   0  0  1  0  0  0
  -27.2145  -27.1834   20.1477 C   0  0  0  0  0  0
  -25.5944  -33.8528   24.2217 N   0  0  0  0  0  0
  -23.4412  -30.4686   21.5379 C   0  0  2  0  0  0
  -24.8915  -28.9046   20.1111 C   0  0  0  0  0  0
  -22.7551  -29.4555   22.4879 C   0  0  0  0  0  0
  -18.0299  -28.1393   22.8478 C   0  0  0  0  0  0
  -24.1490  -36.7270   23.2638 C   0  0  0  0  0  0
  -25.9942  -30.7349   21.3886 C   0  0  0  0  0  0
  -26.0664  -29.3502   20.7315 C   0  0  0  0  0  0
  -27.2324  -28.5027   20.7397 C   0  0  0  0  0  0
  -26.0211  -26.8322   19.4818 C   0  0  0  0  0  0
  -24.8777  -27.6556   19.4732 C   0  0  0  0  0  0
  -23.6677  -29.8034   20.1549 C   0  0  0  0  0  0
  -25.4120  -36.3046   24.0316 C   0  0  1  0  0  0
  -20.5911  -28.3710   23.1250 C   0  0  2  0  0  0
  -20.6783  -26.9416   22.5412 C   0  0  0  0  0  0
  -19.5759  -26.6373   21.5221 C   0  0  0  0  0  0
  -18.1939  -26.7929   22.1631 C   0  0  0  0  0  0
  -19.1555  -28.8872   23.2854 C   0  0  0  0  0  0
  -18.9474  -30.1471   23.8876 C   0  0  0  0  0  0
  -17.6469  -30.6590   24.0561 C   0  0  0  0  0  0
  -25.9068  -34.9421   23.5073 C   0  0  0  0  0  0
  -16.5360  -29.9087   23.6331 C   0  0  0  0  0  0
  -16.7285  -28.6508   23.0350 C   0  0  0  0  0  0
  -26.4507  -31.6577   25.0738 C   0  0  0  0  0  0
  -25.3704  -31.3776   26.1446 C   0  0  0  0  0  0
  -27.0355  -30.2970   24.6298 C   0  0  0  0  0  0
  -27.6032  -32.4345   25.7527 C   0  0  0  0  0  0
  -27.5574  -37.1796   24.8461 C   0  0  0  0  0  0
  -21.4248  -29.3045   22.3631 N   0  0  0  0  0  0
  -26.4283  -37.3755   23.9405 N   0  0  0  0  0  0
  -24.7107  -31.0376   22.0952 N   0  0  0  0  0  0
  -23.4216  -28.8092   23.3001 O   0  0  0  0  0  0
  -28.2485  -26.1946   20.1855 O   0  0  0  0  0  0
  -26.5652  -34.8906   22.4649 O   0  0  0  0  0  0
  -23.5516  -32.1343   23.7174 O   0  0  0  0  0  0
  -29.4038  -18.7653   20.4677 C   0  0  0  0  0  0
  -30.9433  -20.1749   19.2930 C   0  0  0  0  0  0
  -31.3158  -17.7516   19.3698 C   0  0  0  0  0  0
  -29.7492  -20.1571   20.0572 C   0  0  0  0  0  0
  -30.1676  -17.5233   20.1588 C   0  0  0  0  0  0
  -31.6935  -19.0360   18.9545 C   0  0  0  0  0  0
  -28.4802  -23.5541   20.3973 C   0  0  0  0  0  0
  -28.0297  -22.2234   20.8743 C   0  0  0  0  0  0
  -27.9083  -24.8360   20.5707 C   0  0  0  0  0  0
  -29.6879  -22.8345   19.7413 C   0  0  0  0  0  0
  -29.1212  -21.5392   20.2618 N   0  0  0  0  0  0
  -29.8441  -16.0741   20.5305 N   0  0  0  0  0  0
  -27.0717  -21.9112   21.5501 O   0  0  0  0  0  0
  -32.8090  -19.1819   18.1988 F   0  0  0  0  0  0
  -31.4689  -12.6551   19.1890 H   0  0  0  0  0  0
  -30.3884  -11.5737   20.0197 H   0  0  0  0  0  0
  -29.8202  -11.7173   17.5688 H   0  0  0  0  0  0
  -29.6287  -13.4491   17.6983 H   0  0  0  0  0  0
  -27.9178  -11.2804   18.9475 H   0  0  0  0  0  0
  -27.3878  -12.4869   17.8056 H   0  0  0  0  0  0
  -27.6028  -14.2557   19.4262 H   0  0  0  0  0  0
  -28.7415  -12.2757   21.4572 H   0  0  0  0  0  0
  -28.3913  -13.9624   21.7566 H   0  0  0  0  0  0
  -25.2794   -9.5672   22.4759 H   0  0  0  0  0  0
  -24.0022   -7.4631   22.7469 H   0  0  0  0  0  0
  -21.0870   -8.8788   19.8954 H   0  0  0  0  0  0
  -22.3737  -10.9682   19.6169 H   0  0  0  0  0  0
  -21.2002   -7.6154   23.9723 H   0  0  0  0  0  0
  -21.1482   -6.0525   25.9080 H   0  0  0  0  0  0
  -22.0595   -2.7616   23.2849 H   0  0  0  0  0  0
  -22.4105  -11.9853   22.4837 H   0  0  0  0  0  0
  -21.1081  -13.1183   22.2652 H   0  0  0  0  0  0
  -24.6429  -15.8459   20.5397 H   0  0  0  0  0  0
  -26.2540  -15.6422   20.0759 H   0  0  0  0  0  0
  -26.7246  -32.5331   23.1044 H   0  0  0  0  0  0
  -25.0062  -33.9660   25.0343 H   0  0  0  0  0  0
  -22.7409  -31.2927   21.3872 H   0  0  0  0  0  0
  -23.3752  -35.9602   23.3295 H   0  0  0  0  0  0
  -24.3567  -36.8909   22.2052 H   0  0  0  0  0  0
  -23.7252  -37.6468   23.6680 H   0  0  0  0  0  0
  -26.1453  -31.4911   20.6174 H   0  0  0  0  0  0
  -26.8665  -30.7846   22.0282 H   0  0  0  0  0  0
  -28.1276  -28.8338   21.2472 H   0  0  0  0  0  0
  -25.9557  -25.8738   18.9863 H   0  0  0  0  0  0
  -23.9813  -27.3099   18.9765 H   0  0  0  0  0  0
  -23.8070  -30.5823   19.4043 H   0  0  0  0  0  0
  -22.7829  -29.2484   19.8387 H   0  0  0  0  0  0
  -25.1307  -36.1878   25.0808 H   0  0  0  0  0  0
  -20.9994  -28.3295   24.1376 H   0  0  0  0  0  0
  -20.5677  -26.2325   23.3629 H   0  0  0  0  0  0
  -21.6649  -26.7425   22.1212 H   0  0  0  0  0  0
  -19.6917  -25.6279   21.1267 H   0  0  0  0  0  0
  -19.6695  -27.3171   20.6742 H   0  0  0  0  0  0
  -17.4205  -26.6671   21.4037 H   0  0  0  0  0  0
  -18.0338  -26.0083   22.9040 H   0  0  0  0  0  0
  -19.7949  -30.7296   24.2231 H   0  0  0  0  0  0
  -17.5023  -31.6266   24.5173 H   0  0  0  0  0  0
  -15.5360  -30.2983   23.7667 H   0  0  0  0  0  0
  -15.8686  -28.0825   22.7066 H   0  0  0  0  0  0
  -24.5863  -30.7141   25.7783 H   0  0  0  0  0  0
  -24.8918  -32.2970   26.4833 H   0  0  0  0  0  0
  -25.7993  -30.8975   27.0252 H   0  0  0  0  0  0
  -26.2964  -29.6718   24.1274 H   0  0  0  0  0  0
  -27.3933  -29.7241   25.4864 H   0  0  0  0  0  0
  -27.8892  -30.4202   23.9629 H   0  0  0  0  0  0
  -27.2600  -33.3643   26.2079 H   0  0  0  0  0  0
  -28.3860  -32.6920   25.0379 H   0  0  0  0  0  0
  -28.0685  -31.8502   26.5475 H   0  0  0  0  0  0
  -28.2584  -38.0098   24.7493 H   0  0  0  0  0  0
  -28.1077  -36.2625   24.6301 H   0  0  0  0  0  0
  -27.2289  -37.1459   25.8863 H   0  0  0  0  0  0
  -20.9449  -29.8783   21.6840 H   0  0  0  0  0  0
  -26.0151  -38.2822   24.1412 H   0  0  0  0  0  0
  -28.5001  -18.6488   21.0492 H   0  0  0  0  0  0
  -31.3349  -21.1058   18.9152 H   0  0  0  0  0  0
  -31.9476  -16.9458   19.0359 H   0  0  0  0  0  0
  -26.9946  -24.8634   21.1486 H   0  0  0  0  0  0
  -30.6721  -23.0456   20.1625 H   0  0  0  0  0  0
  -29.7347  -22.8541   18.6511 H   0  0  0  0  0  0
  -28.8949  -15.9221   20.8367 H   0  0  0  0  0  0
  1 25  1  0  0  0
  1 30  2  0  0  0
  1 82  1  0  0  0
  2  3  1  0  0  0
  2 25  1  0  0  0
  2 85  1  0  0  0
  2 86  1  0  0  0
  3  4  1  0  0  0
  3 87  1  0  0  0
  3 88  1  0  0  0
  4  5  1  0  0  0
  4 89  1  0  0  0
  4 90  1  0  0  0
  5  6  1  0  0  0
  5 26  1  0  0  0
  5 91  1  0  0  0
  6 25  1  0  0  0
  6 92  1  0  0  0
  6 93  1  0  0  0
  7  8  2  0  0  0
  7 26  1  0  0  0
  7 29  1  0  0  0
  8  9  1  0  0  0
  8 22  1  0  0  0
  9 10  1  0  0  0
  9 27  2  0  0  0
 10 11  2  0  0  0
 10 15  1  0  0  0
 11 12  1  0  0  0
 11 94  1  0  0  0
 12 13  2  0  0  0
 12 95  1  0  0  0
 13 14  1  0  0  0
 13 31  1  0  0  0
 14 15  2  0  0  0
 14 96  1  0  0  0
 15 97  1  0  0  0
 16 17  2  0  0  0
 16 21  1  0  0  0
 16 31  1  0  0  0
 17 18  1  0  0  0
 17 98  1  0  0  0
 18 19  2  0  0  0
 18 99  1  0  0  0
 19 20  1  0  0  0
 19 24  1  0  0  0
 20 21  2  0  0  0
 20100  1  0  0  0
 21 23  1  0  0  0
 22 28  1  0  0  0
 22 32  2  0  0  0
 26 27  1  0  0  0
 28101  1  0  0  0
 28102  1  0  0  0
 29103  1  0  0  0
 29104  1  0  0  0
 33 34  1  0  0  0
 33 66  1  0  0  0
 33 70  2  0  0  0
 34 36  1  0  0  0
 34 59  1  0  0  0
 34105  1  0  0  0
 35 44  2  0  0  0
 35 45  1  0  0  0
 35 68  1  0  0  0
 36 56  1  0  0  0
 36106  1  0  0  0
 37 39  1  0  0  0
 37 47  1  0  0  0
 37 66  1  0  0  0
 37107  1  0  0  0
 38 43  2  0  0  0
 38 46  1  0  0  0
 38 47  1  0  0  0
 39 64  1  0  0  0
 39 67  2  0  0  0
 40 52  1  0  0  0
 40 53  2  0  0  0
 40 58  1  0  0  0
 41108  1  0  0  0
 41109  1  0  0  0
 41110  1  0  0  0
 41 48  1  0  0  0
 42 43  1  0  0  0
 42 66  1  0  0  0
 42111  1  0  0  0
 42112  1  0  0  0
 43 44  1  0  0  0
 44113  1  0  0  0
 45 46  2  0  0  0
 45114  1  0  0  0
 46115  1  0  0  0
 47116  1  0  0  0
 47117  1  0  0  0
 48 56  1  0  0  0
 48 65  1  0  0  0
 48118  1  0  0  0
 49 50  1  0  0  0
 49 53  1  0  0  0
 49 64  1  0  0  0
 49119  1  0  0  0
 50 51  1  0  0  0
 50120  1  0  0  0
 50121  1  0  0  0
 51 52  1  0  0  0
 51122  1  0  0  0
 51123  1  0  0  0
 52124  1  0  0  0
 52125  1  0  0  0
 53 54  1  0  0  0
 54 55  2  0  0  0
 54126  1  0  0  0
 55 57  1  0  0  0
 55127  1  0  0  0
 56 69  2  0  0  0
 57 58  2  0  0  0
 57128  1  0  0  0
 58129  1  0  0  0
 59 60  1  0  0  0
 59 61  1  0  0  0
 59 62  1  0  0  0
 60130  1  0  0  0
 60131  1  0  0  0
 60132  1  0  0  0
 61133  1  0  0  0
 61134  1  0  0  0
 61135  1  0  0  0
 62136  1  0  0  0
 62137  1  0  0  0
 62138  1  0  0  0
 63 65  1  0  0  0
 63139  1  0  0  0
 63140  1  0  0  0
 63141  1  0  0  0
 64142  1  0  0  0
 65143  1  0  0  0
 68 79  1  0  0  0
 71 74  2  0  0  0
 71 75  1  0  0  0
 71144  1  0  0  0
 72 74  1  0  0  0
 72 76  2  0  0  0
 72145  1  0  0  0
 73 75  2  0  0  0
 73 76  1  0  0  0
 73146  1  0  0  0
 74 81  1  0  0  0
 75 82  1  0  0  0
 76 84  1  0  0  0
 77 78  1  0  0  0
 77 79  2  0  0  0
 77 80  1  0  0  0
 78 81  1  0  0  0
 78 83  2  0  0  0
 79147  1  0  0  0
 80 81  1  0  0  0
 80148  1  0  0  0
 80149  1  0  0  0
 82150  1  0  0  0
M  ISO  4   1 100  68 101  79 101  82 100
M  END
> <chiral flag>
0

> <version>
0

> <s_m_source_file>
/data/baiqing/PycharmProjects/Reinvent-master-3.2/result/LINK_invent/BTK/process_docking_weight1_custom_product_contain_oxygen_bond_distance_aromatic_linkinvent_7_9_3/rearranged_h_0083.sdf

> <i_m_source_file_index>
34

> <r_mmod_Potential_Energy-OPLS-2005>
443.54248046875

> <r_mmod_Stretch_Energy-OPLS-2005>
190.499206542969

> <r_mmod_Bend_Energy-OPLS-2005>
287.619781494141

> <r_mmod_Torsional_Energy-OPLS-2005>
223.418807983398

> <r_mmod_Improper_Torsional_Energy-OPLS-2005>
3.9735255241394

> <r_mmod_Van_der_Waal_Energy-OPLS-2005>
140.909149169922

> <r_mmod_Electrostatic_Energy-OPLS-2005>
-335.642303466797

> <r_mmod_Solvation_Energy-OPLS-2005>
-217.531967163086

> <b_mmod_Minimization_Converged-OPLS-2005>
0

> <r_mmod_RMS_Derivative-OPLS-2005>
1.05436885356903

$$$$
34
                    3D
 Structure written by MMmdl.
154163  0  0  1  0            999 V2000
  -30.5944  -14.8061   20.4354 C   0  0  0  0  0  0
  -30.4350  -12.4901   19.4970 C   0  0  0  0  0  0
  -29.5173  -12.5201   18.2531 C   0  0  0  0  0  0
  -28.0441  -12.3392   18.6618 C   0  0  0  0  0  0
  -27.6431  -13.2429   19.8563 C   0  0  2  0  0  0
  -28.6836  -13.2013   20.9975 C   0  0  0  0  0  0
  -25.2506  -13.8227   20.5700 C   0  0  0  0  0  0
  -24.1799  -13.0455   20.9201 C   0  0  0  0  0  0
  -24.6402  -11.6942   20.8739 C   0  0  0  0  0  0
  -23.9064  -10.4313   21.0393 C   0  0  0  0  0  0
  -24.3610   -9.4229   21.9174 C   0  0  0  0  0  0
  -23.6299   -8.2249   22.0727 C   0  0  0  0  0  0
  -22.4281   -8.0281   21.3523 C   0  0  0  0  0  0
  -21.9915   -9.0256   20.4618 C   0  0  0  0  0  0
  -22.7231  -10.2145   20.3035 C   0  0  0  0  0  0
  -21.6857   -6.0726   22.5275 C   0  0  0  0  0  0
  -21.4012   -6.5631   23.8211 C   0  0  0  0  0  0
  -21.3659   -5.6787   24.9173 C   0  0  0  0  0  0
  -21.6061   -4.3049   24.7220 C   0  0  0  0  0  0
  -21.8818   -3.8132   23.4343 C   0  0  0  0  0  0
  -21.9185   -4.6952   22.3404 C   0  0  0  0  0  0
  -22.7810  -13.5222   21.1840 C   0  0  0  0  0  0
  -22.1652   -4.2133   21.0983 F   0  0  0  0  0  0
  -21.5640   -3.4539   25.7733 F   0  0  0  0  0  0
  -29.9854  -13.5630   20.4229 N   0  0  0  0  0  0
  -26.2953  -12.9453   20.3304 N   0  0  0  0  0  0
  -25.9344  -11.6586   20.5753 N   0  0  0  0  0  0
  -22.0451  -12.8226   22.0399 N   0  0  0  0  0  0
  -25.4204  -15.1949   20.4118 N   0  0  0  0  0  0
  -31.7656  -14.8960   20.0587 O   0  0  0  0  0  0
  -21.6634   -6.8877   21.4235 O   0  0  0  0  0  0
  -22.3506  -14.5530   20.6679 O   0  0  0  0  0  0
  -24.6363  -31.8509   23.1970 C   0  0  0  0  0  0
  -25.9170  -32.4723   23.8320 C   0  0  1  0  0  0
  -27.2072  -27.1930   20.1376 C   0  0  0  0  0  0
  -25.5969  -33.8534   24.2234 N   0  0  0  0  0  0
  -23.4348  -30.4765   21.5412 C   0  0  2  0  0  0
  -24.8823  -28.9190   20.1114 C   0  0  0  0  0  0
  -22.7529  -29.4586   22.4887 C   0  0  0  0  0  0
  -18.0303  -28.1385   22.8480 C   0  0  0  0  0  0
  -24.1502  -36.7254   23.2637 C   0  0  0  0  0  0
  -25.9881  -30.7398   21.3935 C   0  0  0  0  0  0
  -26.0558  -29.3561   20.7390 C   0  0  0  0  0  0
  -27.2155  -28.5021   20.7519 C   0  0  0  0  0  0
  -26.0200  -26.8731   19.4342 C   0  0  0  0  0  0
  -24.8725  -27.6862   19.4505 C   0  0  0  0  0  0
  -23.6572  -29.8130   20.1583 C   0  0  0  0  0  0
  -25.4129  -36.3028   24.0315 C   0  0  1  0  0  0
  -20.5909  -28.3692   23.1251 C   0  0  2  0  0  0
  -20.6776  -26.9405   22.5398 C   0  0  0  0  0  0
  -19.5757  -26.6372   21.5202 C   0  0  0  0  0  0
  -18.1941  -26.7931   22.1613 C   0  0  0  0  0  0
  -19.1557  -28.8855   23.2867 C   0  0  0  0  0  0
  -18.9471  -30.1456   23.8882 C   0  0  0  0  0  0
  -17.6468  -30.6587   24.0551 C   0  0  0  0  0  0
  -25.9084  -34.9410   23.5067 C   0  0  0  0  0  0
  -16.5357  -29.9080   23.6338 C   0  0  0  0  0  0
  -16.7287  -28.6500   23.0356 C   0  0  0  0  0  0
  -26.4528  -31.6564   25.0726 C   0  0  0  0  0  0
  -25.3744  -31.3729   26.1438 C   0  0  0  0  0  0
  -27.0366  -30.2960   24.6268 C   0  0  0  0  0  0
  -27.6093  -32.4301   25.7490 C   0  0  0  0  0  0
  -27.5583  -37.1777   24.8464 C   0  0  0  0  0  0
  -21.4229  -29.3034   22.3633 N   0  0  0  0  0  0
  -26.4281  -37.3745   23.9416 N   0  0  0  0  0  0
  -24.7054  -31.0425   22.0981 N   0  0  0  0  0  0
  -23.4202  -28.8115   23.2999 O   0  0  0  0  0  0
  -28.2640  -26.2270   20.2145 O   0  0  0  0  0  0
  -26.5654  -34.8887   22.4640 O   0  0  0  0  0  0
  -23.5496  -32.1346   23.7236 O   0  0  0  0  0  0
  -29.8046  -18.4834   17.9031 C   0  0  0  0  0  0
  -29.5730  -19.7317   18.5151 C   0  0  0  0  0  0
  -29.9411  -17.3009   18.6583 C   0  0  0  0  0  0
  -29.6069  -18.6207   20.6818 C   0  0  0  0  0  0
  -29.4687  -19.8721   19.9167 C   0  0  0  0  0  0
  -29.8398  -17.3011   20.0679 C   0  0  0  0  0  0
  -28.7787  -23.6498   20.3515 C   0  0  0  0  0  0
  -30.1133  -23.4969   20.8670 C   0  0  0  0  0  0
  -28.3467  -22.2312   20.0797 C   0  0  0  0  0  0
  -30.9243  -24.5066   21.2244 C   0  0  0  0  0  0
  -28.0082  -24.7995   20.1119 C   0  0  0  0  0  0
  -30.4824  -22.0172   20.9596 C   0  0  0  0  0  0
  -29.3248  -21.2895   20.4136 N   0  0  0  0  0  0
  -29.8595  -15.9583   20.7429 N   0  0  0  0  0  0
  -27.2461  -21.9080   19.6217 O   0  0  0  0  0  0
  -31.4746  -12.6160   19.1928 H   0  0  0  0  0  0
  -30.3897  -11.5173   19.9906 H   0  0  0  0  0  0
  -29.8076  -11.7400   17.5477 H   0  0  0  0  0  0
  -29.6410  -13.4702   17.7303 H   0  0  0  0  0  0
  -27.9038  -11.2906   18.9271 H   0  0  0  0  0  0
  -27.3866  -12.5269   17.8116 H   0  0  0  0  0  0
  -27.6312  -14.2618   19.4686 H   0  0  0  0  0  0
  -28.7309  -12.2114   21.4524 H   0  0  0  0  0  0
  -28.4019  -13.8927   21.7936 H   0  0  0  0  0  0
  -25.2746   -9.5702   22.4766 H   0  0  0  0  0  0
  -23.9989   -7.4645   22.7466 H   0  0  0  0  0  0
  -21.0827   -8.8761   19.8961 H   0  0  0  0  0  0
  -22.3660  -10.9668   19.6139 H   0  0  0  0  0  0
  -21.1997   -7.6143   23.9711 H   0  0  0  0  0  0
  -21.1490   -6.0514   25.9081 H   0  0  0  0  0  0
  -22.0595   -2.7593   23.2845 H   0  0  0  0  0  0
  -22.4047  -11.9885   22.4799 H   0  0  0  0  0  0
  -21.1059  -13.1242   22.2562 H   0  0  0  0  0  0
  -24.6595  -15.8545   20.5302 H   0  0  0  0  0  0
  -26.2733  -15.6344   20.0878 H   0  0  0  0  0  0
  -26.7246  -32.5329   23.1063 H   0  0  0  0  0  0
  -25.0119  -33.9677   25.0378 H   0  0  0  0  0  0
  -22.7333  -31.3004   21.3943 H   0  0  0  0  0  0
  -23.3767  -35.9585   23.3264 H   0  0  0  0  0  0
  -24.3609  -36.8907   22.2061 H   0  0  0  0  0  0
  -23.7241  -37.6435   23.6695 H   0  0  0  0  0  0
  -26.1410  -31.4934   20.6192 H   0  0  0  0  0  0
  -26.8623  -30.7880   22.0308 H   0  0  0  0  0  0
  -28.1041  -28.8237   21.2788 H   0  0  0  0  0  0
  -25.9241  -25.9649   18.8630 H   0  0  0  0  0  0
  -23.9817  -27.3548   18.9350 H   0  0  0  0  0  0
  -23.7885  -30.5881   19.4029 H   0  0  0  0  0  0
  -22.7735  -29.2519   19.8494 H   0  0  0  0  0  0
  -25.1319  -36.1850   25.0806 H   0  0  0  0  0  0
  -21.0019  -28.3264   24.1365 H   0  0  0  0  0  0
  -20.5633  -26.2319   23.3613 H   0  0  0  0  0  0
  -21.6643  -26.7404   22.1200 H   0  0  0  0  0  0
  -19.6901  -25.6277   21.1243 H   0  0  0  0  0  0
  -19.6686  -27.3177   20.6732 H   0  0  0  0  0  0
  -17.4203  -26.6682   21.4020 H   0  0  0  0  0  0
  -18.0344  -26.0074   22.9010 H   0  0  0  0  0  0
  -19.7946  -30.7278   24.2232 H   0  0  0  0  0  0
  -17.5024  -31.6273   24.5141 H   0  0  0  0  0  0
  -15.5354  -30.2964   23.7678 H   0  0  0  0  0  0
  -15.8695  -28.0808   22.7079 H   0  0  0  0  0  0
  -24.5960  -30.7035   25.7767 H   0  0  0  0  0  0
  -24.8890  -32.2888   26.4821 H   0  0  0  0  0  0
  -25.8044  -30.8937   27.0244 H   0  0  0  0  0  0
  -26.2955  -29.6706   24.1275 H   0  0  0  0  0  0
  -27.3994  -29.7240   25.4819 H   0  0  0  0  0  0
  -27.8875  -30.4197   23.9564 H   0  0  0  0  0  0
  -27.2750  -33.3649   26.2017 H   0  0  0  0  0  0
  -28.3942  -32.6776   25.0325 H   0  0  0  0  0  0
  -28.0741  -31.8446   26.5439 H   0  0  0  0  0  0
  -28.2566  -38.0107   24.7534 H   0  0  0  0  0  0
  -28.1105  -36.2632   24.6253 H   0  0  0  0  0  0
  -27.2310  -37.1367   25.8866 H   0  0  0  0  0  0
  -20.9426  -29.8773   21.6842 H   0  0  0  0  0  0
  -26.0135  -38.2801   24.1444 H   0  0  0  0  0  0
  -29.8776  -18.4291   16.8255 H   0  0  0  0  0  0
  -29.4993  -20.6054   17.8811 H   0  0  0  0  0  0
  -30.0928  -16.3739   18.1223 H   0  0  0  0  0  0
  -29.5345  -18.6768   21.7593 H   0  0  0  0  0  0
  -30.6165  -25.5392   21.1401 H   0  0  0  0  0  0
  -31.9136  -24.3153   21.6129 H   0  0  0  0  0  0
  -27.0120  -24.5944   19.7654 H   0  0  0  0  0  0
  -30.6630  -21.7304   21.9952 H   0  0  0  0  0  0
  -31.3789  -21.8047   20.3755 H   0  0  0  0  0  0
  -29.0453  -15.7741   21.3107 H   0  0  0  0  0  0
  1 25  1  0  0  0
  1 30  2  0  0  0
  1 84  1  0  0  0
  2  3  1  0  0  0
  2 25  1  0  0  0
  2 86  1  0  0  0
  2 87  1  0  0  0
  3  4  1  0  0  0
  3 88  1  0  0  0
  3 89  1  0  0  0
  4  5  1  0  0  0
  4 90  1  0  0  0
  4 91  1  0  0  0
  5  6  1  0  0  0
  5 26  1  0  0  0
  5 92  1  0  0  0
  6 25  1  0  0  0
  6 93  1  0  0  0
  6 94  1  0  0  0
  7  8  2  0  0  0
  7 26  1  0  0  0
  7 29  1  0  0  0
  8  9  1  0  0  0
  8 22  1  0  0  0
  9 10  1  0  0  0
  9 27  2  0  0  0
 10 11  2  0  0  0
 10 15  1  0  0  0
 11 12  1  0  0  0
 11 95  1  0  0  0
 12 13  2  0  0  0
 12 96  1  0  0  0
 13 14  1  0  0  0
 13 31  1  0  0  0
 14 15  2  0  0  0
 14 97  1  0  0  0
 15 98  1  0  0  0
 16 17  2  0  0  0
 16 21  1  0  0  0
 16 31  1  0  0  0
 17 18  1  0  0  0
 17 99  1  0  0  0
 18 19  2  0  0  0
 18100  1  0  0  0
 19 20  1  0  0  0
 19 24  1  0  0  0
 20 21  2  0  0  0
 20101  1  0  0  0
 21 23  1  0  0  0
 22 28  1  0  0  0
 22 32  2  0  0  0
 26 27  1  0  0  0
 28102  1  0  0  0
 28103  1  0  0  0
 29104  1  0  0  0
 29105  1  0  0  0
 33 34  1  0  0  0
 33 66  1  0  0  0
 33 70  2  0  0  0
 34 36  1  0  0  0
 34 59  1  0  0  0
 34106  1  0  0  0
 35 44  2  0  0  0
 35 45  1  0  0  0
 35 68  1  0  0  0
 36 56  1  0  0  0
 36107  1  0  0  0
 37 39  1  0  0  0
 37 47  1  0  0  0
 37 66  1  0  0  0
 37108  1  0  0  0
 38 43  2  0  0  0
 38 46  1  0  0  0
 38 47  1  0  0  0
 39 64  1  0  0  0
 39 67  2  0  0  0
 40 52  1  0  0  0
 40 53  2  0  0  0
 40 58  1  0  0  0
 41109  1  0  0  0
 41110  1  0  0  0
 41111  1  0  0  0
 41 48  1  0  0  0
 42 43  1  0  0  0
 42 66  1  0  0  0
 42112  1  0  0  0
 42113  1  0  0  0
 43 44  1  0  0  0
 44114  1  0  0  0
 45 46  2  0  0  0
 45115  1  0  0  0
 46116  1  0  0  0
 47117  1  0  0  0
 47118  1  0  0  0
 48 56  1  0  0  0
 48 65  1  0  0  0
 48119  1  0  0  0
 49 50  1  0  0  0
 49 53  1  0  0  0
 49 64  1  0  0  0
 49120  1  0  0  0
 50 51  1  0  0  0
 50121  1  0  0  0
 50122  1  0  0  0
 51 52  1  0  0  0
 51123  1  0  0  0
 51124  1  0  0  0
 52125  1  0  0  0
 52126  1  0  0  0
 53 54  1  0  0  0
 54 55  2  0  0  0
 54127  1  0  0  0
 55 57  1  0  0  0
 55128  1  0  0  0
 56 69  2  0  0  0
 57 58  2  0  0  0
 57129  1  0  0  0
 58130  1  0  0  0
 59 60  1  0  0  0
 59 61  1  0  0  0
 59 62  1  0  0  0
 60131  1  0  0  0
 60132  1  0  0  0
 60133  1  0  0  0
 61134  1  0  0  0
 61135  1  0  0  0
 61136  1  0  0  0
 62137  1  0  0  0
 62138  1  0  0  0
 62139  1  0  0  0
 63 65  1  0  0  0
 63140  1  0  0  0
 63141  1  0  0  0
 63142  1  0  0  0
 64143  1  0  0  0
 65144  1  0  0  0
 68 81  1  0  0  0
 71 72  2  0  0  0
 71 73  1  0  0  0
 71145  1  0  0  0
 72 75  1  0  0  0
 72146  1  0  0  0
 73 76  2  0  0  0
 73147  1  0  0  0
 74 75  2  0  0  0
 74 76  1  0  0  0
 74148  1  0  0  0
 75 83  1  0  0  0
 76 84  1  0  0  0
 77 78  1  0  0  0
 77 79  1  0  0  0
 77 81  2  0  0  0
 78 80  2  0  0  0
 78 82  1  0  0  0
 79 83  1  0  0  0
 79 85  2  0  0  0
 80149  1  0  0  0
 80150  1  0  0  0
 81151  1  0  0  0
 82 83  1  0  0  0
 82152  1  0  0  0
 82153  1  0  0  0
 84154  1  0  0  0
M  ISO  4   1 100  68 101  81 101  84 100
M  END
> <chiral flag>
0

> <version>
0

> <s_m_source_file>
/data/baiqing/PycharmProjects/Reinvent-master-3.2/result/LINK_invent/BTK/process_docking_weight1_custom_product_contain_oxygen_bond_distance_aromatic_linkinvent_7_9_3/rearranged_h_0083.sdf

> <i_m_source_file_index>
35

> <r_mmod_Potential_Energy-OPLS-2005>
442.187652587891

> <r_mmod_Stretch_Energy-OPLS-2005>
157.179016113281

> <r_mmod_Bend_Energy-OPLS-2005>
226.772308349609

> <r_mmod_Torsional_Energy-OPLS-2005>
314.052825927734

> <r_mmod_Improper_Torsional_Energy-OPLS-2005>
5.56581020355225

> <r_mmod_Van_der_Waal_Energy-OPLS-2005>
136.50895690918

> <r_mmod_Electrostatic_Energy-OPLS-2005>
-307.822723388672

> <r_mmod_Solvation_Energy-OPLS-2005>
-215.523071289062

> <b_mmod_Minimization_Converged-OPLS-2005>
0

> <r_mmod_RMS_Derivative-OPLS-2005>
2.63439536094666

$$$$
35
                    3D
 Structure written by MMmdl.
149157  0  0  1  0            999 V2000
  -30.5093  -15.0528   20.3965 C   0  0  0  0  0  0
  -30.4386  -12.6571   19.5080 C   0  0  0  0  0  0
  -29.5247  -12.5418   18.2652 C   0  0  0  0  0  0
  -28.0613  -12.3118   18.6845 C   0  0  0  0  0  0
  -27.6226  -13.2581   19.8320 C   0  0  2  0  0  0
  -28.6633  -13.3352   20.9690 C   0  0  0  0  0  0
  -25.2432  -13.8227   20.5719 C   0  0  0  0  0  0
  -24.1761  -13.0438   20.9240 C   0  0  0  0  0  0
  -24.6394  -11.6926   20.8756 C   0  0  0  0  0  0
  -23.9082  -10.4293   21.0404 C   0  0  0  0  0  0
  -24.3630   -9.4208   21.9185 C   0  0  0  0  0  0
  -23.6302   -8.2244   22.0754 C   0  0  0  0  0  0
  -22.4284   -8.0282   21.3544 C   0  0  0  0  0  0
  -21.9923   -9.0253   20.4644 C   0  0  0  0  0  0
  -22.7253  -10.2132   20.3053 C   0  0  0  0  0  0
  -21.6857   -6.0737   22.5280 C   0  0  0  0  0  0
  -21.4015   -6.5640   23.8213 C   0  0  0  0  0  0
  -21.3659   -5.6793   24.9175 C   0  0  0  0  0  0
  -21.6046   -4.3056   24.7226 C   0  0  0  0  0  0
  -21.8818   -3.8148   23.4346 C   0  0  0  0  0  0
  -21.9193   -4.6964   22.3403 C   0  0  0  0  0  0
  -22.7782  -13.5199   21.1892 C   0  0  0  0  0  0
  -22.1662   -4.2150   21.0980 F   0  0  0  0  0  0
  -21.5628   -3.4539   25.7737 F   0  0  0  0  0  0
  -29.9246  -13.7766   20.3592 N   0  0  0  0  0  0
  -26.2855  -12.9475   20.3230 N   0  0  0  0  0  0
  -25.9329  -11.6596   20.5733 N   0  0  0  0  0  0
  -22.0436  -12.8181   22.0443 N   0  0  0  0  0  0
  -25.4072  -15.1959   20.4138 N   0  0  0  0  0  0
  -31.7222  -15.0773   20.1537 O   0  0  0  0  0  0
  -21.6643   -6.8880   21.4243 O   0  0  0  0  0  0
  -22.3462  -14.5504   20.6734 O   0  0  0  0  0  0
  -24.6499  -31.8376   23.1830 C   0  0  0  0  0  0
  -25.9244  -32.4659   23.8242 C   0  0  1  0  0  0
  -27.2154  -27.0610   20.1695 C   0  0  0  0  0  0
  -25.5969  -33.8469   24.2153 N   0  0  0  0  0  0
  -23.4576  -30.4536   21.5295 C   0  0  2  0  0  0
  -24.9097  -28.8663   20.1124 C   0  0  0  0  0  0
  -22.7599  -29.4509   22.4834 C   0  0  0  0  0  0
  -18.0309  -28.1397   22.8471 C   0  0  0  0  0  0
  -24.1493  -36.7236   23.2644 C   0  0  0  0  0  0
  -26.0182  -30.6854   21.3958 C   0  0  0  0  0  0
  -26.0880  -29.2881   20.7419 C   0  0  0  0  0  0
  -27.2395  -28.4015   20.7551 C   0  0  0  0  0  0
  -26.0159  -26.7655   19.4861 C   0  0  0  0  0  0
  -24.8902  -27.6202   19.4677 C   0  0  0  0  0  0
  -23.6897  -29.7780   20.1513 C   0  0  0  0  0  0
  -25.4128  -36.3010   24.0310 C   0  0  1  0  0  0
  -20.5924  -28.3732   23.1211 C   0  0  2  0  0  0
  -20.6783  -26.9425   22.5397 C   0  0  0  0  0  0
  -19.5760  -26.6377   21.5203 C   0  0  0  0  0  0
  -18.1945  -26.7932   22.1621 C   0  0  0  0  0  0
  -19.1567  -28.8884   23.2831 C   0  0  0  0  0  0
  -18.9484  -30.1477   23.8861 C   0  0  0  0  0  0
  -17.6480  -30.6593   24.0554 C   0  0  0  0  0  0
  -25.9085  -34.9388   23.5040 C   0  0  0  0  0  0
  -16.5369  -29.9081   23.6342 C   0  0  0  0  0  0
  -16.7292  -28.6499   23.0363 C   0  0  0  0  0  0
  -26.4542  -31.6554   25.0715 C   0  0  0  0  0  0
  -25.3711  -31.3767   26.1401 C   0  0  0  0  0  0
  -27.0413  -30.2933   24.6356 C   0  0  0  0  0  0
  -27.6056  -32.4337   25.7510 C   0  0  0  0  0  0
  -27.5573  -37.1775   24.8467 C   0  0  0  0  0  0
  -21.4283  -29.3046   22.3580 N   0  0  0  0  0  0
  -26.4287  -37.3728   23.9408 N   0  0  0  0  0  0
  -24.7285  -31.0156   22.0905 N   0  0  0  0  0  0
  -23.4204  -28.8068   23.3023 O   0  0  0  0  0  0
  -28.2446  -26.0255   20.2103 O   0  0  0  0  0  0
  -26.5676  -34.8900   22.4623 O   0  0  0  0  0  0
  -23.5600  -32.1297   23.6995 O   0  0  0  0  0  0
  -31.7060  -19.5984   20.1393 C   0  0  0  0  0  0
  -30.7753  -20.6655   20.1845 C   0  0  0  0  0  0
  -31.3435  -18.2328   20.2394 C   0  0  0  0  0  0
  -29.0590  -18.9852   20.4397 C   0  0  0  0  0  0
  -29.3881  -20.4618   20.3357 C   0  0  0  0  0  0
  -30.0051  -17.8079   20.3962 C   0  0  0  0  0  0
  -27.1448  -21.5359   20.5152 C   0  0  0  0  0  0
  -28.7794  -23.3745   20.2452 C   0  0  0  0  0  0
  -27.9648  -24.5634   20.3217 C   0  0  0  0  0  0
  -28.4530  -21.8139   20.3647 C   0  0  0  0  0  0
  -29.7254  -16.2676   20.4992 N   0  0  0  0  0  0
  -31.4682  -12.8266   19.1897 H   0  0  0  0  0  0
  -30.4537  -11.7206   20.0678 H   0  0  0  0  0  0
  -29.8622  -11.7310   17.6181 H   0  0  0  0  0  0
  -29.5962  -13.4561   17.6742 H   0  0  0  0  0  0
  -27.9724  -11.2745   19.0091 H   0  0  0  0  0  0
  -27.3977  -12.4197   17.8256 H   0  0  0  0  0  0
  -27.5688  -14.2495   19.3810 H   0  0  0  0  0  0
  -28.7765  -12.3719   21.4688 H   0  0  0  0  0  0
  -28.3451  -14.0463   21.7332 H   0  0  0  0  0  0
  -25.2771   -9.5686   22.4767 H   0  0  0  0  0  0
  -24.0009   -7.4635   22.7475 H   0  0  0  0  0  0
  -21.0857   -8.8771   19.8948 H   0  0  0  0  0  0
  -22.3708  -10.9671   19.6165 H   0  0  0  0  0  0
  -21.2008   -7.6149   23.9718 H   0  0  0  0  0  0
  -21.1484   -6.0522   25.9078 H   0  0  0  0  0  0
  -22.0597   -2.7609   23.2845 H   0  0  0  0  0  0
  -22.4066  -11.9848   22.4832 H   0  0  0  0  0  0
  -21.1047  -13.1189   22.2644 H   0  0  0  0  0  0
  -24.6326  -15.8420   20.5197 H   0  0  0  0  0  0
  -26.2406  -15.6371   20.0481 H   0  0  0  0  0  0
  -26.7309  -32.5242   23.0964 H   0  0  0  0  0  0
  -25.0089  -33.9567   25.0283 H   0  0  0  0  0  0
  -22.7638  -31.2812   21.3687 H   0  0  0  0  0  0
  -23.3765  -35.9558   23.3294 H   0  0  0  0  0  0
  -24.3571  -36.8884   22.2060 H   0  0  0  0  0  0
  -23.7243  -37.6423   23.6695 H   0  0  0  0  0  0
  -26.1815  -31.4336   20.6192 H   0  0  0  0  0  0
  -26.8846  -30.7387   22.0431 H   0  0  0  0  0  0
  -28.1359  -28.7192   21.2691 H   0  0  0  0  0  0
  -25.9233  -25.8147   18.9812 H   0  0  0  0  0  0
  -23.9944  -27.2936   18.9579 H   0  0  0  0  0  0
  -23.8343  -30.5505   19.3951 H   0  0  0  0  0  0
  -22.8025  -29.2242   19.8383 H   0  0  0  0  0  0
  -25.1318  -36.1825   25.0801 H   0  0  0  0  0  0
  -21.0008  -28.3330   24.1336 H   0  0  0  0  0  0
  -20.5656  -26.2350   23.3626 H   0  0  0  0  0  0
  -21.6651  -26.7411   22.1207 H   0  0  0  0  0  0
  -19.6919  -25.6278   21.1253 H   0  0  0  0  0  0
  -19.6692  -27.3172   20.6718 H   0  0  0  0  0  0
  -17.4204  -26.6670   21.4034 H   0  0  0  0  0  0
  -18.0358  -26.0081   22.9025 H   0  0  0  0  0  0
  -19.7962  -30.7298   24.2216 H   0  0  0  0  0  0
  -17.5035  -31.6271   24.5162 H   0  0  0  0  0  0
  -15.5368  -30.2970   23.7684 H   0  0  0  0  0  0
  -15.8694  -28.0801   22.7102 H   0  0  0  0  0  0
  -24.5896  -30.7110   25.7721 H   0  0  0  0  0  0
  -24.8904  -32.2958   26.4759 H   0  0  0  0  0  0
  -25.7984  -30.8984   27.0224 H   0  0  0  0  0  0
  -26.3046  -29.6643   24.1347 H   0  0  0  0  0  0
  -27.3967  -29.7252   25.4963 H   0  0  0  0  0  0
  -27.8981  -30.4133   23.9725 H   0  0  0  0  0  0
  -27.2640  -33.3670   26.2000 H   0  0  0  0  0  0
  -28.3921  -32.6846   25.0381 H   0  0  0  0  0  0
  -28.0668  -31.8524   26.5507 H   0  0  0  0  0  0
  -28.2579  -38.0080   24.7507 H   0  0  0  0  0  0
  -28.1078  -36.2606   24.6303 H   0  0  0  0  0  0
  -27.2284  -37.1432   25.8868 H   0  0  0  0  0  0
  -20.9514  -29.8753   21.6737 H   0  0  0  0  0  0
  -26.0147  -38.2791   24.1413 H   0  0  0  0  0  0
  -32.7531  -19.8398   20.0221 H   0  0  0  0  0  0
  -31.1538  -21.6742   20.1004 H   0  0  0  0  0  0
  -32.1412  -17.5065   20.1933 H   0  0  0  0  0  0
  -28.0164  -18.7328   20.5585 H   0  0  0  0  0  0
  -26.7802  -20.5246   20.6067 H   0  0  0  0  0  0
  -26.3923  -22.3081   20.5513 H   0  0  0  0  0  0
  -29.8228  -23.5869   20.0640 H   0  0  0  0  0  0
  -26.9097  -24.4322   20.5101 H   0  0  0  0  0  0
  -28.7507  -16.0533   20.6449 H   0  0  0  0  0  0
  1 25  1  0  0  0
  1 30  2  0  0  0
  1 81  1  0  0  0
  2  3  1  0  0  0
  2 25  1  0  0  0
  2 82  1  0  0  0
  2 83  1  0  0  0
  3  4  1  0  0  0
  3 84  1  0  0  0
  3 85  1  0  0  0
  4  5  1  0  0  0
  4 86  1  0  0  0
  4 87  1  0  0  0
  5  6  1  0  0  0
  5 26  1  0  0  0
  5 88  1  0  0  0
  6 25  1  0  0  0
  6 89  1  0  0  0
  6 90  1  0  0  0
  7  8  2  0  0  0
  7 26  1  0  0  0
  7 29  1  0  0  0
  8  9  1  0  0  0
  8 22  1  0  0  0
  9 10  1  0  0  0
  9 27  2  0  0  0
 10 11  2  0  0  0
 10 15  1  0  0  0
 11 12  1  0  0  0
 11 91  1  0  0  0
 12 13  2  0  0  0
 12 92  1  0  0  0
 13 14  1  0  0  0
 13 31  1  0  0  0
 14 15  2  0  0  0
 14 93  1  0  0  0
 15 94  1  0  0  0
 16 17  2  0  0  0
 16 21  1  0  0  0
 16 31  1  0  0  0
 17 18  1  0  0  0
 17 95  1  0  0  0
 18 19  2  0  0  0
 18 96  1  0  0  0
 19 20  1  0  0  0
 19 24  1  0  0  0
 20 21  2  0  0  0
 20 97  1  0  0  0
 21 23  1  0  0  0
 22 28  1  0  0  0
 22 32  2  0  0  0
 26 27  1  0  0  0
 28 98  1  0  0  0
 28 99  1  0  0  0
 29100  1  0  0  0
 29101  1  0  0  0
 33 34  1  0  0  0
 33 66  1  0  0  0
 33 70  2  0  0  0
 34 36  1  0  0  0
 34 59  1  0  0  0
 34102  1  0  0  0
 35 44  2  0  0  0
 35 45  1  0  0  0
 35 68  1  0  0  0
 36 56  1  0  0  0
 36103  1  0  0  0
 37 39  1  0  0  0
 37 47  1  0  0  0
 37 66  1  0  0  0
 37104  1  0  0  0
 38 43  2  0  0  0
 38 46  1  0  0  0
 38 47  1  0  0  0
 39 64  1  0  0  0
 39 67  2  0  0  0
 40 52  1  0  0  0
 40 53  2  0  0  0
 40 58  1  0  0  0
 41105  1  0  0  0
 41106  1  0  0  0
 41107  1  0  0  0
 41 48  1  0  0  0
 42 43  1  0  0  0
 42 66  1  0  0  0
 42108  1  0  0  0
 42109  1  0  0  0
 43 44  1  0  0  0
 44110  1  0  0  0
 45 46  2  0  0  0
 45111  1  0  0  0
 46112  1  0  0  0
 47113  1  0  0  0
 47114  1  0  0  0
 48 56  1  0  0  0
 48 65  1  0  0  0
 48115  1  0  0  0
 49 50  1  0  0  0
 49 53  1  0  0  0
 49 64  1  0  0  0
 49116  1  0  0  0
 50 51  1  0  0  0
 50117  1  0  0  0
 50118  1  0  0  0
 51 52  1  0  0  0
 51119  1  0  0  0
 51120  1  0  0  0
 52121  1  0  0  0
 52122  1  0  0  0
 53 54  1  0  0  0
 54 55  2  0  0  0
 54123  1  0  0  0
 55 57  1  0  0  0
 55124  1  0  0  0
 56 69  2  0  0  0
 57 58  2  0  0  0
 57125  1  0  0  0
 58126  1  0  0  0
 59 60  1  0  0  0
 59 61  1  0  0  0
 59 62  1  0  0  0
 60127  1  0  0  0
 60128  1  0  0  0
 60129  1  0  0  0
 61130  1  0  0  0
 61131  1  0  0  0
 61132  1  0  0  0
 62133  1  0  0  0
 62134  1  0  0  0
 62135  1  0  0  0
 63 65  1  0  0  0
 63136  1  0  0  0
 63137  1  0  0  0
 63138  1  0  0  0
 64139  1  0  0  0
 65140  1  0  0  0
 68 79  1  0  0  0
 71 72  2  0  0  0
 71 73  1  0  0  0
 71141  1  0  0  0
 72 75  1  0  0  0
 72142  1  0  0  0
 73 76  2  0  0  0
 73143  1  0  0  0
 74 75  2  0  0  0
 74 76  1  0  0  0
 74144  1  0  0  0
 75 80  1  0  0  0
 76 81  1  0  0  0
 77 80  2  0  0  0
 77145  1  0  0  0
 77146  1  0  0  0
 78 79  2  0  0  0
 78 80  1  0  0  0
 78147  1  0  0  0
 79148  1  0  0  0
 81149  1  0  0  0
M  ISO  4   1 100  68 101  79 101  81 100
M  END
> <chiral flag>
0

> <version>
0

> <s_m_source_file>
/data/baiqing/PycharmProjects/Reinvent-master-3.2/result/LINK_invent/BTK/process_docking_weight1_custom_product_contain_oxygen_bond_distance_aromatic_linkinvent_7_9_3/rearranged_h_0083.sdf

> <i_m_source_file_index>
36

> <r_mmod_Potential_Energy-OPLS-2005>
645.278930664062

> <r_mmod_Stretch_Energy-OPLS-2005>
336.682189941406

> <r_mmod_Bend_Energy-OPLS-2005>
255.420227050781

> <r_mmod_Torsional_Energy-OPLS-2005>
210.113327026367

> <r_mmod_Improper_Torsional_Energy-OPLS-2005>
4.28362560272217

> <r_mmod_Van_der_Waal_Energy-OPLS-2005>
136.648086547852

> <r_mmod_Electrostatic_Energy-OPLS-2005>
-361.793182373047

> <r_mmod_Solvation_Energy-OPLS-2005>
-204.764068603516

> <b_mmod_Minimization_Converged-OPLS-2005>
0

> <r_mmod_RMS_Derivative-OPLS-2005>
0.749208688735962

$$$$
36
                    3D
 Structure written by MMmdl.
156165  0  0  1  0            999 V2000
  -30.6380  -14.7387   20.5552 C   0  0  0  0  0  0
  -30.4371  -12.4742   19.4735 C   0  0  0  0  0  0
  -29.5113  -12.5279   18.2374 C   0  0  0  0  0  0
  -28.0379  -12.3419   18.6453 C   0  0  0  0  0  0
  -27.6462  -13.2280   19.8540 C   0  0  2  0  0  0
  -28.6839  -13.1270   20.9885 C   0  0  0  0  0  0
  -25.2529  -13.8176   20.5693 C   0  0  0  0  0  0
  -24.1806  -13.0430   20.9180 C   0  0  0  0  0  0
  -24.6389  -11.6903   20.8711 C   0  0  0  0  0  0
  -23.9058  -10.4288   21.0389 C   0  0  0  0  0  0
  -24.3612   -9.4206   21.9170 C   0  0  0  0  0  0
  -23.6292   -8.2243   22.0748 C   0  0  0  0  0  0
  -22.4273   -8.0276   21.3545 C   0  0  0  0  0  0
  -21.9904   -9.0242   20.4643 C   0  0  0  0  0  0
  -22.7225  -10.2125   20.3043 C   0  0  0  0  0  0
  -21.6855   -6.0733   22.5284 C   0  0  0  0  0  0
  -21.4014   -6.5634   23.8216 C   0  0  0  0  0  0
  -21.3661   -5.6783   24.9174 C   0  0  0  0  0  0
  -21.6042   -4.3047   24.7223 C   0  0  0  0  0  0
  -21.8816   -3.8143   23.4340 C   0  0  0  0  0  0
  -21.9199   -4.6966   22.3403 C   0  0  0  0  0  0
  -22.7833  -13.5225   21.1841 C   0  0  0  0  0  0
  -22.1669   -4.2154   21.0981 F   0  0  0  0  0  0
  -21.5622   -3.4529   25.7731 F   0  0  0  0  0  0
  -29.9958  -13.5141   20.4390 N   0  0  0  0  0  0
  -26.2952  -12.9382   20.3270 N   0  0  0  0  0  0
  -25.9320  -11.6524   20.5709 N   0  0  0  0  0  0
  -22.0489  -12.8209   22.0401 N   0  0  0  0  0  0
  -25.4216  -15.1897   20.4141 N   0  0  0  0  0  0
  -31.7486  -14.8851   20.0338 O   0  0  0  0  0  0
  -21.6632   -6.8879   21.4248 O   0  0  0  0  0  0
  -22.3518  -14.5537   20.6696 O   0  0  0  0  0  0
  -24.6326  -31.8541   23.1968 C   0  0  0  0  0  0
  -25.9142  -32.4756   23.8329 C   0  0  1  0  0  0
  -27.2266  -27.2686   20.1294 C   0  0  0  0  0  0
  -25.5927  -33.8555   24.2258 N   0  0  0  0  0  0
  -23.4315  -30.4758   21.5396 C   0  0  2  0  0  0
  -24.8834  -28.9229   20.1085 C   0  0  0  0  0  0
  -22.7519  -29.4595   22.4891 C   0  0  0  0  0  0
  -18.0296  -28.1407   22.8469 C   0  0  0  0  0  0
  -24.1478  -36.7274   23.2635 C   0  0  0  0  0  0
  -25.9766  -30.7717   21.3743 C   0  0  0  0  0  0
  -26.0545  -29.3924   20.7191 C   0  0  0  0  0  0
  -27.2331  -28.5767   20.7215 C   0  0  0  0  0  0
  -26.0372  -26.8641   19.4919 C   0  0  0  0  0  0
  -24.8791  -27.6657   19.4827 C   0  0  0  0  0  0
  -23.6528  -29.8083   20.1561 C   0  0  0  0  0  0
  -25.4102  -36.3064   24.0329 C   0  0  1  0  0  0
  -20.5903  -28.3706   23.1265 C   0  0  2  0  0  0
  -20.6770  -26.9416   22.5416 C   0  0  0  0  0  0
  -19.5753  -26.6407   21.5204 C   0  0  0  0  0  0
  -18.1934  -26.7954   22.1604 C   0  0  0  0  0  0
  -19.1551  -28.8871   23.2868 C   0  0  0  0  0  0
  -18.9469  -30.1470   23.8891 C   0  0  0  0  0  0
  -17.6468  -30.6589   24.0578 C   0  0  0  0  0  0
  -25.9051  -34.9438   23.5093 C   0  0  0  0  0  0
  -16.5360  -29.9090   23.6344 C   0  0  0  0  0  0
  -16.7285  -28.6522   23.0339 C   0  0  0  0  0  0
  -26.4491  -31.6575   25.0721 C   0  0  0  0  0  0
  -25.3717  -31.3736   26.1447 C   0  0  0  0  0  0
  -27.0319  -30.2988   24.6192 C   0  0  0  0  0  0
  -27.6062  -32.4297   25.7492 C   0  0  0  0  0  0
  -27.5580  -37.1781   24.8449 C   0  0  0  0  0  0
  -21.4222  -29.3044   22.3645 N   0  0  0  0  0  0
  -26.4267  -37.3777   23.9427 N   0  0  0  0  0  0
  -24.6999  -31.0508   22.0943 N   0  0  0  0  0  0
  -23.4212  -28.8133   23.2997 O   0  0  0  0  0  0
  -28.2659  -26.3131   20.1772 O   0  0  0  0  0  0
  -26.5630  -34.8916   22.4666 O   0  0  0  0  0  0
  -23.5474  -32.1347   23.7259 O   0  0  0  0  0  0
  -28.4163  -19.1819   20.2498 C   0  0  0  0  0  0
  -28.6921  -17.7702   20.3039 C   0  0  0  0  0  0
  -30.8462  -18.2348   21.2199 C   0  0  0  0  0  0
  -29.3310  -20.1770   20.7117 C   0  0  0  0  0  0
  -29.9029  -17.2312   20.8319 C   0  0  0  0  0  0
  -30.5725  -19.6472   21.1727 C   0  0  0  0  0  0
  -28.3387  -23.8755   21.1880 C   0  0  0  0  0  0
  -27.9352  -23.2031   22.4180 C   0  0  0  0  0  0
  -28.9508  -22.7916   20.3458 C   0  0  0  0  0  0
  -29.3972  -16.4436   23.5395 C   0  0  0  0  0  0
  -28.0706  -25.2502   21.0959 C   0  0  0  0  0  0
  -29.9174  -15.5847   22.6410 C   0  0  0  0  0  0
  -28.3186  -21.7436   22.3581 C   0  0  0  0  0  0
  -28.9016  -21.5698   21.0305 N   0  0  0  0  0  0
  -30.0361  -15.7955   21.2481 N   0  0  0  0  0  0
  -27.3670  -23.6979   23.3990 O   0  0  0  0  0  0
  -29.4208  -22.9257   19.2110 O   0  0  0  0  0  0
  -31.4927  -20.5026   21.6795 F   0  0  0  0  0  0
  -31.4746  -12.6086   19.1656 H   0  0  0  0  0  0
  -30.3967  -11.4880   19.9387 H   0  0  0  0  0  0
  -29.7963  -11.7606   17.5165 H   0  0  0  0  0  0
  -29.6322  -13.4857   17.7296 H   0  0  0  0  0  0
  -27.8929  -11.2901   18.8955 H   0  0  0  0  0  0
  -27.3818  -12.5454   17.7982 H   0  0  0  0  0  0
  -27.6529  -14.2580   19.4958 H   0  0  0  0  0  0
  -28.7246  -12.1121   21.3860 H   0  0  0  0  0  0
  -28.3664  -13.7542   21.8175 H   0  0  0  0  0  0
  -25.2766   -9.5686   22.4729 H   0  0  0  0  0  0
  -24.0010   -7.4638   22.7464 H   0  0  0  0  0  0
  -21.0834   -8.8740   19.8958 H   0  0  0  0  0  0
  -22.3668  -10.9647   19.6139 H   0  0  0  0  0  0
  -21.1996   -7.6139   23.9714 H   0  0  0  0  0  0
  -21.1488   -6.0512   25.9075 H   0  0  0  0  0  0
  -22.0593   -2.7610   23.2829 H   0  0  0  0  0  0
  -22.4122  -11.9869   22.4771 H   0  0  0  0  0  0
  -21.1111  -13.1231   22.2624 H   0  0  0  0  0  0
  -24.6564  -15.8447   20.5297 H   0  0  0  0  0  0
  -26.2798  -15.6298   20.1117 H   0  0  0  0  0  0
  -26.7215  -32.5410   23.1083 H   0  0  0  0  0  0
  -25.0062  -33.9679   25.0395 H   0  0  0  0  0  0
  -22.7297  -31.2991   21.3911 H   0  0  0  0  0  0
  -23.3756  -35.9586   23.3265 H   0  0  0  0  0  0
  -24.3587  -36.8928   22.2057 H   0  0  0  0  0  0
  -23.7196  -37.6453   23.6676 H   0  0  0  0  0  0
  -26.1105  -31.5304   20.6014 H   0  0  0  0  0  0
  -26.8556  -30.8265   22.0044 H   0  0  0  0  0  0
  -28.1282  -28.9250   21.2170 H   0  0  0  0  0  0
  -25.9978  -25.8883   19.0277 H   0  0  0  0  0  0
  -23.9820  -27.2991   19.0036 H   0  0  0  0  0  0
  -23.7794  -30.5837   19.3998 H   0  0  0  0  0  0
  -22.7716  -29.2415   19.8508 H   0  0  0  0  0  0
  -25.1277  -36.1900   25.0819 H   0  0  0  0  0  0
  -21.0007  -28.3281   24.1382 H   0  0  0  0  0  0
  -20.5623  -26.2321   23.3625 H   0  0  0  0  0  0
  -21.6640  -26.7410   22.1246 H   0  0  0  0  0  0
  -19.6908  -25.6316   21.1236 H   0  0  0  0  0  0
  -19.6708  -27.3217   20.6733 H   0  0  0  0  0  0
  -17.4213  -26.6720   21.3996 H   0  0  0  0  0  0
  -18.0319  -26.0096   22.9000 H   0  0  0  0  0  0
  -19.7943  -30.7294   24.2257 H   0  0  0  0  0  0
  -17.5019  -31.6260   24.5197 H   0  0  0  0  0  0
  -15.5356  -30.2987   23.7666 H   0  0  0  0  0  0
  -15.8692  -28.0848   22.7034 H   0  0  0  0  0  0
  -24.5955  -30.6982   25.7816 H   0  0  0  0  0  0
  -24.8821  -32.2899   26.4763 H   0  0  0  0  0  0
  -25.8066  -30.9043   27.0283 H   0  0  0  0  0  0
  -26.2887  -29.6759   24.1197 H   0  0  0  0  0  0
  -27.3970  -29.7225   25.4703 H   0  0  0  0  0  0
  -27.8785  -30.4252   23.9442 H   0  0  0  0  0  0
  -27.2698  -33.3620   26.2036 H   0  0  0  0  0  0
  -28.3896  -32.6803   25.0331 H   0  0  0  0  0  0
  -28.0694  -31.8428   26.5431 H   0  0  0  0  0  0
  -28.2562  -38.0115   24.7556 H   0  0  0  0  0  0
  -28.1106  -36.2651   24.6177 H   0  0  0  0  0  0
  -27.2331  -37.1330   25.8859 H   0  0  0  0  0  0
  -20.9405  -29.8777   21.6858 H   0  0  0  0  0  0
  -26.0139  -38.2835   24.1483 H   0  0  0  0  0  0
  -27.4314  -19.4941   19.9317 H   0  0  0  0  0  0
  -27.9018  -17.0899   20.0214 H   0  0  0  0  0  0
  -31.7780  -17.9198   21.6663 H   0  0  0  0  0  0
  -29.3614  -16.1769   24.5867 H   0  0  0  0  0  0
  -28.9974  -17.4102   23.2697 H   0  0  0  0  0  0
  -27.5835  -25.6885   21.9581 H   0  0  0  0  0  0
  -30.2934  -14.6272   22.9835 H   0  0  0  0  0  0
  -27.4420  -21.1108   22.4957 H   0  0  0  0  0  0
  -29.0489  -21.5196   23.1357 H   0  0  0  0  0  0
  1 25  1  0  0  0
  1 30  2  0  0  0
  1 85  1  0  0  0
  2  3  1  0  0  0
  2 25  1  0  0  0
  2 89  1  0  0  0
  2 90  1  0  0  0
  3  4  1  0  0  0
  3 91  1  0  0  0
  3 92  1  0  0  0
  4  5  1  0  0  0
  4 93  1  0  0  0
  4 94  1  0  0  0
  5  6  1  0  0  0
  5 26  1  0  0  0
  5 95  1  0  0  0
  6 25  1  0  0  0
  6 96  1  0  0  0
  6 97  1  0  0  0
  7  8  2  0  0  0
  7 26  1  0  0  0
  7 29  1  0  0  0
  8  9  1  0  0  0
  8 22  1  0  0  0
  9 10  1  0  0  0
  9 27  2  0  0  0
 10 11  2  0  0  0
 10 15  1  0  0  0
 11 12  1  0  0  0
 11 98  1  0  0  0
 12 13  2  0  0  0
 12 99  1  0  0  0
 13 14  1  0  0  0
 13 31  1  0  0  0
 14 15  2  0  0  0
 14100  1  0  0  0
 15101  1  0  0  0
 16 17  2  0  0  0
 16 21  1  0  0  0
 16 31  1  0  0  0
 17 18  1  0  0  0
 17102  1  0  0  0
 18 19  2  0  0  0
 18103  1  0  0  0
 19 20  1  0  0  0
 19 24  1  0  0  0
 20 21  2  0  0  0
 20104  1  0  0  0
 21 23  1  0  0  0
 22 28  1  0  0  0
 22 32  2  0  0  0
 26 27  1  0  0  0
 28105  1  0  0  0
 28106  1  0  0  0
 29107  1  0  0  0
 29108  1  0  0  0
 33 34  1  0  0  0
 33 66  1  0  0  0
 33 70  2  0  0  0
 34 36  1  0  0  0
 34 59  1  0  0  0
 34109  1  0  0  0
 35 44  2  0  0  0
 35 45  1  0  0  0
 35 68  1  0  0  0
 36 56  1  0  0  0
 36110  1  0  0  0
 37 39  1  0  0  0
 37 47  1  0  0  0
 37 66  1  0  0  0
 37111  1  0  0  0
 38 43  2  0  0  0
 38 46  1  0  0  0
 38 47  1  0  0  0
 39 64  1  0  0  0
 39 67  2  0  0  0
 40 52  1  0  0  0
 40 53  2  0  0  0
 40 58  1  0  0  0
 41112  1  0  0  0
 41113  1  0  0  0
 41114  1  0  0  0
 41 48  1  0  0  0
 42 43  1  0  0  0
 42 66  1  0  0  0
 42115  1  0  0  0
 42116  1  0  0  0
 43 44  1  0  0  0
 44117  1  0  0  0
 45 46  2  0  0  0
 45118  1  0  0  0
 46119  1  0  0  0
 47120  1  0  0  0
 47121  1  0  0  0
 48 56  1  0  0  0
 48 65  1  0  0  0
 48122  1  0  0  0
 49 50  1  0  0  0
 49 53  1  0  0  0
 49 64  1  0  0  0
 49123  1  0  0  0
 50 51  1  0  0  0
 50124  1  0  0  0
 50125  1  0  0  0
 51 52  1  0  0  0
 51126  1  0  0  0
 51127  1  0  0  0
 52128  1  0  0  0
 52129  1  0  0  0
 53 54  1  0  0  0
 54 55  2  0  0  0
 54130  1  0  0  0
 55 57  1  0  0  0
 55131  1  0  0  0
 56 69  2  0  0  0
 57 58  2  0  0  0
 57132  1  0  0  0
 58133  1  0  0  0
 59 60  1  0  0  0
 59 61  1  0  0  0
 59 62  1  0  0  0
 60134  1  0  0  0
 60135  1  0  0  0
 60136  1  0  0  0
 61137  1  0  0  0
 61138  1  0  0  0
 61139  1  0  0  0
 62140  1  0  0  0
 62141  1  0  0  0
 62142  1  0  0  0
 63 65  1  0  0  0
 63143  1  0  0  0
 63144  1  0  0  0
 63145  1  0  0  0
 64146  1  0  0  0
 65147  1  0  0  0
 68 81  1  0  0  0
 71 72  2  0  0  0
 71 74  1  0  0  0
 71148  1  0  0  0
 72 75  1  0  0  0
 72149  1  0  0  0
 73 75  2  0  0  0
 73 76  1  0  0  0
 73150  1  0  0  0
 74 76  2  0  0  0
 74 84  1  0  0  0
 75 85  1  0  0  0
 76 88  1  0  0  0
 77 78  1  0  0  0
 77 79  1  0  0  0
 77 81  2  0  0  0
 78 83  1  0  0  0
 78 86  2  0  0  0
 79 84  1  0  0  0
 79 87  2  0  0  0
 80 82  2  0  0  0
 80151  1  0  0  0
 80152  1  0  0  0
 81153  1  0  0  0
 82 85  1  0  0  0
 82154  1  0  0  0
 83 84  1  0  0  0
 83155  1  0  0  0
 83156  1  0  0  0
M  ISO  4   1 100  68 101  81 101  85 100
M  END
> <chiral flag>
0

> <version>
0

> <s_m_source_file>
/data/baiqing/PycharmProjects/Reinvent-master-3.2/result/LINK_invent/BTK/process_docking_weight1_custom_product_contain_oxygen_bond_distance_aromatic_linkinvent_7_9_3/rearranged_h_0083.sdf

> <i_m_source_file_index>
37

> <r_mmod_Potential_Energy-OPLS-2005>
497.653991699219

> <r_mmod_Stretch_Energy-OPLS-2005>
124.470664978027

> <r_mmod_Bend_Energy-OPLS-2005>
258.377777099609

> <r_mmod_Torsional_Energy-OPLS-2005>
408.413513183594

> <r_mmod_Improper_Torsional_Energy-OPLS-2005>
8.63776016235352

> <r_mmod_Van_der_Waal_Energy-OPLS-2005>
137.290634155273

> <r_mmod_Electrostatic_Energy-OPLS-2005>
-300.307739257812

> <r_mmod_Solvation_Energy-OPLS-2005>
-224.660415649414

> <b_mmod_Minimization_Converged-OPLS-2005>
0

> <r_mmod_RMS_Derivative-OPLS-2005>
1.41514527797699

$$$$
37
                    3D
 Structure written by MMmdl.
149157  0  0  1  0            999 V2000
  -30.6631  -14.6611   20.5002 C   0  0  0  0  0  0
  -30.4209  -12.3939   19.4685 C   0  0  0  0  0  0
  -29.5078  -12.5012   18.2293 C   0  0  0  0  0  0
  -28.0309  -12.3396   18.6372 C   0  0  0  0  0  0
  -27.6468  -13.2308   19.8495 C   0  0  2  0  0  0
  -28.6886  -13.1380   20.9825 C   0  0  0  0  0  0
  -25.2538  -13.8203   20.5678 C   0  0  0  0  0  0
  -24.1817  -13.0448   20.9178 C   0  0  0  0  0  0
  -24.6399  -11.6925   20.8720 C   0  0  0  0  0  0
  -23.9068  -10.4297   21.0394 C   0  0  0  0  0  0
  -24.3621   -9.4214   21.9174 C   0  0  0  0  0  0
  -23.6302   -8.2247   22.0749 C   0  0  0  0  0  0
  -22.4283   -8.0282   21.3546 C   0  0  0  0  0  0
  -21.9914   -9.0255   20.4648 C   0  0  0  0  0  0
  -22.7238  -10.2133   20.3052 C   0  0  0  0  0  0
  -21.6856   -6.0739   22.5280 C   0  0  0  0  0  0
  -21.4014   -6.5641   23.8214 C   0  0  0  0  0  0
  -21.3658   -5.6789   24.9177 C   0  0  0  0  0  0
  -21.6044   -4.3056   24.7223 C   0  0  0  0  0  0
  -21.8820   -3.8149   23.4344 C   0  0  0  0  0  0
  -21.9195   -4.6964   22.3401 C   0  0  0  0  0  0
  -22.7840  -13.5230   21.1857 C   0  0  0  0  0  0
  -22.1668   -4.2151   21.0980 F   0  0  0  0  0  0
  -21.5620   -3.4535   25.7734 F   0  0  0  0  0  0
  -30.0061  -13.4549   20.4143 N   0  0  0  0  0  0
  -26.2965  -12.9411   20.3266 N   0  0  0  0  0  0
  -25.9326  -11.6548   20.5716 N   0  0  0  0  0  0
  -22.0493  -12.8227   22.0419 N   0  0  0  0  0  0
  -25.4256  -15.1919   20.4130 N   0  0  0  0  0  0
  -31.8362  -14.6463   20.1297 O   0  0  0  0  0  0
  -21.6645   -6.8883   21.4247 O   0  0  0  0  0  0
  -22.3520  -14.5528   20.6695 O   0  0  0  0  0  0
  -24.6260  -31.8601   23.2037 C   0  0  0  0  0  0
  -25.9113  -32.4774   23.8357 C   0  0  1  0  0  0
  -27.2168  -27.3206   20.1023 C   0  0  0  0  0  0
  -25.5934  -33.8578   24.2280 N   0  0  0  0  0  0
  -23.4175  -30.4858   21.5465 C   0  0  2  0  0  0
  -24.8590  -28.9410   20.1107 C   0  0  0  0  0  0
  -22.7465  -29.4633   22.4944 C   0  0  0  0  0  0
  -18.0282  -28.1396   22.8479 C   0  0  0  0  0  0
  -24.1484  -36.7289   23.2631 C   0  0  0  0  0  0
  -25.9582  -30.7911   21.3726 C   0  0  0  0  0  0
  -26.0282  -29.4192   20.7126 C   0  0  0  0  0  0
  -27.2065  -28.6181   20.7024 C   0  0  0  0  0  0
  -26.0136  -26.8833   19.5010 C   0  0  0  0  0  0
  -24.8526  -27.6781   19.5003 C   0  0  0  0  0  0
  -23.6298  -29.8233   20.1605 C   0  0  0  0  0  0
  -25.4103  -36.3076   24.0328 C   0  0  1  0  0  0
  -20.5877  -28.3693   23.1292 C   0  0  2  0  0  0
  -20.6767  -26.9416   22.5425 C   0  0  0  0  0  0
  -19.5757  -26.6394   21.5212 C   0  0  0  0  0  0
  -18.1927  -26.7945   22.1607 C   0  0  0  0  0  0
  -19.1533  -28.8862   23.2877 C   0  0  0  0  0  0
  -18.9459  -30.1465   23.8894 C   0  0  0  0  0  0
  -17.6459  -30.6594   24.0574 C   0  0  0  0  0  0
  -25.9052  -34.9450   23.5099 C   0  0  0  0  0  0
  -16.5350  -29.9095   23.6337 C   0  0  0  0  0  0
  -16.7270  -28.6519   23.0343 C   0  0  0  0  0  0
  -26.4500  -31.6586   25.0728 C   0  0  0  0  0  0
  -25.3743  -31.3747   26.1468 C   0  0  0  0  0  0
  -27.0327  -30.3002   24.6187 C   0  0  0  0  0  0
  -27.6075  -32.4315   25.7480 C   0  0  0  0  0  0
  -27.5597  -37.1759   24.8435 C   0  0  0  0  0  0
  -21.4182  -29.3045   22.3684 N   0  0  0  0  0  0
  -26.4265  -37.3792   23.9447 N   0  0  0  0  0  0
  -24.6862  -31.0621   22.0979 N   0  0  0  0  0  0
  -23.4193  -28.8175   23.3017 O   0  0  0  0  0  0
  -28.3562  -26.5050   20.1619 O   0  0  0  0  0  0
  -26.5622  -34.8922   22.4667 O   0  0  0  0  0  0
  -23.5429  -32.1397   23.7374 O   0  0  0  0  0  0
  -29.6694  -20.5009   19.0782 C   0  0  0  0  0  0
  -30.0355  -19.1786   19.4587 C   0  0  0  0  0  0
  -28.7928  -20.9161   21.2741 C   0  0  0  0  0  0
  -29.0822  -21.4294   19.9788 C   0  0  0  0  0  0
  -29.1527  -19.5835   21.6664 C   0  0  0  0  0  0
  -29.8224  -18.6921   20.7720 C   0  0  0  0  0  0
  -28.6041  -23.8636   20.1385 C   0  0  0  0  0  0
  -28.4784  -25.2493   19.3928 C   0  0  0  0  0  0
  -30.0146  -15.8058   20.9307 N   0  5  0  0  0  0
  -28.8436  -22.7613   19.4893 N   0  0  0  0  0  0
  -32.0847  -17.3804   20.6264 O   0  0  0  0  0  0
  -30.9060  -17.3085   22.8089 O   0  0  0  0  0  0
  -28.8806  -19.2117   22.9402 F   0  0  0  0  0  0
  -30.8056  -17.2020   21.3413 S   0  0  0  0  0  0
  -31.4679  -12.4679   19.1710 H   0  0  0  0  0  0
  -30.3203  -11.4127   19.9349 H   0  0  0  0  0  0
  -29.7778  -11.7423   17.4936 H   0  0  0  0  0  0
  -29.6545  -13.4675   17.7431 H   0  0  0  0  0  0
  -27.8739  -11.2898   18.8873 H   0  0  0  0  0  0
  -27.3783  -12.5497   17.7895 H   0  0  0  0  0  0
  -27.6547  -14.2596   19.4877 H   0  0  0  0  0  0
  -28.6976  -12.1394   21.4224 H   0  0  0  0  0  0
  -28.4338  -13.8237   21.7922 H   0  0  0  0  0  0
  -25.2772   -9.5687   22.4739 H   0  0  0  0  0  0
  -24.0017   -7.4634   22.7462 H   0  0  0  0  0  0
  -21.0842   -8.8767   19.8957 H   0  0  0  0  0  0
  -22.3696  -10.9666   19.6151 H   0  0  0  0  0  0
  -21.2013   -7.6148   23.9715 H   0  0  0  0  0  0
  -21.1477   -6.0523   25.9078 H   0  0  0  0  0  0
  -22.0598   -2.7613   23.2835 H   0  0  0  0  0  0
  -22.4128  -11.9903   22.4822 H   0  0  0  0  0  0
  -21.1102  -13.1237   22.2614 H   0  0  0  0  0  0
  -24.6701  -15.8569   20.5364 H   0  0  0  0  0  0
  -26.3042  -15.6262   20.1545 H   0  0  0  0  0  0
  -26.7178  -32.5441   23.1102 H   0  0  0  0  0  0
  -25.0064  -33.9723   25.0413 H   0  0  0  0  0  0
  -22.7111  -31.3063   21.4065 H   0  0  0  0  0  0
  -23.3775  -35.9587   23.3219 H   0  0  0  0  0  0
  -24.3603  -36.8996   22.2065 H   0  0  0  0  0  0
  -23.7192  -37.6448   23.6705 H   0  0  0  0  0  0
  -26.0885  -31.5565   20.6063 H   0  0  0  0  0  0
  -26.8390  -30.8372   22.0016 H   0  0  0  0  0  0
  -28.1059  -28.9810   21.1798 H   0  0  0  0  0  0
  -25.9147  -25.9068   19.0554 H   0  0  0  0  0  0
  -23.9482  -27.3006   19.0427 H   0  0  0  0  0  0
  -23.7520  -30.6005   19.4053 H   0  0  0  0  0  0
  -22.7485  -29.2557   19.8573 H   0  0  0  0  0  0
  -25.1270  -36.1905   25.0815 H   0  0  0  0  0  0
  -20.9961  -28.3273   24.1417 H   0  0  0  0  0  0
  -20.5656  -26.2309   23.3627 H   0  0  0  0  0  0
  -21.6643  -26.7445   22.1234 H   0  0  0  0  0  0
  -19.6918  -25.6301   21.1254 H   0  0  0  0  0  0
  -19.6714  -27.3200   20.6738 H   0  0  0  0  0  0
  -17.4209  -26.6710   21.3991 H   0  0  0  0  0  0
  -18.0310  -26.0083   22.8998 H   0  0  0  0  0  0
  -19.7935  -30.7280   24.2257 H   0  0  0  0  0  0
  -17.5018  -31.6266   24.5191 H   0  0  0  0  0  0
  -15.5349  -30.2996   23.7662 H   0  0  0  0  0  0
  -15.8674  -28.0847   22.7042 H   0  0  0  0  0  0
  -24.5893  -30.7115   25.7814 H   0  0  0  0  0  0
  -24.8960  -32.2924   26.4901 H   0  0  0  0  0  0
  -25.8071  -30.8920   27.0238 H   0  0  0  0  0  0
  -26.2885  -29.6754   24.1228 H   0  0  0  0  0  0
  -27.4030  -29.7266   25.4695 H   0  0  0  0  0  0
  -27.8763  -30.4279   23.9398 H   0  0  0  0  0  0
  -27.2697  -33.3608   26.2081 H   0  0  0  0  0  0
  -28.3860  -32.6887   25.0284 H   0  0  0  0  0  0
  -28.0772  -31.8427   26.5372 H   0  0  0  0  0  0
  -28.2512  -38.0157   24.7635 H   0  0  0  0  0  0
  -28.1190  -36.2701   24.6035 H   0  0  0  0  0  0
  -27.2363  -37.1144   25.8841 H   0  0  0  0  0  0
  -20.9358  -29.8764   21.6895 H   0  0  0  0  0  0
  -26.0135  -38.2838   24.1564 H   0  0  0  0  0  0
  -29.9030  -20.8256   18.0726 H   0  0  0  0  0  0
  -30.5745  -18.5549   18.7585 H   0  0  0  0  0  0
  -28.3159  -21.5511   22.0064 H   0  0  0  0  0  0
  -28.5002  -23.9035   21.2260 H   0  0  0  0  0  0
  -27.7495  -25.1500   18.5931 H   0  0  0  0  0  0
  -29.4140  -25.3701   18.8467 H   0  0  0  0  0  0
  1 25  1  0  0  0
  1 30  2  0  0  0
  1 79  1  0  0  0
  2  3  1  0  0  0
  2 25  1  0  0  0
  2 85  1  0  0  0
  2 86  1  0  0  0
  3  4  1  0  0  0
  3 87  1  0  0  0
  3 88  1  0  0  0
  4  5  1  0  0  0
  4 89  1  0  0  0
  4 90  1  0  0  0
  5  6  1  0  0  0
  5 26  1  0  0  0
  5 91  1  0  0  0
  6 25  1  0  0  0
  6 92  1  0  0  0
  6 93  1  0  0  0
  7  8  2  0  0  0
  7 26  1  0  0  0
  7 29  1  0  0  0
  8  9  1  0  0  0
  8 22  1  0  0  0
  9 10  1  0  0  0
  9 27  2  0  0  0
 10 11  2  0  0  0
 10 15  1  0  0  0
 11 12  1  0  0  0
 11 94  1  0  0  0
 12 13  2  0  0  0
 12 95  1  0  0  0
 13 14  1  0  0  0
 13 31  1  0  0  0
 14 15  2  0  0  0
 14 96  1  0  0  0
 15 97  1  0  0  0
 16 17  2  0  0  0
 16 21  1  0  0  0
 16 31  1  0  0  0
 17 18  1  0  0  0
 17 98  1  0  0  0
 18 19  2  0  0  0
 18 99  1  0  0  0
 19 20  1  0  0  0
 19 24  1  0  0  0
 20 21  2  0  0  0
 20100  1  0  0  0
 21 23  1  0  0  0
 22 28  1  0  0  0
 22 32  2  0  0  0
 26 27  1  0  0  0
 28101  1  0  0  0
 28102  1  0  0  0
 29103  1  0  0  0
 29104  1  0  0  0
 33 34  1  0  0  0
 33 66  1  0  0  0
 33 70  2  0  0  0
 34 36  1  0  0  0
 34 59  1  0  0  0
 34105  1  0  0  0
 35 44  2  0  0  0
 35 45  1  0  0  0
 35 68  1  0  0  0
 36 56  1  0  0  0
 36106  1  0  0  0
 37 39  1  0  0  0
 37 47  1  0  0  0
 37 66  1  0  0  0
 37107  1  0  0  0
 38 43  2  0  0  0
 38 46  1  0  0  0
 38 47  1  0  0  0
 39 64  1  0  0  0
 39 67  2  0  0  0
 40 52  1  0  0  0
 40 53  2  0  0  0
 40 58  1  0  0  0
 41108  1  0  0  0
 41109  1  0  0  0
 41110  1  0  0  0
 41 48  1  0  0  0
 42 43  1  0  0  0
 42 66  1  0  0  0
 42111  1  0  0  0
 42112  1  0  0  0
 43 44  1  0  0  0
 44113  1  0  0  0
 45 46  2  0  0  0
 45114  1  0  0  0
 46115  1  0  0  0
 47116  1  0  0  0
 47117  1  0  0  0
 48 56  1  0  0  0
 48 65  1  0  0  0
 48118  1  0  0  0
 49 50  1  0  0  0
 49 53  1  0  0  0
 49 64  1  0  0  0
 49119  1  0  0  0
 50 51  1  0  0  0
 50120  1  0  0  0
 50121  1  0  0  0
 51 52  1  0  0  0
 51122  1  0  0  0
 51123  1  0  0  0
 52124  1  0  0  0
 52125  1  0  0  0
 53 54  1  0  0  0
 54 55  2  0  0  0
 54126  1  0  0  0
 55 57  1  0  0  0
 55127  1  0  0  0
 56 69  2  0  0  0
 57 58  2  0  0  0
 57128  1  0  0  0
 58129  1  0  0  0
 59 60  1  0  0  0
 59 61  1  0  0  0
 59 62  1  0  0  0
 60130  1  0  0  0
 60131  1  0  0  0
 60132  1  0  0  0
 61133  1  0  0  0
 61134  1  0  0  0
 61135  1  0  0  0
 62136  1  0  0  0
 62137  1  0  0  0
 62138  1  0  0  0
 63 65  1  0  0  0
 63139  1  0  0  0
 63140  1  0  0  0
 63141  1  0  0  0
 64142  1  0  0  0
 65143  1  0  0  0
 68 78  1  0  0  0
 71 72  2  0  0  0
 71 74  1  0  0  0
 71144  1  0  0  0
 72 76  1  0  0  0
 72145  1  0  0  0
 73 74  2  0  0  0
 73 75  1  0  0  0
 73146  1  0  0  0
 74 80  1  0  0  0
 75 76  2  0  0  0
 75 83  1  0  0  0
 76 84  1  0  0  0
 77 78  1  0  0  0
 77 80  2  0  0  0
 77147  1  0  0  0
 78148  1  0  0  0
 78149  1  0  0  0
 79 84  1  0  0  0
 81 84  2  0  0  0
 82 84  2  0  0  0
M  CHG  1  79  -1
M  ISO  4   1 100  68 101  78 101  79 100
M  END
> <chiral flag>
0

> <version>
0

> <s_m_source_file>
/data/baiqing/PycharmProjects/Reinvent-master-3.2/result/LINK_invent/BTK/process_docking_weight1_custom_product_contain_oxygen_bond_distance_aromatic_linkinvent_7_9_3/rearranged_h_0083.sdf

> <i_m_source_file_index>
38

> <r_mmod_Potential_Energy-OPLS-2005>
-113.628829956055

> <r_mmod_Stretch_Energy-OPLS-2005>
79.8836135864258

> <r_mmod_Bend_Energy-OPLS-2005>
186.904205322266

> <r_mmod_Torsional_Energy-OPLS-2005>
181.420333862305

> <r_mmod_Improper_Torsional_Energy-OPLS-2005>
5.15108585357666

> <r_mmod_Van_der_Waal_Energy-OPLS-2005>
146.669845581055

> <r_mmod_Electrostatic_Energy-OPLS-2005>
-314.777923583984

> <r_mmod_Solvation_Energy-OPLS-2005>
-449.780609130859

> <b_mmod_Minimization_Converged-OPLS-2005>
0

> <r_mmod_RMS_Derivative-OPLS-2005>
1.1020644903183

$$$$
38
                    3D
 Structure written by MMmdl.
154162  0  0  1  0            999 V2000
  -30.6382  -14.5634   20.5357 C   0  0  0  0  0  0
  -30.4364  -12.3527   19.4398 C   0  0  0  0  0  0
  -29.5078  -12.5247   18.2171 C   0  0  0  0  0  0
  -28.0263  -12.3803   18.6212 C   0  0  0  0  0  0
  -27.6617  -13.2147   19.8784 C   0  0  2  0  0  0
  -28.7034  -13.0092   21.0017 C   0  0  0  0  0  0
  -25.2576  -13.8179   20.5692 C   0  0  0  0  0  0
  -24.1828  -13.0446   20.9169 C   0  0  0  0  0  0
  -24.6388  -11.6914   20.8702 C   0  0  0  0  0  0
  -23.9053  -10.4297   21.0378 C   0  0  0  0  0  0
  -24.3611   -9.4218   21.9157 C   0  0  0  0  0  0
  -23.6291   -8.2250   22.0747 C   0  0  0  0  0  0
  -22.4264   -8.0282   21.3548 C   0  0  0  0  0  0
  -21.9890   -9.0250   20.4643 C   0  0  0  0  0  0
  -22.7220  -10.2131   20.3039 C   0  0  0  0  0  0
  -21.6858   -6.0723   22.5278 C   0  0  0  0  0  0
  -21.4022   -6.5626   23.8211 C   0  0  0  0  0  0
  -21.3664   -5.6775   24.9169 C   0  0  0  0  0  0
  -21.6047   -4.3040   24.7220 C   0  0  0  0  0  0
  -21.8824   -3.8136   23.4342 C   0  0  0  0  0  0
  -21.9198   -4.6952   22.3398 C   0  0  0  0  0  0
  -22.7847  -13.5242   21.1844 C   0  0  0  0  0  0
  -22.1664   -4.2143   21.0973 F   0  0  0  0  0  0
  -21.5631   -3.4523   25.7733 F   0  0  0  0  0  0
  -30.0283  -13.3440   20.4520 N   0  0  0  0  0  0
  -26.3020  -12.9361   20.3360 N   0  0  0  0  0  0
  -25.9322  -11.6514   20.5741 N   0  0  0  0  0  0
  -22.0490  -12.8244   22.0407 N   0  0  0  0  0  0
  -25.4298  -15.1907   20.4177 N   0  0  0  0  0  0
  -31.7743  -14.7562   20.0885 O   0  0  0  0  0  0
  -21.6647   -6.8867   21.4240 O   0  0  0  0  0  0
  -22.3527  -14.5544   20.6691 O   0  0  0  0  0  0
  -24.6240  -31.8626   23.2048 C   0  0  0  0  0  0
  -25.9102  -32.4791   23.8365 C   0  0  1  0  0  0
  -27.2299  -27.3685   20.0995 C   0  0  0  0  0  0
  -25.5932  -33.8584   24.2298 N   0  0  0  0  0  0
  -23.4147  -30.4882   21.5458 C   0  0  2  0  0  0
  -24.8601  -28.9484   20.1091 C   0  0  0  0  0  0
  -22.7455  -29.4657   22.4944 C   0  0  0  0  0  0
  -18.0293  -28.1388   22.8484 C   0  0  0  0  0  0
  -24.1491  -36.7296   23.2639 C   0  0  0  0  0  0
  -25.9516  -30.8063   21.3701 C   0  0  0  0  0  0
  -26.0263  -29.4392   20.7095 C   0  0  0  0  0  0
  -27.2131  -28.6561   20.7036 C   0  0  0  0  0  0
  -26.0356  -26.9061   19.4998 C   0  0  0  0  0  0
  -24.8624  -27.6827   19.5007 C   0  0  0  0  0  0
  -23.6273  -29.8249   20.1595 C   0  0  0  0  0  0
  -25.4111  -36.3091   24.0340 C   0  0  1  0  0  0
  -20.5891  -28.3691   23.1283 C   0  0  2  0  0  0
  -20.6787  -26.9411   22.5414 C   0  0  0  0  0  0
  -19.5761  -26.6386   21.5216 C   0  0  0  0  0  0
  -18.1938  -26.7935   22.1624 C   0  0  0  0  0  0
  -19.1544  -28.8852   23.2879 C   0  0  0  0  0  0
  -18.9470  -30.1456   23.8897 C   0  0  0  0  0  0
  -17.6472  -30.6588   24.0567 C   0  0  0  0  0  0
  -25.9043  -34.9458   23.5115 C   0  0  0  0  0  0
  -16.5362  -29.9091   23.6330 C   0  0  0  0  0  0
  -16.7281  -28.6508   23.0345 C   0  0  0  0  0  0
  -26.4495  -31.6597   25.0725 C   0  0  0  0  0  0
  -25.3752  -31.3735   26.1476 C   0  0  0  0  0  0
  -27.0334  -30.3027   24.6152 C   0  0  0  0  0  0
  -27.6047  -32.4343   25.7501 C   0  0  0  0  0  0
  -27.5579  -37.1807   24.8466 C   0  0  0  0  0  0
  -21.4174  -29.3052   22.3676 N   0  0  0  0  0  0
  -26.4294  -37.3780   23.9406 N   0  0  0  0  0  0
  -24.6818  -31.0678   22.0981 N   0  0  0  0  0  0
  -23.4186  -28.8216   23.3033 O   0  0  0  0  0  0
  -28.3516  -26.5431   20.1611 O   0  0  0  0  0  0
  -26.5592  -34.8927   22.4671 O   0  0  0  0  0  0
  -23.5410  -32.1423   23.7392 O   0  0  0  0  0  0
  -30.5230  -19.0263   19.5478 C   0  0  0  0  0  0
  -29.1132  -19.2588   21.4919 C   0  0  0  0  0  0
  -30.5866  -17.6203   19.7436 C   0  0  0  0  0  0
  -29.1672  -17.8497   21.6833 C   0  0  0  0  0  0
  -29.7829  -19.8831   20.4064 C   0  0  0  0  0  0
  -29.9079  -16.9993   20.8215 C   0  0  0  0  0  0
  -28.5183  -25.5670   19.1886 C   0  0  0  0  0  0
  -29.7864  -21.4016   20.1767 C   0  0  0  0  0  0
  -28.5744  -24.2004   19.2990 C   0  0  0  0  0  0
  -28.4461  -23.4714   20.5899 C   0  0  0  0  0  0
  -28.6576  -23.4136   17.9942 C   0  0  0  0  0  0
  -29.8712  -15.5670   21.0424 N   0  0  0  0  0  0
  -28.7627  -22.1396   20.6786 N   0  0  0  0  0  0
  -30.7263  -21.8937   19.5453 O   0  0  0  0  0  0
  -27.9111  -23.9876   21.5744 O   0  0  0  0  0  0
  -31.4808  -12.4709   19.1436 H   0  0  0  0  0  0
  -30.3562  -11.3427   19.8452 H   0  0  0  0  0  0
  -29.7596  -11.7975   17.4443 H   0  0  0  0  0  0
  -29.6690  -13.5078   17.7708 H   0  0  0  0  0  0
  -27.8366  -11.3238   18.8098 H   0  0  0  0  0  0
  -27.3828  -12.6638   17.7876 H   0  0  0  0  0  0
  -27.6984  -14.2626   19.5794 H   0  0  0  0  0  0
  -28.6960  -11.9729   21.3444 H   0  0  0  0  0  0
  -28.4578  -13.6047   21.8821 H   0  0  0  0  0  0
  -25.2767   -9.5708   22.4707 H   0  0  0  0  0  0
  -24.0021   -7.4644   22.7467 H   0  0  0  0  0  0
  -21.0818   -8.8759   19.8946 H   0  0  0  0  0  0
  -22.3677  -10.9658   19.6134 H   0  0  0  0  0  0
  -21.2019   -7.6134   23.9720 H   0  0  0  0  0  0
  -21.1481   -6.0496   25.9072 H   0  0  0  0  0  0
  -22.0601   -2.7600   23.2838 H   0  0  0  0  0  0
  -22.4113  -11.9910   22.4802 H   0  0  0  0  0  0
  -21.1107  -13.1270   22.2610 H   0  0  0  0  0  0
  -24.6652  -15.8465   20.5349 H   0  0  0  0  0  0
  -26.2892  -15.6352   20.1195 H   0  0  0  0  0  0
  -26.7171  -32.5473   23.1113 H   0  0  0  0  0  0
  -25.0142  -33.9724   25.0489 H   0  0  0  0  0  0
  -22.7077  -31.3086   21.4034 H   0  0  0  0  0  0
  -23.3752  -35.9631   23.3320 H   0  0  0  0  0  0
  -24.3583  -36.8896   22.2052 H   0  0  0  0  0  0
  -23.7260  -37.6514   23.6634 H   0  0  0  0  0  0
  -26.0791  -31.5749   20.6070 H   0  0  0  0  0  0
  -26.8326  -30.8498   21.9986 H   0  0  0  0  0  0
  -28.1081  -29.0224   21.1863 H   0  0  0  0  0  0
  -25.9873  -25.9231   19.0530 H   0  0  0  0  0  0
  -23.9643  -27.2907   19.0437 H   0  0  0  0  0  0
  -23.7487  -30.6034   19.4056 H   0  0  0  0  0  0
  -22.7475  -29.2559   19.8557 H   0  0  0  0  0  0
  -25.1292  -36.1947   25.0836 H   0  0  0  0  0  0
  -20.9968  -28.3275   24.1410 H   0  0  0  0  0  0
  -20.5707  -26.2289   23.3613 H   0  0  0  0  0  0
  -21.6654  -26.7462   22.1193 H   0  0  0  0  0  0
  -19.6917  -25.6295   21.1249 H   0  0  0  0  0  0
  -19.6705  -27.3195   20.6745 H   0  0  0  0  0  0
  -17.4207  -26.6687   21.4027 H   0  0  0  0  0  0
  -18.0324  -26.0082   22.9024 H   0  0  0  0  0  0
  -19.7950  -30.7267   24.2262 H   0  0  0  0  0  0
  -17.5036  -31.6270   24.5165 H   0  0  0  0  0  0
  -15.5365  -30.2994   23.7650 H   0  0  0  0  0  0
  -15.8684  -28.0832   22.7047 H   0  0  0  0  0  0
  -24.5909  -30.7086   25.7836 H   0  0  0  0  0  0
  -24.8967  -32.2909   26.4916 H   0  0  0  0  0  0
  -25.8121  -30.8923   27.0239 H   0  0  0  0  0  0
  -26.2897  -29.6783   24.1182 H   0  0  0  0  0  0
  -27.4064  -29.7271   25.4635 H   0  0  0  0  0  0
  -27.8751  -30.4333   23.9344 H   0  0  0  0  0  0
  -27.2627  -33.3633   26.2076 H   0  0  0  0  0  0
  -28.3856  -32.6933   25.0336 H   0  0  0  0  0  0
  -28.0704  -31.8480   26.5435 H   0  0  0  0  0  0
  -28.2606  -38.0089   24.7485 H   0  0  0  0  0  0
  -28.1064  -36.2623   24.6321 H   0  0  0  0  0  0
  -27.2288  -37.1497   25.8866 H   0  0  0  0  0  0
  -20.9333  -29.8763   21.6890 H   0  0  0  0  0  0
  -26.0186  -38.2862   24.1391 H   0  0  0  0  0  0
  -31.0600  -19.4511   18.7100 H   0  0  0  0  0  0
  -28.5498  -19.8511   22.1988 H   0  0  0  0  0  0
  -31.1529  -17.0283   19.0385 H   0  0  0  0  0  0
  -28.6261  -17.4236   22.5172 H   0  0  0  0  0  0
  -28.5913  -26.0391   18.2193 H   0  0  0  0  0  0
  -28.2151  -23.9789   17.1737 H   0  0  0  0  0  0
  -28.1080  -22.4735   18.0492 H   0  0  0  0  0  0
  -29.6907  -23.2107   17.7160 H   0  0  0  0  0  0
  -29.0532  -15.2342   21.5305 H   0  0  0  0  0  0
  -28.2412  -21.6444   21.3805 H   0  0  0  0  0  0
  1 25  1  0  0  0
  1 30  2  0  0  0
  1 82  1  0  0  0
  2  3  1  0  0  0
  2 25  1  0  0  0
  2 86  1  0  0  0
  2 87  1  0  0  0
  3  4  1  0  0  0
  3 88  1  0  0  0
  3 89  1  0  0  0
  4  5  1  0  0  0
  4 90  1  0  0  0
  4 91  1  0  0  0
  5  6  1  0  0  0
  5 26  1  0  0  0
  5 92  1  0  0  0
  6 25  1  0  0  0
  6 93  1  0  0  0
  6 94  1  0  0  0
  7  8  2  0  0  0
  7 26  1  0  0  0
  7 29  1  0  0  0
  8  9  1  0  0  0
  8 22  1  0  0  0
  9 10  1  0  0  0
  9 27  2  0  0  0
 10 11  2  0  0  0
 10 15  1  0  0  0
 11 12  1  0  0  0
 11 95  1  0  0  0
 12 13  2  0  0  0
 12 96  1  0  0  0
 13 14  1  0  0  0
 13 31  1  0  0  0
 14 15  2  0  0  0
 14 97  1  0  0  0
 15 98  1  0  0  0
 16 17  2  0  0  0
 16 21  1  0  0  0
 16 31  1  0  0  0
 17 18  1  0  0  0
 17 99  1  0  0  0
 18 19  2  0  0  0
 18100  1  0  0  0
 19 20  1  0  0  0
 19 24  1  0  0  0
 20 21  2  0  0  0
 20101  1  0  0  0
 21 23  1  0  0  0
 22 28  1  0  0  0
 22 32  2  0  0  0
 26 27  1  0  0  0
 28102  1  0  0  0
 28103  1  0  0  0
 29104  1  0  0  0
 29105  1  0  0  0
 33 34  1  0  0  0
 33 66  1  0  0  0
 33 70  2  0  0  0
 34 36  1  0  0  0
 34 59  1  0  0  0
 34106  1  0  0  0
 35 44  2  0  0  0
 35 45  1  0  0  0
 35 68  1  0  0  0
 36 56  1  0  0  0
 36107  1  0  0  0
 37 39  1  0  0  0
 37 47  1  0  0  0
 37 66  1  0  0  0
 37108  1  0  0  0
 38 43  2  0  0  0
 38 46  1  0  0  0
 38 47  1  0  0  0
 39 64  1  0  0  0
 39 67  2  0  0  0
 40 52  1  0  0  0
 40 53  2  0  0  0
 40 58  1  0  0  0
 41109  1  0  0  0
 41110  1  0  0  0
 41111  1  0  0  0
 41 48  1  0  0  0
 42 43  1  0  0  0
 42 66  1  0  0  0
 42112  1  0  0  0
 42113  1  0  0  0
 43 44  1  0  0  0
 44114  1  0  0  0
 45 46  2  0  0  0
 45115  1  0  0  0
 46116  1  0  0  0
 47117  1  0  0  0
 47118  1  0  0  0
 48 56  1  0  0  0
 48 65  1  0  0  0
 48119  1  0  0  0
 49 50  1  0  0  0
 49 53  1  0  0  0
 49 64  1  0  0  0
 49120  1  0  0  0
 50 51  1  0  0  0
 50121  1  0  0  0
 50122  1  0  0  0
 51 52  1  0  0  0
 51123  1  0  0  0
 51124  1  0  0  0
 52125  1  0  0  0
 52126  1  0  0  0
 53 54  1  0  0  0
 54 55  2  0  0  0
 54127  1  0  0  0
 55 57  1  0  0  0
 55128  1  0  0  0
 56 69  2  0  0  0
 57 58  2  0  0  0
 57129  1  0  0  0
 58130  1  0  0  0
 59 60  1  0  0  0
 59 61  1  0  0  0
 59 62  1  0  0  0
 60131  1  0  0  0
 60132  1  0  0  0
 60133  1  0  0  0
 61134  1  0  0  0
 61135  1  0  0  0
 61136  1  0  0  0
 62137  1  0  0  0
 62138  1  0  0  0
 62139  1  0  0  0
 63 65  1  0  0  0
 63140  1  0  0  0
 63141  1  0  0  0
 63142  1  0  0  0
 64143  1  0  0  0
 65144  1  0  0  0
 68 77  1  0  0  0
 71 73  2  0  0  0
 71 75  1  0  0  0
 71145  1  0  0  0
 72 74  1  0  0  0
 72 75  2  0  0  0
 72146  1  0  0  0
 73 76  1  0  0  0
 73147  1  0  0  0
 74 76  2  0  0  0
 74148  1  0  0  0
 75 78  1  0  0  0
 76 82  1  0  0  0
 77 79  2  0  0  0
 77149  1  0  0  0
 78 83  1  0  0  0
 78 84  2  0  0  0
 79 80  1  0  0  0
 79 81  1  0  0  0
 80 83  1  0  0  0
 80 85  2  0  0  0
 81150  1  0  0  0
 81151  1  0  0  0
 81152  1  0  0  0
 82153  1  0  0  0
 83154  1  0  0  0
M  ISO  4   1 100  68 101  77 101  82 100
M  END
> <chiral flag>
0

> <version>
0

> <s_m_source_file>
/data/baiqing/PycharmProjects/Reinvent-master-3.2/result/LINK_invent/BTK/process_docking_weight1_custom_product_contain_oxygen_bond_distance_aromatic_linkinvent_7_9_3/rearranged_h_0083.sdf

> <i_m_source_file_index>
39

> <r_mmod_Potential_Energy-OPLS-2005>
-59.9501647949219

> <r_mmod_Stretch_Energy-OPLS-2005>
58.1501083374023

> <r_mmod_Bend_Energy-OPLS-2005>
146.909576416016

> <r_mmod_Torsional_Energy-OPLS-2005>
267.599945068359

> <r_mmod_Improper_Torsional_Energy-OPLS-2005>
6.66718053817749

> <r_mmod_Van_der_Waal_Energy-OPLS-2005>
160.501205444336

> <r_mmod_Electrostatic_Energy-OPLS-2005>
-484.819183349609

> <r_mmod_Solvation_Energy-OPLS-2005>
-244.549423217773

> <b_mmod_Minimization_Converged-OPLS-2005>
0

> <r_mmod_RMS_Derivative-OPLS-2005>
1.85966801643372

$$$$
39
                    3D
 Structure written by MMmdl.
155163  0  0  1  0            999 V2000
  -30.7106  -14.5323   20.4995 C   0  0  0  0  0  0
  -30.4109  -12.3241   19.4474 C   0  0  0  0  0  0
  -29.4953  -12.4886   18.2176 C   0  0  0  0  0  0
  -28.0174  -12.3507   18.6287 C   0  0  0  0  0  0
  -27.6522  -13.2203   19.8623 C   0  0  2  0  0  0
  -28.6964  -13.0756   20.9930 C   0  0  0  0  0  0
  -25.2549  -13.8192   20.5688 C   0  0  0  0  0  0
  -24.1822  -13.0449   20.9195 C   0  0  0  0  0  0
  -24.6394  -11.6920   20.8744 C   0  0  0  0  0  0
  -23.9067  -10.4298   21.0405 C   0  0  0  0  0  0
  -24.3617   -9.4212   21.9183 C   0  0  0  0  0  0
  -23.6294   -8.2246   22.0753 C   0  0  0  0  0  0
  -22.4277   -8.0282   21.3542 C   0  0  0  0  0  0
  -21.9912   -9.0257   20.4645 C   0  0  0  0  0  0
  -22.7241  -10.2136   20.3054 C   0  0  0  0  0  0
  -21.6854   -6.0736   22.5278 C   0  0  0  0  0  0
  -21.4013   -6.5638   23.8211 C   0  0  0  0  0  0
  -21.3658   -5.6790   24.9174 C   0  0  0  0  0  0
  -21.6045   -4.3054   24.7223 C   0  0  0  0  0  0
  -21.8820   -3.8146   23.4345 C   0  0  0  0  0  0
  -21.9194   -4.6964   22.3401 C   0  0  0  0  0  0
  -22.7843  -13.5234   21.1855 C   0  0  0  0  0  0
  -22.1663   -4.2149   21.0980 F   0  0  0  0  0  0
  -21.5629   -3.4537   25.7735 F   0  0  0  0  0  0
  -30.0207  -13.3581   20.4234 N   0  0  0  0  0  0
  -26.2983  -12.9384   20.3329 N   0  0  0  0  0  0
  -25.9323  -11.6532   20.5769 N   0  0  0  0  0  0
  -22.0483  -12.8222   22.0405 N   0  0  0  0  0  0
  -25.4261  -15.1913   20.4094 N   0  0  0  0  0  0
  -31.8880  -14.5893   20.1465 O   0  0  0  0  0  0
  -21.6641   -6.8879   21.4239 O   0  0  0  0  0  0
  -22.3528  -14.5540   20.6703 O   0  0  0  0  0  0
  -24.6181  -31.8659   23.2085 C   0  0  0  0  0  0
  -25.9061  -32.4813   23.8391 C   0  0  1  0  0  0
  -27.2247  -27.4051   20.1052 C   0  0  0  0  0  0
  -25.5906  -33.8611   24.2321 N   0  0  0  0  0  0
  -23.4080  -30.4905   21.5490 C   0  0  2  0  0  0
  -24.8556  -28.9582   20.1090 C   0  0  0  0  0  0
  -22.7434  -29.4651   22.4967 C   0  0  0  0  0  0
  -18.0276  -28.1379   22.8491 C   0  0  0  0  0  0
  -24.1486  -36.7309   23.2639 C   0  0  0  0  0  0
  -25.9409  -30.8240   21.3665 C   0  0  0  0  0  0
  -26.0193  -29.4583   20.7096 C   0  0  0  0  0  0
  -27.2116  -28.6900   20.7037 C   0  0  0  0  0  0
  -26.0478  -26.9344   19.4850 C   0  0  0  0  0  0
  -24.8666  -27.6973   19.4899 C   0  0  0  0  0  0
  -23.6181  -29.8265   20.1624 C   0  0  0  0  0  0
  -25.4107  -36.3106   24.0339 C   0  0  1  0  0  0
  -20.5871  -28.3671   23.1307 C   0  0  2  0  0  0
  -20.6764  -26.9404   22.5413 C   0  0  0  0  0  0
  -19.5743  -26.6388   21.5209 C   0  0  0  0  0  0
  -18.1923  -26.7925   22.1622 C   0  0  0  0  0  0
  -19.1527  -28.8842   23.2896 C   0  0  0  0  0  0
  -18.9452  -30.1447   23.8907 C   0  0  0  0  0  0
  -17.6455  -30.6585   24.0564 C   0  0  0  0  0  0
  -25.9038  -34.9471   23.5129 C   0  0  0  0  0  0
  -16.5345  -29.9087   23.6325 C   0  0  0  0  0  0
  -16.7265  -28.6503   23.0350 C   0  0  0  0  0  0
  -26.4476  -31.6595   25.0727 C   0  0  0  0  0  0
  -25.3737  -31.3697   26.1470 C   0  0  0  0  0  0
  -27.0310  -30.3035   24.6117 C   0  0  0  0  0  0
  -27.6053  -32.4312   25.7490 C   0  0  0  0  0  0
  -27.5580  -37.1810   24.8465 C   0  0  0  0  0  0
  -21.4157  -29.3034   22.3710 N   0  0  0  0  0  0
  -26.4291  -37.3793   23.9412 N   0  0  0  0  0  0
  -24.6739  -31.0745   22.0994 N   0  0  0  0  0  0
  -23.4196  -28.8193   23.3017 O   0  0  0  0  0  0
  -28.3262  -26.5694   20.1518 O   0  0  0  0  0  0
  -26.5602  -34.8926   22.4690 O   0  0  0  0  0  0
  -23.5364  -32.1416   23.7465 O   0  0  0  0  0  0
  -29.4187  -18.0732   20.9974 C   0  0  0  0  0  0
  -30.9197  -19.8276   20.2122 C   0  0  0  0  0  0
  -31.5351  -17.4844   19.9675 C   0  0  0  0  0  0
  -29.6947  -19.4648   20.8107 C   0  0  0  0  0  0
  -30.3310  -17.0558   20.5903 C   0  0  0  0  0  0
  -31.8382  -18.8558   19.7837 C   0  0  0  0  0  0
  -28.6553  -24.1530   20.4641 C   0  0  0  0  0  0
  -28.0942  -25.3513   20.7776 C   0  0  0  0  0  0
  -28.7424  -20.5399   21.3126 C   0  0  0  0  0  0
  -28.2581  -22.9434   21.2072 C   0  0  0  0  0  0
  -33.9811  -18.3860   18.7906 C   0  0  0  0  0  0
  -29.9961  -15.6531   20.8020 N   0  0  0  0  0  0
  -28.9012  -21.8054   20.8305 N   0  0  0  0  0  0
  -27.8656  -20.2062   22.1183 O   0  0  0  0  0  0
  -27.4055  -22.9713   22.1034 O   0  0  0  0  0  0
  -32.9980  -19.3267   19.2055 O   0  0  0  0  0  0
  -31.4582  -12.3935   19.1482 H   0  0  0  0  0  0
  -30.2943  -11.3311   19.8844 H   0  0  0  0  0  0
  -29.7428  -11.7434   17.4604 H   0  0  0  0  0  0
  -29.6629  -13.4630   17.7559 H   0  0  0  0  0  0
  -27.8367  -11.2985   18.8515 H   0  0  0  0  0  0
  -27.3672  -12.5973   17.7885 H   0  0  0  0  0  0
  -27.6743  -14.2564   19.5238 H   0  0  0  0  0  0
  -28.6790  -12.0660   21.4059 H   0  0  0  0  0  0
  -28.4650  -13.7439   21.8238 H   0  0  0  0  0  0
  -25.2763   -9.5690   22.4757 H   0  0  0  0  0  0
  -24.0004   -7.4638   22.7472 H   0  0  0  0  0  0
  -21.0843   -8.8776   19.8950 H   0  0  0  0  0  0
  -22.3701  -10.9673   19.6160 H   0  0  0  0  0  0
  -21.2002   -7.6146   23.9714 H   0  0  0  0  0  0
  -21.1479   -6.0521   25.9078 H   0  0  0  0  0  0
  -22.0600   -2.7607   23.2844 H   0  0  0  0  0  0
  -22.4095  -11.9880   22.4790 H   0  0  0  0  0  0
  -21.1102  -13.1246   22.2610 H   0  0  0  0  0  0
  -24.6584  -15.8456   20.5155 H   0  0  0  0  0  0
  -26.2740  -15.6287   20.0718 H   0  0  0  0  0  0
  -26.7135  -32.5517   23.1156 H   0  0  0  0  0  0
  -25.0057  -33.9763   25.0467 H   0  0  0  0  0  0
  -22.6978  -31.3083   21.4106 H   0  0  0  0  0  0
  -23.3748  -35.9643   23.3308 H   0  0  0  0  0  0
  -24.3581  -36.8914   22.2053 H   0  0  0  0  0  0
  -23.7238  -37.6516   23.6647 H   0  0  0  0  0  0
  -26.0586  -31.5911   20.5999 H   0  0  0  0  0  0
  -26.8268  -30.8745   21.9879 H   0  0  0  0  0  0
  -28.1063  -29.0623   21.1828 H   0  0  0  0  0  0
  -26.0399  -25.9598   19.0171 H   0  0  0  0  0  0
  -23.9735  -27.3065   19.0215 H   0  0  0  0  0  0
  -23.7272  -30.6032   19.4046 H   0  0  0  0  0  0
  -22.7411  -29.2482   19.8653 H   0  0  0  0  0  0
  -25.1282  -36.1972   25.0832 H   0  0  0  0  0  0
  -20.9962  -28.3235   24.1427 H   0  0  0  0  0  0
  -20.5661  -26.2278   23.3602 H   0  0  0  0  0  0
  -21.6634  -26.7442   22.1207 H   0  0  0  0  0  0
  -19.6903  -25.6303   21.1229 H   0  0  0  0  0  0
  -19.6683  -27.3204   20.6744 H   0  0  0  0  0  0
  -17.4192  -26.6676   21.4024 H   0  0  0  0  0  0
  -18.0326  -26.0064   22.9016 H   0  0  0  0  0  0
  -19.7930  -30.7255   24.2284 H   0  0  0  0  0  0
  -17.5013  -31.6265   24.5166 H   0  0  0  0  0  0
  -15.5347  -30.2992   23.7647 H   0  0  0  0  0  0
  -15.8664  -28.0827   22.7061 H   0  0  0  0  0  0
  -24.5916  -30.7038   25.7802 H   0  0  0  0  0  0
  -24.8919  -32.2847   26.4927 H   0  0  0  0  0  0
  -25.8091  -30.8860   27.0223 H   0  0  0  0  0  0
  -26.2859  -29.6796   24.1166 H   0  0  0  0  0  0
  -27.4067  -29.7274   25.4582 H   0  0  0  0  0  0
  -27.8701  -30.4349   23.9280 H   0  0  0  0  0  0
  -27.2678  -33.3606   26.2089 H   0  0  0  0  0  0
  -28.3854  -32.6878   25.0309 H   0  0  0  0  0  0
  -28.0731  -31.8419   26.5386 H   0  0  0  0  0  0
  -28.2602  -38.0103   24.7516 H   0  0  0  0  0  0
  -28.1071  -36.2636   24.6286 H   0  0  0  0  0  0
  -27.2300  -37.1456   25.8869 H   0  0  0  0  0  0
  -20.9323  -29.8758   21.6930 H   0  0  0  0  0  0
  -26.0180  -38.2872   24.1411 H   0  0  0  0  0  0
  -28.4911  -17.7868   21.4742 H   0  0  0  0  0  0
  -31.1862  -20.8666   20.0811 H   0  0  0  0  0  0
  -32.2526  -16.7669   19.6163 H   0  0  0  0  0  0
  -29.3783  -24.0959   19.6638 H   0  0  0  0  0  0
  -27.3715  -25.4511   21.5787 H   0  0  0  0  0  0
  -34.8380  -18.9180   18.3776 H   0  0  0  0  0  0
  -33.5994  -17.7258   18.0106 H   0  0  0  0  0  0
  -34.3412  -17.7862   19.6276 H   0  0  0  0  0  0
  -29.0584  -15.4697   21.1243 H   0  0  0  0  0  0
  -29.6040  -21.9054   20.1175 H   0  0  0  0  0  0
  1 25  1  0  0  0
  1 30  2  0  0  0
  1 82  1  0  0  0
  2  3  1  0  0  0
  2 25  1  0  0  0
  2 87  1  0  0  0
  2 88  1  0  0  0
  3  4  1  0  0  0
  3 89  1  0  0  0
  3 90  1  0  0  0
  4  5  1  0  0  0
  4 91  1  0  0  0
  4 92  1  0  0  0
  5  6  1  0  0  0
  5 26  1  0  0  0
  5 93  1  0  0  0
  6 25  1  0  0  0
  6 94  1  0  0  0
  6 95  1  0  0  0
  7  8  2  0  0  0
  7 26  1  0  0  0
  7 29  1  0  0  0
  8  9  1  0  0  0
  8 22  1  0  0  0
  9 10  1  0  0  0
  9 27  2  0  0  0
 10 11  2  0  0  0
 10 15  1  0  0  0
 11 12  1  0  0  0
 11 96  1  0  0  0
 12 13  2  0  0  0
 12 97  1  0  0  0
 13 14  1  0  0  0
 13 31  1  0  0  0
 14 15  2  0  0  0
 14 98  1  0  0  0
 15 99  1  0  0  0
 16 17  2  0  0  0
 16 21  1  0  0  0
 16 31  1  0  0  0
 17 18  1  0  0  0
 17100  1  0  0  0
 18 19  2  0  0  0
 18101  1  0  0  0
 19 20  1  0  0  0
 19 24  1  0  0  0
 20 21  2  0  0  0
 20102  1  0  0  0
 21 23  1  0  0  0
 22 28  1  0  0  0
 22 32  2  0  0  0
 26 27  1  0  0  0
 28103  1  0  0  0
 28104  1  0  0  0
 29105  1  0  0  0
 29106  1  0  0  0
 33 34  1  0  0  0
 33 66  1  0  0  0
 33 70  2  0  0  0
 34 36  1  0  0  0
 34 59  1  0  0  0
 34107  1  0  0  0
 35 44  2  0  0  0
 35 45  1  0  0  0
 35 68  1  0  0  0
 36 56  1  0  0  0
 36108  1  0  0  0
 37 39  1  0  0  0
 37 47  1  0  0  0
 37 66  1  0  0  0
 37109  1  0  0  0
 38 43  2  0  0  0
 38 46  1  0  0  0
 38 47  1  0  0  0
 39 64  1  0  0  0
 39 67  2  0  0  0
 40 52  1  0  0  0
 40 53  2  0  0  0
 40 58  1  0  0  0
 41110  1  0  0  0
 41111  1  0  0  0
 41112  1  0  0  0
 41 48  1  0  0  0
 42 43  1  0  0  0
 42 66  1  0  0  0
 42113  1  0  0  0
 42114  1  0  0  0
 43 44  1  0  0  0
 44115  1  0  0  0
 45 46  2  0  0  0
 45116  1  0  0  0
 46117  1  0  0  0
 47118  1  0  0  0
 47119  1  0  0  0
 48 56  1  0  0  0
 48 65  1  0  0  0
 48120  1  0  0  0
 49 50  1  0  0  0
 49 53  1  0  0  0
 49 64  1  0  0  0
 49121  1  0  0  0
 50 51  1  0  0  0
 50122  1  0  0  0
 50123  1  0  0  0
 51 52  1  0  0  0
 51124  1  0  0  0
 51125  1  0  0  0
 52126  1  0  0  0
 52127  1  0  0  0
 53 54  1  0  0  0
 54 55  2  0  0  0
 54128  1  0  0  0
 55 57  1  0  0  0
 55129  1  0  0  0
 56 69  2  0  0  0
 57 58  2  0  0  0
 57130  1  0  0  0
 58131  1  0  0  0
 59 60  1  0  0  0
 59 61  1  0  0  0
 59 62  1  0  0  0
 60132  1  0  0  0
 60133  1  0  0  0
 60134  1  0  0  0
 61135  1  0  0  0
 61136  1  0  0  0
 61137  1  0  0  0
 62138  1  0  0  0
 62139  1  0  0  0
 62140  1  0  0  0
 63 65  1  0  0  0
 63141  1  0  0  0
 63142  1  0  0  0
 63143  1  0  0  0
 64144  1  0  0  0
 65145  1  0  0  0
 68 78  1  0  0  0
 71 74  2  0  0  0
 71 75  1  0  0  0
 71146  1  0  0  0
 72 74  1  0  0  0
 72 76  2  0  0  0
 72147  1  0  0  0
 73 75  2  0  0  0
 73 76  1  0  0  0
 73148  1  0  0  0
 74 79  1  0  0  0
 75 82  1  0  0  0
 76 86  1  0  0  0
 77 78  2  0  0  0
 77 80  1  0  0  0
 77149  1  0  0  0
 78150  1  0  0  0
 79 83  1  0  0  0
 79 84  2  0  0  0
 80 83  1  0  0  0
 80 85  2  0  0  0
 81 86  1  0  0  0
 81151  1  0  0  0
 81152  1  0  0  0
 81153  1  0  0  0
 82154  1  0  0  0
 83155  1  0  0  0
M  ISO  4   1 100  68 101  78 101  82 100
M  END
> <chiral flag>
0

> <version>
0

> <s_m_source_file>
/data/baiqing/PycharmProjects/Reinvent-master-3.2/result/LINK_invent/BTK/process_docking_weight1_custom_product_contain_oxygen_bond_distance_aromatic_linkinvent_7_9_3/rearranged_h_0083.sdf

> <i_m_source_file_index>
40

> <r_mmod_Potential_Energy-OPLS-2005>
-167.803207397461

> <r_mmod_Stretch_Energy-OPLS-2005>
51.3814392089844

> <r_mmod_Bend_Energy-OPLS-2005>
115.684638977051

> <r_mmod_Torsional_Energy-OPLS-2005>
224.535659790039

> <r_mmod_Improper_Torsional_Energy-OPLS-2005>
4.38627815246582

> <r_mmod_Van_der_Waal_Energy-OPLS-2005>
177.219863891602

> <r_mmod_Electrostatic_Energy-OPLS-2005>
-504.463745117188

> <r_mmod_Solvation_Energy-OPLS-2005>
-264.3505859375

> <b_mmod_Minimization_Converged-OPLS-2005>
0

> <r_mmod_RMS_Derivative-OPLS-2005>
0.369956642389297

$$$$
40
                    3D
 Structure written by MMmdl.
157166  0  0  1  0            999 V2000
  -30.7666  -14.4886   20.5575 C   0  0  0  0  0  0
  -30.4073  -12.3222   19.4273 C   0  0  0  0  0  0
  -29.4859  -12.4889   18.2069 C   0  0  0  0  0  0
  -28.0160  -12.3362   18.6354 C   0  0  0  0  0  0
  -27.6547  -13.2154   19.8623 C   0  0  2  0  0  0
  -28.7041  -13.0813   20.9902 C   0  0  0  0  0  0
  -25.2586  -13.8194   20.5688 C   0  0  0  0  0  0
  -24.1848  -13.0457   20.9206 C   0  0  0  0  0  0
  -24.6407  -11.6922   20.8757 C   0  0  0  0  0  0
  -23.9067  -10.4306   21.0416 C   0  0  0  0  0  0
  -24.3604   -9.4223   21.9203 C   0  0  0  0  0  0
  -23.6282   -8.2254   22.0769 C   0  0  0  0  0  0
  -22.4271   -8.0292   21.3550 C   0  0  0  0  0  0
  -21.9915   -9.0259   20.4643 C   0  0  0  0  0  0
  -22.7238  -10.2144   20.3061 C   0  0  0  0  0  0
  -21.6849   -6.0740   22.5273 C   0  0  0  0  0  0
  -21.4006   -6.5642   23.8204 C   0  0  0  0  0  0
  -21.3657   -5.6796   24.9173 C   0  0  0  0  0  0
  -21.6044   -4.3058   24.7220 C   0  0  0  0  0  0
  -21.8822   -3.8151   23.4341 C   0  0  0  0  0  0
  -21.9191   -4.6971   22.3397 C   0  0  0  0  0  0
  -22.7879  -13.5265   21.1849 C   0  0  0  0  0  0
  -22.1663   -4.2158   21.0971 F   0  0  0  0  0  0
  -21.5631   -3.4538   25.7730 F   0  0  0  0  0  0
  -30.0241  -13.3560   20.4066 N   0  0  0  0  0  0
  -26.3008  -12.9370   20.3353 N   0  0  0  0  0  0
  -25.9340  -11.6530   20.5801 N   0  0  0  0  0  0
  -22.0485  -12.8233   22.0360 N   0  0  0  0  0  0
  -25.4368  -15.1900   20.4081 N   0  0  0  0  0  0
  -31.9221  -14.5415   20.1269 O   0  0  0  0  0  0
  -21.6638   -6.8888   21.4237 O   0  0  0  0  0  0
  -22.3578  -14.5578   20.6711 O   0  0  0  0  0  0
  -24.6147  -31.8664   23.2063 C   0  0  0  0  0  0
  -25.9029  -32.4828   23.8373 C   0  0  1  0  0  0
  -27.2412  -27.4204   20.0858 C   0  0  0  0  0  0
  -25.5868  -33.8637   24.2288 N   0  0  0  0  0  0
  -23.4036  -30.4879   21.5515 C   0  0  2  0  0  0
  -24.8469  -28.9489   20.1141 C   0  0  0  0  0  0
  -22.7403  -29.4648   22.5018 C   0  0  0  0  0  0
  -18.0241  -28.1394   22.8507 C   0  0  0  0  0  0
  -24.1470  -36.7347   23.2645 C   0  0  0  0  0  0
  -25.9308  -30.8280   21.3564 C   0  0  0  0  0  0
  -26.0065  -29.4568   20.7102 C   0  0  0  0  0  0
  -27.1997  -28.6967   20.6997 C   0  0  0  0  0  0
  -26.0574  -26.9262   19.4892 C   0  0  0  0  0  0
  -24.8688  -27.6836   19.5012 C   0  0  0  0  0  0
  -23.6086  -29.8164   20.1676 C   0  0  0  0  0  0
  -25.4097  -36.3145   24.0325 C   0  0  1  0  0  0
  -20.5836  -28.3691   23.1347 C   0  0  2  0  0  0
  -20.6751  -26.9440   22.5435 C   0  0  0  0  0  0
  -19.5716  -26.6408   21.5250 C   0  0  0  0  0  0
  -18.1876  -26.7939   22.1647 C   0  0  0  0  0  0
  -19.1491  -28.8861   23.2911 C   0  0  0  0  0  0
  -18.9431  -30.1472   23.8906 C   0  0  0  0  0  0
  -17.6441  -30.6609   24.0583 C   0  0  0  0  0  0
  -25.9022  -34.9496   23.5103 C   0  0  0  0  0  0
  -16.5326  -29.9130   23.6342 C   0  0  0  0  0  0
  -16.7229  -28.6545   23.0357 C   0  0  0  0  0  0
  -26.4426  -31.6631   25.0728 C   0  0  0  0  0  0
  -25.3670  -31.3770   26.1471 C   0  0  0  0  0  0
  -27.0271  -30.3080   24.6110 C   0  0  0  0  0  0
  -27.5934  -32.4402   25.7523 C   0  0  0  0  0  0
  -27.5569  -37.1839   24.8449 C   0  0  0  0  0  0
  -21.4127  -29.3059   22.3765 N   0  0  0  0  0  0
  -26.4285  -37.3825   23.9397 N   0  0  0  0  0  0
  -24.6693  -31.0743   22.0980 N   0  0  0  0  0  0
  -23.4172  -28.8181   23.3053 O   0  0  0  0  0  0
  -28.4394  -26.7249   20.1010 O   0  0  0  0  0  0
  -26.5604  -34.8942   22.4683 O   0  0  0  0  0  0
  -23.5343  -32.1423   23.7468 O   0  0  0  0  0  0
  -29.2433  -18.4500   20.2627 C   0  0  0  0  0  0
  -28.7500  -19.7754   20.1605 C   0  0  0  0  0  0
  -30.3007  -19.0213   22.3732 C   0  0  0  0  0  0
  -27.6053  -24.0755   21.3861 C   0  0  0  0  0  0
  -28.9779  -22.9810   19.9978 C   0  0  0  0  0  0
  -30.0434  -18.0619   21.3651 C   0  0  0  0  0  0
  -28.4114  -24.2211   20.2176 C   0  0  0  0  0  0
  -29.0422  -20.7399   21.1537 C   0  0  0  0  0  0
  -29.7970  -20.3358   22.2874 C   0  0  0  0  0  0
  -27.7521  -22.7960   21.8401 C   0  0  0  0  0  0
  -30.7722  -16.7349   21.4059 C   0  0  0  0  0  0
  -28.6062  -25.4871   19.3828 C   0  0  0  0  0  0
  -28.6016  -22.0935   21.0031 N   0  0  0  0  0  0
  -30.0722  -21.2192   23.3337 N   0  0  0  0  0  0
  -30.1392  -15.6047   21.0055 N   0  0  0  0  0  0
  -31.9301  -16.7443   21.8439 O   0  0  0  0  0  0
  -27.2052  -22.2087   22.9382 O   0  0  0  0  0  0
  -31.4517  -12.3833   19.1176 H   0  0  0  0  0  0
  -30.2901  -11.3296   19.8631 H   0  0  0  0  0  0
  -29.7307  -11.7529   17.4393 H   0  0  0  0  0  0
  -29.6429  -13.4694   17.7551 H   0  0  0  0  0  0
  -27.8561  -11.2862   18.8788 H   0  0  0  0  0  0
  -27.3509  -12.5584   17.8007 H   0  0  0  0  0  0
  -27.6758  -14.2479   19.5145 H   0  0  0  0  0  0
  -28.6927  -12.0777   21.4179 H   0  0  0  0  0  0
  -28.4770  -13.7614   21.8124 H   0  0  0  0  0  0
  -25.2740   -9.5702   22.4788 H   0  0  0  0  0  0
  -23.9982   -7.4662   22.7509 H   0  0  0  0  0  0
  -21.0852   -8.8783   19.8942 H   0  0  0  0  0  0
  -22.3709  -10.9684   19.6166 H   0  0  0  0  0  0
  -21.1996   -7.6147   23.9713 H   0  0  0  0  0  0
  -21.1475   -6.0523   25.9078 H   0  0  0  0  0  0
  -22.0598   -2.7613   23.2835 H   0  0  0  0  0  0
  -22.4042  -11.9836   22.4680 H   0  0  0  0  0  0
  -21.1129  -13.1309   22.2584 H   0  0  0  0  0  0
  -24.6814  -15.8555   20.5280 H   0  0  0  0  0  0
  -26.2878  -15.6165   20.0627 H   0  0  0  0  0  0
  -26.7104  -32.5528   23.1143 H   0  0  0  0  0  0
  -25.0000  -33.9796   25.0427 H   0  0  0  0  0  0
  -22.6942  -31.3061   21.4130 H   0  0  0  0  0  0
  -23.3741  -35.9676   23.3285 H   0  0  0  0  0  0
  -24.3563  -36.9015   22.2072 H   0  0  0  0  0  0
  -23.7206  -37.6526   23.6694 H   0  0  0  0  0  0
  -26.0250  -31.5881   20.5800 H   0  0  0  0  0  0
  -26.8259  -30.8982   21.9638 H   0  0  0  0  0  0
  -28.0965  -29.0875   21.1626 H   0  0  0  0  0  0
  -26.0266  -25.9562   19.0146 H   0  0  0  0  0  0
  -23.9788  -27.2849   19.0340 H   0  0  0  0  0  0
  -23.7128  -30.5902   19.4063 H   0  0  0  0  0  0
  -22.7317  -29.2364   19.8745 H   0  0  0  0  0  0
  -25.1274  -36.2010   25.0815 H   0  0  0  0  0  0
  -20.9894  -28.3270   24.1493 H   0  0  0  0  0  0
  -20.5751  -26.2291   23.3614 H   0  0  0  0  0  0
  -21.6610  -26.7544   22.1187 H   0  0  0  0  0  0
  -19.6894  -25.6336   21.1255 H   0  0  0  0  0  0
  -19.6640  -27.3250   20.6806 H   0  0  0  0  0  0
  -17.4163  -26.6717   21.4021 H   0  0  0  0  0  0
  -18.0226  -26.0077   22.9035 H   0  0  0  0  0  0
  -19.7918  -30.7287   24.2263 H   0  0  0  0  0  0
  -17.5007  -31.6286   24.5217 H   0  0  0  0  0  0
  -15.5339  -30.3056   23.7664 H   0  0  0  0  0  0
  -15.8615  -28.0910   22.7058 H   0  0  0  0  0  0
  -24.5836  -30.7100   25.7830 H   0  0  0  0  0  0
  -24.8857  -32.2951   26.4850 H   0  0  0  0  0  0
  -25.8011  -30.9005   27.0266 H   0  0  0  0  0  0
  -26.2859  -29.6892   24.1026 H   0  0  0  0  0  0
  -27.3904  -29.7247   25.4577 H   0  0  0  0  0  0
  -27.8718  -30.4417   23.9348 H   0  0  0  0  0  0
  -27.2475  -33.3702   26.2050 H   0  0  0  0  0  0
  -28.3767  -32.6992   25.0390 H   0  0  0  0  0  0
  -28.0552  -31.8576   26.5509 H   0  0  0  0  0  0
  -28.2568  -38.0154   24.7534 H   0  0  0  0  0  0
  -28.1080  -36.2682   24.6236 H   0  0  0  0  0  0
  -27.2277  -37.1444   25.8847 H   0  0  0  0  0  0
  -20.9282  -29.8808   21.7010 H   0  0  0  0  0  0
  -26.0173  -38.2900   24.1422 H   0  0  0  0  0  0
  -29.0526  -17.7534   19.4595 H   0  0  0  0  0  0
  -28.1532  -20.0595   19.3045 H   0  0  0  0  0  0
  -30.9351  -18.7515   23.2071 H   0  0  0  0  0  0
  -27.0073  -24.8441   21.8555 H   0  0  0  0  0  0
  -29.6546  -22.6506   19.2207 H   0  0  0  0  0  0
  -28.0125  -25.4448   18.4704 H   0  0  0  0  0  0
  -29.6415  -25.4807   19.0354 H   0  0  0  0  0  0
  -30.8200  -20.9884   23.9799 H   0  0  0  0  0  0
  -30.0162  -22.2148   23.1384 H   0  0  0  0  0  0
  -29.1344  -15.6208   20.9751 H   0  0  0  0  0  0
  -27.7684  -21.4693   23.1635 H   0  0  0  0  0  0
  1 25  1  0  0  0
  1 30  2  0  0  0
  1 85  1  0  0  0
  2  3  1  0  0  0
  2 25  1  0  0  0
  2 88  1  0  0  0
  2 89  1  0  0  0
  3  4  1  0  0  0
  3 90  1  0  0  0
  3 91  1  0  0  0
  4  5  1  0  0  0
  4 92  1  0  0  0
  4 93  1  0  0  0
  5  6  1  0  0  0
  5 26  1  0  0  0
  5 94  1  0  0  0
  6 25  1  0  0  0
  6 95  1  0  0  0
  6 96  1  0  0  0
  7  8  2  0  0  0
  7 26  1  0  0  0
  7 29  1  0  0  0
  8  9  1  0  0  0
  8 22  1  0  0  0
  9 10  1  0  0  0
  9 27  2  0  0  0
 10 11  2  0  0  0
 10 15  1  0  0  0
 11 12  1  0  0  0
 11 97  1  0  0  0
 12 13  2  0  0  0
 12 98  1  0  0  0
 13 14  1  0  0  0
 13 31  1  0  0  0
 14 15  2  0  0  0
 14 99  1  0  0  0
 15100  1  0  0  0
 16 17  2  0  0  0
 16 21  1  0  0  0
 16 31  1  0  0  0
 17 18  1  0  0  0
 17101  1  0  0  0
 18 19  2  0  0  0
 18102  1  0  0  0
 19 20  1  0  0  0
 19 24  1  0  0  0
 20 21  2  0  0  0
 20103  1  0  0  0
 21 23  1  0  0  0
 22 28  1  0  0  0
 22 32  2  0  0  0
 26 27  1  0  0  0
 28104  1  0  0  0
 28105  1  0  0  0
 29106  1  0  0  0
 29107  1  0  0  0
 33 34  1  0  0  0
 33 66  1  0  0  0
 33 70  2  0  0  0
 34 36  1  0  0  0
 34 59  1  0  0  0
 34108  1  0  0  0
 35 44  2  0  0  0
 35 45  1  0  0  0
 35 68  1  0  0  0
 36 56  1  0  0  0
 36109  1  0  0  0
 37 39  1  0  0  0
 37 47  1  0  0  0
 37 66  1  0  0  0
 37110  1  0  0  0
 38 43  2  0  0  0
 38 46  1  0  0  0
 38 47  1  0  0  0
 39 64  1  0  0  0
 39 67  2  0  0  0
 40 52  1  0  0  0
 40 53  2  0  0  0
 40 58  1  0  0  0
 41111  1  0  0  0
 41112  1  0  0  0
 41113  1  0  0  0
 41 48  1  0  0  0
 42 43  1  0  0  0
 42 66  1  0  0  0
 42114  1  0  0  0
 42115  1  0  0  0
 43 44  1  0  0  0
 44116  1  0  0  0
 45 46  2  0  0  0
 45117  1  0  0  0
 46118  1  0  0  0
 47119  1  0  0  0
 47120  1  0  0  0
 48 56  1  0  0  0
 48 65  1  0  0  0
 48121  1  0  0  0
 49 50  1  0  0  0
 49 53  1  0  0  0
 49 64  1  0  0  0
 49122  1  0  0  0
 50 51  1  0  0  0
 50123  1  0  0  0
 50124  1  0  0  0
 51 52  1  0  0  0
 51125  1  0  0  0
 51126  1  0  0  0
 52127  1  0  0  0
 52128  1  0  0  0
 53 54  1  0  0  0
 54 55  2  0  0  0
 54129  1  0  0  0
 55 57  1  0  0  0
 55130  1  0  0  0
 56 69  2  0  0  0
 57 58  2  0  0  0
 57131  1  0  0  0
 58132  1  0  0  0
 59 60  1  0  0  0
 59 61  1  0  0  0
 59 62  1  0  0  0
 60133  1  0  0  0
 60134  1  0  0  0
 60135  1  0  0  0
 61136  1  0  0  0
 61137  1  0  0  0
 61138  1  0  0  0
 62139  1  0  0  0
 62140  1  0  0  0
 62141  1  0  0  0
 63 65  1  0  0  0
 63142  1  0  0  0
 63143  1  0  0  0
 63144  1  0  0  0
 64145  1  0  0  0
 65146  1  0  0  0
 68 82  1  0  0  0
 71 72  2  0  0  0
 71 76  1  0  0  0
 71147  1  0  0  0
 72 78  1  0  0  0
 72148  1  0  0  0
 73 76  2  0  0  0
 73 79  1  0  0  0
 73149  1  0  0  0
 74 77  1  0  0  0
 74 80  2  0  0  0
 74150  1  0  0  0
 75 77  2  0  0  0
 75 83  1  0  0  0
 75151  1  0  0  0
 76 81  1  0  0  0
 77 82  1  0  0  0
 78 79  2  0  0  0
 78 83  1  0  0  0
 79 84  1  0  0  0
 80 83  1  0  0  0
 80 87  1  0  0  0
 81 85  1  0  0  0
 81 86  2  0  0  0
 82152  1  0  0  0
 82153  1  0  0  0
 84154  1  0  0  0
 84155  1  0  0  0
 85156  1  0  0  0
 87157  1  0  0  0
M  ISO  4   1 100  68 101  82 101  85 100
M  END
> <chiral flag>
0

> <version>
0

> <s_m_source_file>
/data/baiqing/PycharmProjects/Reinvent-master-3.2/result/LINK_invent/BTK/process_docking_weight1_custom_product_contain_oxygen_bond_distance_aromatic_linkinvent_7_9_3/rearranged_h_0083.sdf

> <i_m_source_file_index>
41

> <r_mmod_Potential_Energy-OPLS-2005>
-125.438537597656

> <r_mmod_Stretch_Energy-OPLS-2005>
41.4981460571289

> <r_mmod_Bend_Energy-OPLS-2005>
113.782608032227

> <r_mmod_Torsional_Energy-OPLS-2005>
251.947662353516

> <r_mmod_Improper_Torsional_Energy-OPLS-2005>
8.21537399291992

> <r_mmod_Van_der_Waal_Energy-OPLS-2005>
157.621459960938

> <r_mmod_Electrostatic_Energy-OPLS-2005>
-478.122985839844

> <r_mmod_Solvation_Energy-OPLS-2005>
-241.640823364258

> <b_mmod_Minimization_Converged-OPLS-2005>
0

> <r_mmod_RMS_Derivative-OPLS-2005>
3.08205795288086

$$$$
41
                    3D
 Structure written by MMmdl.
160169  0  0  1  0            999 V2000
  -30.5779  -14.8190   20.4081 C   0  0  0  0  0  0
  -30.4307  -12.4886   19.4915 C   0  0  0  0  0  0
  -29.5244  -12.5233   18.2404 C   0  0  0  0  0  0
  -28.0462  -12.3403   18.6362 C   0  0  0  0  0  0
  -27.6376  -13.2395   19.8350 C   0  0  2  0  0  0
  -28.6767  -13.2006   20.9755 C   0  0  0  0  0  0
  -25.2480  -13.8166   20.5639 C   0  0  0  0  0  0
  -24.1789  -13.0403   20.9140 C   0  0  0  0  0  0
  -24.6402  -11.6882   20.8663 C   0  0  0  0  0  0
  -23.9122  -10.4255   21.0365 C   0  0  0  0  0  0
  -24.3616   -9.4150   21.9172 C   0  0  0  0  0  0
  -23.6237   -8.2223   22.0793 C   0  0  0  0  0  0
  -22.4214   -8.0295   21.3576 C   0  0  0  0  0  0
  -21.9866   -9.0270   20.4680 C   0  0  0  0  0  0
  -22.7266  -10.2108   20.3060 C   0  0  0  0  0  0
  -21.6826   -6.0726   22.5262 C   0  0  0  0  0  0
  -21.4028   -6.5609   23.8215 C   0  0  0  0  0  0
  -21.3660   -5.6740   24.9163 C   0  0  0  0  0  0
  -21.6030   -4.3021   24.7168 C   0  0  0  0  0  0
  -21.8821   -3.8142   23.4289 C   0  0  0  0  0  0
  -21.9186   -4.6972   22.3362 C   0  0  0  0  0  0
  -22.7817  -13.5233   21.1805 C   0  0  0  0  0  0
  -22.1657   -4.2168   21.0933 F   0  0  0  0  0  0
  -21.5618   -3.4524   25.7697 F   0  0  0  0  0  0
  -29.9749  -13.5733   20.4012 N   0  0  0  0  0  0
  -26.2903  -12.9421   20.3167 N   0  0  0  0  0  0
  -25.9331  -11.6548   20.5649 N   0  0  0  0  0  0
  -22.0409  -12.8282   22.0363 N   0  0  0  0  0  0
  -25.4105  -15.1911   20.4045 N   0  0  0  0  0  0
  -31.7718  -14.8838   20.1031 O   0  0  0  0  0  0
  -21.6596   -6.8875   21.4242 O   0  0  0  0  0  0
  -22.3568  -14.5550   20.6683 O   0  0  0  0  0  0
  -24.6430  -31.8530   23.1889 C   0  0  0  0  0  0
  -25.9223  -32.4739   23.8261 C   0  0  1  0  0  0
  -27.2304  -27.2107   20.1349 C   0  0  0  0  0  0
  -25.5968  -33.8535   24.2211 N   0  0  0  0  0  0
  -23.4450  -30.4708   21.5361 C   0  0  2  0  0  0
  -24.8975  -28.9107   20.1052 C   0  0  0  0  0  0
  -22.7584  -29.4604   22.4871 C   0  0  0  0  0  0
  -18.0331  -28.1448   22.8506 C   0  0  0  0  0  0
  -24.1487  -36.7261   23.2630 C   0  0  0  0  0  0
  -25.9960  -30.7484   21.3792 C   0  0  0  0  0  0
  -26.0719  -29.3651   20.7194 C   0  0  0  0  0  0
  -27.2464  -28.5301   20.7182 C   0  0  0  0  0  0
  -26.0328  -26.8355   19.4953 C   0  0  0  0  0  0
  -24.8885  -27.6571   19.4754 C   0  0  0  0  0  0
  -23.6661  -29.7995   20.1543 C   0  0  0  0  0  0
  -25.4118  -36.3062   24.0329 C   0  0  1  0  0  0
  -20.5940  -28.3778   23.1238 C   0  0  2  0  0  0
  -20.6829  -26.9471   22.5427 C   0  0  0  0  0  0
  -19.5787  -26.6439   21.5244 C   0  0  0  0  0  0
  -18.1967  -26.8012   22.1636 C   0  0  0  0  0  0
  -19.1588  -28.8931   23.2870 C   0  0  0  0  0  0
  -18.9495  -30.1525   23.8895 C   0  0  0  0  0  0
  -17.6482  -30.6633   24.0582 C   0  0  0  0  0  0
  -25.9083  -34.9424   23.5078 C   0  0  0  0  0  0
  -16.5380  -29.9135   23.6324 C   0  0  0  0  0  0
  -16.7308  -28.6560   23.0349 C   0  0  0  0  0  0
  -26.4522  -31.6575   25.0681 C   0  0  0  0  0  0
  -25.3671  -31.3836   26.1364 C   0  0  0  0  0  0
  -27.0335  -30.2952   24.6263 C   0  0  0  0  0  0
  -27.6100  -32.4293   25.7453 C   0  0  0  0  0  0
  -27.5604  -37.1769   24.8440 C   0  0  0  0  0  0
  -21.4287  -29.3092   22.3605 N   0  0  0  0  0  0
  -26.4277  -37.3792   23.9438 N   0  0  0  0  0  0
  -24.7136  -31.0430   22.0900 N   0  0  0  0  0  0
  -23.4235  -28.8149   23.3005 O   0  0  0  0  0  0
  -28.2688  -26.2352   20.1332 O   0  0  0  0  0  0
  -26.5656  -34.8925   22.4644 O   0  0  0  0  0  0
  -23.5561  -32.1348   23.7157 O   0  0  0  0  0  0
  -30.3755  -20.0794   19.0379 C   0  0  0  0  0  0
  -30.9028  -17.6656   19.0854 C   0  0  0  0  0  0
  -29.2657  -18.5995   20.6029 C   0  0  0  0  0  0
  -31.0768  -18.9551   18.5421 C   0  0  0  0  0  0
  -29.4456  -19.9864   20.1027 C   0  0  0  0  0  0
  -29.9937  -17.4084   20.1351 C   0  0  0  0  0  0
  -28.3901  -23.7493   21.1532 C   0  0  0  0  0  0
  -28.1212  -23.2125   22.4710 C   0  0  0  0  0  0
  -28.8591  -22.6279   20.2073 C   0  0  0  0  0  0
  -28.7253  -23.6815   23.5808 C   0  0  0  0  0  0
  -28.1584  -25.1453   21.0550 C   0  0  0  0  0  0
  -27.1818  -22.0558   22.5081 C   0  0  0  0  0  0
  -27.8273  -20.9025   21.7428 C   0  0  0  0  0  0
  -32.0235  -19.1259   17.3699 C   0  0  0  0  0  0
  -28.7533  -21.2492   20.6377 N   0  0  0  0  0  0
  -29.8082  -15.9799   20.6009 N   0  0  0  0  0  0
  -29.3022  -22.9165   19.0949 O   0  0  0  0  0  0
  -31.4771  -12.5972   19.2007 H   0  0  0  0  0  0
  -30.3608  -11.5184   19.9871 H   0  0  0  0  0  0
  -29.8323  -11.7565   17.5284 H   0  0  0  0  0  0
  -29.6422  -13.4756   17.7211 H   0  0  0  0  0  0
  -27.8903  -11.2923   18.8887 H   0  0  0  0  0  0
  -27.4109  -12.5446   17.7745 H   0  0  0  0  0  0
  -27.6148  -14.2534   19.4369 H   0  0  0  0  0  0
  -28.7254  -12.2040   21.4133 H   0  0  0  0  0  0
  -28.3936  -13.8778   21.7810 H   0  0  0  0  0  0
  -25.2753   -9.5559   22.4771 H   0  0  0  0  0  0
  -23.9897   -7.4596   22.7521 H   0  0  0  0  0  0
  -21.0795   -8.8828   19.8949 H   0  0  0  0  0  0
  -22.3753  -10.9652   19.6176 H   0  0  0  0  0  0
  -21.2057   -7.6116   23.9730 H   0  0  0  0  0  0
  -21.1492   -6.0466   25.9064 H   0  0  0  0  0  0
  -22.0609   -2.7609   23.2770 H   0  0  0  0  0  0
  -22.3900  -11.9948   22.4838 H   0  0  0  0  0  0
  -21.1118  -13.1559   22.2565 H   0  0  0  0  0  0
  -24.6218  -15.8273   20.4665 H   0  0  0  0  0  0
  -26.2379  -15.6271   20.0189 H   0  0  0  0  0  0
  -26.7313  -32.5361   23.1025 H   0  0  0  0  0  0
  -25.0088  -33.9627   25.0340 H   0  0  0  0  0  0
  -22.7475  -31.2974   21.3860 H   0  0  0  0  0  0
  -23.3792  -35.9542   23.3229 H   0  0  0  0  0  0
  -24.3603  -36.8943   22.2053 H   0  0  0  0  0  0
  -23.7177  -37.6419   23.6698 H   0  0  0  0  0  0
  -26.1500  -31.5115   20.6144 H   0  0  0  0  0  0
  -26.8679  -30.7948   22.0196 H   0  0  0  0  0  0
  -28.1498  -28.8825   21.1951 H   0  0  0  0  0  0
  -25.9753  -25.8624   19.0276 H   0  0  0  0  0  0
  -23.9928  -27.3092   18.9783 H   0  0  0  0  0  0
  -23.7912  -30.5712   19.3930 H   0  0  0  0  0  0
  -22.7824  -29.2335   19.8495 H   0  0  0  0  0  0
  -25.1296  -36.1915   25.0825 H   0  0  0  0  0  0
  -21.0030  -28.3392   24.1355 H   0  0  0  0  0  0
  -20.5785  -26.2359   23.3647 H   0  0  0  0  0  0
  -21.6691  -26.7548   22.1178 H   0  0  0  0  0  0
  -19.6918  -25.6348   21.1296 H   0  0  0  0  0  0
  -19.6708  -27.3231   20.6753 H   0  0  0  0  0  0
  -17.4249  -26.6800   21.4024 H   0  0  0  0  0  0
  -18.0286  -26.0175   22.9018 H   0  0  0  0  0  0
  -19.7947  -30.7367   24.2260 H   0  0  0  0  0  0
  -17.5027  -31.6299   24.5221 H   0  0  0  0  0  0
  -15.5381  -30.3013   23.7682 H   0  0  0  0  0  0
  -15.8709  -28.0879   22.7055 H   0  0  0  0  0  0
  -24.5824  -30.7225   25.7682 H   0  0  0  0  0  0
  -24.8871  -32.3041   26.4694 H   0  0  0  0  0  0
  -25.7873  -30.9056   27.0212 H   0  0  0  0  0  0
  -26.2922  -29.6718   24.1273 H   0  0  0  0  0  0
  -27.3906  -29.7272   25.4856 H   0  0  0  0  0  0
  -27.8848  -30.4166   23.9578 H   0  0  0  0  0  0
  -27.2782  -33.3623   26.2038 H   0  0  0  0  0  0
  -28.3891  -32.6816   25.0243 H   0  0  0  0  0  0
  -28.0783  -31.8398   26.5351 H   0  0  0  0  0  0
  -28.2583  -38.0115   24.7620 H   0  0  0  0  0  0
  -28.1156  -36.2670   24.6097 H   0  0  0  0  0  0
  -27.2357  -37.1222   25.8848 H   0  0  0  0  0  0
  -20.9534  -29.8700   21.6674 H   0  0  0  0  0  0
  -26.0160  -38.2862   24.1502 H   0  0  0  0  0  0
  -30.5754  -21.0238   18.5563 H   0  0  0  0  0  0
  -31.4620  -16.8578   18.6394 H   0  0  0  0  0  0
  -28.5400  -18.4156   21.3826 H   0  0  0  0  0  0
  -29.4335  -24.4967   23.5306 H   0  0  0  0  0  0
  -28.5539  -23.2346   24.5532 H   0  0  0  0  0  0
  -27.7941  -25.5987   21.9663 H   0  0  0  0  0  0
  -26.2608  -22.3710   22.0146 H   0  0  0  0  0  0
  -26.9100  -21.7616   23.5235 H   0  0  0  0  0  0
  -27.0416  -20.2503   21.3603 H   0  0  0  0  0  0
  -28.3962  -20.3341   22.4791 H   0  0  0  0  0  0
  -32.4832  -20.1141   17.3647 H   0  0  0  0  0  0
  -31.4711  -18.9983   16.4379 H   0  0  0  0  0  0
  -32.8266  -18.3882   17.4018 H   0  0  0  0  0  0
  -28.9151  -15.7885   21.0301 H   0  0  0  0  0  0
  1 25  1  0  0  0
  1 30  2  0  0  0
  1 86  1  0  0  0
  2  3  1  0  0  0
  2 25  1  0  0  0
  2 88  1  0  0  0
  2 89  1  0  0  0
  3  4  1  0  0  0
  3 90  1  0  0  0
  3 91  1  0  0  0
  4  5  1  0  0  0
  4 92  1  0  0  0
  4 93  1  0  0  0
  5  6  1  0  0  0
  5 26  1  0  0  0
  5 94  1  0  0  0
  6 25  1  0  0  0
  6 95  1  0  0  0
  6 96  1  0  0  0
  7  8  2  0  0  0
  7 26  1  0  0  0
  7 29  1  0  0  0
  8  9  1  0  0  0
  8 22  1  0  0  0
  9 10  1  0  0  0
  9 27  2  0  0  0
 10 11  2  0  0  0
 10 15  1  0  0  0
 11 12  1  0  0  0
 11 97  1  0  0  0
 12 13  2  0  0  0
 12 98  1  0  0  0
 13 14  1  0  0  0
 13 31  1  0  0  0
 14 15  2  0  0  0
 14 99  1  0  0  0
 15100  1  0  0  0
 16 17  2  0  0  0
 16 21  1  0  0  0
 16 31  1  0  0  0
 17 18  1  0  0  0
 17101  1  0  0  0
 18 19  2  0  0  0
 18102  1  0  0  0
 19 20  1  0  0  0
 19 24  1  0  0  0
 20 21  2  0  0  0
 20103  1  0  0  0
 21 23  1  0  0  0
 22 28  1  0  0  0
 22 32  2  0  0  0
 26 27  1  0  0  0
 28104  1  0  0  0
 28105  1  0  0  0
 29106  1  0  0  0
 29107  1  0  0  0
 33 34  1  0  0  0
 33 66  1  0  0  0
 33 70  2  0  0  0
 34 36  1  0  0  0
 34 59  1  0  0  0
 34108  1  0  0  0
 35 44  2  0  0  0
 35 45  1  0  0  0
 35 68  1  0  0  0
 36 56  1  0  0  0
 36109  1  0  0  0
 37 39  1  0  0  0
 37 47  1  0  0  0
 37 66  1  0  0  0
 37110  1  0  0  0
 38 43  2  0  0  0
 38 46  1  0  0  0
 38 47  1  0  0  0
 39 64  1  0  0  0
 39 67  2  0  0  0
 40 52  1  0  0  0
 40 53  2  0  0  0
 40 58  1  0  0  0
 41111  1  0  0  0
 41112  1  0  0  0
 41113  1  0  0  0
 41 48  1  0  0  0
 42 43  1  0  0  0
 42 66  1  0  0  0
 42114  1  0  0  0
 42115  1  0  0  0
 43 44  1  0  0  0
 44116  1  0  0  0
 45 46  2  0  0  0
 45117  1  0  0  0
 46118  1  0  0  0
 47119  1  0  0  0
 47120  1  0  0  0
 48 56  1  0  0  0
 48 65  1  0  0  0
 48121  1  0  0  0
 49 50  1  0  0  0
 49 53  1  0  0  0
 49 64  1  0  0  0
 49122  1  0  0  0
 50 51  1  0  0  0
 50123  1  0  0  0
 50124  1  0  0  0
 51 52  1  0  0  0
 51125  1  0  0  0
 51126  1  0  0  0
 52127  1  0  0  0
 52128  1  0  0  0
 53 54  1  0  0  0
 54 55  2  0  0  0
 54129  1  0  0  0
 55 57  1  0  0  0
 55130  1  0  0  0
 56 69  2  0  0  0
 57 58  2  0  0  0
 57131  1  0  0  0
 58132  1  0  0  0
 59 60  1  0  0  0
 59 61  1  0  0  0
 59 62  1  0  0  0
 60133  1  0  0  0
 60134  1  0  0  0
 60135  1  0  0  0
 61136  1  0  0  0
 61137  1  0  0  0
 61138  1  0  0  0
 62139  1  0  0  0
 62140  1  0  0  0
 62141  1  0  0  0
 63 65  1  0  0  0
 63142  1  0  0  0
 63143  1  0  0  0
 63144  1  0  0  0
 64145  1  0  0  0
 65146  1  0  0  0
 68 81  1  0  0  0
 71 74  2  0  0  0
 71 75  1  0  0  0
 71147  1  0  0  0
 72 74  1  0  0  0
 72 76  2  0  0  0
 72148  1  0  0  0
 73 75  2  0  0  0
 73 76  1  0  0  0
 73149  1  0  0  0
 74 84  1  0  0  0
 75 85  1  0  0  0
 76 86  1  0  0  0
 77 78  1  0  0  0
 77 79  1  0  0  0
 77 81  2  0  0  0
 78 80  2  0  0  0
 78 82  1  0  0  0
 79 85  1  0  0  0
 79 87  2  0  0  0
 80150  1  0  0  0
 80151  1  0  0  0
 81152  1  0  0  0
 82 83  1  0  0  0
 82153  1  0  0  0
 82154  1  0  0  0
 83 85  1  0  0  0
 83155  1  0  0  0
 83156  1  0  0  0
 84157  1  0  0  0
 84158  1  0  0  0
 84159  1  0  0  0
 86160  1  0  0  0
M  ISO  4   1 100  68 101  81 101  86 100
M  END
> <chiral flag>
0

> <version>
0

> <s_m_source_file>
/data/baiqing/PycharmProjects/Reinvent-master-3.2/result/LINK_invent/BTK/process_docking_weight1_custom_product_contain_oxygen_bond_distance_aromatic_linkinvent_7_9_3/rearranged_h_0083.sdf

> <i_m_source_file_index>
42

> <r_mmod_Potential_Energy-OPLS-2005>
548.713684082031

> <r_mmod_Stretch_Energy-OPLS-2005>
199.055648803711

> <r_mmod_Bend_Energy-OPLS-2005>
270.174926757812

> <r_mmod_Torsional_Energy-OPLS-2005>
297.056518554688

> <r_mmod_Improper_Torsional_Energy-OPLS-2005>
4.32771444320679

> <r_mmod_Van_der_Waal_Energy-OPLS-2005>
163.161819458008

> <r_mmod_Electrostatic_Energy-OPLS-2005>
-294.588134765625

> <r_mmod_Solvation_Energy-OPLS-2005>
-214.439697265625

> <b_mmod_Minimization_Converged-OPLS-2005>
0

> <r_mmod_RMS_Derivative-OPLS-2005>
5.99181652069092

$$$$
42
                    3D
 Structure written by MMmdl.
154163  0  0  1  0            999 V2000
  -30.5788  -14.6847   20.4212 C   0  0  0  0  0  0
  -30.4456  -12.4011   19.4654 C   0  0  0  0  0  0
  -29.5173  -12.5011   18.2322 C   0  0  0  0  0  0
  -28.0387  -12.3279   18.6374 C   0  0  0  0  0  0
  -27.6486  -13.2142   19.8486 C   0  0  2  0  0  0
  -28.6927  -13.1037   20.9802 C   0  0  0  0  0  0
  -25.2570  -13.8155   20.5676 C   0  0  0  0  0  0
  -24.1828  -13.0430   20.9171 C   0  0  0  0  0  0
  -24.6390  -11.6898   20.8725 C   0  0  0  0  0  0
  -23.9060  -10.4285   21.0403 C   0  0  0  0  0  0
  -24.3614   -9.4204   21.9182 C   0  0  0  0  0  0
  -23.6287   -8.2243   22.0758 C   0  0  0  0  0  0
  -22.4270   -8.0281   21.3543 C   0  0  0  0  0  0
  -21.9901   -9.0257   20.4648 C   0  0  0  0  0  0
  -22.7233  -10.2133   20.3051 C   0  0  0  0  0  0
  -21.6856   -6.0731   22.5278 C   0  0  0  0  0  0
  -21.4017   -6.5637   23.8209 C   0  0  0  0  0  0
  -21.3655   -5.6792   24.9173 C   0  0  0  0  0  0
  -21.6042   -4.3054   24.7227 C   0  0  0  0  0  0
  -21.8822   -3.8143   23.4350 C   0  0  0  0  0  0
  -21.9195   -4.6959   22.3403 C   0  0  0  0  0  0
  -22.7851  -13.5228   21.1847 C   0  0  0  0  0  0
  -22.1664   -4.2142   21.0982 F   0  0  0  0  0  0
  -21.5624   -3.4541   25.7743 F   0  0  0  0  0  0
  -30.0154  -13.4339   20.4287 N   0  0  0  0  0  0
  -26.2974  -12.9319   20.3257 N   0  0  0  0  0  0
  -25.9311  -11.6479   20.5721 N   0  0  0  0  0  0
  -22.0506  -12.8219   22.0413 N   0  0  0  0  0  0
  -25.4331  -15.1871   20.4136 N   0  0  0  0  0  0
  -31.7856  -14.8096   20.2054 O   0  0  0  0  0  0
  -21.6637   -6.8875   21.4239 O   0  0  0  0  0  0
  -22.3536  -14.5535   20.6703 O   0  0  0  0  0  0
  -24.6251  -31.8589   23.2016 C   0  0  0  0  0  0
  -25.9103  -32.4776   23.8344 C   0  0  1  0  0  0
  -27.2353  -27.3237   20.1345 C   0  0  0  0  0  0
  -25.5919  -33.8571   24.2281 N   0  0  0  0  0  0
  -23.4192  -30.4782   21.5441 C   0  0  2  0  0  0
  -24.8699  -28.9218   20.1244 C   0  0  0  0  0  0
  -22.7468  -29.4611   22.4958 C   0  0  0  0  0  0
  -18.0280  -28.1382   22.8484 C   0  0  0  0  0  0
  -24.1484  -36.7290   23.2634 C   0  0  0  0  0  0
  -25.9569  -30.7921   21.3698 C   0  0  0  0  0  0
  -26.0361  -29.4133   20.7259 C   0  0  0  0  0  0
  -27.2250  -28.6264   20.7187 C   0  0  0  0  0  0
  -26.0480  -26.8700   19.5271 C   0  0  0  0  0  0
  -24.8751  -27.6536   19.5184 C   0  0  0  0  0  0
  -23.6372  -29.8033   20.1634 C   0  0  0  0  0  0
  -25.4109  -36.3083   24.0331 C   0  0  1  0  0  0
  -20.5879  -28.3681   23.1291 C   0  0  2  0  0  0
  -20.6770  -26.9405   22.5410 C   0  0  0  0  0  0
  -19.5747  -26.6384   21.5210 C   0  0  0  0  0  0
  -18.1928  -26.7927   22.1622 C   0  0  0  0  0  0
  -19.1531  -28.8850   23.2879 C   0  0  0  0  0  0
  -18.9455  -30.1457   23.8890 C   0  0  0  0  0  0
  -17.6456  -30.6587   24.0564 C   0  0  0  0  0  0
  -25.9044  -34.9450   23.5111 C   0  0  0  0  0  0
  -16.5348  -29.9083   23.6329 C   0  0  0  0  0  0
  -16.7267  -28.6500   23.0347 C   0  0  0  0  0  0
  -26.4494  -31.6577   25.0706 C   0  0  0  0  0  0
  -25.3735  -31.3710   26.1439 C   0  0  0  0  0  0
  -27.0324  -30.3002   24.6138 C   0  0  0  0  0  0
  -27.6056  -32.4301   25.7481 C   0  0  0  0  0  0
  -27.5584  -37.1797   24.8463 C   0  0  0  0  0  0
  -21.4185  -29.3034   22.3693 N   0  0  0  0  0  0
  -26.4290  -37.3779   23.9418 N   0  0  0  0  0  0
  -24.6858  -31.0597   22.0967 N   0  0  0  0  0  0
  -23.4192  -28.8162   23.3045 O   0  0  0  0  0  0
  -28.3726  -26.5175   20.0451 O   0  0  0  0  0  0
  -26.5608  -34.8918   22.4675 O   0  0  0  0  0  0
  -23.5415  -32.1384   23.7348 O   0  0  0  0  0  0
  -28.6931  -19.3172   19.9462 C   0  0  0  0  0  0
  -28.7708  -17.9514   19.9987 C   0  0  0  0  0  0
  -30.5007  -20.0969   21.2409 C   0  0  0  0  0  0
  -31.0223  -17.6549   21.1892 C   0  0  0  0  0  0
  -29.3909  -20.3503   20.5017 C   0  0  0  0  0  0
  -31.2106  -18.9653   21.5010 C   0  0  0  0  0  0
  -29.8422  -17.0361   20.5266 C   0  0  0  0  0  0
  -28.6689  -24.0456   20.2257 C   0  0  0  0  0  0
  -28.9938  -22.8331   21.0135 C   0  0  0  0  0  0
  -28.4758  -25.3053   20.7514 C   0  0  0  0  0  0
  -28.5856  -23.6510   18.7804 C   0  0  0  0  0  0
  -28.5630  -22.1077   18.8400 C   0  0  0  0  0  0
  -29.6296  -15.7483   20.3784 N   0  0  0  0  0  0
  -29.0264  -21.7307   20.1851 N   0  0  0  0  0  0
  -29.2237  -22.8045   22.2275 O   0  0  0  0  0  0
  -32.3558  -19.1933   22.1671 F   0  0  0  0  0  0
  -31.4865  -12.5295   19.1632 H   0  0  0  0  0  0
  -30.3829  -11.4093   19.9169 H   0  0  0  0  0  0
  -29.7917  -11.7500   17.4902 H   0  0  0  0  0  0
  -29.6530  -13.4701   17.7494 H   0  0  0  0  0  0
  -27.8845  -11.2772   18.8852 H   0  0  0  0  0  0
  -27.3863  -12.5378   17.7896 H   0  0  0  0  0  0
  -27.6503  -14.2401   19.4826 H   0  0  0  0  0  0
  -28.7020  -12.0966   21.3996 H   0  0  0  0  0  0
  -28.4406  -13.7741   21.8040 H   0  0  0  0  0  0
  -25.2768   -9.5682   22.4745 H   0  0  0  0  0  0
  -23.9998   -7.4639   22.7481 H   0  0  0  0  0  0
  -21.0829   -8.8780   19.8955 H   0  0  0  0  0  0
  -22.3701  -10.9670   19.6153 H   0  0  0  0  0  0
  -21.2012   -7.6147   23.9713 H   0  0  0  0  0  0
  -21.1470   -6.0521   25.9074 H   0  0  0  0  0  0
  -22.0603   -2.7605   23.2857 H   0  0  0  0  0  0
  -22.4128  -11.9868   22.4768 H   0  0  0  0  0  0
  -21.1133  -13.1246   22.2648 H   0  0  0  0  0  0
  -24.6837  -15.8574   20.5443 H   0  0  0  0  0  0
  -26.3140  -15.6144   20.1555 H   0  0  0  0  0  0
  -26.7173  -32.5469   23.1095 H   0  0  0  0  0  0
  -25.0091  -33.9704   25.0445 H   0  0  0  0  0  0
  -22.7127  -31.2973   21.3957 H   0  0  0  0  0  0
  -23.3749  -35.9620   23.3289 H   0  0  0  0  0  0
  -24.3575  -36.8914   22.2048 H   0  0  0  0  0  0
  -23.7229  -37.6488   23.6654 H   0  0  0  0  0  0
  -26.0790  -31.5485   20.5930 H   0  0  0  0  0  0
  -26.8403  -30.8514   21.9936 H   0  0  0  0  0  0
  -28.1298  -29.0089   21.1696 H   0  0  0  0  0  0
  -26.0353  -25.8990   19.0525 H   0  0  0  0  0  0
  -23.9813  -27.2699   19.0463 H   0  0  0  0  0  0
  -23.7597  -30.5736   19.4010 H   0  0  0  0  0  0
  -22.7584  -29.2296   19.8643 H   0  0  0  0  0  0
  -25.1285  -36.1934   25.0822 H   0  0  0  0  0  0
  -20.9956  -28.3252   24.1418 H   0  0  0  0  0  0
  -20.5666  -26.2285   23.3603 H   0  0  0  0  0  0
  -21.6643  -26.7438   22.1206 H   0  0  0  0  0  0
  -19.6904  -25.6297   21.1236 H   0  0  0  0  0  0
  -19.6690  -27.3199   20.6744 H   0  0  0  0  0  0
  -17.4196  -26.6670   21.4026 H   0  0  0  0  0  0
  -18.0328  -26.0070   22.9020 H   0  0  0  0  0  0
  -19.7932  -30.7276   24.2252 H   0  0  0  0  0  0
  -17.5009  -31.6264   24.5173 H   0  0  0  0  0  0
  -15.5347  -30.2982   23.7654 H   0  0  0  0  0  0
  -15.8668  -28.0820   22.7062 H   0  0  0  0  0  0
  -24.5925  -30.7034   25.7782 H   0  0  0  0  0  0
  -24.8907  -32.2871   26.4851 H   0  0  0  0  0  0
  -25.8073  -30.8913   27.0224 H   0  0  0  0  0  0
  -26.2889  -29.6757   24.1172 H   0  0  0  0  0  0
  -27.4040  -29.7245   25.4626 H   0  0  0  0  0  0
  -27.8749  -30.4280   23.9336 H   0  0  0  0  0  0
  -27.2676  -33.3605   26.2055 H   0  0  0  0  0  0
  -28.3878  -32.6853   25.0320 H   0  0  0  0  0  0
  -28.0710  -31.8427   26.5403 H   0  0  0  0  0  0
  -28.2591  -38.0105   24.7535 H   0  0  0  0  0  0
  -28.1095  -36.2641   24.6262 H   0  0  0  0  0  0
  -27.2306  -37.1415   25.8865 H   0  0  0  0  0  0
  -20.9367  -29.8746   21.6895 H   0  0  0  0  0  0
  -26.0171  -38.2852   24.1435 H   0  0  0  0  0  0
  -27.8124  -19.6372   19.4092 H   0  0  0  0  0  0
  -27.9543  -17.4412   19.5071 H   0  0  0  0  0  0
  -30.9818  -20.9833   21.6302 H   0  0  0  0  0  0
  -31.7745  -16.9808   21.5677 H   0  0  0  0  0  0
  -28.5387  -25.4892   21.8155 H   0  0  0  0  0  0
  -29.4729  -24.0137   18.2601 H   0  0  0  0  0  0
  -27.7007  -24.0663   18.2981 H   0  0  0  0  0  0
  -29.1954  -21.6702   18.0668 H   0  0  0  0  0  0
  -27.5446  -21.7477   18.6883 H   0  0  0  0  0  0
  1 25  1  0  0  0
  1 30  2  0  0  0
  1 83  1  0  0  0
  2  3  1  0  0  0
  2 25  1  0  0  0
  2 87  1  0  0  0
  2 88  1  0  0  0
  3  4  1  0  0  0
  3 89  1  0  0  0
  3 90  1  0  0  0
  4  5  1  0  0  0
  4 91  1  0  0  0
  4 92  1  0  0  0
  5  6  1  0  0  0
  5 26  1  0  0  0
  5 93  1  0  0  0
  6 25  1  0  0  0
  6 94  1  0  0  0
  6 95  1  0  0  0
  7  8  2  0  0  0
  7 26  1  0  0  0
  7 29  1  0  0  0
  8  9  1  0  0  0
  8 22  1  0  0  0
  9 10  1  0  0  0
  9 27  2  0  0  0
 10 11  2  0  0  0
 10 15  1  0  0  0
 11 12  1  0  0  0
 11 96  1  0  0  0
 12 13  2  0  0  0
 12 97  1  0  0  0
 13 14  1  0  0  0
 13 31  1  0  0  0
 14 15  2  0  0  0
 14 98  1  0  0  0
 15 99  1  0  0  0
 16 17  2  0  0  0
 16 21  1  0  0  0
 16 31  1  0  0  0
 17 18  1  0  0  0
 17100  1  0  0  0
 18 19  2  0  0  0
 18101  1  0  0  0
 19 20  1  0  0  0
 19 24  1  0  0  0
 20 21  2  0  0  0
 20102  1  0  0  0
 21 23  1  0  0  0
 22 28  1  0  0  0
 22 32  2  0  0  0
 26 27  1  0  0  0
 28103  1  0  0  0
 28104  1  0  0  0
 29105  1  0  0  0
 29106  1  0  0  0
 33 34  1  0  0  0
 33 66  1  0  0  0
 33 70  2  0  0  0
 34 36  1  0  0  0
 34 59  1  0  0  0
 34107  1  0  0  0
 35 44  2  0  0  0
 35 45  1  0  0  0
 35 68  1  0  0  0
 36 56  1  0  0  0
 36108  1  0  0  0
 37 39  1  0  0  0
 37 47  1  0  0  0
 37 66  1  0  0  0
 37109  1  0  0  0
 38 43  2  0  0  0
 38 46  1  0  0  0
 38 47  1  0  0  0
 39 64  1  0  0  0
 39 67  2  0  0  0
 40 52  1  0  0  0
 40 53  2  0  0  0
 40 58  1  0  0  0
 41110  1  0  0  0
 41111  1  0  0  0
 41112  1  0  0  0
 41 48  1  0  0  0
 42 43  1  0  0  0
 42 66  1  0  0  0
 42113  1  0  0  0
 42114  1  0  0  0
 43 44  1  0  0  0
 44115  1  0  0  0
 45 46  2  0  0  0
 45116  1  0  0  0
 46117  1  0  0  0
 47118  1  0  0  0
 47119  1  0  0  0
 48 56  1  0  0  0
 48 65  1  0  0  0
 48120  1  0  0  0
 49 50  1  0  0  0
 49 53  1  0  0  0
 49 64  1  0  0  0
 49121  1  0  0  0
 50 51  1  0  0  0
 50122  1  0  0  0
 50123  1  0  0  0
 51 52  1  0  0  0
 51124  1  0  0  0
 51125  1  0  0  0
 52126  1  0  0  0
 52127  1  0  0  0
 53 54  1  0  0  0
 54 55  2  0  0  0
 54128  1  0  0  0
 55 57  1  0  0  0
 55129  1  0  0  0
 56 69  2  0  0  0
 57 58  2  0  0  0
 57130  1  0  0  0
 58131  1  0  0  0
 59 60  1  0  0  0
 59 61  1  0  0  0
 59 62  1  0  0  0
 60132  1  0  0  0
 60133  1  0  0  0
 60134  1  0  0  0
 61135  1  0  0  0
 61136  1  0  0  0
 61137  1  0  0  0
 62138  1  0  0  0
 62139  1  0  0  0
 62140  1  0  0  0
 63 65  1  0  0  0
 63141  1  0  0  0
 63142  1  0  0  0
 63143  1  0  0  0
 64144  1  0  0  0
 65145  1  0  0  0
 68 80  1  0  0  0
 71 72  2  0  0  0
 71 75  1  0  0  0
 71146  1  0  0  0
 72 77  1  0  0  0
 72147  1  0  0  0
 73 75  2  0  0  0
 73 76  1  0  0  0
 73148  1  0  0  0
 74 76  2  0  0  0
 74 77  1  0  0  0
 74149  1  0  0  0
 75 84  1  0  0  0
 76 86  1  0  0  0
 77 83  2  0  0  0
 78 79  1  0  0  0
 78 80  2  0  0  0
 78 81  1  0  0  0
 79 84  1  0  0  0
 79 85  2  0  0  0
 80150  1  0  0  0
 81 82  1  0  0  0
 81151  1  0  0  0
 81152  1  0  0  0
 82 84  1  0  0  0
 82153  1  0  0  0
 82154  1  0  0  0
M  ISO  4   1 100  68 101  80 101  83 100
M  END
> <chiral flag>
0

> <version>
0

> <s_m_source_file>
/data/baiqing/PycharmProjects/Reinvent-master-3.2/result/LINK_invent/BTK/process_docking_weight1_custom_product_contain_oxygen_bond_distance_aromatic_linkinvent_7_9_3/rearranged_h_0083.sdf

> <i_m_source_file_index>
43

> <r_mmod_Potential_Energy-OPLS-2005>
208.032043457031

> <r_mmod_Stretch_Energy-OPLS-2005>
82.2467269897461

> <r_mmod_Bend_Energy-OPLS-2005>
204.074203491211

> <r_mmod_Torsional_Energy-OPLS-2005>
211.761840820312

> <r_mmod_Improper_Torsional_Energy-OPLS-2005>
8.41426277160645

> <r_mmod_Van_der_Waal_Energy-OPLS-2005>
136.594573974609

> <r_mmod_Electrostatic_Energy-OPLS-2005>
-304.071472167969

> <r_mmod_Solvation_Energy-OPLS-2005>
-186.925979614258

> <b_mmod_Minimization_Converged-OPLS-2005>
0

> <r_mmod_RMS_Derivative-OPLS-2005>
1.01330018043518

$$$$
43
                    3D
 Structure written by MMmdl.
155164  0  0  1  0            999 V2000
  -30.6358  -14.5752   20.5550 C   0  0  0  0  0  0
  -30.4435  -12.3736   19.4152 C   0  0  0  0  0  0
  -29.4971  -12.5143   18.2020 C   0  0  0  0  0  0
  -28.0180  -12.3692   18.6172 C   0  0  0  0  0  0
  -27.6601  -13.2107   19.8699 C   0  0  2  0  0  0
  -28.7123  -13.0076   20.9835 C   0  0  0  0  0  0
  -25.2597  -13.8160   20.5696 C   0  0  0  0  0  0
  -24.1839  -13.0430   20.9198 C   0  0  0  0  0  0
  -24.6403  -11.6909   20.8750 C   0  0  0  0  0  0
  -23.9076  -10.4287   21.0416 C   0  0  0  0  0  0
  -24.3614   -9.4197   21.9204 C   0  0  0  0  0  0
  -23.6281   -8.2237   22.0777 C   0  0  0  0  0  0
  -22.4269   -8.0278   21.3557 C   0  0  0  0  0  0
  -21.9900   -9.0261   20.4665 C   0  0  0  0  0  0
  -22.7242  -10.2137   20.3077 C   0  0  0  0  0  0
  -21.6850   -6.0724   22.5282 C   0  0  0  0  0  0
  -21.3997   -6.5634   23.8213 C   0  0  0  0  0  0
  -21.3658   -5.6793   24.9178 C   0  0  0  0  0  0
  -21.6054   -4.3061   24.7231 C   0  0  0  0  0  0
  -21.8817   -3.8146   23.4354 C   0  0  0  0  0  0
  -21.9181   -4.6951   22.3405 C   0  0  0  0  0  0
  -22.7864  -13.5238   21.1832 C   0  0  0  0  0  0
  -22.1668   -4.2138   21.0983 F   0  0  0  0  0  0
  -21.5635   -3.4547   25.7748 F   0  0  0  0  0  0
  -30.0264  -13.3613   20.4239 N   0  0  0  0  0  0
  -26.3038  -12.9334   20.3392 N   0  0  0  0  0  0
  -25.9330  -11.6493   20.5776 N   0  0  0  0  0  0
  -22.0482  -12.8280   22.0393 N   0  0  0  0  0  0
  -25.4247  -15.1883   20.4032 N   0  0  0  0  0  0
  -31.7811  -14.7833   20.1379 O   0  0  0  0  0  0
  -21.6633   -6.8872   21.4252 O   0  0  0  0  0  0
  -22.3569  -14.5538   20.6646 O   0  0  0  0  0  0
  -24.6234  -31.8619   23.2030 C   0  0  0  0  0  0
  -25.9097  -32.4800   23.8343 C   0  0  1  0  0  0
  -27.2414  -27.3625   20.0719 C   0  0  0  0  0  0
  -25.5929  -33.8587   24.2298 N   0  0  0  0  0  0
  -23.4144  -30.4813   21.5483 C   0  0  2  0  0  0
  -24.8590  -28.9321   20.1116 C   0  0  0  0  0  0
  -22.7438  -29.4604   22.4968 C   0  0  0  0  0  0
  -18.0246  -28.1344   22.8512 C   0  0  0  0  0  0
  -24.1482  -36.7297   23.2635 C   0  0  0  0  0  0
  -25.9490  -30.7969   21.3668 C   0  0  0  0  0  0
  -26.0224  -29.4231   20.7164 C   0  0  0  0  0  0
  -27.2097  -28.6418   20.6990 C   0  0  0  0  0  0
  -26.0489  -26.8996   19.4691 C   0  0  0  0  0  0
  -24.8704  -27.6730   19.4886 C   0  0  0  0  0  0
  -23.6238  -29.8083   20.1647 C   0  0  0  0  0  0
  -25.4113  -36.3098   24.0343 C   0  0  1  0  0  0
  -20.5856  -28.3633   23.1295 C   0  0  2  0  0  0
  -20.6743  -26.9353   22.5389 C   0  0  0  0  0  0
  -19.5683  -26.6275   21.5243 C   0  0  0  0  0  0
  -18.1851  -26.7915   22.1613 C   0  0  0  0  0  0
  -19.1507  -28.8795   23.2916 C   0  0  0  0  0  0
  -18.9438  -30.1367   23.8973 C   0  0  0  0  0  0
  -17.6447  -30.6551   24.0615 C   0  0  0  0  0  0
  -25.9044  -34.9459   23.5125 C   0  0  0  0  0  0
  -16.5335  -29.9068   23.6352 C   0  0  0  0  0  0
  -16.7247  -28.6489   23.0376 C   0  0  0  0  0  0
  -26.4483  -31.6592   25.0699 C   0  0  0  0  0  0
  -25.3687  -31.3738   26.1413 C   0  0  0  0  0  0
  -27.0331  -30.3036   24.6097 C   0  0  0  0  0  0
  -27.6070  -32.4297   25.7469 C   0  0  0  0  0  0
  -27.5576  -37.1817   24.8472 C   0  0  0  0  0  0
  -21.4151  -29.3031   22.3732 N   0  0  0  0  0  0
  -26.4290  -37.3795   23.9415 N   0  0  0  0  0  0
  -24.6820  -31.0617   22.0989 N   0  0  0  0  0  0
  -23.4187  -28.8122   23.3021 O   0  0  0  0  0  0
  -28.4050  -26.5917   20.1027 O   0  0  0  0  0  0
  -26.5604  -34.8929   22.4682 O   0  0  0  0  0  0
  -23.5413  -32.1407   23.7395 O   0  0  0  0  0  0
  -30.6483  -18.6170   23.0049 C   0  0  0  0  0  0
  -30.4286  -19.6632   22.0858 C   0  0  0  0  0  0
  -30.4753  -17.2720   22.6212 C   0  0  0  0  0  0
  -29.8619  -18.0208   20.3847 C   0  0  0  0  0  0
  -29.9843  -19.3982   20.7677 C   0  0  0  0  0  0
  -30.1100  -16.9497   21.2987 C   0  0  0  0  0  0
  -28.1761  -23.5798   20.9411 C   0  0  0  0  0  0
  -28.6542  -24.0403   19.7843 C   0  0  0  0  0  0
  -28.4712  -22.1542   21.0837 C   0  0  0  0  0  0
  -29.7859  -20.5276   19.7438 C   0  0  0  0  0  0
  -29.2983  -22.8816   19.0506 C   0  0  0  0  0  0
  -28.6147  -25.4739   19.1848 C   0  0  0  0  0  0
  -29.2177  -21.7545   20.0160 N   0  0  0  0  0  0
  -29.8218  -15.5740   20.9896 N   0  0  0  0  0  0
  -28.0857  -21.4504   22.0204 O   0  0  0  0  0  0
  -30.1906  -20.2890   18.5975 O   0  0  0  0  0  0
  -31.4780  -12.5222   19.1024 H   0  0  0  0  0  0
  -30.3994  -11.3657   19.8290 H   0  0  0  0  0  0
  -29.7397  -11.7647   17.4464 H   0  0  0  0  0  0
  -29.6469  -13.4849   17.7235 H   0  0  0  0  0  0
  -27.8287  -11.3137   18.8118 H   0  0  0  0  0  0
  -27.3684  -12.6460   17.7855 H   0  0  0  0  0  0
  -27.6940  -14.2563   19.5638 H   0  0  0  0  0  0
  -28.7223  -11.9686   21.3162 H   0  0  0  0  0  0
  -28.4721  -13.5968   21.8704 H   0  0  0  0  0  0
  -25.2749   -9.5662   22.4782 H   0  0  0  0  0  0
  -23.9976   -7.4632   22.7514 H   0  0  0  0  0  0
  -21.0820   -8.8789   19.8978 H   0  0  0  0  0  0
  -22.3709  -10.9671   19.6187 H   0  0  0  0  0  0
  -21.1993   -7.6145   23.9719 H   0  0  0  0  0  0
  -21.1484   -6.0525   25.9085 H   0  0  0  0  0  0
  -22.0588   -2.7601   23.2860 H   0  0  0  0  0  0
  -22.4046  -11.9951   22.4830 H   0  0  0  0  0  0
  -21.1108  -13.1358   22.2536 H   0  0  0  0  0  0
  -24.6401  -15.8262   20.4775 H   0  0  0  0  0  0
  -26.2640  -15.6322   20.0499 H   0  0  0  0  0  0
  -26.7154  -32.5475   23.1089 H   0  0  0  0  0  0
  -25.0126  -33.9730   25.0481 H   0  0  0  0  0  0
  -22.7054  -31.3002   21.4051 H   0  0  0  0  0  0
  -23.3750  -35.9617   23.3319 H   0  0  0  0  0  0
  -24.3557  -36.8903   22.2038 H   0  0  0  0  0  0
  -23.7228  -37.6513   23.6625 H   0  0  0  0  0  0
  -26.0595  -31.5526   20.5888 H   0  0  0  0  0  0
  -26.8412  -30.8628   21.9797 H   0  0  0  0  0  0
  -28.1064  -29.0144   21.1731 H   0  0  0  0  0  0
  -26.0022  -25.9284   18.9987 H   0  0  0  0  0  0
  -23.9738  -27.2909   19.0201 H   0  0  0  0  0  0
  -23.7396  -30.5805   19.4036 H   0  0  0  0  0  0
  -22.7462  -29.2315   19.8653 H   0  0  0  0  0  0
  -25.1282  -36.1970   25.0835 H   0  0  0  0  0  0
  -20.9921  -28.3138   24.1409 H   0  0  0  0  0  0
  -21.6620  -26.7354   22.1206 H   0  0  0  0  0  0
  -20.5678  -26.2238   23.3588 H   0  0  0  0  0  0
  -19.6717  -25.6152   21.1354 H   0  0  0  0  0  0
  -19.6613  -27.2983   20.6700 H   0  0  0  0  0  0
  -17.4189  -26.6758   21.3946 H   0  0  0  0  0  0
  -18.0150  -26.0041   22.8956 H   0  0  0  0  0  0
  -19.7940  -30.7146   24.2346 H   0  0  0  0  0  0
  -17.4979  -31.6242   24.5183 H   0  0  0  0  0  0
  -15.5333  -30.2970   23.7616 H   0  0  0  0  0  0
  -15.8647  -28.0808   22.7100 H   0  0  0  0  0  0
  -24.5861  -30.7118   25.7707 H   0  0  0  0  0  0
  -24.8864  -32.2902   26.4798 H   0  0  0  0  0  0
  -25.7953  -30.8909   27.0208 H   0  0  0  0  0  0
  -26.2898  -29.6810   24.1117 H   0  0  0  0  0  0
  -27.4089  -29.7269   25.4556 H   0  0  0  0  0  0
  -27.8711  -30.4392   23.9268 H   0  0  0  0  0  0
  -27.2722  -33.3607   26.2046 H   0  0  0  0  0  0
  -28.3863  -32.6854   25.0276 H   0  0  0  0  0  0
  -28.0735  -31.8407   26.5379 H   0  0  0  0  0  0
  -28.2624  -38.0088   24.7514 H   0  0  0  0  0  0
  -28.1051  -36.2633   24.6308 H   0  0  0  0  0  0
  -27.2281  -37.1474   25.8870 H   0  0  0  0  0  0
  -20.9333  -29.8763   21.6952 H   0  0  0  0  0  0
  -26.0193  -38.2878   24.1414 H   0  0  0  0  0  0
  -30.9339  -18.8498   24.0213 H   0  0  0  0  0  0
  -30.5978  -20.6802   22.4119 H   0  0  0  0  0  0
  -30.6103  -16.4918   23.3592 H   0  0  0  0  0  0
  -29.5585  -17.7896   19.3725 H   0  0  0  0  0  0
  -27.6427  -24.1694   21.6700 H   0  0  0  0  0  0
  -30.3320  -23.1106   18.7808 H   0  0  0  0  0  0
  -28.7337  -22.6609   18.1409 H   0  0  0  0  0  0
  -27.9655  -25.4918   18.3117 H   0  0  0  0  0  0
  -29.6085  -25.6394   18.7638 H   0  0  0  0  0  0
  -28.8955  -15.2651   21.2453 H   0  0  0  0  0  0
  1 25  1  0  0  0
  1 30  2  0  0  0
  1 84  1  0  0  0
  2  3  1  0  0  0
  2 25  1  0  0  0
  2 87  1  0  0  0
  2 88  1  0  0  0
  3  4  1  0  0  0
  3 89  1  0  0  0
  3 90  1  0  0  0
  4  5  1  0  0  0
  4 91  1  0  0  0
  4 92  1  0  0  0
  5  6  1  0  0  0
  5 26  1  0  0  0
  5 93  1  0  0  0
  6 25  1  0  0  0
  6 94  1  0  0  0
  6 95  1  0  0  0
  7  8  2  0  0  0
  7 26  1  0  0  0
  7 29  1  0  0  0
  8  9  1  0  0  0
  8 22  1  0  0  0
  9 10  1  0  0  0
  9 27  2  0  0  0
 10 11  2  0  0  0
 10 15  1  0  0  0
 11 12  1  0  0  0
 11 96  1  0  0  0
 12 13  2  0  0  0
 12 97  1  0  0  0
 13 14  1  0  0  0
 13 31  1  0  0  0
 14 15  2  0  0  0
 14 98  1  0  0  0
 15 99  1  0  0  0
 16 17  2  0  0  0
 16 21  1  0  0  0
 16 31  1  0  0  0
 17 18  1  0  0  0
 17100  1  0  0  0
 18 19  2  0  0  0
 18101  1  0  0  0
 19 20  1  0  0  0
 19 24  1  0  0  0
 20 21  2  0  0  0
 20102  1  0  0  0
 21 23  1  0  0  0
 22 28  1  0  0  0
 22 32  2  0  0  0
 26 27  1  0  0  0
 28103  1  0  0  0
 28104  1  0  0  0
 29105  1  0  0  0
 29106  1  0  0  0
 33 34  1  0  0  0
 33 66  1  0  0  0
 33 70  2  0  0  0
 34 36  1  0  0  0
 34 59  1  0  0  0
 34107  1  0  0  0
 35 44  2  0  0  0
 35 45  1  0  0  0
 35 68  1  0  0  0
 36 56  1  0  0  0
 36108  1  0  0  0
 37 39  1  0  0  0
 37 47  1  0  0  0
 37 66  1  0  0  0
 37109  1  0  0  0
 38 43  2  0  0  0
 38 46  1  0  0  0
 38 47  1  0  0  0
 39 64  1  0  0  0
 39 67  2  0  0  0
 40 52  1  0  0  0
 40 53  2  0  0  0
 40 58  1  0  0  0
 41110  1  0  0  0
 41111  1  0  0  0
 41112  1  0  0  0
 41 48  1  0  0  0
 42 43  1  0  0  0
 42 66  1  0  0  0
 42113  1  0  0  0
 42114  1  0  0  0
 43 44  1  0  0  0
 44115  1  0  0  0
 45 46  2  0  0  0
 45116  1  0  0  0
 46117  1  0  0  0
 47118  1  0  0  0
 47119  1  0  0  0
 48 56  1  0  0  0
 48 65  1  0  0  0
 48120  1  0  0  0
 49 50  1  0  0  0
 49 53  1  0  0  0
 49 64  1  0  0  0
 49121  1  0  0  0
 50 51  1  0  0  0
 50122  1  0  0  0
 50123  1  0  0  0
 51 52  1  0  0  0
 51124  1  0  0  0
 51125  1  0  0  0
 52126  1  0  0  0
 52127  1  0  0  0
 53 54  1  0  0  0
 54 55  2  0  0  0
 54128  1  0  0  0
 55 57  1  0  0  0
 55129  1  0  0  0
 56 69  2  0  0  0
 57 58  2  0  0  0
 57130  1  0  0  0
 58131  1  0  0  0
 59 60  1  0  0  0
 59 61  1  0  0  0
 59 62  1  0  0  0
 60132  1  0  0  0
 60133  1  0  0  0
 60134  1  0  0  0
 61135  1  0  0  0
 61136  1  0  0  0
 61137  1  0  0  0
 62138  1  0  0  0
 62139  1  0  0  0
 62140  1  0  0  0
 63 65  1  0  0  0
 63141  1  0  0  0
 63142  1  0  0  0
 63143  1  0  0  0
 64144  1  0  0  0
 65145  1  0  0  0
 68 82  1  0  0  0
 71 72  2  0  0  0
 71 73  1  0  0  0
 71146  1  0  0  0
 72 75  1  0  0  0
 72147  1  0  0  0
 73 76  2  0  0  0
 73148  1  0  0  0
 74 75  2  0  0  0
 74 76  1  0  0  0
 74149  1  0  0  0
 75 80  1  0  0  0
 76 84  1  0  0  0
 77 78  2  0  0  0
 77 79  1  0  0  0
 77150  1  0  0  0
 78 81  1  0  0  0
 78 82  1  0  0  0
 79 83  1  0  0  0
 79 85  2  0  0  0
 80 83  1  0  0  0
 80 86  2  0  0  0
 81 83  1  0  0  0
 81151  1  0  0  0
 81152  1  0  0  0
 82153  1  0  0  0
 82154  1  0  0  0
 84155  1  0  0  0
M  ISO  4   1 100  68 101  82 101  84 100
M  END
> <chiral flag>
0

> <version>
0

> <s_m_source_file>
/data/baiqing/PycharmProjects/Reinvent-master-3.2/result/LINK_invent/BTK/process_docking_weight1_custom_product_contain_oxygen_bond_distance_aromatic_linkinvent_7_9_3/rearranged_h_0083.sdf

> <i_m_source_file_index>
44

> <r_mmod_Potential_Energy-OPLS-2005>
46.2502250671387

> <r_mmod_Stretch_Energy-OPLS-2005>
61.1119918823242

> <r_mmod_Bend_Energy-OPLS-2005>
185.830749511719

> <r_mmod_Torsional_Energy-OPLS-2005>
265.798248291016

> <r_mmod_Improper_Torsional_Energy-OPLS-2005>
6.0521183013916

> <r_mmod_Van_der_Waal_Energy-OPLS-2005>
146.760406494141

> <r_mmod_Electrostatic_Energy-OPLS-2005>
-419.518341064453

> <r_mmod_Solvation_Energy-OPLS-2005>
-229.240936279297

> <b_mmod_Minimization_Converged-OPLS-2005>
0

> <r_mmod_RMS_Derivative-OPLS-2005>
4.54191493988037

$$$$
44
                    3D
 Structure written by MMmdl.
152161  0  0  1  0            999 V2000
  -30.7293  -14.5210   20.5792 C   0  0  0  0  0  0
  -30.4073  -12.3447   19.4401 C   0  0  0  0  0  0
  -29.4961  -12.5086   18.2105 C   0  0  0  0  0  0
  -28.0160  -12.3690   18.6159 C   0  0  0  0  0  0
  -27.6478  -13.2256   19.8581 C   0  0  2  0  0  0
  -28.6881  -13.0703   20.9889 C   0  0  0  0  0  0
  -25.2508  -13.8197   20.5649 C   0  0  0  0  0  0
  -24.1800  -13.0448   20.9165 C   0  0  0  0  0  0
  -24.6393  -11.6914   20.8730 C   0  0  0  0  0  0
  -23.9085  -10.4284   21.0388 C   0  0  0  0  0  0
  -24.3634   -9.4190   21.9155 C   0  0  0  0  0  0
  -23.6295   -8.2237   22.0740 C   0  0  0  0  0  0
  -22.4270   -8.0289   21.3549 C   0  0  0  0  0  0
  -21.9905   -9.0259   20.4652 C   0  0  0  0  0  0
  -22.7250  -10.2123   20.3045 C   0  0  0  0  0  0
  -21.6852   -6.0744   22.5284 C   0  0  0  0  0  0
  -21.4023   -6.5640   23.8223 C   0  0  0  0  0  0
  -21.3653   -5.6786   24.9180 C   0  0  0  0  0  0
  -21.6035   -4.3055   24.7224 C   0  0  0  0  0  0
  -21.8825   -3.8148   23.4351 C   0  0  0  0  0  0
  -21.9189   -4.6968   22.3402 C   0  0  0  0  0  0
  -22.7823  -13.5207   21.1846 C   0  0  0  0  0  0
  -22.1658   -4.2158   21.0977 F   0  0  0  0  0  0
  -21.5624   -3.4544   25.7731 F   0  0  0  0  0  0
  -30.0093  -13.3729   20.4222 N   0  0  0  0  0  0
  -26.2947  -12.9409   20.3272 N   0  0  0  0  0  0
  -25.9319  -11.6549   20.5709 N   0  0  0  0  0  0
  -22.0482  -12.8203   22.0418 N   0  0  0  0  0  0
  -25.4185  -15.1932   20.4074 N   0  0  0  0  0  0
  -31.8892  -14.5805   20.1606 O   0  0  0  0  0  0
  -21.6648   -6.8880   21.4247 O   0  0  0  0  0  0
  -22.3474  -14.5477   20.6654 O   0  0  0  0  0  0
  -24.6161  -31.8684   23.2088 C   0  0  0  0  0  0
  -25.9047  -32.4823   23.8376 C   0  0  1  0  0  0
  -27.2129  -27.4104   20.1106 C   0  0  0  0  0  0
  -25.5894  -33.8613   24.2311 N   0  0  0  0  0  0
  -23.4044  -30.4937   21.5508 C   0  0  2  0  0  0
  -24.8522  -28.9673   20.1033 C   0  0  0  0  0  0
  -22.7416  -29.4646   22.4962 C   0  0  0  0  0  0
  -18.0285  -28.1373   22.8490 C   0  0  0  0  0  0
  -24.1493  -36.7306   23.2628 C   0  0  0  0  0  0
  -25.9364  -30.8312   21.3660 C   0  0  0  0  0  0
  -26.0158  -29.4674   20.7045 C   0  0  0  0  0  0
  -27.2058  -28.6978   20.7043 C   0  0  0  0  0  0
  -26.0412  -26.9401   19.4849 C   0  0  0  0  0  0
  -24.8625  -27.7073   19.4815 C   0  0  0  0  0  0
  -23.6118  -29.8322   20.1625 C   0  0  0  0  0  0
  -25.4112  -36.3101   24.0330 C   0  0  1  0  0  0
  -20.5869  -28.3651   23.1327 C   0  0  2  0  0  0
  -20.6767  -26.9387   22.5424 C   0  0  0  0  0  0
  -19.5738  -26.6375   21.5219 C   0  0  0  0  0  0
  -18.1919  -26.7919   22.1634 C   0  0  0  0  0  0
  -19.1536  -28.8829   23.2910 C   0  0  0  0  0  0
  -18.9452  -30.1440   23.8920 C   0  0  0  0  0  0
  -17.6445  -30.6564   24.0566 C   0  0  0  0  0  0
  -25.9039  -34.9465   23.5121 C   0  0  0  0  0  0
  -16.5342  -29.9060   23.6321 C   0  0  0  0  0  0
  -16.7265  -28.6481   23.0335 C   0  0  0  0  0  0
  -26.4443  -31.6599   25.0717 C   0  0  0  0  0  0
  -25.3693  -31.3791   26.1460 C   0  0  0  0  0  0
  -27.0218  -30.2993   24.6131 C   0  0  0  0  0  0
  -27.6036  -32.4294   25.7469 C   0  0  0  0  0  0
  -27.5590  -37.1816   24.8445 C   0  0  0  0  0  0
  -21.4127  -29.3017   22.3725 N   0  0  0  0  0  0
  -26.4294  -37.3783   23.9398 N   0  0  0  0  0  0
  -24.6700  -31.0782   22.0999 N   0  0  0  0  0  0
  -23.4209  -28.8182   23.2994 O   0  0  0  0  0  0
  -28.2826  -26.5427   20.2028 O   0  0  0  0  0  0
  -26.5598  -34.8931   22.4687 O   0  0  0  0  0  0
  -23.5345  -32.1442   23.7467 O   0  0  0  0  0  0
  -30.7170  -19.2131   20.5839 C   0  0  0  0  0  0
  -28.6718  -18.4342   21.6002 C   0  0  0  0  0  0
  -30.1812  -20.5148   20.4727 C   0  0  0  0  0  0
  -28.1567  -19.7588   21.5105 C   0  0  0  0  0  0
  -29.9800  -18.1426   21.1460 C   0  0  0  0  0  0
  -28.8902  -20.8500   20.9553 C   0  0  0  0  0  0
  -28.2767  -24.1999   20.9865 C   0  0  0  0  0  0
  -28.0253  -23.1200   21.9126 C   0  0  0  0  0  0
  -28.0781  -25.5354   21.1360 C   0  0  0  0  0  0
  -30.6847  -16.8077   21.3430 C   0  0  0  0  0  0
  -28.8004  -23.2238   19.9514 C   0  0  0  0  0  0
  -28.3656  -22.1927   20.9243 N   0  0  0  0  0  0
  -30.0755  -15.6350   21.0182 N   0  0  0  0  0  0
  -27.7658  -23.1134   23.0987 O   0  0  0  0  0  0
  -31.8532  -16.8648   21.7528 O   0  0  0  0  0  0
  -31.4540  -12.4218   19.1419 H   0  0  0  0  0  0
  -30.3009  -11.3478   19.8713 H   0  0  0  0  0  0
  -29.7483  -11.7666   17.4523 H   0  0  0  0  0  0
  -29.6689  -13.4843   17.7548 H   0  0  0  0  0  0
  -27.8295  -11.3157   18.8207 H   0  0  0  0  0  0
  -27.3726  -12.6304   17.7747 H   0  0  0  0  0  0
  -27.6693  -14.2666   19.5322 H   0  0  0  0  0  0
  -28.6730  -12.0523   21.3788 H   0  0  0  0  0  0
  -28.4455  -13.7167   21.8329 H   0  0  0  0  0  0
  -25.2807   -9.5658   22.4709 H   0  0  0  0  0  0
  -24.0031   -7.4618   22.7447 H   0  0  0  0  0  0
  -21.0839   -8.8776   19.8949 H   0  0  0  0  0  0
  -22.3728  -10.9659   19.6146 H   0  0  0  0  0  0
  -21.2035   -7.6159   23.9731 H   0  0  0  0  0  0
  -21.1456   -6.0522   25.9082 H   0  0  0  0  0  0
  -22.0607   -2.7614   23.2860 H   0  0  0  0  0  0
  -22.4099  -11.9916   22.4891 H   0  0  0  0  0  0
  -21.1082  -13.1205   22.2563 H   0  0  0  0  0  0
  -24.6469  -15.8436   20.5066 H   0  0  0  0  0  0
  -26.2609  -15.6386   20.0683 H   0  0  0  0  0  0
  -26.7121  -32.5532   23.1156 H   0  0  0  0  0  0
  -25.0028  -33.9773   25.0439 H   0  0  0  0  0  0
  -22.6911  -31.3091   21.4184 H   0  0  0  0  0  0
  -23.3725  -35.9673   23.3328 H   0  0  0  0  0  0
  -24.3583  -36.8858   22.2032 H   0  0  0  0  0  0
  -23.7298  -37.6549   23.6609 H   0  0  0  0  0  0
  -26.0558  -31.6040   20.6048 H   0  0  0  0  0  0
  -26.8200  -30.8750   21.9902 H   0  0  0  0  0  0
  -28.0948  -29.0653   21.1962 H   0  0  0  0  0  0
  -26.0326  -25.9594   19.0321 H   0  0  0  0  0  0
  -23.9664  -27.3170   19.0182 H   0  0  0  0  0  0
  -23.7083  -30.6125   19.4060 H   0  0  0  0  0  0
  -22.7344  -29.2494   19.8722 H   0  0  0  0  0  0
  -25.1281  -36.1961   25.0820 H   0  0  0  0  0  0
  -20.9981  -28.3231   24.1439 H   0  0  0  0  0  0
  -20.5642  -26.2252   23.3612 H   0  0  0  0  0  0
  -21.6641  -26.7408   22.1241 H   0  0  0  0  0  0
  -19.6891  -25.6285   21.1238 H   0  0  0  0  0  0
  -19.6678  -27.3203   20.6770 H   0  0  0  0  0  0
  -17.4189  -26.6649   21.4030 H   0  0  0  0  0  0
  -18.0319  -26.0057   22.9024 H   0  0  0  0  0  0
  -19.7926  -30.7253   24.2273 H   0  0  0  0  0  0
  -17.4996  -31.6236   24.5161 H   0  0  0  0  0  0
  -15.5351  -30.2970   23.7601 H   0  0  0  0  0  0
  -15.8674  -28.0808   22.7029 H   0  0  0  0  0  0
  -24.5823  -30.7178   25.7813 H   0  0  0  0  0  0
  -24.8961  -32.3003   26.4858 H   0  0  0  0  0  0
  -25.7983  -30.8974   27.0254 H   0  0  0  0  0  0
  -26.2775  -29.6843   24.1049 H   0  0  0  0  0  0
  -27.3776  -29.7135   25.4624 H   0  0  0  0  0  0
  -27.8719  -30.4230   23.9416 H   0  0  0  0  0  0
  -27.2646  -33.3571   26.2085 H   0  0  0  0  0  0
  -28.3818  -32.6872   25.0277 H   0  0  0  0  0  0
  -28.0731  -31.8400   26.5359 H   0  0  0  0  0  0
  -28.2620  -38.0096   24.7472 H   0  0  0  0  0  0
  -28.1081  -36.2641   24.6285 H   0  0  0  0  0  0
  -27.2310  -37.1475   25.8843 H   0  0  0  0  0  0
  -20.9277  -29.8763   21.6975 H   0  0  0  0  0  0
  -26.0182  -38.2864   24.1385 H   0  0  0  0  0  0
  -31.7333  -19.0429   20.2504 H   0  0  0  0  0  0
  -28.0715  -17.6617   22.0654 H   0  0  0  0  0  0
  -30.8213  -21.2749   20.0460 H   0  0  0  0  0  0
  -27.1598  -19.9313   21.9051 H   0  0  0  0  0  0
  -27.6708  -25.9284   22.0590 H   0  0  0  0  0  0
  -29.8767  -23.2546   19.7754 H   0  0  0  0  0  0
  -28.2585  -23.1555   19.0060 H   0  0  0  0  0  0
  -29.0700  -15.6234   20.9971 H   0  0  0  0  0  0
  1 25  1  0  0  0
  1 30  2  0  0  0
  1 83  1  0  0  0
  2  3  1  0  0  0
  2 25  1  0  0  0
  2 86  1  0  0  0
  2 87  1  0  0  0
  3  4  1  0  0  0
  3 88  1  0  0  0
  3 89  1  0  0  0
  4  5  1  0  0  0
  4 90  1  0  0  0
  4 91  1  0  0  0
  5  6  1  0  0  0
  5 26  1  0  0  0
  5 92  1  0  0  0
  6 25  1  0  0  0
  6 93  1  0  0  0
  6 94  1  0  0  0
  7  8  2  0  0  0
  7 26  1  0  0  0
  7 29  1  0  0  0
  8  9  1  0  0  0
  8 22  1  0  0  0
  9 10  1  0  0  0
  9 27  2  0  0  0
 10 11  2  0  0  0
 10 15  1  0  0  0
 11 12  1  0  0  0
 11 95  1  0  0  0
 12 13  2  0  0  0
 12 96  1  0  0  0
 13 14  1  0  0  0
 13 31  1  0  0  0
 14 15  2  0  0  0
 14 97  1  0  0  0
 15 98  1  0  0  0
 16 17  2  0  0  0
 16 21  1  0  0  0
 16 31  1  0  0  0
 17 18  1  0  0  0
 17 99  1  0  0  0
 18 19  2  0  0  0
 18100  1  0  0  0
 19 20  1  0  0  0
 19 24  1  0  0  0
 20 21  2  0  0  0
 20101  1  0  0  0
 21 23  1  0  0  0
 22 28  1  0  0  0
 22 32  2  0  0  0
 26 27  1  0  0  0
 28102  1  0  0  0
 28103  1  0  0  0
 29104  1  0  0  0
 29105  1  0  0  0
 33 34  1  0  0  0
 33 66  1  0  0  0
 33 70  2  0  0  0
 34 36  1  0  0  0
 34 59  1  0  0  0
 34106  1  0  0  0
 35 44  2  0  0  0
 35 45  1  0  0  0
 35 68  1  0  0  0
 36 56  1  0  0  0
 36107  1  0  0  0
 37 39  1  0  0  0
 37 47  1  0  0  0
 37 66  1  0  0  0
 37108  1  0  0  0
 38 43  2  0  0  0
 38 46  1  0  0  0
 38 47  1  0  0  0
 39 64  1  0  0  0
 39 67  2  0  0  0
 40 52  1  0  0  0
 40 53  2  0  0  0
 40 58  1  0  0  0
 41109  1  0  0  0
 41110  1  0  0  0
 41111  1  0  0  0
 41 48  1  0  0  0
 42 43  1  0  0  0
 42 66  1  0  0  0
 42112  1  0  0  0
 42113  1  0  0  0
 43 44  1  0  0  0
 44114  1  0  0  0
 45 46  2  0  0  0
 45115  1  0  0  0
 46116  1  0  0  0
 47117  1  0  0  0
 47118  1  0  0  0
 48 56  1  0  0  0
 48 65  1  0  0  0
 48119  1  0  0  0
 49 50  1  0  0  0
 49 53  1  0  0  0
 49 64  1  0  0  0
 49120  1  0  0  0
 50 51  1  0  0  0
 50121  1  0  0  0
 50122  1  0  0  0
 51 52  1  0  0  0
 51123  1  0  0  0
 51124  1  0  0  0
 52125  1  0  0  0
 52126  1  0  0  0
 53 54  1  0  0  0
 54 55  2  0  0  0
 54127  1  0  0  0
 55 57  1  0  0  0
 55128  1  0  0  0
 56 69  2  0  0  0
 57 58  2  0  0  0
 57129  1  0  0  0
 58130  1  0  0  0
 59 60  1  0  0  0
 59 61  1  0  0  0
 59 62  1  0  0  0
 60131  1  0  0  0
 60132  1  0  0  0
 60133  1  0  0  0
 61134  1  0  0  0
 61135  1  0  0  0
 61136  1  0  0  0
 62137  1  0  0  0
 62138  1  0  0  0
 62139  1  0  0  0
 63 65  1  0  0  0
 63140  1  0  0  0
 63141  1  0  0  0
 63142  1  0  0  0
 64143  1  0  0  0
 65144  1  0  0  0
 68 79  1  0  0  0
 71 73  2  0  0  0
 71 75  1  0  0  0
 71145  1  0  0  0
 72 74  1  0  0  0
 72 75  2  0  0  0
 72146  1  0  0  0
 73 76  1  0  0  0
 73147  1  0  0  0
 74 76  2  0  0  0
 74148  1  0  0  0
 75 80  1  0  0  0
 76 82  1  0  0  0
 77 78  1  0  0  0
 77 79  2  0  0  0
 77 81  1  0  0  0
 78 82  1  0  0  0
 78 84  2  0  0  0
 79149  1  0  0  0
 80 83  1  0  0  0
 80 85  2  0  0  0
 81 82  1  0  0  0
 81150  1  0  0  0
 81151  1  0  0  0
 83152  1  0  0  0
M  ISO  4   1 100  68 101  79 101  83 100
M  END
> <chiral flag>
0

> <version>
0

> <s_m_source_file>
/data/baiqing/PycharmProjects/Reinvent-master-3.2/result/LINK_invent/BTK/process_docking_weight1_custom_product_contain_oxygen_bond_distance_aromatic_linkinvent_7_9_3/rearranged_h_0083.sdf

> <i_m_source_file_index>
45

> <r_mmod_Potential_Energy-OPLS-2005>
24.8535251617432

> <r_mmod_Stretch_Energy-OPLS-2005>
46.4953651428223

> <r_mmod_Bend_Energy-OPLS-2005>
178.622421264648

> <r_mmod_Torsional_Energy-OPLS-2005>
273.555725097656

> <r_mmod_Improper_Torsional_Energy-OPLS-2005>
9.22615814208984

> <r_mmod_Van_der_Waal_Energy-OPLS-2005>
151.069976806641

> <r_mmod_Electrostatic_Energy-OPLS-2005>
-429.060485839844

> <r_mmod_Solvation_Energy-OPLS-2005>
-234.706481933594

> <b_mmod_Minimization_Converged-OPLS-2005>
0

> <r_mmod_RMS_Derivative-OPLS-2005>
3.90416979789734

$$$$
45
                    3D
 Structure written by MMmdl.
150159  0  0  1  0            999 V2000
  -30.6097  -15.0175   20.3639 C   0  0  0  0  0  0
  -30.4180  -12.6322   19.5125 C   0  0  0  0  0  0
  -29.5165  -12.5225   18.2627 C   0  0  0  0  0  0
  -28.0531  -12.3092   18.6807 C   0  0  0  0  0  0
  -27.6157  -13.2704   19.8167 C   0  0  2  0  0  0
  -28.6580  -13.3897   20.9483 C   0  0  0  0  0  0
  -25.2434  -13.8265   20.5743 C   0  0  0  0  0  0
  -24.1779  -13.0455   20.9263 C   0  0  0  0  0  0
  -24.6418  -11.6951   20.8762 C   0  0  0  0  0  0
  -23.9108  -10.4311   21.0396 C   0  0  0  0  0  0
  -24.3648   -9.4212   21.9172 C   0  0  0  0  0  0
  -23.6319   -8.2245   22.0741 C   0  0  0  0  0  0
  -22.4297   -8.0287   21.3538 C   0  0  0  0  0  0
  -21.9938   -9.0260   20.4638 C   0  0  0  0  0  0
  -22.7273  -10.2146   20.3046 C   0  0  0  0  0  0
  -21.6875   -6.0742   22.5283 C   0  0  0  0  0  0
  -21.4018   -6.5644   23.8210 C   0  0  0  0  0  0
  -21.3656   -5.6799   24.9173 C   0  0  0  0  0  0
  -21.6047   -4.3056   24.7233 C   0  0  0  0  0  0
  -21.8817   -3.8148   23.4345 C   0  0  0  0  0  0
  -21.9193   -4.6971   22.3405 C   0  0  0  0  0  0
  -22.7798  -13.5215   21.1913 C   0  0  0  0  0  0
  -22.1670   -4.2150   21.0987 F   0  0  0  0  0  0
  -21.5627   -3.4539   25.7739 F   0  0  0  0  0  0
  -29.9297  -13.7895   20.3331 N   0  0  0  0  0  0
  -26.2847  -12.9545   20.3200 N   0  0  0  0  0  0
  -25.9359  -11.6649   20.5719 N   0  0  0  0  0  0
  -22.0454  -12.8185   22.0451 N   0  0  0  0  0  0
  -25.4091  -15.1996   20.4189 N   0  0  0  0  0  0
  -31.8290  -14.8869   20.1980 O   0  0  0  0  0  0
  -21.6661   -6.8886   21.4242 O   0  0  0  0  0  0
  -22.3462  -14.5500   20.6739 O   0  0  0  0  0  0
  -24.6480  -31.8411   23.1872 C   0  0  0  0  0  0
  -25.9229  -32.4670   23.8262 C   0  0  1  0  0  0
  -27.2004  -27.0912   20.1518 C   0  0  0  0  0  0
  -25.5976  -33.8490   24.2192 N   0  0  0  0  0  0
  -23.4535  -30.4613   21.5333 C   0  0  2  0  0  0
  -24.9024  -28.8852   20.1082 C   0  0  0  0  0  0
  -22.7586  -29.4527   22.4845 C   0  0  0  0  0  0
  -18.0302  -28.1386   22.8459 C   0  0  0  0  0  0
  -24.1492  -36.7240   23.2642 C   0  0  0  0  0  0
  -26.0128  -30.6976   21.3974 C   0  0  0  0  0  0
  -26.0814  -29.3057   20.7375 C   0  0  0  0  0  0
  -27.2323  -28.4219   20.7481 C   0  0  0  0  0  0
  -26.0057  -26.7966   19.4620 C   0  0  0  0  0  0
  -24.8795  -27.6463   19.4523 C   0  0  0  0  0  0
  -23.6825  -29.7928   20.1521 C   0  0  0  0  0  0
  -25.4131  -36.3025   24.0310 C   0  0  1  0  0  0
  -20.5913  -28.3722   23.1213 C   0  0  2  0  0  0
  -20.6768  -26.9418   22.5383 C   0  0  0  0  0  0
  -19.5746  -26.6371   21.5182 C   0  0  0  0  0  0
  -18.1943  -26.7915   22.1613 C   0  0  0  0  0  0
  -19.1556  -28.8874   23.2828 C   0  0  0  0  0  0
  -18.9476  -30.1474   23.8860 C   0  0  0  0  0  0
  -17.6473  -30.6589   24.0549 C   0  0  0  0  0  0
  -25.9086  -34.9397   23.5066 C   0  0  0  0  0  0
  -16.5363  -29.9081   23.6329 C   0  0  0  0  0  0
  -16.7290  -28.6492   23.0357 C   0  0  0  0  0  0
  -26.4544  -31.6550   25.0716 C   0  0  0  0  0  0
  -25.3727  -31.3776   26.1419 C   0  0  0  0  0  0
  -27.0393  -30.2924   24.6334 C   0  0  0  0  0  0
  -27.6075  -32.4313   25.7505 C   0  0  0  0  0  0
  -27.5564  -37.1803   24.8486 C   0  0  0  0  0  0
  -21.4272  -29.3061   22.3591 N   0  0  0  0  0  0
  -26.4308  -37.3725   23.9382 N   0  0  0  0  0  0
  -24.7250  -31.0228   22.0931 N   0  0  0  0  0  0
  -23.4207  -28.8069   23.3003 O   0  0  0  0  0  0
  -28.1966  -26.0332   20.1950 O   0  0  0  0  0  0
  -26.5660  -34.8901   22.4639 O   0  0  0  0  0  0
  -23.5581  -32.1317   23.7055 O   0  0  0  0  0  0
  -28.8743  -17.1422   20.8900 C   0  0  0  0  0  0
  -28.5067  -18.5725   20.8735 C   0  0  0  0  0  0
  -30.4191  -19.0846   19.7213 C   0  0  0  0  0  0
  -30.0664  -16.5715   20.3081 C   0  0  0  0  0  0
  -29.2505  -19.6872   20.3057 C   0  0  0  0  0  0
  -30.8093  -17.6759   19.7036 C   0  0  0  0  0  0
  -28.2872  -23.2845   20.3583 C   0  0  0  0  0  0
  -29.4953  -22.5206   19.9423 C   0  0  0  0  0  0
  -27.7854  -24.6318   20.4491 C   0  0  0  0  0  0
  -27.6602  -21.8719   20.7141 C   0  0  0  0  0  0
  -28.9333  -21.2177   20.2910 N   0  0  0  0  0  0
  -32.0085  -17.4394   19.0242 N   0  0  0  0  0  0
  -30.5496  -22.9166   19.4881 O   0  0  0  0  0  0
  -31.4547  -12.7473   19.1920 H   0  0  0  0  0  0
  -30.3956  -11.7097   20.0955 H   0  0  0  0  0  0
  -29.8507  -11.6983   17.6317 H   0  0  0  0  0  0
  -29.6037  -13.4263   17.6583 H   0  0  0  0  0  0
  -27.9608  -11.2767   19.0163 H   0  0  0  0  0  0
  -27.3918  -12.4073   17.8192 H   0  0  0  0  0  0
  -27.5511  -14.2532   19.3490 H   0  0  0  0  0  0
  -28.7640  -12.4496   21.4911 H   0  0  0  0  0  0
  -28.3461  -14.1359   21.6808 H   0  0  0  0  0  0
  -25.2788   -9.5696   22.4752 H   0  0  0  0  0  0
  -24.0037   -7.4640   22.7448 H   0  0  0  0  0  0
  -21.0873   -8.8780   19.8940 H   0  0  0  0  0  0
  -22.3721  -10.9687   19.6159 H   0  0  0  0  0  0
  -21.2013   -7.6153   23.9724 H   0  0  0  0  0  0
  -21.1486   -6.0523   25.9082 H   0  0  0  0  0  0
  -22.0596   -2.7609   23.2853 H   0  0  0  0  0  0
  -22.4121  -11.9888   22.4872 H   0  0  0  0  0  0
  -21.1034  -13.1145   22.2606 H   0  0  0  0  0  0
  -24.6392  -15.8490   20.5337 H   0  0  0  0  0  0
  -26.2527  -15.6399   20.0748 H   0  0  0  0  0  0
  -26.7289  -32.5265   23.0973 H   0  0  0  0  0  0
  -25.0110  -33.9585   25.0332 H   0  0  0  0  0  0
  -22.7572  -31.2880   21.3778 H   0  0  0  0  0  0
  -23.3732  -35.9602   23.3376 H   0  0  0  0  0  0
  -24.3542  -36.8794   22.2038 H   0  0  0  0  0  0
  -23.7294  -37.6477   23.6633 H   0  0  0  0  0  0
  -26.1742  -31.4506   20.6251 H   0  0  0  0  0  0
  -26.8804  -30.7472   22.0435 H   0  0  0  0  0  0
  -28.1278  -28.7328   21.2670 H   0  0  0  0  0  0
  -25.9157  -25.8492   18.9494 H   0  0  0  0  0  0
  -23.9839  -27.3250   18.9368 H   0  0  0  0  0  0
  -23.8238  -30.5698   19.4001 H   0  0  0  0  0  0
  -22.7953  -29.2396   19.8366 H   0  0  0  0  0  0
  -25.1319  -36.1864   25.0802 H   0  0  0  0  0  0
  -20.9997  -28.3322   24.1335 H   0  0  0  0  0  0
  -20.5616  -26.2347   23.3614 H   0  0  0  0  0  0
  -21.6642  -26.7392   22.1209 H   0  0  0  0  0  0
  -19.6914  -25.6274   21.1238 H   0  0  0  0  0  0
  -19.6680  -27.3160   20.6692 H   0  0  0  0  0  0
  -17.4188  -26.6623   21.4053 H   0  0  0  0  0  0
  -18.0381  -26.0075   22.9026 H   0  0  0  0  0  0
  -19.7965  -30.7285   24.2212 H   0  0  0  0  0  0
  -17.5034  -31.6262   24.5154 H   0  0  0  0  0  0
  -15.5367  -30.2972   23.7677 H   0  0  0  0  0  0
  -15.8677  -28.0810   22.7095 H   0  0  0  0  0  0
  -24.5888  -30.7142   25.7749 H   0  0  0  0  0  0
  -24.8946  -32.2975   26.4804 H   0  0  0  0  0  0
  -25.8000  -30.8975   27.0234 H   0  0  0  0  0  0
  -26.3020  -29.6643   24.1314 H   0  0  0  0  0  0
  -27.3938  -29.7237   25.4942 H   0  0  0  0  0  0
  -27.8962  -30.4114   23.9698 H   0  0  0  0  0  0
  -27.2670  -33.3635   26.2035 H   0  0  0  0  0  0
  -28.3917  -32.6838   25.0351 H   0  0  0  0  0  0
  -28.0695  -31.8460   26.5469 H   0  0  0  0  0  0
  -28.2659  -38.0017   24.7396 H   0  0  0  0  0  0
  -28.0982  -36.2544   24.6502 H   0  0  0  0  0  0
  -27.2244  -37.1664   25.8881 H   0  0  0  0  0  0
  -20.9496  -29.8786   21.6771 H   0  0  0  0  0  0
  -26.0179  -38.2816   24.1311 H   0  0  0  0  0  0
  -28.1991  -16.4643   21.3928 H   0  0  0  0  0  0
  -27.5745  -18.8264   21.3616 H   0  0  0  0  0  0
  -31.0899  -19.7822   19.2377 H   0  0  0  0  0  0
  -26.7824  -24.6715   20.8510 H   0  0  0  0  0  0
  -26.8258  -21.5367   20.0959 H   0  0  0  0  0  0
  -27.4377  -21.6746   21.7643 H   0  0  0  0  0  0
  -32.4966  -18.1462   18.4827 H   0  0  0  0  0  0
  -32.4428  -16.5179   19.0380 H   0  0  0  0  0  0
  1 25  1  0  0  0
  1 30  2  0  0  0
  1 74  1  0  0  0
  2  3  1  0  0  0
  2 25  1  0  0  0
  2 84  1  0  0  0
  2 85  1  0  0  0
  3  4  1  0  0  0
  3 86  1  0  0  0
  3 87  1  0  0  0
  4  5  1  0  0  0
  4 88  1  0  0  0
  4 89  1  0  0  0
  5  6  1  0  0  0
  5 26  1  0  0  0
  5 90  1  0  0  0
  6 25  1  0  0  0
  6 91  1  0  0  0
  6 92  1  0  0  0
  7  8  2  0  0  0
  7 26  1  0  0  0
  7 29  1  0  0  0
  8  9  1  0  0  0
  8 22  1  0  0  0
  9 10  1  0  0  0
  9 27  2  0  0  0
 10 11  2  0  0  0
 10 15  1  0  0  0
 11 12  1  0  0  0
 11 93  1  0  0  0
 12 13  2  0  0  0
 12 94  1  0  0  0
 13 14  1  0  0  0
 13 31  1  0  0  0
 14 15  2  0  0  0
 14 95  1  0  0  0
 15 96  1  0  0  0
 16 17  2  0  0  0
 16 21  1  0  0  0
 16 31  1  0  0  0
 17 18  1  0  0  0
 17 97  1  0  0  0
 18 19  2  0  0  0
 18 98  1  0  0  0
 19 20  1  0  0  0
 19 24  1  0  0  0
 20 21  2  0  0  0
 20 99  1  0  0  0
 21 23  1  0  0  0
 22 28  1  0  0  0
 22 32  2  0  0  0
 26 27  1  0  0  0
 28100  1  0  0  0
 28101  1  0  0  0
 29102  1  0  0  0
 29103  1  0  0  0
 33 34  1  0  0  0
 33 66  1  0  0  0
 33 70  2  0  0  0
 34 36  1  0  0  0
 34 59  1  0  0  0
 34104  1  0  0  0
 35 44  2  0  0  0
 35 45  1  0  0  0
 35 68  1  0  0  0
 36 56  1  0  0  0
 36105  1  0  0  0
 37 39  1  0  0  0
 37 47  1  0  0  0
 37 66  1  0  0  0
 37106  1  0  0  0
 38 43  2  0  0  0
 38 46  1  0  0  0
 38 47  1  0  0  0
 39 64  1  0  0  0
 39 67  2  0  0  0
 40 52  1  0  0  0
 40 53  2  0  0  0
 40 58  1  0  0  0
 41107  1  0  0  0
 41108  1  0  0  0
 41109  1  0  0  0
 41 48  1  0  0  0
 42 43  1  0  0  0
 42 66  1  0  0  0
 42110  1  0  0  0
 42111  1  0  0  0
 43 44  1  0  0  0
 44112  1  0  0  0
 45 46  2  0  0  0
 45113  1  0  0  0
 46114  1  0  0  0
 47115  1  0  0  0
 47116  1  0  0  0
 48 56  1  0  0  0
 48 65  1  0  0  0
 48117  1  0  0  0
 49 50  1  0  0  0
 49 53  1  0  0  0
 49 64  1  0  0  0
 49118  1  0  0  0
 50 51  1  0  0  0
 50119  1  0  0  0
 50120  1  0  0  0
 51 52  1  0  0  0
 51121  1  0  0  0
 51122  1  0  0  0
 52123  1  0  0  0
 52124  1  0  0  0
 53 54  1  0  0  0
 54 55  2  0  0  0
 54125  1  0  0  0
 55 57  1  0  0  0
 55126  1  0  0  0
 56 69  2  0  0  0
 57 58  2  0  0  0
 57127  1  0  0  0
 58128  1  0  0  0
 59 60  1  0  0  0
 59 61  1  0  0  0
 59 62  1  0  0  0
 60129  1  0  0  0
 60130  1  0  0  0
 60131  1  0  0  0
 61132  1  0  0  0
 61133  1  0  0  0
 61134  1  0  0  0
 62135  1  0  0  0
 62136  1  0  0  0
 62137  1  0  0  0
 63 65  1  0  0  0
 63138  1  0  0  0
 63139  1  0  0  0
 63140  1  0  0  0
 64141  1  0  0  0
 65142  1  0  0  0
 68 79  1  0  0  0
 71 72  2  0  0  0
 71 74  1  0  0  0
 71143  1  0  0  0
 72 75  1  0  0  0
 72144  1  0  0  0
 73 75  2  0  0  0
 73 76  1  0  0  0
 73145  1  0  0  0
 74 76  2  0  0  0
 75 81  1  0  0  0
 76 82  1  0  0  0
 77 78  1  0  0  0
 77 79  2  0  0  0
 77 80  1  0  0  0
 78 81  1  0  0  0
 78 83  2  0  0  0
 79146  1  0  0  0
 80 81  1  0  0  0
 80147  1  0  0  0
 80148  1  0  0  0
 82149  1  0  0  0
 82150  1  0  0  0
M  ISO  4   1 100  68 101  74 100  79 101
M  END
> <chiral flag>
0

> <version>
0

> <s_m_source_file>
/data/baiqing/PycharmProjects/Reinvent-master-3.2/result/LINK_invent/BTK/process_docking_weight1_custom_product_contain_oxygen_bond_distance_aromatic_linkinvent_7_9_3/rearranged_h_0083.sdf

> <i_m_source_file_index>
46

> <r_mmod_Potential_Energy-OPLS-2005>
825.669128417969

> <r_mmod_Stretch_Energy-OPLS-2005>
261.651733398438

> <r_mmod_Bend_Energy-OPLS-2005>
389.768249511719

> <r_mmod_Torsional_Energy-OPLS-2005>
204.384857177734

> <r_mmod_Improper_Torsional_Energy-OPLS-2005>
5.91859912872314

> <r_mmod_Van_der_Waal_Energy-OPLS-2005>
138.642639160156

> <r_mmod_Electrostatic_Energy-OPLS-2005>
-205.290084838867

> <r_mmod_Solvation_Energy-OPLS-2005>
-217.547912597656

> <b_mmod_Minimization_Converged-OPLS-2005>
0

> <r_mmod_RMS_Derivative-OPLS-2005>
2.87038326263428

$$$$
46
                    3D
 Structure written by MMmdl.
151160  0  0  1  0            999 V2000
  -30.7226  -14.4970   20.5691 C   0  0  0  0  0  0
  -30.4169  -12.3187   19.4443 C   0  0  0  0  0  0
  -29.5006  -12.5099   18.2198 C   0  0  0  0  0  0
  -28.0222  -12.3625   18.6287 C   0  0  0  0  0  0
  -27.6584  -13.2182   19.8722 C   0  0  2  0  0  0
  -28.6983  -13.0409   20.9996 C   0  0  0  0  0  0
  -25.2568  -13.8190   20.5671 C   0  0  0  0  0  0
  -24.1822  -13.0454   20.9159 C   0  0  0  0  0  0
  -24.6393  -11.6919   20.8731 C   0  0  0  0  0  0
  -23.9068  -10.4296   21.0405 C   0  0  0  0  0  0
  -24.3616   -9.4206   21.9179 C   0  0  0  0  0  0
  -23.6288   -8.2243   22.0750 C   0  0  0  0  0  0
  -22.4272   -8.0280   21.3542 C   0  0  0  0  0  0
  -21.9902   -9.0258   20.4656 C   0  0  0  0  0  0
  -22.7235  -10.2133   20.3064 C   0  0  0  0  0  0
  -21.6856   -6.0733   22.5282 C   0  0  0  0  0  0
  -21.4009   -6.5644   23.8207 C   0  0  0  0  0  0
  -21.3653   -5.6799   24.9174 C   0  0  0  0  0  0
  -21.6049   -4.3060   24.7226 C   0  0  0  0  0  0
  -21.8827   -3.8151   23.4350 C   0  0  0  0  0  0
  -21.9187   -4.6962   22.3405 C   0  0  0  0  0  0
  -22.7841  -13.5232   21.1832 C   0  0  0  0  0  0
  -22.1665   -4.2145   21.0992 F   0  0  0  0  0  0
  -21.5632   -3.4546   25.7750 F   0  0  0  0  0  0
  -30.0281  -13.3289   20.4451 N   0  0  0  0  0  0
  -26.3016  -12.9376   20.3355 N   0  0  0  0  0  0
  -25.9333  -11.6525   20.5765 N   0  0  0  0  0  0
  -22.0491  -12.8226   22.0399 N   0  0  0  0  0  0
  -25.4319  -15.1911   20.4097 N   0  0  0  0  0  0
  -31.8647  -14.5907   20.1110 O   0  0  0  0  0  0
  -21.6645   -6.8875   21.4241 O   0  0  0  0  0  0
  -22.3525  -14.5525   20.6664 O   0  0  0  0  0  0
  -24.6138  -31.8677   23.2083 C   0  0  0  0  0  0
  -25.9037  -32.4823   23.8380 C   0  0  1  0  0  0
  -27.2291  -27.4239   20.1003 C   0  0  0  0  0  0
  -25.5912  -33.8619   24.2321 N   0  0  0  0  0  0
  -23.4046  -30.4884   21.5496 C   0  0  2  0  0  0
  -24.8555  -28.9598   20.1080 C   0  0  0  0  0  0
  -22.7417  -29.4632   22.4973 C   0  0  0  0  0  0
  -18.0285  -28.1342   22.8482 C   0  0  0  0  0  0
  -24.1493  -36.7302   23.2623 C   0  0  0  0  0  0
  -25.9358  -30.8300   21.3658 C   0  0  0  0  0  0
  -26.0165  -29.4664   20.7082 C   0  0  0  0  0  0
  -27.2116  -28.7045   20.7035 C   0  0  0  0  0  0
  -26.0567  -26.9373   19.4886 C   0  0  0  0  0  0
  -24.8705  -27.6955   19.4931 C   0  0  0  0  0  0
  -23.6153  -29.8243   20.1625 C   0  0  0  0  0  0
  -25.4113  -36.3110   24.0333 C   0  0  1  0  0  0
  -20.5877  -28.3630   23.1313 C   0  0  2  0  0  0
  -20.6767  -26.9363   22.5418 C   0  0  0  0  0  0
  -19.5764  -26.6359   21.5192 C   0  0  0  0  0  0
  -18.1939  -26.7891   22.1606 C   0  0  0  0  0  0
  -19.1530  -28.8805   23.2895 C   0  0  0  0  0  0
  -18.9456  -30.1413   23.8900 C   0  0  0  0  0  0
  -17.6461  -30.6553   24.0553 C   0  0  0  0  0  0
  -25.9047  -34.9477   23.5124 C   0  0  0  0  0  0
  -16.5355  -29.9058   23.6309 C   0  0  0  0  0  0
  -16.7276  -28.6473   23.0336 C   0  0  0  0  0  0
  -26.4454  -31.6582   25.0696 C   0  0  0  0  0  0
  -25.3724  -31.3754   26.1462 C   0  0  0  0  0  0
  -27.0211  -30.2993   24.6067 C   0  0  0  0  0  0
  -27.6071  -32.4247   25.7446 C   0  0  0  0  0  0
  -27.5594  -37.1796   24.8443 C   0  0  0  0  0  0
  -21.4149  -29.3002   22.3717 N   0  0  0  0  0  0
  -26.4294  -37.3795   23.9409 N   0  0  0  0  0  0
  -24.6688  -31.0758   22.0997 N   0  0  0  0  0  0
  -23.4191  -28.8176   23.3010 O   0  0  0  0  0  0
  -28.3305  -26.5963   20.1444 O   0  0  0  0  0  0
  -26.5600  -34.8932   22.4678 O   0  0  0  0  0  0
  -23.5325  -32.1432   23.7474 O   0  0  0  0  0  0
  -29.7714  -18.9477   19.3833 C   0  0  0  0  0  0
  -29.2643  -18.5931   21.7080 C   0  0  0  0  0  0
  -29.5184  -20.3292   19.5321 C   0  0  0  0  0  0
  -29.0073  -19.9841   21.8419 C   0  0  0  0  0  0
  -29.6609  -18.0485   20.4674 C   0  0  0  0  0  0
  -29.1316  -20.9060   20.7650 C   0  0  0  0  0  0
  -28.5565  -24.2827   20.9435 C   0  0  0  0  0  0
  -28.4013  -23.1971   21.8789 C   0  0  0  0  0  0
  -30.0299  -16.6128   20.2388 C   0  0  0  0  0  0
  -28.2223  -25.5896   21.0853 C   0  0  0  0  0  0
  -29.1331  -23.3451   19.8910 C   0  0  0  0  0  0
  -30.0204  -15.6118   21.0518 N   0  0  0  0  0  0
  -28.8789  -22.3131   20.9163 N   0  0  0  0  0  0
  -27.9936  -23.1560   23.0221 O   0  0  0  0  0  0
  -31.4638  -12.3946   19.1439 H   0  0  0  0  0  0
  -30.3040  -11.3158   19.8582 H   0  0  0  0  0  0
  -29.7525  -11.7845   17.4457 H   0  0  0  0  0  0
  -29.6688  -13.4971   17.7850 H   0  0  0  0  0  0
  -27.8437  -11.3073   18.8421 H   0  0  0  0  0  0
  -27.3713  -12.6167   17.7917 H   0  0  0  0  0  0
  -27.6926  -14.2614   19.5602 H   0  0  0  0  0  0
  -28.6748  -12.0216   21.3868 H   0  0  0  0  0  0
  -28.4639  -13.6877   21.8459 H   0  0  0  0  0  0
  -25.2769   -9.5670   22.4750 H   0  0  0  0  0  0
  -24.0008   -7.4634   22.7460 H   0  0  0  0  0  0
  -21.0837   -8.8778   19.8965 H   0  0  0  0  0  0
  -22.3703  -10.9676   19.6177 H   0  0  0  0  0  0
  -21.2008   -7.6154   23.9709 H   0  0  0  0  0  0
  -21.1476   -6.0537   25.9075 H   0  0  0  0  0  0
  -22.0618   -2.7612   23.2867 H   0  0  0  0  0  0
  -22.4112  -11.9895   22.4803 H   0  0  0  0  0  0
  -21.1114  -13.1261   22.2621 H   0  0  0  0  0  0
  -24.6717  -15.8528   20.5202 H   0  0  0  0  0  0
  -26.3038  -15.6271   20.1349 H   0  0  0  0  0  0
  -26.7107  -32.5554   23.1143 H   0  0  0  0  0  0
  -25.0055  -33.9775   25.0459 H   0  0  0  0  0  0
  -22.6933  -31.3049   21.4130 H   0  0  0  0  0  0
  -23.3761  -35.9626   23.3267 H   0  0  0  0  0  0
  -24.3587  -36.8916   22.2039 H   0  0  0  0  0  0
  -23.7231  -37.6499   23.6638 H   0  0  0  0  0  0
  -26.0525  -31.6006   20.6028 H   0  0  0  0  0  0
  -26.8203  -30.8790   21.9894 H   0  0  0  0  0  0
  -28.1049  -29.0795   21.1830 H   0  0  0  0  0  0
  -26.0623  -25.9606   19.0272 H   0  0  0  0  0  0
  -23.9774  -27.3018   19.0288 H   0  0  0  0  0  0
  -23.7217  -30.6038   19.4074 H   0  0  0  0  0  0
  -22.7399  -29.2449   19.8627 H   0  0  0  0  0  0
  -25.1280  -36.1969   25.0822 H   0  0  0  0  0  0
  -20.9975  -28.3191   24.1437 H   0  0  0  0  0  0
  -20.5633  -26.2229   23.3594 H   0  0  0  0  0  0
  -21.6646  -26.7382   22.1245 H   0  0  0  0  0  0
  -19.6932  -25.6277   21.1190 H   0  0  0  0  0  0
  -19.6715  -27.3187   20.6742 H   0  0  0  0  0  0
  -17.4214  -26.6617   21.4009 H   0  0  0  0  0  0
  -18.0362  -26.0016   22.8995 H   0  0  0  0  0  0
  -19.7936  -30.7218   24.2275 H   0  0  0  0  0  0
  -17.5009  -31.6233   24.5149 H   0  0  0  0  0  0
  -15.5348  -30.2958   23.7615 H   0  0  0  0  0  0
  -15.8676  -28.0790   22.7042 H   0  0  0  0  0  0
  -24.5877  -30.7114   25.7815 H   0  0  0  0  0  0
  -24.8967  -32.2960   26.4863 H   0  0  0  0  0  0
  -25.8062  -30.8946   27.0240 H   0  0  0  0  0  0
  -26.2732  -29.6830   24.1069 H   0  0  0  0  0  0
  -27.3884  -29.7146   25.4508 H   0  0  0  0  0  0
  -27.8627  -30.4254   23.9251 H   0  0  0  0  0  0
  -27.2749  -33.3553   26.2054 H   0  0  0  0  0  0
  -28.3883  -32.6774   25.0265 H   0  0  0  0  0  0
  -28.0725  -31.8330   26.5334 H   0  0  0  0  0  0
  -28.2607  -38.0106   24.7534 H   0  0  0  0  0  0
  -28.1105  -36.2646   24.6211 H   0  0  0  0  0  0
  -27.2319  -37.1370   25.8846 H   0  0  0  0  0  0
  -20.9290  -29.8728   21.6959 H   0  0  0  0  0  0
  -26.0181  -38.2864   24.1446 H   0  0  0  0  0  0
  -30.0742  -18.5835   18.4107 H   0  0  0  0  0  0
  -29.1717  -17.9478   22.5713 H   0  0  0  0  0  0
  -29.6312  -20.9528   18.6568 H   0  0  0  0  0  0
  -28.7137  -20.3517   22.8162 H   0  0  0  0  0  0
  -30.3799  -16.4584   19.2108 H   0  0  0  0  0  0
  -27.7855  -25.9510   22.0079 H   0  0  0  0  0  0
  -30.1956  -23.4473   19.6632 H   0  0  0  0  0  0
  -28.5536  -23.1876   18.9801 H   0  0  0  0  0  0
  1 25  1  0  0  0
  1 30  2  0  0  0
  1 82  1  0  0  0
  2  3  1  0  0  0
  2 25  1  0  0  0
  2 85  1  0  0  0
  2 86  1  0  0  0
  3  4  1  0  0  0
  3 87  1  0  0  0
  3 88  1  0  0  0
  4  5  1  0  0  0
  4 89  1  0  0  0
  4 90  1  0  0  0
  5  6  1  0  0  0
  5 26  1  0  0  0
  5 91  1  0  0  0
  6 25  1  0  0  0
  6 92  1  0  0  0
  6 93  1  0  0  0
  7  8  2  0  0  0
  7 26  1  0  0  0
  7 29  1  0  0  0
  8  9  1  0  0  0
  8 22  1  0  0  0
  9 10  1  0  0  0
  9 27  2  0  0  0
 10 11  2  0  0  0
 10 15  1  0  0  0
 11 12  1  0  0  0
 11 94  1  0  0  0
 12 13  2  0  0  0
 12 95  1  0  0  0
 13 14  1  0  0  0
 13 31  1  0  0  0
 14 15  2  0  0  0
 14 96  1  0  0  0
 15 97  1  0  0  0
 16 17  2  0  0  0
 16 21  1  0  0  0
 16 31  1  0  0  0
 17 18  1  0  0  0
 17 98  1  0  0  0
 18 19  2  0  0  0
 18 99  1  0  0  0
 19 20  1  0  0  0
 19 24  1  0  0  0
 20 21  2  0  0  0
 20100  1  0  0  0
 21 23  1  0  0  0
 22 28  1  0  0  0
 22 32  2  0  0  0
 26 27  1  0  0  0
 28101  1  0  0  0
 28102  1  0  0  0
 29103  1  0  0  0
 29104  1  0  0  0
 33 34  1  0  0  0
 33 66  1  0  0  0
 33 70  2  0  0  0
 34 36  1  0  0  0
 34 59  1  0  0  0
 34105  1  0  0  0
 35 44  2  0  0  0
 35 45  1  0  0  0
 35 68  1  0  0  0
 36 56  1  0  0  0
 36106  1  0  0  0
 37 39  1  0  0  0
 37 47  1  0  0  0
 37 66  1  0  0  0
 37107  1  0  0  0
 38 43  2  0  0  0
 38 46  1  0  0  0
 38 47  1  0  0  0
 39 64  1  0  0  0
 39 67  2  0  0  0
 40 52  1  0  0  0
 40 53  2  0  0  0
 40 58  1  0  0  0
 41108  1  0  0  0
 41109  1  0  0  0
 41110  1  0  0  0
 41 48  1  0  0  0
 42 43  1  0  0  0
 42 66  1  0  0  0
 42111  1  0  0  0
 42112  1  0  0  0
 43 44  1  0  0  0
 44113  1  0  0  0
 45 46  2  0  0  0
 45114  1  0  0  0
 46115  1  0  0  0
 47116  1  0  0  0
 47117  1  0  0  0
 48 56  1  0  0  0
 48 65  1  0  0  0
 48118  1  0  0  0
 49 50  1  0  0  0
 49 53  1  0  0  0
 49 64  1  0  0  0
 49119  1  0  0  0
 50 51  1  0  0  0
 50120  1  0  0  0
 50121  1  0  0  0
 51 52  1  0  0  0
 51122  1  0  0  0
 51123  1  0  0  0
 52124  1  0  0  0
 52125  1  0  0  0
 53 54  1  0  0  0
 54 55  2  0  0  0
 54126  1  0  0  0
 55 57  1  0  0  0
 55127  1  0  0  0
 56 69  2  0  0  0
 57 58  2  0  0  0
 57128  1  0  0  0
 58129  1  0  0  0
 59 60  1  0  0  0
 59 61  1  0  0  0
 59 62  1  0  0  0
 60130  1  0  0  0
 60131  1  0  0  0
 60132  1  0  0  0
 61133  1  0  0  0
 61134  1  0  0  0
 61135  1  0  0  0
 62136  1  0  0  0
 62137  1  0  0  0
 62138  1  0  0  0
 63 65  1  0  0  0
 63139  1  0  0  0
 63140  1  0  0  0
 63141  1  0  0  0
 64142  1  0  0  0
 65143  1  0  0  0
 68 80  1  0  0  0
 71 73  2  0  0  0
 71 75  1  0  0  0
 71144  1  0  0  0
 72 74  1  0  0  0
 72 75  2  0  0  0
 72145  1  0  0  0
 73 76  1  0  0  0
 73146  1  0  0  0
 74 76  2  0  0  0
 74147  1  0  0  0
 75 79  1  0  0  0
 76 83  1  0  0  0
 77 78  1  0  0  0
 77 80  2  0  0  0
 77 81  1  0  0  0
 78 83  1  0  0  0
 78 84  2  0  0  0
 79 82  2  0  0  0
 79148  1  0  0  0
 80149  1  0  0  0
 81 83  1  0  0  0
 81150  1  0  0  0
 81151  1  0  0  0
M  ISO  4   1 100  68 101  80 101  82 100
M  END
> <chiral flag>
0

> <version>
0

> <s_m_source_file>
/data/baiqing/PycharmProjects/Reinvent-master-3.2/result/LINK_invent/BTK/process_docking_weight1_custom_product_contain_oxygen_bond_distance_aromatic_linkinvent_7_9_3/rearranged_h_0083.sdf

> <i_m_source_file_index>
47

> <r_mmod_Potential_Energy-OPLS-2005>
50.0398368835449

> <r_mmod_Stretch_Energy-OPLS-2005>
43.3796691894531

> <r_mmod_Bend_Energy-OPLS-2005>
183.874755859375

> <r_mmod_Torsional_Energy-OPLS-2005>
189.626495361328

> <r_mmod_Improper_Torsional_Energy-OPLS-2005>
4.22790908813477

> <r_mmod_Van_der_Waal_Energy-OPLS-2005>
154.09895324707

> <r_mmod_Electrostatic_Energy-OPLS-2005>
-348.248504638672

> <r_mmod_Solvation_Energy-OPLS-2005>
-196.797790527344

> <b_mmod_Minimization_Converged-OPLS-2005>
0

> <r_mmod_RMS_Derivative-OPLS-2005>
2.51013040542603

$$$$
47
                    3D
 Structure written by MMmdl.
150159  0  0  1  0            999 V2000
  -30.5688  -14.7425   20.4846 C   0  0  0  0  0  0
  -30.4511  -12.4558   19.4665 C   0  0  0  0  0  0
  -29.5167  -12.5194   18.2353 C   0  0  0  0  0  0
  -28.0415  -12.3383   18.6471 C   0  0  0  0  0  0
  -27.6514  -13.2210   19.8616 C   0  0  2  0  0  0
  -28.6968  -13.1056   20.9939 C   0  0  0  0  0  0
  -25.2558  -13.8174   20.5689 C   0  0  0  0  0  0
  -24.1829  -13.0437   20.9196 C   0  0  0  0  0  0
  -24.6401  -11.6907   20.8741 C   0  0  0  0  0  0
  -23.9068  -10.4291   21.0407 C   0  0  0  0  0  0
  -24.3618   -9.4206   21.9185 C   0  0  0  0  0  0
  -23.6292   -8.2242   22.0754 C   0  0  0  0  0  0
  -22.4275   -8.0280   21.3543 C   0  0  0  0  0  0
  -21.9909   -9.0255   20.4648 C   0  0  0  0  0  0
  -22.7237  -10.2135   20.3058 C   0  0  0  0  0  0
  -21.6853   -6.0733   22.5278 C   0  0  0  0  0  0
  -21.4013   -6.5638   23.8211 C   0  0  0  0  0  0
  -21.3660   -5.6792   24.9174 C   0  0  0  0  0  0
  -21.6046   -4.3055   24.7225 C   0  0  0  0  0  0
  -21.8819   -3.8145   23.4347 C   0  0  0  0  0  0
  -21.9193   -4.6961   22.3403 C   0  0  0  0  0  0
  -22.7849  -13.5228   21.1858 C   0  0  0  0  0  0
  -22.1662   -4.2146   21.0981 F   0  0  0  0  0  0
  -21.5631   -3.4539   25.7739 F   0  0  0  0  0  0
  -30.0027  -13.4863   20.4304 N   0  0  0  0  0  0
  -26.2984  -12.9357   20.3310 N   0  0  0  0  0  0
  -25.9332  -11.6509   20.5755 N   0  0  0  0  0  0
  -22.0492  -12.8222   22.0416 N   0  0  0  0  0  0
  -25.4272  -15.1895   20.4102 N   0  0  0  0  0  0
  -31.7266  -14.9241   20.0928 O   0  0  0  0  0  0
  -21.6639   -6.8877   21.4240 O   0  0  0  0  0  0
  -22.3536  -14.5534   20.6705 O   0  0  0  0  0  0
  -24.6314  -31.8549   23.1983 C   0  0  0  0  0  0
  -25.9135  -32.4756   23.8334 C   0  0  1  0  0  0
  -27.2251  -27.2671   20.1293 C   0  0  0  0  0  0
  -25.5927  -33.8557   24.2256 N   0  0  0  0  0  0
  -23.4298  -30.4767   21.5412 C   0  0  2  0  0  0
  -24.8813  -28.9256   20.1088 C   0  0  0  0  0  0
  -22.7508  -29.4598   22.4905 C   0  0  0  0  0  0
  -18.0294  -28.1386   22.8485 C   0  0  0  0  0  0
  -24.1489  -36.7287   23.2640 C   0  0  0  0  0  0
  -25.9762  -30.7686   21.3801 C   0  0  0  0  0  0
  -26.0528  -29.3914   20.7222 C   0  0  0  0  0  0
  -27.2303  -28.5734   20.7249 C   0  0  0  0  0  0
  -26.0357  -26.8727   19.4802 C   0  0  0  0  0  0
  -24.8773  -27.6732   19.4763 C   0  0  0  0  0  0
  -23.6501  -29.8106   20.1577 C   0  0  0  0  0  0
  -25.4115  -36.3072   24.0326 C   0  0  1  0  0  0
  -20.5899  -28.3701   23.1263 C   0  0  2  0  0  0
  -20.6781  -26.9416   22.5405 C   0  0  0  0  0  0
  -19.5755  -26.6381   21.5211 C   0  0  0  0  0  0
  -18.1937  -26.7926   22.1628 C   0  0  0  0  0  0
  -19.1548  -28.8860   23.2869 C   0  0  0  0  0  0
  -18.9469  -30.1460   23.8889 C   0  0  0  0  0  0
  -17.6468  -30.6587   24.0562 C   0  0  0  0  0  0
  -25.9055  -34.9440   23.5096 C   0  0  0  0  0  0
  -16.5359  -29.9084   23.6331 C   0  0  0  0  0  0
  -16.7280  -28.6501   23.0354 C   0  0  0  0  0  0
  -26.4500  -31.6579   25.0723 C   0  0  0  0  0  0
  -25.3720  -31.3737   26.1442 C   0  0  0  0  0  0
  -27.0350  -30.2993   24.6219 C   0  0  0  0  0  0
  -27.6048  -32.4325   25.7500 C   0  0  0  0  0  0
  -27.5577  -37.1801   24.8467 C   0  0  0  0  0  0
  -21.4213  -29.3046   22.3650 N   0  0  0  0  0  0
  -26.4293  -37.3768   23.9403 N   0  0  0  0  0  0
  -24.6981  -31.0509   22.0964 N   0  0  0  0  0  0
  -23.4202  -28.8137   23.3009 O   0  0  0  0  0  0
  -28.2752  -26.3201   20.1786 O   0  0  0  0  0  0
  -26.5632  -34.8915   22.4668 O   0  0  0  0  0  0
  -23.5460  -32.1372   23.7271 O   0  0  0  0  0  0
  -28.4105  -19.3364   21.3801 C   0  0  0  0  0  0
  -30.2734  -19.5668   19.9659 C   0  0  0  0  0  0
  -28.6165  -17.9233   21.4412 C   0  0  0  0  0  0
  -30.5049  -18.1375   20.0209 C   0  0  0  0  0  0
  -29.2098  -20.2595   20.6408 C   0  0  0  0  0  0
  -29.6699  -17.2525   20.7673 C   0  0  0  0  0  0
  -28.4309  -23.7441   20.6072 C   0  0  0  0  0  0
  -27.9264  -22.5514   21.2796 C   0  0  0  0  0  0
  -27.9463  -25.0474   20.7337 C   0  0  0  0  0  0
  -29.4897  -22.8481   19.8939 C   0  0  0  0  0  0
  -28.8793  -21.7173   20.6584 N   0  0  0  0  0  0
  -29.7260  -15.7692   20.8753 N   0  0  0  0  0  0
  -27.0094  -22.4109   22.0626 O   0  0  0  0  0  0
  -31.4871  -12.6089   19.1602 H   0  0  0  0  0  0
  -30.4190  -11.4669   19.9264 H   0  0  0  0  0  0
  -29.7978  -11.7561   17.5085 H   0  0  0  0  0  0
  -29.6391  -13.4799   17.7321 H   0  0  0  0  0  0
  -27.8954  -11.2864   18.8952 H   0  0  0  0  0  0
  -27.3837  -12.5446   17.8018 H   0  0  0  0  0  0
  -27.6589  -14.2509   19.5045 H   0  0  0  0  0  0
  -28.7337  -12.0857   21.3798 H   0  0  0  0  0  0
  -28.4238  -13.7329   21.8436 H   0  0  0  0  0  0
  -25.2766   -9.5679   22.4756 H   0  0  0  0  0  0
  -24.0002   -7.4633   22.7473 H   0  0  0  0  0  0
  -21.0840   -8.8774   19.8953 H   0  0  0  0  0  0
  -22.3696  -10.9675   19.6166 H   0  0  0  0  0  0
  -21.2001   -7.6145   23.9713 H   0  0  0  0  0  0
  -21.1484   -6.0523   25.9077 H   0  0  0  0  0  0
  -22.0597   -2.7605   23.2849 H   0  0  0  0  0  0
  -22.4111  -11.9885   22.4804 H   0  0  0  0  0  0
  -21.1110  -13.1250   22.2623 H   0  0  0  0  0  0
  -24.6573  -15.8418   20.5125 H   0  0  0  0  0  0
  -26.2696  -15.6263   20.0581 H   0  0  0  0  0  0
  -26.7202  -32.5413   23.1078 H   0  0  0  0  0  0
  -25.0057  -33.9693   25.0390 H   0  0  0  0  0  0
  -22.7266  -31.2991   21.3940 H   0  0  0  0  0  0
  -23.3748  -35.9624   23.3309 H   0  0  0  0  0  0
  -24.3576  -36.8903   22.2053 H   0  0  0  0  0  0
  -23.7248  -37.6493   23.6660 H   0  0  0  0  0  0
  -26.1150  -31.5294   20.6106 H   0  0  0  0  0  0
  -26.8528  -30.8181   22.0143 H   0  0  0  0  0  0
  -28.1243  -28.9187   21.2251 H   0  0  0  0  0  0
  -25.9908  -25.9061   18.9983 H   0  0  0  0  0  0
  -23.9820  -27.3108   18.9898 H   0  0  0  0  0  0
  -23.7730  -30.5871   19.4017 H   0  0  0  0  0  0
  -22.7692  -29.2428   19.8525 H   0  0  0  0  0  0
  -25.1298  -36.1923   25.0820 H   0  0  0  0  0  0
  -20.9995  -28.3281   24.1382 H   0  0  0  0  0  0
  -20.5677  -26.2313   23.3614 H   0  0  0  0  0  0
  -21.6648  -26.7435   22.1202 H   0  0  0  0  0  0
  -19.6917  -25.6290   21.1246 H   0  0  0  0  0  0
  -19.6688  -27.3187   20.6737 H   0  0  0  0  0  0
  -17.4203  -26.6666   21.4036 H   0  0  0  0  0  0
  -18.0347  -26.0068   22.9028 H   0  0  0  0  0  0
  -19.7945  -30.7278   24.2254 H   0  0  0  0  0  0
  -17.5022  -31.6266   24.5166 H   0  0  0  0  0  0
  -15.5359  -30.2986   23.7654 H   0  0  0  0  0  0
  -15.8681  -28.0816   22.7076 H   0  0  0  0  0  0
  -24.5881  -30.7107   25.7764 H   0  0  0  0  0  0
  -24.8934  -32.2915   26.4869 H   0  0  0  0  0  0
  -25.8028  -30.8901   27.0219 H   0  0  0  0  0  0
  -26.2941  -29.6737   24.1227 H   0  0  0  0  0  0
  -27.4008  -29.7259   25.4746 H   0  0  0  0  0  0
  -27.8829  -30.4259   23.9482 H   0  0  0  0  0  0
  -27.2643  -33.3623   26.2071 H   0  0  0  0  0  0
  -28.3862  -32.6893   25.0334 H   0  0  0  0  0  0
  -28.0714  -31.8460   26.5423 H   0  0  0  0  0  0
  -28.2603  -38.0091   24.7499 H   0  0  0  0  0  0
  -28.1067  -36.2621   24.6313 H   0  0  0  0  0  0
  -27.2294  -37.1474   25.8870 H   0  0  0  0  0  0
  -20.9400  -29.8772   21.6856 H   0  0  0  0  0  0
  -26.0174  -38.2846   24.1392 H   0  0  0  0  0  0
  -27.5713  -19.7232   21.9405 H   0  0  0  0  0  0
  -30.9549  -20.1548   19.3681 H   0  0  0  0  0  0
  -27.9212  -17.3440   22.0327 H   0  0  0  0  0  0
  -31.3334  -17.7272   19.4608 H   0  0  0  0  0  0
  -27.1166  -25.1732   21.4177 H   0  0  0  0  0  0
  -30.5373  -22.9974   20.1595 H   0  0  0  0  0  0
  -29.3866  -22.7089   18.8166 H   0  0  0  0  0  0
  -28.8828  -15.3800   21.2681 H   0  0  0  0  0  0
  1 25  1  0  0  0
  1 30  2  0  0  0
  1 82  1  0  0  0
  2  3  1  0  0  0
  2 25  1  0  0  0
  2 84  1  0  0  0
  2 85  1  0  0  0
  3  4  1  0  0  0
  3 86  1  0  0  0
  3 87  1  0  0  0
  4  5  1  0  0  0
  4 88  1  0  0  0
  4 89  1  0  0  0
  5  6  1  0  0  0
  5 26  1  0  0  0
  5 90  1  0  0  0
  6 25  1  0  0  0
  6 91  1  0  0  0
  6 92  1  0  0  0
  7  8  2  0  0  0
  7 26  1  0  0  0
  7 29  1  0  0  0
  8  9  1  0  0  0
  8 22  1  0  0  0
  9 10  1  0  0  0
  9 27  2  0  0  0
 10 11  2  0  0  0
 10 15  1  0  0  0
 11 12  1  0  0  0
 11 93  1  0  0  0
 12 13  2  0  0  0
 12 94  1  0  0  0
 13 14  1  0  0  0
 13 31  1  0  0  0
 14 15  2  0  0  0
 14 95  1  0  0  0
 15 96  1  0  0  0
 16 17  2  0  0  0
 16 21  1  0  0  0
 16 31  1  0  0  0
 17 18  1  0  0  0
 17 97  1  0  0  0
 18 19  2  0  0  0
 18 98  1  0  0  0
 19 20  1  0  0  0
 19 24  1  0  0  0
 20 21  2  0  0  0
 20 99  1  0  0  0
 21 23  1  0  0  0
 22 28  1  0  0  0
 22 32  2  0  0  0
 26 27  1  0  0  0
 28100  1  0  0  0
 28101  1  0  0  0
 29102  1  0  0  0
 29103  1  0  0  0
 33 34  1  0  0  0
 33 66  1  0  0  0
 33 70  2  0  0  0
 34 36  1  0  0  0
 34 59  1  0  0  0
 34104  1  0  0  0
 35 44  2  0  0  0
 35 45  1  0  0  0
 35 68  1  0  0  0
 36 56  1  0  0  0
 36105  1  0  0  0
 37 39  1  0  0  0
 37 47  1  0  0  0
 37 66  1  0  0  0
 37106  1  0  0  0
 38 43  2  0  0  0
 38 46  1  0  0  0
 38 47  1  0  0  0
 39 64  1  0  0  0
 39 67  2  0  0  0
 40 52  1  0  0  0
 40 53  2  0  0  0
 40 58  1  0  0  0
 41107  1  0  0  0
 41108  1  0  0  0
 41109  1  0  0  0
 41 48  1  0  0  0
 42 43  1  0  0  0
 42 66  1  0  0  0
 42110  1  0  0  0
 42111  1  0  0  0
 43 44  1  0  0  0
 44112  1  0  0  0
 45 46  2  0  0  0
 45113  1  0  0  0
 46114  1  0  0  0
 47115  1  0  0  0
 47116  1  0  0  0
 48 56  1  0  0  0
 48 65  1  0  0  0
 48117  1  0  0  0
 49 50  1  0  0  0
 49 53  1  0  0  0
 49 64  1  0  0  0
 49118  1  0  0  0
 50 51  1  0  0  0
 50119  1  0  0  0
 50120  1  0  0  0
 51 52  1  0  0  0
 51121  1  0  0  0
 51122  1  0  0  0
 52123  1  0  0  0
 52124  1  0  0  0
 53 54  1  0  0  0
 54 55  2  0  0  0
 54125  1  0  0  0
 55 57  1  0  0  0
 55126  1  0  0  0
 56 69  2  0  0  0
 57 58  2  0  0  0
 57127  1  0  0  0
 58128  1  0  0  0
 59 60  1  0  0  0
 59 61  1  0  0  0
 59 62  1  0  0  0
 60129  1  0  0  0
 60130  1  0  0  0
 60131  1  0  0  0
 61132  1  0  0  0
 61133  1  0  0  0
 61134  1  0  0  0
 62135  1  0  0  0
 62136  1  0  0  0
 62137  1  0  0  0
 63 65  1  0  0  0
 63138  1  0  0  0
 63139  1  0  0  0
 63140  1  0  0  0
 64141  1  0  0  0
 65142  1  0  0  0
 68 79  1  0  0  0
 71 73  2  0  0  0
 71 75  1  0  0  0
 71143  1  0  0  0
 72 74  1  0  0  0
 72 75  2  0  0  0
 72144  1  0  0  0
 73 76  1  0  0  0
 73145  1  0  0  0
 74 76  2  0  0  0
 74146  1  0  0  0
 75 81  1  0  0  0
 76 82  1  0  0  0
 77 78  1  0  0  0
 77 79  2  0  0  0
 77 80  1  0  0  0
 78 81  1  0  0  0
 78 83  2  0  0  0
 79147  1  0  0  0
 80 81  1  0  0  0
 80148  1  0  0  0
 80149  1  0  0  0
 82150  1  0  0  0
M  ISO  4   1 100  68 101  79 101  82 100
M  END
> <chiral flag>
0

> <version>
0

> <s_m_source_file>
/data/baiqing/PycharmProjects/Reinvent-master-3.2/result/LINK_invent/BTK/process_docking_weight1_custom_product_contain_oxygen_bond_distance_aromatic_linkinvent_7_9_3/rearranged_h_0083.sdf

> <i_m_source_file_index>
48

> <r_mmod_Potential_Energy-OPLS-2005>
216.132476806641

> <r_mmod_Stretch_Energy-OPLS-2005>
106.639839172363

> <r_mmod_Bend_Energy-OPLS-2005>
270.633514404297

> <r_mmod_Torsional_Energy-OPLS-2005>
220.047012329102

> <r_mmod_Improper_Torsional_Energy-OPLS-2005>
3.45398616790771

> <r_mmod_Van_der_Waal_Energy-OPLS-2005>
134.407424926758

> <r_mmod_Electrostatic_Energy-OPLS-2005>
-389.396118164062

> <r_mmod_Solvation_Energy-OPLS-2005>
-217.768142700195

> <b_mmod_Minimization_Converged-OPLS-2005>
0

> <r_mmod_RMS_Derivative-OPLS-2005>
0.351050615310669

$$$$
48
                    3D
 Structure written by MMmdl.
152161  0  0  1  0            999 V2000
  -30.5511  -14.8556   20.4128 C   0  0  0  0  0  0
  -30.4352  -12.5119   19.5058 C   0  0  0  0  0  0
  -29.5296  -12.5211   18.2543 C   0  0  0  0  0  0
  -28.0431  -12.3687   18.6396 C   0  0  0  0  0  0
  -27.6362  -13.2515   19.8519 C   0  0  2  0  0  0
  -28.6760  -13.2037   20.9904 C   0  0  0  0  0  0
  -25.2487  -13.8239   20.5768 C   0  0  0  0  0  0
  -24.1805  -13.0439   20.9247 C   0  0  0  0  0  0
  -24.6426  -11.6922   20.8747 C   0  0  0  0  0  0
  -23.9137  -10.4274   21.0412 C   0  0  0  0  0  0
  -24.3658   -9.4183   21.9208 C   0  0  0  0  0  0
  -23.6309   -8.2229   22.0777 C   0  0  0  0  0  0
  -22.4304   -8.0263   21.3562 C   0  0  0  0  0  0
  -21.9949   -9.0267   20.4697 C   0  0  0  0  0  0
  -22.7292  -10.2140   20.3089 C   0  0  0  0  0  0
  -21.6859   -6.0723   22.5289 C   0  0  0  0  0  0
  -21.4020   -6.5634   23.8219 C   0  0  0  0  0  0
  -21.3665   -5.6789   24.9178 C   0  0  0  0  0  0
  -21.6035   -4.3053   24.7246 C   0  0  0  0  0  0
  -21.8823   -3.8151   23.4371 C   0  0  0  0  0  0
  -21.9209   -4.6955   22.3415 C   0  0  0  0  0  0
  -22.7814  -13.5197   21.1881 C   0  0  0  0  0  0
  -22.1661   -4.2120   21.1000 F   0  0  0  0  0  0
  -21.5645   -3.4532   25.7755 F   0  0  0  0  0  0
  -29.9653  -13.5969   20.4099 N   0  0  0  0  0  0
  -26.2910  -12.9480   20.3269 N   0  0  0  0  0  0
  -25.9359  -11.6609   20.5737 N   0  0  0  0  0  0
  -22.0480  -12.8210   22.0456 N   0  0  0  0  0  0
  -25.4143  -15.1994   20.4347 N   0  0  0  0  0  0
  -31.7432  -14.9340   20.0926 O   0  0  0  0  0  0
  -21.6666   -6.8860   21.4245 O   0  0  0  0  0  0
  -22.3484  -14.5475   20.6692 O   0  0  0  0  0  0
  -24.6416  -31.8458   23.1906 C   0  0  0  0  0  0
  -25.9188  -32.4704   23.8297 C   0  0  1  0  0  0
  -27.2307  -27.1629   20.1547 C   0  0  0  0  0  0
  -25.5944  -33.8524   24.2189 N   0  0  0  0  0  0
  -23.4464  -30.4610   21.5400 C   0  0  2  0  0  0
  -24.8994  -28.8894   20.1219 C   0  0  0  0  0  0
  -22.7575  -29.4522   22.4921 C   0  0  0  0  0  0
  -18.0301  -28.1378   22.8474 C   0  0  0  0  0  0
  -24.1491  -36.7235   23.2623 C   0  0  0  0  0  0
  -26.0012  -30.7254   21.3889 C   0  0  0  0  0  0
  -26.0772  -29.3384   20.7339 C   0  0  0  0  0  0
  -27.2468  -28.4915   20.7348 C   0  0  0  0  0  0
  -26.0261  -26.8027   19.5142 C   0  0  0  0  0  0
  -24.8834  -27.6308   19.4998 C   0  0  0  0  0  0
  -23.6771  -29.7891   20.1596 C   0  0  0  0  0  0
  -25.4121  -36.3030   24.0304 C   0  0  1  0  0  0
  -20.5906  -28.3688   23.1267 C   0  0  2  0  0  0
  -20.6787  -26.9384   22.5442 C   0  0  0  0  0  0
  -19.5767  -26.6342   21.5248 C   0  0  0  0  0  0
  -18.1940  -26.7907   22.1630 C   0  0  0  0  0  0
  -19.1549  -28.8854   23.2854 C   0  0  0  0  0  0
  -18.9472  -30.1467   23.8857 C   0  0  0  0  0  0
  -17.6464  -30.6590   24.0545 C   0  0  0  0  0  0
  -25.9077  -34.9422   23.5048 C   0  0  0  0  0  0
  -16.5360  -29.9073   23.6330 C   0  0  0  0  0  0
  -16.7286  -28.6498   23.0339 C   0  0  0  0  0  0
  -26.4510  -31.6568   25.0740 C   0  0  0  0  0  0
  -25.3708  -31.3805   26.1445 C   0  0  0  0  0  0
  -27.0306  -30.2931   24.6299 C   0  0  0  0  0  0
  -27.6031  -32.4327   25.7524 C   0  0  0  0  0  0
  -27.5569  -37.1778   24.8451 C   0  0  0  0  0  0
  -21.4261  -29.3018   22.3659 N   0  0  0  0  0  0
  -26.4261  -37.3749   23.9408 N   0  0  0  0  0  0
  -24.7164  -31.0312   22.0949 N   0  0  0  0  0  0
  -23.4235  -28.8057   23.3036 O   0  0  0  0  0  0
  -28.2761  -26.1791   20.1500 O   0  0  0  0  0  0
  -26.5668  -34.8908   22.4629 O   0  0  0  0  0  0
  -23.5533  -32.1340   23.7139 O   0  0  0  0  0  0
  -29.9836  -19.8580   18.4789 C   0  0  0  0  0  0
  -29.4148  -18.7241   20.5071 C   0  0  0  0  0  0
  -30.3476  -17.4322   18.6695 C   0  0  0  0  0  0
  -29.4668  -20.0322   19.7935 C   0  0  0  0  0  0
  -30.3899  -18.6215   17.9220 C   0  0  0  0  0  0
  -29.8632  -17.4034   19.9904 C   0  0  0  0  0  0
  -28.5178  -23.5188   20.3695 C   0  0  0  0  0  0
  -28.1839  -22.2189   21.0023 C   0  0  0  0  0  0
  -28.0236  -24.8265   20.6313 C   0  0  0  0  0  0
  -29.4989  -22.7275   19.4514 C   0  0  0  0  0  0
  -29.0694  -21.4708   20.1677 N   0  0  0  0  0  0
  -30.8266  -18.5581   16.5950 N   0  0  0  0  0  0
  -29.7742  -16.0196   20.6223 N   0  0  0  0  0  0
  -27.3884  -21.9564   21.8828 O   0  0  0  0  0  0
  -31.4773  -12.6400   19.2079 H   0  0  0  0  0  0
  -30.3945  -11.5429   20.0064 H   0  0  0  0  0  0
  -29.8210  -11.7184   17.5741 H   0  0  0  0  0  0
  -29.6793  -13.4554   17.7134 H   0  0  0  0  0  0
  -27.8636  -11.3175   18.8642 H   0  0  0  0  0  0
  -27.4124  -12.6023   17.7781 H   0  0  0  0  0  0
  -27.6190  -14.2761   19.4787 H   0  0  0  0  0  0
  -28.7319  -12.2030   21.4259 H   0  0  0  0  0  0
  -28.3926  -13.8710   21.8045 H   0  0  0  0  0  0
  -25.2812   -9.5644   22.4782 H   0  0  0  0  0  0
  -24.0027   -7.4617   22.7490 H   0  0  0  0  0  0
  -21.0886   -8.8806   19.8997 H   0  0  0  0  0  0
  -22.3763  -10.9693   19.6205 H   0  0  0  0  0  0
  -21.1985   -7.6146   23.9716 H   0  0  0  0  0  0
  -21.1486   -6.0525   25.9074 H   0  0  0  0  0  0
  -22.0592   -2.7614   23.2902 H   0  0  0  0  0  0
  -22.4102  -11.9910   22.4919 H   0  0  0  0  0  0
  -21.1106  -13.1243   22.2638 H   0  0  0  0  0  0
  -24.6550  -15.8517   20.6022 H   0  0  0  0  0  0
  -26.2742  -15.6544   20.1531 H   0  0  0  0  0  0
  -26.7261  -32.5292   23.1038 H   0  0  0  0  0  0
  -25.0082  -33.9651   25.0317 H   0  0  0  0  0  0
  -22.7474  -31.2845   21.3829 H   0  0  0  0  0  0
  -23.3774  -35.9544   23.3296 H   0  0  0  0  0  0
  -24.3557  -36.8858   22.2033 H   0  0  0  0  0  0
  -23.7255  -37.6425   23.6669 H   0  0  0  0  0  0
  -26.1533  -31.4812   20.6191 H   0  0  0  0  0  0
  -26.8759  -30.7802   22.0263 H   0  0  0  0  0  0
  -28.1506  -28.8349   21.2234 H   0  0  0  0  0  0
  -25.9572  -25.8335   19.0409 H   0  0  0  0  0  0
  -23.9818  -27.2755   19.0212 H   0  0  0  0  0  0
  -23.8198  -30.5668   19.4095 H   0  0  0  0  0  0
  -22.7950  -29.2341   19.8379 H   0  0  0  0  0  0
  -25.1323  -36.1841   25.0797 H   0  0  0  0  0  0
  -20.9973  -28.3281   24.1398 H   0  0  0  0  0  0
  -20.5683  -26.2299   23.3662 H   0  0  0  0  0  0
  -21.6653  -26.7399   22.1236 H   0  0  0  0  0  0
  -19.6931  -25.6254   21.1280 H   0  0  0  0  0  0
  -19.6716  -27.3160   20.6795 H   0  0  0  0  0  0
  -17.4206  -26.6660   21.4025 H   0  0  0  0  0  0
  -18.0323  -26.0069   22.9054 H   0  0  0  0  0  0
  -19.7945  -30.7304   24.2179 H   0  0  0  0  0  0
  -17.5015  -31.6256   24.5175 H   0  0  0  0  0  0
  -15.5345  -30.2961   23.7691 H   0  0  0  0  0  0
  -15.8689  -28.0830   22.7034 H   0  0  0  0  0  0
  -24.5899  -30.7107   25.7840 H   0  0  0  0  0  0
  -24.8878  -32.3012   26.4734 H   0  0  0  0  0  0
  -25.8008  -30.9120   27.0302 H   0  0  0  0  0  0
  -26.2902  -29.6713   24.1240 H   0  0  0  0  0  0
  -27.3823  -29.7161   25.4861 H   0  0  0  0  0  0
  -27.8892  -30.4113   23.9676 H   0  0  0  0  0  0
  -27.2590  -33.3627   26.2043 H   0  0  0  0  0  0
  -28.3876  -32.6864   25.0402 H   0  0  0  0  0  0
  -28.0649  -31.8497   26.5483 H   0  0  0  0  0  0
  -28.2562  -38.0090   24.7487 H   0  0  0  0  0  0
  -28.1081  -36.2617   24.6297 H   0  0  0  0  0  0
  -27.2270  -37.1453   25.8840 H   0  0  0  0  0  0
  -20.9487  -29.8741   21.6842 H   0  0  0  0  0  0
  -26.0127  -38.2792   24.1458 H   0  0  0  0  0  0
  -30.0595  -20.7177   17.8302 H   0  0  0  0  0  0
  -29.0217  -18.7407   21.5112 H   0  0  0  0  0  0
  -30.6523  -16.5089   18.1987 H   0  0  0  0  0  0
  -27.2883  -24.8917   21.4220 H   0  0  0  0  0  0
  -30.5634  -22.9294   19.5843 H   0  0  0  0  0  0
  -29.2519  -22.7121   18.3890 H   0  0  0  0  0  0
  -30.4487  -19.2277   15.9294 H   0  0  0  0  0  0
  -30.9277  -17.6379   16.1741 H   0  0  0  0  0  0
  -28.8978  -15.8391   21.0923 H   0  0  0  0  0  0
  1 25  1  0  0  0
  1 30  2  0  0  0
  1 83  1  0  0  0
  2  3  1  0  0  0
  2 25  1  0  0  0
  2 85  1  0  0  0
  2 86  1  0  0  0
  3  4  1  0  0  0
  3 87  1  0  0  0
  3 88  1  0  0  0
  4  5  1  0  0  0
  4 89  1  0  0  0
  4 90  1  0  0  0
  5  6  1  0  0  0
  5 26  1  0  0  0
  5 91  1  0  0  0
  6 25  1  0  0  0
  6 92  1  0  0  0
  6 93  1  0  0  0
  7  8  2  0  0  0
  7 26  1  0  0  0
  7 29  1  0  0  0
  8  9  1  0  0  0
  8 22  1  0  0  0
  9 10  1  0  0  0
  9 27  2  0  0  0
 10 11  2  0  0  0
 10 15  1  0  0  0
 11 12  1  0  0  0
 11 94  1  0  0  0
 12 13  2  0  0  0
 12 95  1  0  0  0
 13 14  1  0  0  0
 13 31  1  0  0  0
 14 15  2  0  0  0
 14 96  1  0  0  0
 15 97  1  0  0  0
 16 17  2  0  0  0
 16 21  1  0  0  0
 16 31  1  0  0  0
 17 18  1  0  0  0
 17 98  1  0  0  0
 18 19  2  0  0  0
 18 99  1  0  0  0
 19 20  1  0  0  0
 19 24  1  0  0  0
 20 21  2  0  0  0
 20100  1  0  0  0
 21 23  1  0  0  0
 22 28  1  0  0  0
 22 32  2  0  0  0
 26 27  1  0  0  0
 28101  1  0  0  0
 28102  1  0  0  0
 29103  1  0  0  0
 29104  1  0  0  0
 33 34  1  0  0  0
 33 66  1  0  0  0
 33 70  2  0  0  0
 34 36  1  0  0  0
 34 59  1  0  0  0
 34105  1  0  0  0
 35 44  2  0  0  0
 35 45  1  0  0  0
 35 68  1  0  0  0
 36 56  1  0  0  0
 36106  1  0  0  0
 37 39  1  0  0  0
 37 47  1  0  0  0
 37 66  1  0  0  0
 37107  1  0  0  0
 38 43  2  0  0  0
 38 46  1  0  0  0
 38 47  1  0  0  0
 39 64  1  0  0  0
 39 67  2  0  0  0
 40 52  1  0  0  0
 40 53  2  0  0  0
 40 58  1  0  0  0
 41108  1  0  0  0
 41109  1  0  0  0
 41110  1  0  0  0
 41 48  1  0  0  0
 42 43  1  0  0  0
 42 66  1  0  0  0
 42111  1  0  0  0
 42112  1  0  0  0
 43 44  1  0  0  0
 44113  1  0  0  0
 45 46  2  0  0  0
 45114  1  0  0  0
 46115  1  0  0  0
 47116  1  0  0  0
 47117  1  0  0  0
 48 56  1  0  0  0
 48 65  1  0  0  0
 48118  1  0  0  0
 49 50  1  0  0  0
 49 53  1  0  0  0
 49 64  1  0  0  0
 49119  1  0  0  0
 50 51  1  0  0  0
 50120  1  0  0  0
 50121  1  0  0  0
 51 52  1  0  0  0
 51122  1  0  0  0
 51123  1  0  0  0
 52124  1  0  0  0
 52125  1  0  0  0
 53 54  1  0  0  0
 54 55  2  0  0  0
 54126  1  0  0  0
 55 57  1  0  0  0
 55127  1  0  0  0
 56 69  2  0  0  0
 57 58  2  0  0  0
 57128  1  0  0  0
 58129  1  0  0  0
 59 60  1  0  0  0
 59 61  1  0  0  0
 59 62  1  0  0  0
 60130  1  0  0  0
 60131  1  0  0  0
 60132  1  0  0  0
 61133  1  0  0  0
 61134  1  0  0  0
 61135  1  0  0  0
 62136  1  0  0  0
 62137  1  0  0  0
 62138  1  0  0  0
 63 65  1  0  0  0
 63139  1  0  0  0
 63140  1  0  0  0
 63141  1  0  0  0
 64142  1  0  0  0
 65143  1  0  0  0
 68 79  1  0  0  0
 71 74  2  0  0  0
 71 75  1  0  0  0
 71144  1  0  0  0
 72 74  1  0  0  0
 72 76  2  0  0  0
 72145  1  0  0  0
 73 75  2  0  0  0
 73 76  1  0  0  0
 73146  1  0  0  0
 74 81  1  0  0  0
 75 82  1  0  0  0
 76 83  1  0  0  0
 77 78  1  0  0  0
 77 79  2  0  0  0
 77 80  1  0  0  0
 78 81  1  0  0  0
 78 84  2  0  0  0
 79147  1  0  0  0
 80 81  1  0  0  0
 80148  1  0  0  0
 80149  1  0  0  0
 82150  1  0  0  0
 82151  1  0  0  0
 83152  1  0  0  0
M  ISO  4   1 100  68 101  79 101  83 100
M  END
> <chiral flag>
0

> <version>
0

> <s_m_source_file>
/data/baiqing/PycharmProjects/Reinvent-master-3.2/result/LINK_invent/BTK/process_docking_weight1_custom_product_contain_oxygen_bond_distance_aromatic_linkinvent_7_9_3/rearranged_h_0083.sdf

> <i_m_source_file_index>
49

> <r_mmod_Potential_Energy-OPLS-2005>
485.473541259766

> <r_mmod_Stretch_Energy-OPLS-2005>
197.736923217773

> <r_mmod_Bend_Energy-OPLS-2005>
294.002868652344

> <r_mmod_Torsional_Energy-OPLS-2005>
250.508224487305

> <r_mmod_Improper_Torsional_Energy-OPLS-2005>
8.29264640808105

> <r_mmod_Van_der_Waal_Energy-OPLS-2005>
129.912048339844

> <r_mmod_Electrostatic_Energy-OPLS-2005>
-306.998413085938

> <r_mmod_Solvation_Energy-OPLS-2005>
-236.653793334961

> <b_mmod_Minimization_Converged-OPLS-2005>
0

> <r_mmod_RMS_Derivative-OPLS-2005>
5.08015918731689

$$$$
49
                    3D
 Structure written by MMmdl.
155164  0  0  1  0            999 V2000
  -30.6701  -14.6146   20.4767 C   0  0  0  0  0  0
  -30.4228  -12.3657   19.4837 C   0  0  0  0  0  0
  -29.5120  -12.5007   18.2444 C   0  0  0  0  0  0
  -28.0338  -12.3473   18.6493 C   0  0  0  0  0  0
  -27.6558  -13.2267   19.8712 C   0  0  2  0  0  0
  -28.6950  -13.1039   21.0098 C   0  0  0  0  0  0
  -25.2545  -13.8202   20.5709 C   0  0  0  0  0  0
  -24.1802  -13.0455   20.9173 C   0  0  0  0  0  0
  -24.6378  -11.6925   20.8735 C   0  0  0  0  0  0
  -23.9046  -10.4292   21.0394 C   0  0  0  0  0  0
  -24.3591   -9.4218   21.9187 C   0  0  0  0  0  0
  -23.6270   -8.2247   22.0773 C   0  0  0  0  0  0
  -22.4259   -8.0271   21.3549 C   0  0  0  0  0  0
  -21.9880   -9.0240   20.4655 C   0  0  0  0  0  0
  -22.7208  -10.2120   20.3054 C   0  0  0  0  0  0
  -21.6862   -6.0700   22.5261 C   0  0  0  0  0  0
  -21.4019   -6.5621   23.8188 C   0  0  0  0  0  0
  -21.3656   -5.6784   24.9157 C   0  0  0  0  0  0
  -21.6040   -4.3042   24.7218 C   0  0  0  0  0  0
  -21.8826   -3.8119   23.4344 C   0  0  0  0  0  0
  -21.9197   -4.6925   22.3391 C   0  0  0  0  0  0
  -22.7821  -13.5237   21.1818 C   0  0  0  0  0  0
  -22.1667   -4.2112   21.0972 F   0  0  0  0  0  0
  -21.5633   -3.4539   25.7735 F   0  0  0  0  0  0
  -30.0194  -13.4078   20.4538 N   0  0  0  0  0  0
  -26.2999  -12.9403   20.3358 N   0  0  0  0  0  0
  -25.9325  -11.6547   20.5791 N   0  0  0  0  0  0
  -22.0458  -12.8241   22.0378 N   0  0  0  0  0  0
  -25.4265  -15.1920   20.4129 N   0  0  0  0  0  0
  -31.8258  -14.6969   20.0524 O   0  0  0  0  0  0
  -21.6650   -6.8848   21.4224 O   0  0  0  0  0  0
  -22.3492  -14.5518   20.6631 O   0  0  0  0  0  0
  -24.6228  -31.8630   23.2066 C   0  0  0  0  0  0
  -25.9072  -32.4806   23.8394 C   0  0  1  0  0  0
  -27.2132  -27.3588   20.1031 C   0  0  0  0  0  0
  -25.5901  -33.8613   24.2317 N   0  0  0  0  0  0
  -23.4176  -30.4882   21.5464 C   0  0  2  0  0  0
  -24.8676  -28.9643   20.0902 C   0  0  0  0  0  0
  -22.7480  -29.4623   22.4922 C   0  0  0  0  0  0
  -18.0283  -28.1388   22.8494 C   0  0  0  0  0  0
  -24.1480  -36.7313   23.2640 C   0  0  0  0  0  0
  -25.9563  -30.8063   21.3754 C   0  0  0  0  0  0
  -26.0338  -29.4430   20.7039 C   0  0  0  0  0  0
  -27.2161  -28.6498   20.7054 C   0  0  0  0  0  0
  -26.0470  -26.9419   19.4276 C   0  0  0  0  0  0
  -24.8772  -27.7214   19.4366 C   0  0  0  0  0  0
  -23.6301  -29.8344   20.1568 C   0  0  0  0  0  0
  -25.4106  -36.3111   24.0337 C   0  0  1  0  0  0
  -20.5888  -28.3700   23.1278 C   0  0  2  0  0  0
  -20.6776  -26.9417   22.5414 C   0  0  0  0  0  0
  -19.5750  -26.6383   21.5220 C   0  0  0  0  0  0
  -18.1929  -26.7929   22.1633 C   0  0  0  0  0  0
  -19.1541  -28.8857   23.2883 C   0  0  0  0  0  0
  -18.9458  -30.1448   23.8917 C   0  0  0  0  0  0
  -17.6463  -30.6588   24.0564 C   0  0  0  0  0  0
  -25.9034  -34.9474   23.5126 C   0  0  0  0  0  0
  -16.5349  -29.9101   23.6321 C   0  0  0  0  0  0
  -16.7272  -28.6508   23.0363 C   0  0  0  0  0  0
  -26.4480  -31.6613   25.0749 C   0  0  0  0  0  0
  -25.3720  -31.3738   26.1478 C   0  0  0  0  0  0
  -27.0313  -30.3042   24.6175 C   0  0  0  0  0  0
  -27.6041  -32.4353   25.7517 C   0  0  0  0  0  0
  -27.5579  -37.1816   24.8465 C   0  0  0  0  0  0
  -21.4196  -29.3047   22.3668 N   0  0  0  0  0  0
  -26.4292  -37.3794   23.9402 N   0  0  0  0  0  0
  -24.6838  -31.0671   22.0994 N   0  0  0  0  0  0
  -23.4209  -28.8137   23.2974 O   0  0  0  0  0  0
  -28.2172  -26.4046   20.2922 O   0  0  0  0  0  0
  -26.5605  -34.8919   22.4691 O   0  0  0  0  0  0
  -23.5399  -32.1411   23.7406 O   0  0  0  0  0  0
  -29.9646  -19.4440   23.2796 C   0  0  0  0  0  0
  -30.0720  -18.2483   22.5495 C   0  0  0  0  0  0
  -29.5495  -20.6348   22.6536 C   0  0  0  0  0  0
  -29.3587  -19.4743   20.5643 C   0  0  0  0  0  0
  -29.7972  -18.2396   21.1681 C   0  0  0  0  0  0
  -29.1861  -20.7127   21.2837 C   0  0  0  0  0  0
  -28.1741  -23.9506   20.8856 C   0  0  0  0  0  0
  -29.1249  -23.1504   20.1265 C   0  0  0  0  0  0
  -30.1683  -17.0005   20.3463 C   0  0  0  0  0  0
  -27.8129  -25.2689   21.0380 C   0  0  0  0  0  0
  -27.6786  -22.6944   21.5853 C   0  0  0  0  0  0
  -26.8312  -25.6047   22.1695 C   0  0  0  0  0  0
  -28.6462  -21.9618   20.7479 N   0  0  0  0  0  0
  -29.9697  -15.7357   20.8418 N   0  0  0  0  0  0
  -30.0463  -23.4625   19.4005 O   0  0  0  0  0  0
  -30.6404  -17.2046   19.2216 O   0  0  0  0  0  0
  -31.4733  -12.4360   19.1922 H   0  0  0  0  0  0
  -30.3140  -11.3769   19.9312 H   0  0  0  0  0  0
  -29.7765  -11.7481   17.4998 H   0  0  0  0  0  0
  -29.6727  -13.4723   17.7727 H   0  0  0  0  0  0
  -27.8694  -11.2971   18.8910 H   0  0  0  0  0  0
  -27.3845  -12.5694   17.8022 H   0  0  0  0  0  0
  -27.6726  -14.2609   19.5264 H   0  0  0  0  0  0
  -28.6887  -12.0952   21.4280 H   0  0  0  0  0  0
  -28.4504  -13.7751   21.8341 H   0  0  0  0  0  0
  -25.2731   -9.5712   22.4757 H   0  0  0  0  0  0
  -23.9987   -7.4641   22.7504 H   0  0  0  0  0  0
  -21.0816   -8.8722   19.8967 H   0  0  0  0  0  0
  -22.3649  -10.9633   19.6141 H   0  0  0  0  0  0
  -21.2024   -7.6137   23.9676 H   0  0  0  0  0  0
  -21.1480   -6.0524   25.9059 H   0  0  0  0  0  0
  -22.0616   -2.7587   23.2857 H   0  0  0  0  0  0
  -22.4085  -11.9917   22.4780 H   0  0  0  0  0  0
  -21.1066  -13.1259   22.2568 H   0  0  0  0  0  0
  -24.6625  -15.8518   20.5184 H   0  0  0  0  0  0
  -26.2822  -15.6265   20.0926 H   0  0  0  0  0  0
  -26.7143  -32.5489   23.1152 H   0  0  0  0  0  0
  -25.0055  -33.9795   25.0469 H   0  0  0  0  0  0
  -22.7075  -31.3066   21.4133 H   0  0  0  0  0  0
  -23.3746  -35.9641   23.3309 H   0  0  0  0  0  0
  -24.3557  -36.8924   22.2050 H   0  0  0  0  0  0
  -23.7229  -37.6516   23.6656 H   0  0  0  0  0  0
  -26.0890  -31.5759   20.6140 H   0  0  0  0  0  0
  -26.8354  -30.8484   22.0068 H   0  0  0  0  0  0
  -28.0981  -28.9910   21.2295 H   0  0  0  0  0  0
  -26.0200  -25.9714   18.9524 H   0  0  0  0  0  0
  -23.9868  -27.3600   18.9422 H   0  0  0  0  0  0
  -23.7377  -30.6200   19.4079 H   0  0  0  0  0  0
  -22.7522  -29.2602   19.8552 H   0  0  0  0  0  0
  -25.1286  -36.1985   25.0834 H   0  0  0  0  0  0
  -20.9991  -28.3284   24.1396 H   0  0  0  0  0  0
  -20.5694  -26.2311   23.3630 H   0  0  0  0  0  0
  -21.6641  -26.7454   22.1191 H   0  0  0  0  0  0
  -19.6910  -25.6296   21.1255 H   0  0  0  0  0  0
  -19.6673  -27.3195   20.6754 H   0  0  0  0  0  0
  -17.4199  -26.6680   21.4032 H   0  0  0  0  0  0
  -18.0307  -26.0071   22.9029 H   0  0  0  0  0  0
  -19.7927  -30.7246   24.2312 H   0  0  0  0  0  0
  -17.5016  -31.6265   24.5162 H   0  0  0  0  0  0
  -15.5354  -30.3012   23.7620 H   0  0  0  0  0  0
  -15.8671  -28.0817   22.7103 H   0  0  0  0  0  0
  -24.5873  -30.7124   25.7791 H   0  0  0  0  0  0
  -24.8943  -32.2905   26.4949 H   0  0  0  0  0  0
  -25.8040  -30.8869   27.0233 H   0  0  0  0  0  0
  -26.2882  -29.6817   24.1177 H   0  0  0  0  0  0
  -27.3998  -29.7266   25.4664 H   0  0  0  0  0  0
  -27.8758  -30.4336   23.9397 H   0  0  0  0  0  0
  -27.2637  -33.3630   26.2131 H   0  0  0  0  0  0
  -28.3824  -32.6968   25.0334 H   0  0  0  0  0  0
  -28.0745  -31.8473   26.5409 H   0  0  0  0  0  0
  -28.2611  -38.0102   24.7500 H   0  0  0  0  0  0
  -28.1064  -36.2635   24.6308 H   0  0  0  0  0  0
  -27.2292  -37.1481   25.8866 H   0  0  0  0  0  0
  -20.9371  -29.8793   21.6904 H   0  0  0  0  0  0
  -26.0189  -38.2874   24.1396 H   0  0  0  0  0  0
  -30.2233  -19.4579   24.3290 H   0  0  0  0  0  0
  -30.4349  -17.3604   23.0460 H   0  0  0  0  0  0
  -29.5115  -21.5152   23.2759 H   0  0  0  0  0  0
  -29.1518  -19.4677   19.5030 H   0  0  0  0  0  0
  -27.8447  -22.6529   22.6599 H   0  0  0  0  0  0
  -26.6573  -22.3801   21.3666 H   0  0  0  0  0  0
  -26.9237  -24.9001   22.9954 H   0  0  0  0  0  0
  -25.8000  -25.5665   21.8200 H   0  0  0  0  0  0
  -27.0162  -26.5891   22.5978 H   0  0  0  0  0  0
  -29.2414  -15.6242   21.5267 H   0  0  0  0  0  0
  1 25  1  0  0  0
  1 30  2  0  0  0
  1 84  1  0  0  0
  2  3  1  0  0  0
  2 25  1  0  0  0
  2 87  1  0  0  0
  2 88  1  0  0  0
  3  4  1  0  0  0
  3 89  1  0  0  0
  3 90  1  0  0  0
  4  5  1  0  0  0
  4 91  1  0  0  0
  4 92  1  0  0  0
  5  6  1  0  0  0
  5 26  1  0  0  0
  5 93  1  0  0  0
  6 25  1  0  0  0
  6 94  1  0  0  0
  6 95  1  0  0  0
  7  8  2  0  0  0
  7 26  1  0  0  0
  7 29  1  0  0  0
  8  9  1  0  0  0
  8 22  1  0  0  0
  9 10  1  0  0  0
  9 27  2  0  0  0
 10 11  2  0  0  0
 10 15  1  0  0  0
 11 12  1  0  0  0
 11 96  1  0  0  0
 12 13  2  0  0  0
 12 97  1  0  0  0
 13 14  1  0  0  0
 13 31  1  0  0  0
 14 15  2  0  0  0
 14 98  1  0  0  0
 15 99  1  0  0  0
 16 17  2  0  0  0
 16 21  1  0  0  0
 16 31  1  0  0  0
 17 18  1  0  0  0
 17100  1  0  0  0
 18 19  2  0  0  0
 18101  1  0  0  0
 19 20  1  0  0  0
 19 24  1  0  0  0
 20 21  2  0  0  0
 20102  1  0  0  0
 21 23  1  0  0  0
 22 28  1  0  0  0
 22 32  2  0  0  0
 26 27  1  0  0  0
 28103  1  0  0  0
 28104  1  0  0  0
 29105  1  0  0  0
 29106  1  0  0  0
 33 34  1  0  0  0
 33 66  1  0  0  0
 33 70  2  0  0  0
 34 36  1  0  0  0
 34 59  1  0  0  0
 34107  1  0  0  0
 35 44  2  0  0  0
 35 45  1  0  0  0
 35 68  1  0  0  0
 36 56  1  0  0  0
 36108  1  0  0  0
 37 39  1  0  0  0
 37 47  1  0  0  0
 37 66  1  0  0  0
 37109  1  0  0  0
 38 43  2  0  0  0
 38 46  1  0  0  0
 38 47  1  0  0  0
 39 64  1  0  0  0
 39 67  2  0  0  0
 40 52  1  0  0  0
 40 53  2  0  0  0
 40 58  1  0  0  0
 41110  1  0  0  0
 41111  1  0  0  0
 41112  1  0  0  0
 41 48  1  0  0  0
 42 43  1  0  0  0
 42 66  1  0  0  0
 42113  1  0  0  0
 42114  1  0  0  0
 43 44  1  0  0  0
 44115  1  0  0  0
 45 46  2  0  0  0
 45116  1  0  0  0
 46117  1  0  0  0
 47118  1  0  0  0
 47119  1  0  0  0
 48 56  1  0  0  0
 48 65  1  0  0  0
 48120  1  0  0  0
 49 50  1  0  0  0
 49 53  1  0  0  0
 49 64  1  0  0  0
 49121  1  0  0  0
 50 51  1  0  0  0
 50122  1  0  0  0
 50123  1  0  0  0
 51 52  1  0  0  0
 51124  1  0  0  0
 51125  1  0  0  0
 52126  1  0  0  0
 52127  1  0  0  0
 53 54  1  0  0  0
 54 55  2  0  0  0
 54128  1  0  0  0
 55 57  1  0  0  0
 55129  1  0  0  0
 56 69  2  0  0  0
 57 58  2  0  0  0
 57130  1  0  0  0
 58131  1  0  0  0
 59 60  1  0  0  0
 59 61  1  0  0  0
 59 62  1  0  0  0
 60132  1  0  0  0
 60133  1  0  0  0
 60134  1  0  0  0
 61135  1  0  0  0
 61136  1  0  0  0
 61137  1  0  0  0
 62138  1  0  0  0
 62139  1  0  0  0
 62140  1  0  0  0
 63 65  1  0  0  0
 63141  1  0  0  0
 63142  1  0  0  0
 63143  1  0  0  0
 64144  1  0  0  0
 65145  1  0  0  0
 68 80  1  0  0  0
 71 72  2  0  0  0
 71 73  1  0  0  0
 71146  1  0  0  0
 72 75  1  0  0  0
 72147  1  0  0  0
 73 76  2  0  0  0
 73148  1  0  0  0
 74 75  2  0  0  0
 74 76  1  0  0  0
 74149  1  0  0  0
 75 79  1  0  0  0
 76 83  1  0  0  0
 77 78  1  0  0  0
 77 80  2  0  0  0
 77 81  1  0  0  0
 78 83  1  0  0  0
 78 85  2  0  0  0
 79 84  1  0  0  0
 79 86  2  0  0  0
 80 82  1  0  0  0
 81 83  1  0  0  0
 81150  1  0  0  0
 81151  1  0  0  0
 82152  1  0  0  0
 82153  1  0  0  0
 82154  1  0  0  0
 84155  1  0  0  0
M  ISO  4   1 100  68 101  80 101  84 100
M  END
> <chiral flag>
0

> <version>
0

> <s_m_source_file>
/data/baiqing/PycharmProjects/Reinvent-master-3.2/result/LINK_invent/BTK/process_docking_weight1_custom_product_contain_oxygen_bond_distance_aromatic_linkinvent_7_9_3/rearranged_h_0083.sdf

> <i_m_source_file_index>
50

> <r_mmod_Potential_Energy-OPLS-2005>
127.044708251953

> <r_mmod_Stretch_Energy-OPLS-2005>
71.0459671020508

> <r_mmod_Bend_Energy-OPLS-2005>
192.035140991211

> <r_mmod_Torsional_Energy-OPLS-2005>
306.877563476562

> <r_mmod_Improper_Torsional_Energy-OPLS-2005>
10.9761199951172

> <r_mmod_Van_der_Waal_Energy-OPLS-2005>
157.903442382812

> <r_mmod_Electrostatic_Energy-OPLS-2005>
-426.617614746094

> <r_mmod_Solvation_Energy-OPLS-2005>
-241.238296508789

> <b_mmod_Minimization_Converged-OPLS-2005>
0

> <r_mmod_RMS_Derivative-OPLS-2005>
3.23294711112976

$$$$
50
                    3D
 Structure written by MMmdl.
149158  0  0  1  0            999 V2000
  -30.7100  -14.5826   20.4768 C   0  0  0  0  0  0
  -30.4059  -12.3504   19.4614 C   0  0  0  0  0  0
  -29.4959  -12.4889   18.2246 C   0  0  0  0  0  0
  -28.0186  -12.3473   18.6348 C   0  0  0  0  0  0
  -27.6462  -13.2299   19.8572 C   0  0  2  0  0  0
  -28.6916  -13.1227   20.9912 C   0  0  0  0  0  0
  -25.2523  -13.8210   20.5715 C   0  0  0  0  0  0
  -24.1807  -13.0453   20.9212 C   0  0  0  0  0  0
  -24.6392  -11.6931   20.8749 C   0  0  0  0  0  0
  -23.9070  -10.4303   21.0404 C   0  0  0  0  0  0
  -24.3622   -9.4215   21.9179 C   0  0  0  0  0  0
  -23.6299   -8.2249   22.0749 C   0  0  0  0  0  0
  -22.4281   -8.0282   21.3541 C   0  0  0  0  0  0
  -21.9915   -9.0258   20.4647 C   0  0  0  0  0  0
  -22.7242  -10.2140   20.3056 C   0  0  0  0  0  0
  -21.6859   -6.0735   22.5278 C   0  0  0  0  0  0
  -21.4017   -6.5639   23.8211 C   0  0  0  0  0  0
  -21.3660   -5.6789   24.9170 C   0  0  0  0  0  0
  -21.6045   -4.3054   24.7224 C   0  0  0  0  0  0
  -21.8820   -3.8146   23.4344 C   0  0  0  0  0  0
  -21.9194   -4.6961   22.3400 C   0  0  0  0  0  0
  -22.7827  -13.5230   21.1869 C   0  0  0  0  0  0
  -22.1662   -4.2147   21.0979 F   0  0  0  0  0  0
  -21.5630   -3.4536   25.7737 F   0  0  0  0  0  0
  -30.0107  -13.4078   20.4139 N   0  0  0  0  0  0
  -26.2955  -12.9421   20.3319 N   0  0  0  0  0  0
  -25.9323  -11.6563   20.5769 N   0  0  0  0  0  0
  -22.0472  -12.8218   22.0422 N   0  0  0  0  0  0
  -25.4213  -15.1937   20.4152 N   0  0  0  0  0  0
  -31.8953  -14.5954   20.1371 O   0  0  0  0  0  0
  -21.6645   -6.8879   21.4240 O   0  0  0  0  0  0
  -22.3510  -14.5533   20.6713 O   0  0  0  0  0  0
  -24.6209  -31.8636   23.2057 C   0  0  0  0  0  0
  -25.9075  -32.4797   23.8373 C   0  0  1  0  0  0
  -27.2213  -27.3769   20.1074 C   0  0  0  0  0  0
  -25.5911  -33.8597   24.2303 N   0  0  0  0  0  0
  -23.4130  -30.4883   21.5462 C   0  0  2  0  0  0
  -24.8616  -28.9542   20.1048 C   0  0  0  0  0  0
  -22.7456  -29.4639   22.4935 C   0  0  0  0  0  0
  -18.0292  -28.1373   22.8487 C   0  0  0  0  0  0
  -24.1488  -36.7306   23.2637 C   0  0  0  0  0  0
  -25.9488  -30.8131   21.3687 C   0  0  0  0  0  0
  -26.0273  -29.4460   20.7092 C   0  0  0  0  0  0
  -27.2156  -28.6657   20.7072 C   0  0  0  0  0  0
  -26.0439  -26.9228   19.4800 C   0  0  0  0  0  0
  -24.8683  -27.6954   19.4817 C   0  0  0  0  0  0
  -23.6256  -29.8265   20.1590 C   0  0  0  0  0  0
  -25.4109  -36.3098   24.0334 C   0  0  1  0  0  0
  -20.5888  -28.3676   23.1285 C   0  0  2  0  0  0
  -20.6777  -26.9402   22.5406 C   0  0  0  0  0  0
  -19.5756  -26.6383   21.5204 C   0  0  0  0  0  0
  -18.1939  -26.7914   22.1625 C   0  0  0  0  0  0
  -19.1541  -28.8841   23.2884 C   0  0  0  0  0  0
  -18.9466  -30.1445   23.8901 C   0  0  0  0  0  0
  -17.6466  -30.6574   24.0566 C   0  0  0  0  0  0
  -25.9041  -34.9464   23.5117 C   0  0  0  0  0  0
  -16.5359  -29.9078   23.6322 C   0  0  0  0  0  0
  -16.7279  -28.6495   23.0343 C   0  0  0  0  0  0
  -26.4484  -31.6584   25.0715 C   0  0  0  0  0  0
  -25.3741  -31.3715   26.1462 C   0  0  0  0  0  0
  -27.0301  -30.3009   24.6119 C   0  0  0  0  0  0
  -27.6061  -32.4299   25.7479 C   0  0  0  0  0  0
  -27.5582  -37.1804   24.8463 C   0  0  0  0  0  0
  -21.4175  -29.3034   22.3676 N   0  0  0  0  0  0
  -26.4292  -37.3788   23.9412 N   0  0  0  0  0  0
  -24.6791  -31.0698   22.0980 N   0  0  0  0  0  0
  -23.4199  -28.8181   23.3000 O   0  0  0  0  0  0
  -28.2868  -26.4909   20.1852 O   0  0  0  0  0  0
  -26.5611  -34.8926   22.4684 O   0  0  0  0  0  0
  -23.5383  -32.1409   23.7416 O   0  0  0  0  0  0
  -28.3688  -18.3791   21.4434 C   0  0  0  0  0  0
  -27.9534  -19.7537   21.5529 C   0  0  0  0  0  0
  -29.5757  -18.2116   20.8096 C   0  0  0  0  0  0
  -28.8218  -20.6715   21.0017 C   0  0  0  0  0  0
  -28.3599  -24.0932   20.9410 C   0  0  0  0  0  0
  -27.9912  -23.0278   21.8448 C   0  0  0  0  0  0
  -28.0410  -25.4188   21.0429 C   0  0  0  0  0  0
  -30.4815  -17.0216   20.5866 C   0  0  0  0  0  0
  -29.0625  -23.0835   20.0207 C   0  0  0  0  0  0
  -28.7281  -22.1144   21.0911 N   0  0  0  0  0  0
  -30.0111  -15.7385   20.7163 N   0  0  0  0  0  0
  -27.2547  -23.0020   22.8092 O   0  0  0  0  0  0
  -31.6493  -17.2822   20.2738 O   0  0  0  0  0  0
  -30.1746  -19.8025   20.2880 S   0  0  0  0  0  0
  -31.4541  -12.4089   19.1634 H   0  0  0  0  0  0
  -30.2859  -11.3671   19.9189 H   0  0  0  0  0  0
  -29.7503  -11.7320   17.4815 H   0  0  0  0  0  0
  -29.6580  -13.4564   17.7464 H   0  0  0  0  0  0
  -27.8459  -11.2967   18.8707 H   0  0  0  0  0  0
  -27.3673  -12.5780   17.7909 H   0  0  0  0  0  0
  -27.6555  -14.2601   19.5008 H   0  0  0  0  0  0
  -28.6837  -12.1242   21.4309 H   0  0  0  0  0  0
  -28.4558  -13.8132   21.8026 H   0  0  0  0  0  0
  -25.2766   -9.5689   22.4752 H   0  0  0  0  0  0
  -24.0007   -7.4642   22.7469 H   0  0  0  0  0  0
  -21.0842   -8.8780   19.8958 H   0  0  0  0  0  0
  -22.3695  -10.9679   19.6168 H   0  0  0  0  0  0
  -21.2013   -7.6150   23.9714 H   0  0  0  0  0  0
  -21.1480   -6.0521   25.9073 H   0  0  0  0  0  0
  -22.0598   -2.7609   23.2848 H   0  0  0  0  0  0
  -22.4101  -11.9890   22.4823 H   0  0  0  0  0  0
  -21.1086  -13.1233   22.2625 H   0  0  0  0  0  0
  -24.6511  -15.8437   20.5301 H   0  0  0  0  0  0
  -26.2619  -15.6346   20.0656 H   0  0  0  0  0  0
  -26.7149  -32.5494   23.1136 H   0  0  0  0  0  0
  -25.0055  -33.9749   25.0443 H   0  0  0  0  0  0
  -22.7042  -31.3071   21.4066 H   0  0  0  0  0  0
  -23.3744  -35.9645   23.3303 H   0  0  0  0  0  0
  -24.3583  -36.8915   22.2050 H   0  0  0  0  0  0
  -23.7247  -37.6515   23.6647 H   0  0  0  0  0  0
  -26.0714  -31.5797   20.6025 H   0  0  0  0  0  0
  -26.8325  -30.8623   21.9931 H   0  0  0  0  0  0
  -28.1077  -29.0264   21.1997 H   0  0  0  0  0  0
  -26.0289  -25.9455   19.0184 H   0  0  0  0  0  0
  -23.9741  -27.3112   19.0104 H   0  0  0  0  0  0
  -23.7392  -30.6055   19.4041 H   0  0  0  0  0  0
  -22.7475  -29.2526   19.8571 H   0  0  0  0  0  0
  -25.1284  -36.1957   25.0826 H   0  0  0  0  0  0
  -20.9991  -28.3253   24.1401 H   0  0  0  0  0  0
  -20.5672  -26.2290   23.3605 H   0  0  0  0  0  0
  -21.6648  -26.7428   22.1208 H   0  0  0  0  0  0
  -19.6921  -25.6299   21.1223 H   0  0  0  0  0  0
  -19.6688  -27.3202   20.6742 H   0  0  0  0  0  0
  -17.4204  -26.6656   21.4033 H   0  0  0  0  0  0
  -18.0355  -26.0051   22.9022 H   0  0  0  0  0  0
  -19.7943  -30.7260   24.2270 H   0  0  0  0  0  0
  -17.5020  -31.6249   24.5178 H   0  0  0  0  0  0
  -15.5360  -30.2985   23.7633 H   0  0  0  0  0  0
  -15.8681  -28.0818   22.7047 H   0  0  0  0  0  0
  -24.5899  -30.7079   25.7800 H   0  0  0  0  0  0
  -24.8959  -32.2884   26.4915 H   0  0  0  0  0  0
  -25.8087  -30.8873   27.0217 H   0  0  0  0  0  0
  -26.2845  -29.6778   24.1164 H   0  0  0  0  0  0
  -27.4038  -29.7240   25.4589 H   0  0  0  0  0  0
  -27.8705  -30.4301   23.9293 H   0  0  0  0  0  0
  -27.2682  -33.3591   26.2079 H   0  0  0  0  0  0
  -28.3863  -32.6866   25.0299 H   0  0  0  0  0  0
  -28.0737  -31.8402   26.5375 H   0  0  0  0  0  0
  -28.2601  -38.0100   24.7509 H   0  0  0  0  0  0
  -28.1076  -36.2633   24.6285 H   0  0  0  0  0  0
  -27.2303  -37.1448   25.8866 H   0  0  0  0  0  0
  -20.9342  -29.8756   21.6893 H   0  0  0  0  0  0
  -26.0176  -38.2863   24.1417 H   0  0  0  0  0  0
  -27.7876  -17.5754   21.8726 H   0  0  0  0  0  0
  -27.0400  -20.0183   22.0675 H   0  0  0  0  0  0
  -27.4739  -25.7480   21.9049 H   0  0  0  0  0  0
  -30.1395  -23.1809   19.8759 H   0  0  0  0  0  0
  -28.5668  -22.8360   19.0801 H   0  0  0  0  0  0
  -29.0400  -15.6393   20.9542 H   0  0  0  0  0  0
  1 25  1  0  0  0
  1 30  2  0  0  0
  1 81  1  0  0  0
  2  3  1  0  0  0
  2 25  1  0  0  0
  2 85  1  0  0  0
  2 86  1  0  0  0
  3  4  1  0  0  0
  3 87  1  0  0  0
  3 88  1  0  0  0
  4  5  1  0  0  0
  4 89  1  0  0  0
  4 90  1  0  0  0
  5  6  1  0  0  0
  5 26  1  0  0  0
  5 91  1  0  0  0
  6 25  1  0  0  0
  6 92  1  0  0  0
  6 93  1  0  0  0
  7  8  2  0  0  0
  7 26  1  0  0  0
  7 29  1  0  0  0
  8  9  1  0  0  0
  8 22  1  0  0  0
  9 10  1  0  0  0
  9 27  2  0  0  0
 10 11  2  0  0  0
 10 15  1  0  0  0
 11 12  1  0  0  0
 11 94  1  0  0  0
 12 13  2  0  0  0
 12 95  1  0  0  0
 13 14  1  0  0  0
 13 31  1  0  0  0
 14 15  2  0  0  0
 14 96  1  0  0  0
 15 97  1  0  0  0
 16 17  2  0  0  0
 16 21  1  0  0  0
 16 31  1  0  0  0
 17 18  1  0  0  0
 17 98  1  0  0  0
 18 19  2  0  0  0
 18 99  1  0  0  0
 19 20  1  0  0  0
 19 24  1  0  0  0
 20 21  2  0  0  0
 20100  1  0  0  0
 21 23  1  0  0  0
 22 28  1  0  0  0
 22 32  2  0  0  0
 26 27  1  0  0  0
 28101  1  0  0  0
 28102  1  0  0  0
 29103  1  0  0  0
 29104  1  0  0  0
 33 34  1  0  0  0
 33 66  1  0  0  0
 33 70  2  0  0  0
 34 36  1  0  0  0
 34 59  1  0  0  0
 34105  1  0  0  0
 35 44  2  0  0  0
 35 45  1  0  0  0
 35 68  1  0  0  0
 36 56  1  0  0  0
 36106  1  0  0  0
 37 39  1  0  0  0
 37 47  1  0  0  0
 37 66  1  0  0  0
 37107  1  0  0  0
 38 43  2  0  0  0
 38 46  1  0  0  0
 38 47  1  0  0  0
 39 64  1  0  0  0
 39 67  2  0  0  0
 40 52  1  0  0  0
 40 53  2  0  0  0
 40 58  1  0  0  0
 41108  1  0  0  0
 41109  1  0  0  0
 41110  1  0  0  0
 41 48  1  0  0  0
 42 43  1  0  0  0
 42 66  1  0  0  0
 42111  1  0  0  0
 42112  1  0  0  0
 43 44  1  0  0  0
 44113  1  0  0  0
 45 46  2  0  0  0
 45114  1  0  0  0
 46115  1  0  0  0
 47116  1  0  0  0
 47117  1  0  0  0
 48 56  1  0  0  0
 48 65  1  0  0  0
 48118  1  0  0  0
 49 50  1  0  0  0
 49 53  1  0  0  0
 49 64  1  0  0  0
 49119  1  0  0  0
 50 51  1  0  0  0
 50120  1  0  0  0
 50121  1  0  0  0
 51 52  1  0  0  0
 51122  1  0  0  0
 51123  1  0  0  0
 52124  1  0  0  0
 52125  1  0  0  0
 53 54  1  0  0  0
 54 55  2  0  0  0
 54126  1  0  0  0
 55 57  1  0  0  0
 55127  1  0  0  0
 56 69  2  0  0  0
 57 58  2  0  0  0
 57128  1  0  0  0
 58129  1  0  0  0
 59 60  1  0  0  0
 59 61  1  0  0  0
 59 62  1  0  0  0
 60130  1  0  0  0
 60131  1  0  0  0
 60132  1  0  0  0
 61133  1  0  0  0
 61134  1  0  0  0
 61135  1  0  0  0
 62136  1  0  0  0
 62137  1  0  0  0
 62138  1  0  0  0
 63 65  1  0  0  0
 63139  1  0  0  0
 63140  1  0  0  0
 63141  1  0  0  0
 64142  1  0  0  0
 65143  1  0  0  0
 68 77  1  0  0  0
 71 72  1  0  0  0
 71 73  2  0  0  0
 71144  1  0  0  0
 72 74  2  0  0  0
 72145  1  0  0  0
 73 78  1  0  0  0
 73 84  1  0  0  0
 74 80  1  0  0  0
 74 84  1  0  0  0
 75 76  1  0  0  0
 75 77  2  0  0  0
 75 79  1  0  0  0
 76 80  1  0  0  0
 76 82  2  0  0  0
 77146  1  0  0  0
 78 81  1  0  0  0
 78 83  2  0  0  0
 79 80  1  0  0  0
 79147  1  0  0  0
 79148  1  0  0  0
 81149  1  0  0  0
M  ISO  4   1 100  68 101  77 101  81 100
M  END
> <chiral flag>
0

> <version>
0

> <s_m_source_file>
/data/baiqing/PycharmProjects/Reinvent-master-3.2/result/LINK_invent/BTK/process_docking_weight1_custom_product_contain_oxygen_bond_distance_aromatic_linkinvent_7_9_3/rearranged_h_0083.sdf

> <i_m_source_file_index>
51

> <r_mmod_Potential_Energy-OPLS-2005>
-18.3579425811768

> <r_mmod_Stretch_Energy-OPLS-2005>
52.7446174621582

> <r_mmod_Bend_Energy-OPLS-2005>
193.433807373047

> <r_mmod_Torsional_Energy-OPLS-2005>
239.104156494141

> <r_mmod_Improper_Torsional_Energy-OPLS-2005>
6.95334577560425

> <r_mmod_Van_der_Waal_Energy-OPLS-2005>
129.530517578125

> <r_mmod_Electrostatic_Energy-OPLS-2005>
-441.803955078125

> <r_mmod_Solvation_Energy-OPLS-2005>
-239.931427001953

> <b_mmod_Minimization_Converged-OPLS-2005>
0

> <r_mmod_RMS_Derivative-OPLS-2005>
0.720569789409637

$$$$
51
                    3D
 Structure written by MMmdl.
153161  0  0  1  0            999 V2000
  -30.6011  -15.0146   20.4471 C   0  0  0  0  0  0
  -30.4109  -12.6540   19.5542 C   0  0  0  0  0  0
  -29.5243  -12.5476   18.2883 C   0  0  0  0  0  0
  -28.0617  -12.3179   18.6943 C   0  0  0  0  0  0
  -27.6133  -13.2739   19.8331 C   0  0  2  0  0  0
  -28.6330  -13.3891   20.9889 C   0  0  0  0  0  0
  -25.2310  -13.8107   20.5755 C   0  0  0  0  0  0
  -24.1658  -13.0350   20.9240 C   0  0  0  0  0  0
  -24.6334  -11.6856   20.8740 C   0  0  0  0  0  0
  -23.9032  -10.4245   21.0386 C   0  0  0  0  0  0
  -24.3614   -9.4187   21.9167 C   0  0  0  0  0  0
  -23.6287   -8.2225   22.0725 C   0  0  0  0  0  0
  -22.4264   -8.0254   21.3522 C   0  0  0  0  0  0
  -21.9896   -9.0219   20.4617 C   0  0  0  0  0  0
  -22.7213  -10.2093   20.3026 C   0  0  0  0  0  0
  -21.6832   -6.0718   22.5272 C   0  0  0  0  0  0
  -21.4005   -6.5619   23.8222 C   0  0  0  0  0  0
  -21.3669   -5.6775   24.9182 C   0  0  0  0  0  0
  -21.6056   -4.3035   24.7230 C   0  0  0  0  0  0
  -21.8817   -3.8126   23.4357 C   0  0  0  0  0  0
  -21.9191   -4.6949   22.3404 C   0  0  0  0  0  0
  -22.7691  -13.5141   21.1929 C   0  0  0  0  0  0
  -22.1653   -4.2131   21.0981 F   0  0  0  0  0  0
  -21.5641   -3.4520   25.7752 F   0  0  0  0  0  0
  -29.9191  -13.7857   20.4138 N   0  0  0  0  0  0
  -26.2781  -12.9474   20.3239 N   0  0  0  0  0  0
  -25.9290  -11.6581   20.5706 N   0  0  0  0  0  0
  -22.0343  -12.8132   22.0477 N   0  0  0  0  0  0
  -25.3963  -15.1783   20.4315 N   0  0  0  0  0  0
  -31.7760  -15.0746   20.0545 O   0  0  0  0  0  0
  -21.6616   -6.8854   21.4228 O   0  0  0  0  0  0
  -22.3407  -14.5481   20.6785 O   0  0  0  0  0  0
  -24.6463  -31.8425   23.1877 C   0  0  0  0  0  0
  -25.9217  -32.4685   23.8305 C   0  0  1  0  0  0
  -27.2202  -27.0829   20.1933 C   0  0  0  0  0  0
  -25.5951  -33.8493   24.2205 N   0  0  0  0  0  0
  -23.4556  -30.4592   21.5327 C   0  0  2  0  0  0
  -24.9163  -28.8873   20.1073 C   0  0  0  0  0  0
  -22.7624  -29.4508   22.4825 C   0  0  0  0  0  0
  -18.0317  -28.1384   22.8472 C   0  0  0  0  0  0
  -24.1480  -36.7252   23.2639 C   0  0  0  0  0  0
  -26.0147  -30.7002   21.4009 C   0  0  0  0  0  0
  -26.0885  -29.3041   20.7505 C   0  0  0  0  0  0
  -27.2387  -28.4184   20.7861 C   0  0  0  0  0  0
  -26.0406  -26.8141   19.4561 C   0  0  0  0  0  0
  -24.9108  -27.6586   19.4393 C   0  0  0  0  0  0
  -23.6919  -29.7914   20.1505 C   0  0  0  0  0  0
  -25.4109  -36.3021   24.0313 C   0  0  1  0  0  0
  -20.5942  -28.3717   23.1226 C   0  0  2  0  0  0
  -20.6796  -26.9419   22.5404 C   0  0  0  0  0  0
  -19.5765  -26.6367   21.5213 C   0  0  0  0  0  0
  -18.1946  -26.7921   22.1625 C   0  0  0  0  0  0
  -19.1580  -28.8872   23.2829 C   0  0  0  0  0  0
  -18.9485  -30.1466   23.8865 C   0  0  0  0  0  0
  -17.6485  -30.6586   24.0549 C   0  0  0  0  0  0
  -25.9075  -34.9399   23.5064 C   0  0  0  0  0  0
  -16.5370  -29.9077   23.6325 C   0  0  0  0  0  0
  -16.7303  -28.6488   23.0364 C   0  0  0  0  0  0
  -26.4540  -31.6566   25.0759 C   0  0  0  0  0  0
  -25.3725  -31.3779   26.1453 C   0  0  0  0  0  0
  -27.0401  -30.2948   24.6361 C   0  0  0  0  0  0
  -27.6048  -32.4358   25.7564 C   0  0  0  0  0  0
  -27.5560  -37.1799   24.8470 C   0  0  0  0  0  0
  -21.4313  -29.3034   22.3603 N   0  0  0  0  0  0
  -26.4281  -37.3734   23.9404 N   0  0  0  0  0  0
  -24.7244  -31.0260   22.0936 N   0  0  0  0  0  0
  -23.4264  -28.8030   23.2968 O   0  0  0  0  0  0
  -28.1948  -25.9985   20.3155 O   0  0  0  0  0  0
  -26.5656  -34.8894   22.4642 O   0  0  0  0  0  0
  -23.5586  -32.1297   23.7072 O   0  0  0  0  0  0
  -31.2466  -21.0417   21.4431 C   0  0  0  0  0  0
  -30.3934  -22.1496   21.1911 C   0  0  0  0  0  0
  -30.8654  -19.6818   21.2551 C   0  0  0  0  0  0
  -28.7496  -20.5185   20.5081 C   0  0  0  0  0  0
  -29.0729  -21.9673   20.7286 C   0  0  0  0  0  0
  -29.5910  -19.2976   20.7756 C   0  0  0  0  0  0
  -28.0444  -23.2080   20.5936 C   0  0  0  0  0  0
  -27.7054  -24.6077   20.4795 C   0  0  0  0  0  0
  -27.1470  -17.7219   19.6330 C   0  0  0  0  0  0
  -29.3247  -17.6787   20.5128 C   0  0  0  0  0  0
  -26.3354  -18.4201   20.7256 C   0  0  0  0  0  0
  -28.3133  -17.2063   19.7374 N   0  0  0  0  0  0
  -30.0456  -16.6368   21.0432 N   0  3  0  0  0  0
  -31.4499  -12.7920   19.2568 H   0  0  0  0  0  0
  -30.3902  -11.7201   20.1171 H   0  0  0  0  0  0
  -29.8689  -11.7320   17.6513 H   0  0  0  0  0  0
  -29.6075  -13.4621   17.6963 H   0  0  0  0  0  0
  -27.9716  -11.2823   19.0265 H   0  0  0  0  0  0
  -27.4037  -12.4097   17.8296 H   0  0  0  0  0  0
  -27.5478  -14.2603   19.3699 H   0  0  0  0  0  0
  -28.7243  -12.4499   21.5342 H   0  0  0  0  0  0
  -28.3062  -14.1444   21.7056 H   0  0  0  0  0  0
  -25.2756   -9.5664   22.4755 H   0  0  0  0  0  0
  -24.0001   -7.4594   22.7432 H   0  0  0  0  0  0
  -21.0833   -8.8732   19.8907 H   0  0  0  0  0  0
  -22.3672  -10.9640   19.6144 H   0  0  0  0  0  0
  -21.1974   -7.6124   23.9723 H   0  0  0  0  0  0
  -21.1499   -6.0495   25.9090 H   0  0  0  0  0  0
  -22.0589   -2.7586   23.2851 H   0  0  0  0  0  0
  -22.3977  -11.9794   22.4858 H   0  0  0  0  0  0
  -21.0946  -13.1107   22.2696 H   0  0  0  0  0  0
  -24.6355  -15.8309   20.5822 H   0  0  0  0  0  0
  -26.2847  -15.6148   20.2195 H   0  0  0  0  0  0
  -26.7271  -32.5306   23.1039 H   0  0  0  0  0  0
  -25.0124  -33.9619   25.0369 H   0  0  0  0  0  0
  -22.7559  -31.2831   21.3737 H   0  0  0  0  0  0
  -23.3737  -35.9596   23.3329 H   0  0  0  0  0  0
  -24.3544  -36.8865   22.2045 H   0  0  0  0  0  0
  -23.7259  -37.6466   23.6669 H   0  0  0  0  0  0
  -26.1757  -31.4442   20.6187 H   0  0  0  0  0  0
  -26.8834  -30.7597   22.0454 H   0  0  0  0  0  0
  -28.1157  -28.7302   21.3375 H   0  0  0  0  0  0
  -25.9485  -25.8798   18.9230 H   0  0  0  0  0  0
  -24.0286  -27.3433   18.9007 H   0  0  0  0  0  0
  -23.8326  -30.5668   19.3962 H   0  0  0  0  0  0
  -22.8092  -29.2336   19.8318 H   0  0  0  0  0  0
  -25.1303  -36.1849   25.0811 H   0  0  0  0  0  0
  -21.0011  -28.3279   24.1358 H   0  0  0  0  0  0
  -20.5671  -26.2335   23.3619 H   0  0  0  0  0  0
  -21.6655  -26.7407   22.1204 H   0  0  0  0  0  0
  -19.6926  -25.6263   21.1262 H   0  0  0  0  0  0
  -19.6689  -27.3160   20.6717 H   0  0  0  0  0  0
  -17.4216  -26.6666   21.4026 H   0  0  0  0  0  0
  -18.0343  -26.0072   22.9025 H   0  0  0  0  0  0
  -19.7964  -30.7280   24.2234 H   0  0  0  0  0  0
  -17.5038  -31.6267   24.5152 H   0  0  0  0  0  0
  -15.5373  -30.2972   23.7666 H   0  0  0  0  0  0
  -15.8695  -28.0782   22.7126 H   0  0  0  0  0  0
  -24.5892  -30.7123   25.7812 H   0  0  0  0  0  0
  -24.8921  -32.2966   26.4825 H   0  0  0  0  0  0
  -25.8008  -30.9010   27.0274 H   0  0  0  0  0  0
  -26.3019  -29.6690   24.1315 H   0  0  0  0  0  0
  -27.3943  -29.7228   25.4954 H   0  0  0  0  0  0
  -27.8977  -30.4183   23.9736 H   0  0  0  0  0  0
  -27.2598  -33.3663   26.2095 H   0  0  0  0  0  0
  -28.3902  -32.6925   25.0442 H   0  0  0  0  0  0
  -28.0670  -31.8524   26.5540 H   0  0  0  0  0  0
  -28.2605  -38.0070   24.7458 H   0  0  0  0  0  0
  -28.1035  -36.2593   24.6370 H   0  0  0  0  0  0
  -27.2273  -37.1530   25.8878 H   0  0  0  0  0  0
  -20.9541  -29.8788   21.6796 H   0  0  0  0  0  0
  -26.0143  -38.2815   24.1385 H   0  0  0  0  0  0
  -32.2415  -21.2413   21.8117 H   0  0  0  0  0  0
  -30.7565  -23.1503   21.3918 H   0  0  0  0  0  0
  -31.5964  -18.9151   21.4567 H   0  0  0  0  0  0
  -27.7671  -20.3673   20.1031 H   0  0  0  0  0  0
  -27.0868  -22.7183   20.6911 H   0  0  0  0  0  0
  -26.6313  -24.6901   20.5519 H   0  0  0  0  0  0
  -26.5548  -17.5468   18.7310 H   0  0  0  0  0  0
  -26.9442  -18.9257   21.4698 H   0  0  0  0  0  0
  -25.7534  -17.6838   21.2757 H   0  0  0  0  0  0
  -25.6319  -19.1269   20.2837 H   0  0  0  0  0  0
  -30.6540  -16.8973   21.8174 H   0  0  0  0  0  0
  1 25  1  0  0  0
  1 30  2  0  0  0
  1 83  1  0  0  0
  2  3  1  0  0  0
  2 25  1  0  0  0
  2 84  1  0  0  0
  2 85  1  0  0  0
  3  4  1  0  0  0
  3 86  1  0  0  0
  3 87  1  0  0  0
  4  5  1  0  0  0
  4 88  1  0  0  0
  4 89  1  0  0  0
  5  6  1  0  0  0
  5 26  1  0  0  0
  5 90  1  0  0  0
  6 25  1  0  0  0
  6 91  1  0  0  0
  6 92  1  0  0  0
  7  8  2  0  0  0
  7 26  1  0  0  0
  7 29  1  0  0  0
  8  9  1  0  0  0
  8 22  1  0  0  0
  9 10  1  0  0  0
  9 27  2  0  0  0
 10 11  2  0  0  0
 10 15  1  0  0  0
 11 12  1  0  0  0
 11 93  1  0  0  0
 12 13  2  0  0  0
 12 94  1  0  0  0
 13 14  1  0  0  0
 13 31  1  0  0  0
 14 15  2  0  0  0
 14 95  1  0  0  0
 15 96  1  0  0  0
 16 17  2  0  0  0
 16 21  1  0  0  0
 16 31  1  0  0  0
 17 18  1  0  0  0
 17 97  1  0  0  0
 18 19  2  0  0  0
 18 98  1  0  0  0
 19 20  1  0  0  0
 19 24  1  0  0  0
 20 21  2  0  0  0
 20 99  1  0  0  0
 21 23  1  0  0  0
 22 28  1  0  0  0
 22 32  2  0  0  0
 26 27  1  0  0  0
 28100  1  0  0  0
 28101  1  0  0  0
 29102  1  0  0  0
 29103  1  0  0  0
 33 34  1  0  0  0
 33 66  1  0  0  0
 33 70  2  0  0  0
 34 36  1  0  0  0
 34 59  1  0  0  0
 34104  1  0  0  0
 35 44  2  0  0  0
 35 45  1  0  0  0
 35 68  1  0  0  0
 36 56  1  0  0  0
 36105  1  0  0  0
 37 39  1  0  0  0
 37 47  1  0  0  0
 37 66  1  0  0  0
 37106  1  0  0  0
 38 43  2  0  0  0
 38 46  1  0  0  0
 38 47  1  0  0  0
 39 64  1  0  0  0
 39 67  2  0  0  0
 40 52  1  0  0  0
 40 53  2  0  0  0
 40 58  1  0  0  0
 41107  1  0  0  0
 41108  1  0  0  0
 41109  1  0  0  0
 41 48  1  0  0  0
 42 43  1  0  0  0
 42 66  1  0  0  0
 42110  1  0  0  0
 42111  1  0  0  0
 43 44  1  0  0  0
 44112  1  0  0  0
 45 46  2  0  0  0
 45113  1  0  0  0
 46114  1  0  0  0
 47115  1  0  0  0
 47116  1  0  0  0
 48 56  1  0  0  0
 48 65  1  0  0  0
 48117  1  0  0  0
 49 50  1  0  0  0
 49 53  1  0  0  0
 49 64  1  0  0  0
 49118  1  0  0  0
 50 51  1  0  0  0
 50119  1  0  0  0
 50120  1  0  0  0
 51 52  1  0  0  0
 51121  1  0  0  0
 51122  1  0  0  0
 52123  1  0  0  0
 52124  1  0  0  0
 53 54  1  0  0  0
 54 55  2  0  0  0
 54125  1  0  0  0
 55 57  1  0  0  0
 55126  1  0  0  0
 56 69  2  0  0  0
 57 58  2  0  0  0
 57127  1  0  0  0
 58128  1  0  0  0
 59 60  1  0  0  0
 59 61  1  0  0  0
 59 62  1  0  0  0
 60129  1  0  0  0
 60130  1  0  0  0
 60131  1  0  0  0
 61132  1  0  0  0
 61133  1  0  0  0
 61134  1  0  0  0
 62135  1  0  0  0
 62136  1  0  0  0
 62137  1  0  0  0
 63 65  1  0  0  0
 63138  1  0  0  0
 63139  1  0  0  0
 63140  1  0  0  0
 64141  1  0  0  0
 65142  1  0  0  0
 68 78  1  0  0  0
 71 72  2  0  0  0
 71 73  1  0  0  0
 71143  1  0  0  0
 72 75  1  0  0  0
 72144  1  0  0  0
 73 76  2  0  0  0
 73145  1  0  0  0
 74 75  2  0  0  0
 74 76  1  0  0  0
 74146  1  0  0  0
 75 77  1  0  0  0
 76 80  1  0  0  0
 77 78  2  0  0  0
 77147  1  0  0  0
 78148  1  0  0  0
 79 81  1  0  0  0
 79 82  2  0  0  0
 79149  1  0  0  0
 80 82  1  0  0  0
 80 83  2  0  0  0
 81150  1  0  0  0
 81151  1  0  0  0
 81152  1  0  0  0
 83153  1  0  0  0
M  CHG  1  83   1
M  ISO  4   1 100  68 101  78 101  83 100
M  END
> <chiral flag>
0

> <version>
0

> <s_m_source_file>
/data/baiqing/PycharmProjects/Reinvent-master-3.2/result/LINK_invent/BTK/process_docking_weight1_custom_product_contain_oxygen_bond_distance_aromatic_linkinvent_7_9_3/rearranged_h_0083.sdf

> <i_m_source_file_index>
52

> <r_mmod_Potential_Energy-OPLS-2005>
907.820678710938

> <r_mmod_Stretch_Energy-OPLS-2005>
359.394287109375

> <r_mmod_Bend_Energy-OPLS-2005>
463.772430419922

> <r_mmod_Torsional_Energy-OPLS-2005>
257.035736083984

> <r_mmod_Improper_Torsional_Energy-OPLS-2005>
5.09504413604736

> <r_mmod_Van_der_Waal_Energy-OPLS-2005>
147.031967163086

> <r_mmod_Electrostatic_Energy-OPLS-2005>
-189.63020324707

> <r_mmod_Solvation_Energy-OPLS-2005>
-402.102630615234

> <b_mmod_Minimization_Converged-OPLS-2005>
0

> <r_mmod_RMS_Derivative-OPLS-2005>
4.47182035446167

$$$$
52
                    3D
 Structure written by MMmdl.
158166  0  0  1  0            999 V2000
  -30.6742  -14.5781   20.4747 C   0  0  0  0  0  0
  -30.4195  -12.3411   19.4671 C   0  0  0  0  0  0
  -29.5044  -12.4824   18.2322 C   0  0  0  0  0  0
  -28.0281  -12.3320   18.6448 C   0  0  0  0  0  0
  -27.6518  -13.2170   19.8632 C   0  0  2  0  0  0
  -28.6916  -13.0912   20.9993 C   0  0  0  0  0  0
  -25.2552  -13.8184   20.5692 C   0  0  0  0  0  0
  -24.1816  -13.0447   20.9186 C   0  0  0  0  0  0
  -24.6377  -11.6914   20.8736 C   0  0  0  0  0  0
  -23.9046  -10.4298   21.0402 C   0  0  0  0  0  0
  -24.3602   -9.4211   21.9177 C   0  0  0  0  0  0
  -23.6272   -8.2252   22.0753 C   0  0  0  0  0  0
  -22.4258   -8.0288   21.3541 C   0  0  0  0  0  0
  -21.9890   -9.0263   20.4652 C   0  0  0  0  0  0
  -22.7218  -10.2140   20.3056 C   0  0  0  0  0  0
  -21.6855   -6.0739   22.5281 C   0  0  0  0  0  0
  -21.4019   -6.5639   23.8215 C   0  0  0  0  0  0
  -21.3661   -5.6790   24.9175 C   0  0  0  0  0  0
  -21.6037   -4.3052   24.7225 C   0  0  0  0  0  0
  -21.8813   -3.8147   23.4341 C   0  0  0  0  0  0
  -21.9188   -4.6965   22.3398 C   0  0  0  0  0  0
  -22.7844  -13.5238   21.1859 C   0  0  0  0  0  0
  -22.1660   -4.2150   21.0976 F   0  0  0  0  0  0
  -21.5625   -3.4533   25.7734 F   0  0  0  0  0  0
  -30.0171  -13.3810   20.4340 N   0  0  0  0  0  0
  -26.2970  -12.9360   20.3313 N   0  0  0  0  0  0
  -25.9302  -11.6511   20.5749 N   0  0  0  0  0  0
  -22.0498  -12.8239   22.0433 N   0  0  0  0  0  0
  -25.4273  -15.1904   20.4112 N   0  0  0  0  0  0
  -31.8541  -14.6727   20.1262 O   0  0  0  0  0  0
  -21.6630   -6.8879   21.4239 O   0  0  0  0  0  0
  -22.3527  -14.5540   20.6706 O   0  0  0  0  0  0
  -24.6204  -31.8623   23.2068 C   0  0  0  0  0  0
  -25.9077  -32.4787   23.8370 C   0  0  1  0  0  0
  -27.2332  -27.3748   20.1016 C   0  0  0  0  0  0
  -25.5905  -33.8589   24.2296 N   0  0  0  0  0  0
  -23.4127  -30.4876   21.5467 C   0  0  2  0  0  0
  -24.8617  -28.9517   20.1080 C   0  0  0  0  0  0
  -22.7447  -29.4632   22.4942 C   0  0  0  0  0  0
  -18.0275  -28.1390   22.8491 C   0  0  0  0  0  0
  -24.1488  -36.7294   23.2642 C   0  0  0  0  0  0
  -25.9487  -30.8119   21.3686 C   0  0  0  0  0  0
  -26.0268  -29.4439   20.7100 C   0  0  0  0  0  0
  -27.2152  -28.6631   20.7046 C   0  0  0  0  0  0
  -26.0413  -26.9108   19.5003 C   0  0  0  0  0  0
  -24.8668  -27.6870   19.4983 C   0  0  0  0  0  0
  -23.6258  -29.8249   20.1597 C   0  0  0  0  0  0
  -25.4106  -36.3080   24.0330 C   0  0  1  0  0  0
  -20.5874  -28.3673   23.1301 C   0  0  2  0  0  0
  -20.6761  -26.9398   22.5415 C   0  0  0  0  0  0
  -19.5736  -26.6387   21.5212 C   0  0  0  0  0  0
  -18.1919  -26.7932   22.1630 C   0  0  0  0  0  0
  -19.1533  -28.8845   23.2896 C   0  0  0  0  0  0
  -18.9458  -30.1452   23.8906 C   0  0  0  0  0  0
  -17.6460  -30.6590   24.0568 C   0  0  0  0  0  0
  -25.9041  -34.9451   23.5109 C   0  0  0  0  0  0
  -16.5348  -29.9097   23.6329 C   0  0  0  0  0  0
  -16.7265  -28.6516   23.0341 C   0  0  0  0  0  0
  -26.4489  -31.6593   25.0724 C   0  0  0  0  0  0
  -25.3750  -31.3716   26.1473 C   0  0  0  0  0  0
  -27.0323  -30.3026   24.6140 C   0  0  0  0  0  0
  -27.6058  -32.4329   25.7476 C   0  0  0  0  0  0
  -27.5571  -37.1797   24.8464 C   0  0  0  0  0  0
  -21.4163  -29.3026   22.3691 N   0  0  0  0  0  0
  -26.4282  -37.3771   23.9409 N   0  0  0  0  0  0
  -24.6793  -31.0683   22.0989 N   0  0  0  0  0  0
  -23.4189  -28.8174   23.3012 O   0  0  0  0  0  0
  -28.3512  -26.5448   20.1629 O   0  0  0  0  0  0
  -26.5610  -34.8909   22.4680 O   0  0  0  0  0  0
  -23.5385  -32.1390   23.7439 O   0  0  0  0  0  0
  -30.8547  -18.3931   18.2395 C   0  0  0  0  0  0
  -30.3932  -19.5635   18.8655 C   0  0  0  0  0  0
  -30.7073  -17.1404   18.8588 C   0  0  0  0  0  0
  -29.6134  -18.2195   20.7466 C   0  0  0  0  0  0
  -29.7550  -19.5118   20.1281 C   0  0  0  0  0  0
  -30.1009  -17.0156   20.1335 C   0  0  0  0  0  0
  -28.5703  -25.6459   19.1299 C   0  0  0  0  0  0
  -29.2653  -20.8092   20.7855 C   0  0  0  0  0  0
  -28.8434  -24.3031   19.1705 C   0  0  0  0  0  0
  -29.0451  -23.5976   17.8343 C   0  0  0  0  0  0
  -30.0036  -23.9343   21.4116 C   0  0  0  0  0  0
  -28.9768  -23.3695   20.4139 C   0  0  2  0  0  0
  -29.9319  -15.6962   20.7290 N   0  0  0  0  0  0
  -29.3315  -21.9578   20.0592 N   0  0  0  0  0  0
  -28.8252  -20.7914   21.9372 O   0  0  0  0  0  0
  -31.4675  -12.4211   19.1715 H   0  0  0  0  0  0
  -30.3146  -11.3505   19.9152 H   0  0  0  0  0  0
  -29.7611  -11.7332   17.4816 H   0  0  0  0  0  0
  -29.6630  -13.4550   17.7640 H   0  0  0  0  0  0
  -27.8657  -11.2818   18.8912 H   0  0  0  0  0  0
  -27.3728  -12.5510   17.8016 H   0  0  0  0  0  0
  -27.6679  -14.2477   19.5096 H   0  0  0  0  0  0
  -28.6774  -12.0870   21.4257 H   0  0  0  0  0  0
  -28.4513  -13.7702   21.8198 H   0  0  0  0  0  0
  -25.2756   -9.5675   22.4736 H   0  0  0  0  0  0
  -23.9990   -7.4635   22.7456 H   0  0  0  0  0  0
  -21.0835   -8.8769   19.8950 H   0  0  0  0  0  0
  -22.3677  -10.9673   19.6162 H   0  0  0  0  0  0
  -21.2022   -7.6151   23.9714 H   0  0  0  0  0  0
  -21.1490   -6.0527   25.9075 H   0  0  0  0  0  0
  -22.0588   -2.7608   23.2843 H   0  0  0  0  0  0
  -22.4123  -11.9906   22.4829 H   0  0  0  0  0  0
  -21.1114  -13.1263   22.2641 H   0  0  0  0  0  0
  -24.6608  -15.8455   20.5212 H   0  0  0  0  0  0
  -26.2751  -15.6295   20.0747 H   0  0  0  0  0  0
  -26.7150  -32.5484   23.1129 H   0  0  0  0  0  0
  -25.0011  -33.9736   25.0411 H   0  0  0  0  0  0
  -22.7042  -31.3068   21.4086 H   0  0  0  0  0  0
  -23.3737  -35.9643   23.3318 H   0  0  0  0  0  0
  -24.3573  -36.8905   22.2053 H   0  0  0  0  0  0
  -23.7266  -37.6510   23.6661 H   0  0  0  0  0  0
  -26.0716  -31.5808   20.6043 H   0  0  0  0  0  0
  -26.8308  -30.8612   21.9948 H   0  0  0  0  0  0
  -28.1105  -29.0344   21.1842 H   0  0  0  0  0  0
  -25.9988  -25.9275   19.0532 H   0  0  0  0  0  0
  -23.9691  -27.2988   19.0373 H   0  0  0  0  0  0
  -23.7383  -30.6044   19.4051 H   0  0  0  0  0  0
  -22.7480  -29.2505   19.8585 H   0  0  0  0  0  0
  -25.1298  -36.1925   25.0823 H   0  0  0  0  0  0
  -20.9969  -28.3236   24.1418 H   0  0  0  0  0  0
  -20.5651  -26.2270   23.3603 H   0  0  0  0  0  0
  -21.6634  -26.7417   22.1213 H   0  0  0  0  0  0
  -19.6891  -25.6303   21.1226 H   0  0  0  0  0  0
  -19.6686  -27.3209   20.6753 H   0  0  0  0  0  0
  -17.4183  -26.6669   21.4042 H   0  0  0  0  0  0
  -18.0333  -26.0081   22.9035 H   0  0  0  0  0  0
  -19.7931  -30.7275   24.2273 H   0  0  0  0  0  0
  -17.5009  -31.6271   24.5178 H   0  0  0  0  0  0
  -15.5351  -30.3002   23.7651 H   0  0  0  0  0  0
  -15.8661  -28.0850   22.7031 H   0  0  0  0  0  0
  -24.5914  -30.7070   25.7821 H   0  0  0  0  0  0
  -24.8945  -32.2873   26.4929 H   0  0  0  0  0  0
  -25.8096  -30.8880   27.0229 H   0  0  0  0  0  0
  -26.2872  -29.6779   24.1192 H   0  0  0  0  0  0
  -27.4077  -29.7284   25.4623 H   0  0  0  0  0  0
  -27.8724  -30.4338   23.9313 H   0  0  0  0  0  0
  -27.2671  -33.3624   26.2066 H   0  0  0  0  0  0
  -28.3841  -32.6900   25.0279 H   0  0  0  0  0  0
  -28.0753  -31.8446   26.5369 H   0  0  0  0  0  0
  -28.2601  -38.0083   24.7487 H   0  0  0  0  0  0
  -28.1051  -36.2609   24.6315 H   0  0  0  0  0  0
  -27.2279  -37.1484   25.8866 H   0  0  0  0  0  0
  -20.9326  -29.8753   21.6916 H   0  0  0  0  0  0
  -26.0159  -38.2842   24.1432 H   0  0  0  0  0  0
  -31.3303  -18.4566   17.2707 H   0  0  0  0  0  0
  -30.5378  -20.5008   18.3484 H   0  0  0  0  0  0
  -31.0638  -16.2728   18.3211 H   0  0  0  0  0  0
  -29.1270  -18.1610   21.7104 H   0  0  0  0  0  0
  -28.5017  -26.1638   18.1829 H   0  0  0  0  0  0
  -28.9110  -24.2773   16.9908 H   0  0  0  0  0  0
  -28.3234  -22.7898   17.7102 H   0  0  0  0  0  0
  -30.0531  -23.1864   17.7619 H   0  0  0  0  0  0
  -29.7460  -24.9498   21.7128 H   0  0  0  0  0  0
  -31.0018  -23.9661   20.9733 H   0  0  0  0  0  0
  -30.0545  -23.3342   22.3204 H   0  0  0  0  0  0
  -27.9983  -23.3472   20.8974 H   0  0  0  0  0  0
  -29.0651  -15.5384   21.2222 H   0  0  0  0  0  0
  -29.6715  -21.8382   19.1165 H   0  0  0  0  0  0
  1 25  1  0  0  0
  1 30  2  0  0  0
  1 83  1  0  0  0
  2  3  1  0  0  0
  2 25  1  0  0  0
  2 86  1  0  0  0
  2 87  1  0  0  0
  3  4  1  0  0  0
  3 88  1  0  0  0
  3 89  1  0  0  0
  4  5  1  0  0  0
  4 90  1  0  0  0
  4 91  1  0  0  0
  5  6  1  0  0  0
  5 26  1  0  0  0
  5 92  1  0  0  0
  6 25  1  0  0  0
  6 93  1  0  0  0
  6 94  1  0  0  0
  7  8  2  0  0  0
  7 26  1  0  0  0
  7 29  1  0  0  0
  8  9  1  0  0  0
  8 22  1  0  0  0
  9 10  1  0  0  0
  9 27  2  0  0  0
 10 11  2  0  0  0
 10 15  1  0  0  0
 11 12  1  0  0  0
 11 95  1  0  0  0
 12 13  2  0  0  0
 12 96  1  0  0  0
 13 14  1  0  0  0
 13 31  1  0  0  0
 14 15  2  0  0  0
 14 97  1  0  0  0
 15 98  1  0  0  0
 16 17  2  0  0  0
 16 21  1  0  0  0
 16 31  1  0  0  0
 17 18  1  0  0  0
 17 99  1  0  0  0
 18 19  2  0  0  0
 18100  1  0  0  0
 19 20  1  0  0  0
 19 24  1  0  0  0
 20 21  2  0  0  0
 20101  1  0  0  0
 21 23  1  0  0  0
 22 28  1  0  0  0
 22 32  2  0  0  0
 26 27  1  0  0  0
 28102  1  0  0  0
 28103  1  0  0  0
 29104  1  0  0  0
 29105  1  0  0  0
 33 34  1  0  0  0
 33 66  1  0  0  0
 33 70  2  0  0  0
 34 36  1  0  0  0
 34 59  1  0  0  0
 34106  1  0  0  0
 35 44  2  0  0  0
 35 45  1  0  0  0
 35 68  1  0  0  0
 36 56  1  0  0  0
 36107  1  0  0  0
 37 39  1  0  0  0
 37 47  1  0  0  0
 37 66  1  0  0  0
 37108  1  0  0  0
 38 43  2  0  0  0
 38 46  1  0  0  0
 38 47  1  0  0  0
 39 64  1  0  0  0
 39 67  2  0  0  0
 40 52  1  0  0  0
 40 53  2  0  0  0
 40 58  1  0  0  0
 41109  1  0  0  0
 41110  1  0  0  0
 41111  1  0  0  0
 41 48  1  0  0  0
 42 43  1  0  0  0
 42 66  1  0  0  0
 42112  1  0  0  0
 42113  1  0  0  0
 43 44  1  0  0  0
 44114  1  0  0  0
 45 46  2  0  0  0
 45115  1  0  0  0
 46116  1  0  0  0
 47117  1  0  0  0
 47118  1  0  0  0
 48 56  1  0  0  0
 48 65  1  0  0  0
 48119  1  0  0  0
 49 50  1  0  0  0
 49 53  1  0  0  0
 49 64  1  0  0  0
 49120  1  0  0  0
 50 51  1  0  0  0
 50121  1  0  0  0
 50122  1  0  0  0
 51 52  1  0  0  0
 51123  1  0  0  0
 51124  1  0  0  0
 52125  1  0  0  0
 52126  1  0  0  0
 53 54  1  0  0  0
 54 55  2  0  0  0
 54127  1  0  0  0
 55 57  1  0  0  0
 55128  1  0  0  0
 56 69  2  0  0  0
 57 58  2  0  0  0
 57129  1  0  0  0
 58130  1  0  0  0
 59 60  1  0  0  0
 59 61  1  0  0  0
 59 62  1  0  0  0
 60131  1  0  0  0
 60132  1  0  0  0
 60133  1  0  0  0
 61134  1  0  0  0
 61135  1  0  0  0
 61136  1  0  0  0
 62137  1  0  0  0
 62138  1  0  0  0
 62139  1  0  0  0
 63 65  1  0  0  0
 63140  1  0  0  0
 63141  1  0  0  0
 63142  1  0  0  0
 64143  1  0  0  0
 65144  1  0  0  0
 68 77  1  0  0  0
 71 72  2  0  0  0
 71 73  1  0  0  0
 71145  1  0  0  0
 72 75  1  0  0  0
 72146  1  0  0  0
 73 76  2  0  0  0
 73147  1  0  0  0
 74 75  2  0  0  0
 74 76  1  0  0  0
 74148  1  0  0  0
 75 78  1  0  0  0
 76 83  1  0  0  0
 77 79  2  0  0  0
 77149  1  0  0  0
 78 84  1  0  0  0
 78 85  2  0  0  0
 79 80  1  0  0  0
 79 82  1  0  0  0
 80150  1  0  0  0
 80151  1  0  0  0
 80152  1  0  0  0
 81153  1  0  0  0
 81154  1  0  0  0
 81155  1  0  0  0
 81 82  1  0  0  0
 82 84  1  0  0  0
 82156  1  0  0  0
 83157  1  0  0  0
 84158  1  0  0  0
M  ISO  4   1 100  68 101  77 101  83 100
M  END
> <chiral flag>
0

> <version>
0

> <s_m_source_file>
/data/baiqing/PycharmProjects/Reinvent-master-3.2/result/LINK_invent/BTK/process_docking_weight1_custom_product_contain_oxygen_bond_distance_aromatic_linkinvent_7_9_3/rearranged_h_0083.sdf

> <i_m_source_file_index>
53

> <r_mmod_Potential_Energy-OPLS-2005>
-45.3748550415039

> <r_mmod_Stretch_Energy-OPLS-2005>
61.959056854248

> <r_mmod_Bend_Energy-OPLS-2005>
119.913330078125

> <r_mmod_Torsional_Energy-OPLS-2005>
236.880935668945

> <r_mmod_Improper_Torsional_Energy-OPLS-2005>
5.05838489532471

> <r_mmod_Van_der_Waal_Energy-OPLS-2005>
157.316375732422

> <r_mmod_Electrostatic_Energy-OPLS-2005>
-442.006042480469

> <r_mmod_Solvation_Energy-OPLS-2005>
-219.043670654297

> <b_mmod_Minimization_Converged-OPLS-2005>
0

> <r_mmod_RMS_Derivative-OPLS-2005>
2.11992144584656

$$$$
53
                    3D
 Structure written by MMmdl.
152161  0  0  1  0            999 V2000
  -30.4812  -14.9110   20.3846 C   0  0  0  0  0  0
  -30.4509  -12.5492   19.4485 C   0  0  0  0  0  0
  -29.5221  -12.5286   18.2118 C   0  0  0  0  0  0
  -28.0409  -12.3450   18.6189 C   0  0  0  0  0  0
  -27.6363  -13.2358   19.8270 C   0  0  2  0  0  0
  -28.6890  -13.1891   20.9547 C   0  0  0  0  0  0
  -25.2483  -13.8197   20.5575 C   0  0  0  0  0  0
  -24.1830  -13.0421   20.9206 C   0  0  0  0  0  0
  -24.6413  -11.6908   20.8722 C   0  0  0  0  0  0
  -23.9104  -10.4287   21.0425 C   0  0  0  0  0  0
  -24.3664   -9.4201   21.9179 C   0  0  0  0  0  0
  -23.6337   -8.2234   22.0732 C   0  0  0  0  0  0
  -22.4315   -8.0282   21.3514 C   0  0  0  0  0  0
  -21.9937   -9.0271   20.4621 C   0  0  0  0  0  0
  -22.7275  -10.2133   20.3060 C   0  0  0  0  0  0
  -21.6834   -6.0748   22.5284 C   0  0  0  0  0  0
  -21.4006   -6.5636   23.8224 C   0  0  0  0  0  0
  -21.3677   -5.6773   24.9177 C   0  0  0  0  0  0
  -21.6073   -4.3040   24.7227 C   0  0  0  0  0  0
  -21.8820   -3.8128   23.4331 C   0  0  0  0  0  0
  -21.9182   -4.6963   22.3387 C   0  0  0  0  0  0
  -22.7843  -13.5203   21.1890 C   0  0  0  0  0  0
  -22.1639   -4.2139   21.0966 F   0  0  0  0  0  0
  -21.5651   -3.4520   25.7730 F   0  0  0  0  0  0
  -29.9610  -13.6192   20.3601 N   0  0  0  0  0  0
  -26.2907  -12.9406   20.3064 N   0  0  0  0  0  0
  -25.9342  -11.6553   20.5651 N   0  0  0  0  0  0
  -22.0439  -12.8218   22.0442 N   0  0  0  0  0  0
  -25.4100  -15.1923   20.3850 N   0  0  0  0  0  0
  -31.6825  -15.0503   20.1342 O   0  0  0  0  0  0
  -21.6642   -6.8892   21.4249 O   0  0  0  0  0  0
  -22.3534  -14.5483   20.6682 O   0  0  0  0  0  0
  -24.6439  -31.8448   23.1878 C   0  0  0  0  0  0
  -25.9228  -32.4675   23.8272 C   0  0  1  0  0  0
  -27.2128  -27.1309   20.1658 C   0  0  0  0  0  0
  -25.5956  -33.8500   24.2150 N   0  0  0  0  0  0
  -23.4518  -30.4606   21.5324 C   0  0  2  0  0  0
  -24.9094  -28.8926   20.1091 C   0  0  0  0  0  0
  -22.7598  -29.4518   22.4867 C   0  0  0  0  0  0
  -18.0310  -28.1405   22.8495 C   0  0  0  0  0  0
  -24.1504  -36.7246   23.2641 C   0  0  0  0  0  0
  -26.0122  -30.7163   21.3976 C   0  0  0  0  0  0
  -26.0874  -29.3279   20.7370 C   0  0  0  0  0  0
  -27.2455  -28.4567   20.7586 C   0  0  0  0  0  0
  -26.0237  -26.8190   19.4748 C   0  0  0  0  0  0
  -24.8897  -27.6468   19.4658 C   0  0  0  0  0  0
  -23.6850  -29.7920   20.1515 C   0  0  0  0  0  0
  -25.4145  -36.3011   24.0294 C   0  0  1  0  0  0
  -20.5928  -28.3726   23.1246 C   0  0  2  0  0  0
  -20.6814  -26.9421   22.5431 C   0  0  0  0  0  0
  -19.5783  -26.6365   21.5259 C   0  0  0  0  0  0
  -18.1956  -26.7942   22.1648 C   0  0  0  0  0  0
  -19.1567  -28.8886   23.2850 C   0  0  0  0  0  0
  -18.9486  -30.1496   23.8857 C   0  0  0  0  0  0
  -17.6482  -30.6597   24.0551 C   0  0  0  0  0  0
  -25.9088  -34.9395   23.5028 C   0  0  0  0  0  0
  -16.5368  -29.9081   23.6334 C   0  0  0  0  0  0
  -16.7300  -28.6502   23.0349 C   0  0  0  0  0  0
  -26.4521  -31.6553   25.0748 C   0  0  0  0  0  0
  -25.3634  -31.3857   26.1401 C   0  0  0  0  0  0
  -27.0353  -30.2910   24.6391 C   0  0  0  0  0  0
  -27.6040  -32.4336   25.7541 C   0  0  0  0  0  0
  -27.5576  -37.1787   24.8457 C   0  0  0  0  0  0
  -21.4295  -29.3025   22.3600 N   0  0  0  0  0  0
  -26.4300  -37.3737   23.9372 N   0  0  0  0  0  0
  -24.7213  -31.0306   22.0910 N   0  0  0  0  0  0
  -23.4243  -28.8115   23.3050 O   0  0  0  0  0  0
  -28.1655  -26.0474   20.2721 O   0  0  0  0  0  0
  -26.5699  -34.8893   22.4634 O   0  0  0  0  0  0
  -23.5558  -32.1346   23.7073 O   0  0  0  0  0  0
  -28.0424  -19.6331   20.3539 C   0  0  0  0  0  0
  -28.2429  -18.1967   20.2712 C   0  0  0  0  0  0
  -30.3142  -19.9278   20.6613 C   0  0  0  0  0  0
  -29.0459  -20.6397   20.6182 C   0  0  0  0  0  0
  -29.5008  -17.5159   20.4200 C   0  0  0  0  0  0
  -30.5456  -18.4832   20.5683 C   0  0  0  0  0  0
  -27.0665  -22.7181   21.7631 C   0  0  0  0  0  0
  -27.9338  -23.3825   20.9850 C   0  0  0  0  0  0
  -25.8013  -22.8623   22.2017 C   0  0  0  0  0  0
  -27.6261  -24.7647   20.7351 C   0  0  0  0  0  0
  -28.1911  -21.8813   22.2686 C   0  0  0  0  0  0
  -28.8359  -22.1500   20.9569 N   0  0  0  0  0  0
  -29.5541  -15.9823   20.4558 N   0  0  0  0  0  0
  -31.8204  -18.0353   20.6515 F   0  0  0  0  0  0
  -31.4830  -12.7127   19.1372 H   0  0  0  0  0  0
  -30.4364  -11.5710   19.9351 H   0  0  0  0  0  0
  -29.8242  -11.7413   17.5191 H   0  0  0  0  0  0
  -29.6352  -13.4623   17.6610 H   0  0  0  0  0  0
  -27.8819  -11.2930   18.8536 H   0  0  0  0  0  0
  -27.3907  -12.5508   17.7635 H   0  0  0  0  0  0
  -27.6100  -14.2532   19.4422 H   0  0  0  0  0  0
  -28.7615  -12.1767   21.3526 H   0  0  0  0  0  0
  -28.4145  -13.8287   21.7938 H   0  0  0  0  0  0
  -25.2830   -9.5637   22.4732 H   0  0  0  0  0  0
  -24.0014   -7.4634   22.7459 H   0  0  0  0  0  0
  -21.0837   -8.8846   19.8961 H   0  0  0  0  0  0
  -22.3787  -10.9688   19.6168 H   0  0  0  0  0  0
  -21.1993   -7.6140   23.9730 H   0  0  0  0  0  0
  -21.1505   -6.0487   25.9087 H   0  0  0  0  0  0
  -22.0584   -2.7590   23.2831 H   0  0  0  0  0  0
  -22.4007  -11.9932   22.4974 H   0  0  0  0  0  0
  -21.1044  -13.1280   22.2574 H   0  0  0  0  0  0
  -24.6103  -15.8108   20.4661 H   0  0  0  0  0  0
  -26.1734  -15.5963   19.8574 H   0  0  0  0  0  0
  -26.7339  -32.5328   23.1043 H   0  0  0  0  0  0
  -24.9962  -33.9642   25.0189 H   0  0  0  0  0  0
  -22.7538  -31.2862   21.3764 H   0  0  0  0  0  0
  -23.3740  -35.9607   23.3314 H   0  0  0  0  0  0
  -24.3574  -36.8880   22.2048 H   0  0  0  0  0  0
  -23.7298  -37.6465   23.6691 H   0  0  0  0  0  0
  -26.1807  -31.4727   20.6323 H   0  0  0  0  0  0
  -26.8774  -30.7637   22.0475 H   0  0  0  0  0  0
  -28.1349  -28.7596   21.2904 H   0  0  0  0  0  0
  -25.9415  -25.8511   19.0007 H   0  0  0  0  0  0
  -23.9942  -27.2976   18.9756 H   0  0  0  0  0  0
  -23.8228  -30.5687   19.3988 H   0  0  0  0  0  0
  -22.8017  -29.2341   19.8370 H   0  0  0  0  0  0
  -25.1342  -36.1815   25.0791 H   0  0  0  0  0  0
  -21.0038  -28.3322   24.1368 H   0  0  0  0  0  0
  -20.5762  -26.2319   23.3662 H   0  0  0  0  0  0
  -21.6669  -26.7457   22.1198 H   0  0  0  0  0  0
  -19.6932  -25.6266   21.1317 H   0  0  0  0  0  0
  -19.6706  -27.3145   20.6784 H   0  0  0  0  0  0
  -17.4227  -26.6687   21.4046 H   0  0  0  0  0  0
  -18.0312  -26.0105   22.9070 H   0  0  0  0  0  0
  -19.7967  -30.7357   24.2168 H   0  0  0  0  0  0
  -17.5018  -31.6283   24.5163 H   0  0  0  0  0  0
  -15.5358  -30.2967   23.7703 H   0  0  0  0  0  0
  -15.8694  -28.0832   22.7055 H   0  0  0  0  0  0
  -24.5691  -30.7372   25.7659 H   0  0  0  0  0  0
  -24.8973  -32.3120   26.4813 H   0  0  0  0  0  0
  -25.7808  -30.8940   27.0197 H   0  0  0  0  0  0
  -26.2974  -29.6650   24.1340 H   0  0  0  0  0  0
  -27.3824  -29.7244   25.5040 H   0  0  0  0  0  0
  -27.8973  -30.4082   23.9803 H   0  0  0  0  0  0
  -27.2574  -33.3611   26.2154 H   0  0  0  0  0  0
  -28.3845  -32.6956   25.0364 H   0  0  0  0  0  0
  -28.0715  -31.8429   26.5445 H   0  0  0  0  0  0
  -28.2595  -38.0069   24.7454 H   0  0  0  0  0  0
  -28.1049  -36.2595   24.6322 H   0  0  0  0  0  0
  -27.2288  -37.1489   25.8860 H   0  0  0  0  0  0
  -20.9520  -29.8654   21.6716 H   0  0  0  0  0  0
  -26.0131  -38.2805   24.1354 H   0  0  0  0  0  0
  -27.0169  -19.9646   20.2812 H   0  0  0  0  0  0
  -27.3661  -17.5864   20.1042 H   0  0  0  0  0  0
  -31.1974  -20.5161   20.8363 H   0  0  0  0  0  0
  -25.1507  -23.6107   21.7772 H   0  0  0  0  0  0
  -25.3851  -22.2353   22.9778 H   0  0  0  0  0  0
  -26.6511  -25.0207   21.1225 H   0  0  0  0  0  0
  -27.9431  -20.8580   22.5694 H   0  0  0  0  0  0
  -28.7693  -22.3115   23.0927 H   0  0  0  0  0  0
  -28.6275  -15.5962   20.5282 H   0  0  0  0  0  0
  1 25  1  0  0  0
  1 30  2  0  0  0
  1 83  1  0  0  0
  2  3  1  0  0  0
  2 25  1  0  0  0
  2 85  1  0  0  0
  2 86  1  0  0  0
  3  4  1  0  0  0
  3 87  1  0  0  0
  3 88  1  0  0  0
  4  5  1  0  0  0
  4 89  1  0  0  0
  4 90  1  0  0  0
  5  6  1  0  0  0
  5 26  1  0  0  0
  5 91  1  0  0  0
  6 25  1  0  0  0
  6 92  1  0  0  0
  6 93  1  0  0  0
  7  8  2  0  0  0
  7 26  1  0  0  0
  7 29  1  0  0  0
  8  9  1  0  0  0
  8 22  1  0  0  0
  9 10  1  0  0  0
  9 27  2  0  0  0
 10 11  2  0  0  0
 10 15  1  0  0  0
 11 12  1  0  0  0
 11 94  1  0  0  0
 12 13  2  0  0  0
 12 95  1  0  0  0
 13 14  1  0  0  0
 13 31  1  0  0  0
 14 15  2  0  0  0
 14 96  1  0  0  0
 15 97  1  0  0  0
 16 17  2  0  0  0
 16 21  1  0  0  0
 16 31  1  0  0  0
 17 18  1  0  0  0
 17 98  1  0  0  0
 18 19  2  0  0  0
 18 99  1  0  0  0
 19 20  1  0  0  0
 19 24  1  0  0  0
 20 21  2  0  0  0
 20100  1  0  0  0
 21 23  1  0  0  0
 22 28  1  0  0  0
 22 32  2  0  0  0
 26 27  1  0  0  0
 28101  1  0  0  0
 28102  1  0  0  0
 29103  1  0  0  0
 29104  1  0  0  0
 33 34  1  0  0  0
 33 66  1  0  0  0
 33 70  2  0  0  0
 34 36  1  0  0  0
 34 59  1  0  0  0
 34105  1  0  0  0
 35 44  2  0  0  0
 35 45  1  0  0  0
 35 68  1  0  0  0
 36 56  1  0  0  0
 36106  1  0  0  0
 37 39  1  0  0  0
 37 47  1  0  0  0
 37 66  1  0  0  0
 37107  1  0  0  0
 38 43  2  0  0  0
 38 46  1  0  0  0
 38 47  1  0  0  0
 39 64  1  0  0  0
 39 67  2  0  0  0
 40 52  1  0  0  0
 40 53  2  0  0  0
 40 58  1  0  0  0
 41108  1  0  0  0
 41109  1  0  0  0
 41110  1  0  0  0
 41 48  1  0  0  0
 42 43  1  0  0  0
 42 66  1  0  0  0
 42111  1  0  0  0
 42112  1  0  0  0
 43 44  1  0  0  0
 44113  1  0  0  0
 45 46  2  0  0  0
 45114  1  0  0  0
 46115  1  0  0  0
 47116  1  0  0  0
 47117  1  0  0  0
 48 56  1  0  0  0
 48 65  1  0  0  0
 48118  1  0  0  0
 49 50  1  0  0  0
 49 53  1  0  0  0
 49 64  1  0  0  0
 49119  1  0  0  0
 50 51  1  0  0  0
 50120  1  0  0  0
 50121  1  0  0  0
 51 52  1  0  0  0
 51122  1  0  0  0
 51123  1  0  0  0
 52124  1  0  0  0
 52125  1  0  0  0
 53 54  1  0  0  0
 54 55  2  0  0  0
 54126  1  0  0  0
 55 57  1  0  0  0
 55127  1  0  0  0
 56 69  2  0  0  0
 57 58  2  0  0  0
 57128  1  0  0  0
 58129  1  0  0  0
 59 60  1  0  0  0
 59 61  1  0  0  0
 59 62  1  0  0  0
 60130  1  0  0  0
 60131  1  0  0  0
 60132  1  0  0  0
 61133  1  0  0  0
 61134  1  0  0  0
 61135  1  0  0  0
 62136  1  0  0  0
 62137  1  0  0  0
 62138  1  0  0  0
 63 65  1  0  0  0
 63139  1  0  0  0
 63140  1  0  0  0
 63141  1  0  0  0
 64142  1  0  0  0
 65143  1  0  0  0
 68 80  1  0  0  0
 71 72  2  0  0  0
 71 74  1  0  0  0
 71144  1  0  0  0
 72 75  1  0  0  0
 72145  1  0  0  0
 73 74  2  0  0  0
 73 76  1  0  0  0
 73146  1  0  0  0
 74 82  1  0  0  0
 75 76  2  0  0  0
 75 83  1  0  0  0
 76 84  1  0  0  0
 77 78  1  0  0  0
 77 79  2  0  0  0
 77 81  1  0  0  0
 78 80  2  0  0  0
 78 82  1  0  0  0
 79147  1  0  0  0
 79148  1  0  0  0
 80149  1  0  0  0
 81 82  1  0  0  0
 81150  1  0  0  0
 81151  1  0  0  0
 83152  1  0  0  0
M  ISO  4   1 100  68 101  80 101  83 100
M  END
> <chiral flag>
0

> <version>
0

> <s_m_source_file>
/data/baiqing/PycharmProjects/Reinvent-master-3.2/result/LINK_invent/BTK/process_docking_weight1_custom_product_contain_oxygen_bond_distance_aromatic_linkinvent_7_9_3/rearranged_h_0083.sdf

> <i_m_source_file_index>
54

> <r_mmod_Potential_Energy-OPLS-2005>
742.265319824219

> <r_mmod_Stretch_Energy-OPLS-2005>
255.845565795898

> <r_mmod_Bend_Energy-OPLS-2005>
394.465911865234

> <r_mmod_Torsional_Energy-OPLS-2005>
323.077514648438

> <r_mmod_Improper_Torsional_Energy-OPLS-2005>
17.1694641113281

> <r_mmod_Van_der_Waal_Energy-OPLS-2005>
154.457702636719

> <r_mmod_Electrostatic_Energy-OPLS-2005>
-388.265899658203

> <r_mmod_Solvation_Energy-OPLS-2005>
-217.433044433594

> <b_mmod_Minimization_Converged-OPLS-2005>
0

> <r_mmod_RMS_Derivative-OPLS-2005>
7.40834665298462

$$$$
54
                    3D
 Structure written by MMmdl.
152161  0  0  1  0            999 V2000
  -30.6197  -14.6464   20.5049 C   0  0  0  0  0  0
  -30.4423  -12.3999   19.4499 C   0  0  0  0  0  0
  -29.5082  -12.5158   18.2239 C   0  0  0  0  0  0
  -28.0309  -12.3531   18.6343 C   0  0  0  0  0  0
  -27.6549  -13.2185   19.8671 C   0  0  2  0  0  0
  -28.7016  -13.0643   20.9942 C   0  0  0  0  0  0
  -25.2556  -13.8170   20.5692 C   0  0  0  0  0  0
  -24.1816  -13.0434   20.9157 C   0  0  0  0  0  0
  -24.6400  -11.6908   20.8733 C   0  0  0  0  0  0
  -23.9076  -10.4291   21.0402 C   0  0  0  0  0  0
  -24.3629   -9.4209   21.9181 C   0  0  0  0  0  0
  -23.6302   -8.2245   22.0754 C   0  0  0  0  0  0
  -22.4280   -8.0285   21.3548 C   0  0  0  0  0  0
  -21.9917   -9.0258   20.4649 C   0  0  0  0  0  0
  -22.7250  -10.2134   20.3053 C   0  0  0  0  0  0
  -21.6847   -6.0748   22.5289 C   0  0  0  0  0  0
  -21.4012   -6.5650   23.8225 C   0  0  0  0  0  0
  -21.3656   -5.6797   24.9184 C   0  0  0  0  0  0
  -21.6040   -4.3058   24.7226 C   0  0  0  0  0  0
  -21.8817   -3.8157   23.4344 C   0  0  0  0  0  0
  -21.9191   -4.6978   22.3406 C   0  0  0  0  0  0
  -22.7842  -13.5229   21.1825 C   0  0  0  0  0  0
  -22.1657   -4.2170   21.0981 F   0  0  0  0  0  0
  -21.5626   -3.4535   25.7731 F   0  0  0  0  0  0
  -30.0181  -13.4151   20.4345 N   0  0  0  0  0  0
  -26.3003  -12.9362   20.3352 N   0  0  0  0  0  0
  -25.9332  -11.6513   20.5770 N   0  0  0  0  0  0
  -22.0481  -12.8234   22.0395 N   0  0  0  0  0  0
  -25.4243  -15.1900   20.4178 N   0  0  0  0  0  0
  -31.7741  -14.8186   20.1024 O   0  0  0  0  0  0
  -21.6639   -6.8889   21.4250 O   0  0  0  0  0  0
  -22.3528  -14.5537   20.6680 O   0  0  0  0  0  0
  -24.6307  -31.8605   23.2035 C   0  0  0  0  0  0
  -25.9150  -32.4774   23.8362 C   0  0  1  0  0  0
  -27.2168  -27.2969   20.1128 C   0  0  0  0  0  0
  -25.5960  -33.8576   24.2296 N   0  0  0  0  0  0
  -23.4255  -30.4904   21.5447 C   0  0  2  0  0  0
  -24.8708  -28.9516   20.1070 C   0  0  0  0  0  0
  -22.7505  -29.4661   22.4889 C   0  0  0  0  0  0
  -18.0310  -28.1407   22.8499 C   0  0  0  0  0  0
  -24.1489  -36.7281   23.2631 C   0  0  0  0  0  0
  -25.9707  -30.7853   21.3796 C   0  0  0  0  0  0
  -26.0434  -29.4127   20.7187 C   0  0  0  0  0  0
  -27.2192  -28.5973   20.7158 C   0  0  0  0  0  0
  -26.0181  -26.9124   19.4599 C   0  0  0  0  0  0
  -24.8615  -27.7074   19.4677 C   0  0  0  0  0  0
  -23.6432  -29.8364   20.1574 C   0  0  0  0  0  0
  -25.4105  -36.3074   24.0341 C   0  0  1  0  0  0
  -20.5917  -28.3730   23.1254 C   0  0  2  0  0  0
  -20.6811  -26.9453   22.5396 C   0  0  0  0  0  0
  -19.5772  -26.6402   21.5220 C   0  0  0  0  0  0
  -18.1953  -26.7950   22.1634 C   0  0  0  0  0  0
  -19.1564  -28.8880   23.2878 C   0  0  0  0  0  0
  -18.9481  -30.1473   23.8906 C   0  0  0  0  0  0
  -17.6481  -30.6606   24.0578 C   0  0  0  0  0  0
  -25.9055  -34.9448   23.5112 C   0  0  0  0  0  0
  -16.5372  -29.9114   23.6331 C   0  0  0  0  0  0
  -16.7295  -28.6529   23.0358 C   0  0  0  0  0  0
  -26.4517  -31.6567   25.0725 C   0  0  0  0  0  0
  -25.3742  -31.3734   26.1448 C   0  0  0  0  0  0
  -27.0330  -30.2974   24.6177 C   0  0  0  0  0  0
  -27.6092  -32.4274   25.7486 C   0  0  0  0  0  0
  -27.5587  -37.1784   24.8457 C   0  0  0  0  0  0
  -21.4212  -29.3085   22.3633 N   0  0  0  0  0  0
  -26.4270  -37.3782   23.9444 N   0  0  0  0  0  0
  -24.6948  -31.0616   22.0994 N   0  0  0  0  0  0
  -23.4220  -28.8184   23.2967 O   0  0  0  0  0  0
  -28.3021  -26.3926   20.1802 O   0  0  0  0  0  0
  -26.5613  -34.8923   22.4670 O   0  0  0  0  0  0
  -23.5461  -32.1409   23.7348 O   0  0  0  0  0  0
  -30.8347  -19.3356   20.1202 C   0  0  0  0  0  0
  -30.9191  -17.9093   20.2127 C   0  0  0  0  0  0
  -28.6357  -19.2878   21.0783 C   0  0  0  0  0  0
  -29.6957  -20.0841   20.5571 C   0  0  0  0  0  0
  -29.8569  -17.1342   20.7516 C   0  0  0  0  0  0
  -28.7175  -17.8662   21.1736 C   0  0  0  0  0  0
  -30.2145  -23.7694   20.6443 C   0  0  0  0  0  0
  -28.9310  -23.7684   20.2838 C   0  0  0  0  0  0
  -30.6723  -22.3962   20.7906 C   0  0  0  0  0  0
  -28.5455  -22.3464   20.2000 C   0  0  0  0  0  0
  -27.9648  -24.9575   19.9435 C   0  0  0  0  0  0
  -29.6329  -21.5715   20.5048 N   0  0  0  0  0  0
  -29.8139  -15.6772   20.9060 N   0  0  0  0  0  0
  -31.8081  -22.0415   21.1275 O   0  0  0  0  0  0
  -27.4307  -21.9093   19.8914 O   0  0  0  0  0  0
  -27.6692  -17.1801   21.6902 F   0  0  0  0  0  0
  -31.4819  -12.5337   19.1447 H   0  0  0  0  0  0
  -30.3867  -11.4015   19.8859 H   0  0  0  0  0  0
  -29.7730  -11.7679   17.4757 H   0  0  0  0  0  0
  -29.6481  -13.4877   17.7470 H   0  0  0  0  0  0
  -27.8629  -11.2984   18.8557 H   0  0  0  0  0  0
  -27.3782  -12.5922   17.7940 H   0  0  0  0  0  0
  -27.6728  -14.2561   19.5335 H   0  0  0  0  0  0
  -28.7135  -12.0379   21.3638 H   0  0  0  0  0  0
  -28.4438  -13.6843   21.8542 H   0  0  0  0  0  0
  -25.2770   -9.5682   22.4759 H   0  0  0  0  0  0
  -24.0007   -7.4630   22.7467 H   0  0  0  0  0  0
  -21.0848   -8.8784   19.8951 H   0  0  0  0  0  0
  -22.3713  -10.9679   19.6166 H   0  0  0  0  0  0
  -21.2005   -7.6158   23.9737 H   0  0  0  0  0  0
  -21.1478   -6.0521   25.9088 H   0  0  0  0  0  0
  -22.0599   -2.7621   23.2831 H   0  0  0  0  0  0
  -22.4086  -11.9901   22.4791 H   0  0  0  0  0  0
  -21.1105  -13.1288   22.2602 H   0  0  0  0  0  0
  -24.6649  -15.8436   20.5702 H   0  0  0  0  0  0
  -26.3036  -15.6508   20.2210 H   0  0  0  0  0  0
  -26.7223  -32.5444   23.1115 H   0  0  0  0  0  0
  -25.0139  -33.9712   25.0459 H   0  0  0  0  0  0
  -22.7215  -31.3137   21.4040 H   0  0  0  0  0  0
  -23.3771  -35.9588   23.3234 H   0  0  0  0  0  0
  -24.3614  -36.8950   22.2060 H   0  0  0  0  0  0
  -23.7202  -37.6454   23.6676 H   0  0  0  0  0  0
  -26.1068  -31.5497   20.6130 H   0  0  0  0  0  0
  -26.8506  -30.8317   22.0098 H   0  0  0  0  0  0
  -28.1133  -28.9445   21.2158 H   0  0  0  0  0  0
  -25.9226  -25.9736   18.9380 H   0  0  0  0  0  0
  -23.9678  -27.3529   18.9722 H   0  0  0  0  0  0
  -23.7723  -30.6198   19.4093 H   0  0  0  0  0  0
  -22.7613  -29.2748   19.8450 H   0  0  0  0  0  0
  -25.1268  -36.1908   25.0829 H   0  0  0  0  0  0
  -21.0031  -28.3325   24.1365 H   0  0  0  0  0  0
  -20.5745  -26.2351   23.3611 H   0  0  0  0  0  0
  -21.6670  -26.7505   22.1158 H   0  0  0  0  0  0
  -19.6942  -25.6311   21.1257 H   0  0  0  0  0  0
  -19.6699  -27.3208   20.6747 H   0  0  0  0  0  0
  -17.4231  -26.6712   21.4032 H   0  0  0  0  0  0
  -18.0348  -26.0090   22.9024 H   0  0  0  0  0  0
  -19.7956  -30.7289   24.2279 H   0  0  0  0  0  0
  -17.5042  -31.6285   24.5183 H   0  0  0  0  0  0
  -15.5374  -30.3031   23.7638 H   0  0  0  0  0  0
  -15.8700  -28.0848   22.7063 H   0  0  0  0  0  0
  -24.5916  -30.7083   25.7782 H   0  0  0  0  0  0
  -24.8937  -32.2915   26.4845 H   0  0  0  0  0  0
  -25.8055  -30.8931   27.0238 H   0  0  0  0  0  0
  -26.2895  -29.6733   24.1209 H   0  0  0  0  0  0
  -27.4025  -29.7221   25.4674 H   0  0  0  0  0  0
  -27.8778  -30.4235   23.9402 H   0  0  0  0  0  0
  -27.2740  -33.3601   26.2031 H   0  0  0  0  0  0
  -28.3929  -32.6771   25.0321 H   0  0  0  0  0  0
  -28.0723  -31.8398   26.5423 H   0  0  0  0  0  0
  -28.2540  -38.0145   24.7587 H   0  0  0  0  0  0
  -28.1146  -36.2683   24.6152 H   0  0  0  0  0  0
  -27.2340  -37.1272   25.8864 H   0  0  0  0  0  0
  -20.9387  -29.8813   21.6850 H   0  0  0  0  0  0
  -26.0139  -38.2839   24.1501 H   0  0  0  0  0  0
  -31.6841  -19.8574   19.7015 H   0  0  0  0  0  0
  -31.8196  -17.4226   19.8664 H   0  0  0  0  0  0
  -27.7344  -19.7634   21.4367 H   0  0  0  0  0  0
  -30.8288  -24.6444   20.7843 H   0  0  0  0  0  0
  -27.0486  -24.7268   20.4906 H   0  0  0  0  0  0
  -27.7452  -24.8380   18.8822 H   0  0  0  0  0  0
  -28.9330  -15.3541   21.2783 H   0  0  0  0  0  0
  1 25  1  0  0  0
  1 30  2  0  0  0
  1 83  1  0  0  0
  2  3  1  0  0  0
  2 25  1  0  0  0
  2 87  1  0  0  0
  2 88  1  0  0  0
  3  4  1  0  0  0
  3 89  1  0  0  0
  3 90  1  0  0  0
  4  5  1  0  0  0
  4 91  1  0  0  0
  4 92  1  0  0  0
  5  6  1  0  0  0
  5 26  1  0  0  0
  5 93  1  0  0  0
  6 25  1  0  0  0
  6 94  1  0  0  0
  6 95  1  0  0  0
  7  8  2  0  0  0
  7 26  1  0  0  0
  7 29  1  0  0  0
  8  9  1  0  0  0
  8 22  1  0  0  0
  9 10  1  0  0  0
  9 27  2  0  0  0
 10 11  2  0  0  0
 10 15  1  0  0  0
 11 12  1  0  0  0
 11 96  1  0  0  0
 12 13  2  0  0  0
 12 97  1  0  0  0
 13 14  1  0  0  0
 13 31  1  0  0  0
 14 15  2  0  0  0
 14 98  1  0  0  0
 15 99  1  0  0  0
 16 17  2  0  0  0
 16 21  1  0  0  0
 16 31  1  0  0  0
 17 18  1  0  0  0
 17100  1  0  0  0
 18 19  2  0  0  0
 18101  1  0  0  0
 19 20  1  0  0  0
 19 24  1  0  0  0
 20 21  2  0  0  0
 20102  1  0  0  0
 21 23  1  0  0  0
 22 28  1  0  0  0
 22 32  2  0  0  0
 26 27  1  0  0  0
 28103  1  0  0  0
 28104  1  0  0  0
 29105  1  0  0  0
 29106  1  0  0  0
 33 34  1  0  0  0
 33 66  1  0  0  0
 33 70  2  0  0  0
 34 36  1  0  0  0
 34 59  1  0  0  0
 34107  1  0  0  0
 35 44  2  0  0  0
 35 45  1  0  0  0
 35 68  1  0  0  0
 36 56  1  0  0  0
 36108  1  0  0  0
 37 39  1  0  0  0
 37 47  1  0  0  0
 37 66  1  0  0  0
 37109  1  0  0  0
 38 43  2  0  0  0
 38 46  1  0  0  0
 38 47  1  0  0  0
 39 64  1  0  0  0
 39 67  2  0  0  0
 40 52  1  0  0  0
 40 53  2  0  0  0
 40 58  1  0  0  0
 41110  1  0  0  0
 41111  1  0  0  0
 41112  1  0  0  0
 41 48  1  0  0  0
 42 43  1  0  0  0
 42 66  1  0  0  0
 42113  1  0  0  0
 42114  1  0  0  0
 43 44  1  0  0  0
 44115  1  0  0  0
 45 46  2  0  0  0
 45116  1  0  0  0
 46117  1  0  0  0
 47118  1  0  0  0
 47119  1  0  0  0
 48 56  1  0  0  0
 48 65  1  0  0  0
 48120  1  0  0  0
 49 50  1  0  0  0
 49 53  1  0  0  0
 49 64  1  0  0  0
 49121  1  0  0  0
 50 51  1  0  0  0
 50122  1  0  0  0
 50123  1  0  0  0
 51 52  1  0  0  0
 51124  1  0  0  0
 51125  1  0  0  0
 52126  1  0  0  0
 52127  1  0  0  0
 53 54  1  0  0  0
 54 55  2  0  0  0
 54128  1  0  0  0
 55 57  1  0  0  0
 55129  1  0  0  0
 56 69  2  0  0  0
 57 58  2  0  0  0
 57130  1  0  0  0
 58131  1  0  0  0
 59 60  1  0  0  0
 59 61  1  0  0  0
 59 62  1  0  0  0
 60132  1  0  0  0
 60133  1  0  0  0
 60134  1  0  0  0
 61135  1  0  0  0
 61136  1  0  0  0
 61137  1  0  0  0
 62138  1  0  0  0
 62139  1  0  0  0
 62140  1  0  0  0
 63 65  1  0  0  0
 63141  1  0  0  0
 63142  1  0  0  0
 63143  1  0  0  0
 64144  1  0  0  0
 65145  1  0  0  0
 68 81  1  0  0  0
 71 72  2  0  0  0
 71 74  1  0  0  0
 71146  1  0  0  0
 72 75  1  0  0  0
 72147  1  0  0  0
 73 74  2  0  0  0
 73 76  1  0  0  0
 73148  1  0  0  0
 74 82  1  0  0  0
 75 76  2  0  0  0
 75 83  1  0  0  0
 76 86  1  0  0  0
 77 78  2  0  0  0
 77 79  1  0  0  0
 77149  1  0  0  0
 78 80  1  0  0  0
 78 81  1  0  0  0
 79 82  1  0  0  0
 79 84  2  0  0  0
 80 82  1  0  0  0
 80 85  2  0  0  0
 81150  1  0  0  0
 81151  1  0  0  0
 83152  1  0  0  0
M  ISO  4   1 100  68 101  81 101  83 100
M  END
> <chiral flag>
0

> <version>
0

> <s_m_source_file>
/data/baiqing/PycharmProjects/Reinvent-master-3.2/result/LINK_invent/BTK/process_docking_weight1_custom_product_contain_oxygen_bond_distance_aromatic_linkinvent_7_9_3/rearranged_h_0083.sdf

> <i_m_source_file_index>
55

> <r_mmod_Potential_Energy-OPLS-2005>
65.9530868530273

> <r_mmod_Stretch_Energy-OPLS-2005>
87.4591217041016

> <r_mmod_Bend_Energy-OPLS-2005>
191.136459350586

> <r_mmod_Torsional_Energy-OPLS-2005>
234.692810058594

> <r_mmod_Improper_Torsional_Energy-OPLS-2005>
3.64476919174194

> <r_mmod_Van_der_Waal_Energy-OPLS-2005>
149.155960083008

> <r_mmod_Electrostatic_Energy-OPLS-2005>
-432.338836669922

> <r_mmod_Solvation_Energy-OPLS-2005>
-225.600738525391

> <b_mmod_Minimization_Converged-OPLS-2005>
0

> <r_mmod_RMS_Derivative-OPLS-2005>
1.32441449165344

$$$$
55
                    3D
 Structure written by MMmdl.
149158  0  0  1  0            999 V2000
  -30.5740  -14.7508   20.4693 C   0  0  0  0  0  0
  -30.4506  -12.4588   19.4657 C   0  0  0  0  0  0
  -29.5165  -12.5143   18.2341 C   0  0  0  0  0  0
  -28.0419  -12.3314   18.6477 C   0  0  0  0  0  0
  -27.6485  -13.2211   19.8559 C   0  0  2  0  0  0
  -28.6960  -13.1241   20.9884 C   0  0  0  0  0  0
  -25.2539  -13.8158   20.5679 C   0  0  0  0  0  0
  -24.1822  -13.0423   20.9209 C   0  0  0  0  0  0
  -24.6400  -11.6899   20.8750 C   0  0  0  0  0  0
  -23.9069  -10.4284   21.0411 C   0  0  0  0  0  0
  -24.3618   -9.4199   21.9188 C   0  0  0  0  0  0
  -23.6291   -8.2236   22.0756 C   0  0  0  0  0  0
  -22.4274   -8.0277   21.3545 C   0  0  0  0  0  0
  -21.9911   -9.0252   20.4648 C   0  0  0  0  0  0
  -22.7242  -10.2131   20.3059 C   0  0  0  0  0  0
  -21.6851   -6.0734   22.5279 C   0  0  0  0  0  0
  -21.4013   -6.5639   23.8212 C   0  0  0  0  0  0
  -21.3659   -5.6792   24.9174 C   0  0  0  0  0  0
  -21.6044   -4.3054   24.7225 C   0  0  0  0  0  0
  -21.8819   -3.8146   23.4346 C   0  0  0  0  0  0
  -21.9192   -4.6962   22.3402 C   0  0  0  0  0  0
  -22.7844  -13.5218   21.1865 C   0  0  0  0  0  0
  -22.1661   -4.2148   21.0980 F   0  0  0  0  0  0
  -21.5629   -3.4538   25.7739 F   0  0  0  0  0  0
  -30.0001  -13.4984   20.4176 N   0  0  0  0  0  0
  -26.2969  -12.9349   20.3289 N   0  0  0  0  0  0
  -25.9329  -11.6504   20.5754 N   0  0  0  0  0  0
  -22.0483  -12.8214   22.0421 N   0  0  0  0  0  0
  -25.4218  -15.1876   20.4051 N   0  0  0  0  0  0
  -31.7526  -14.9133   20.1371 O   0  0  0  0  0  0
  -21.6636   -6.8876   21.4241 O   0  0  0  0  0  0
  -22.3533  -14.5525   20.6709 O   0  0  0  0  0  0
  -24.6337  -31.8549   23.1986 C   0  0  0  0  0  0
  -25.9156  -32.4753   23.8334 C   0  0  1  0  0  0
  -27.2260  -27.2543   20.1117 C   0  0  0  0  0  0
  -25.5944  -33.8555   24.2254 N   0  0  0  0  0  0
  -23.4307  -30.4797   21.5433 C   0  0  2  0  0  0
  -24.8773  -28.9302   20.1106 C   0  0  0  0  0  0
  -22.7516  -29.4605   22.4908 C   0  0  0  0  0  0
  -18.0295  -28.1389   22.8483 C   0  0  0  0  0  0
  -24.1490  -36.7281   23.2639 C   0  0  0  0  0  0
  -25.9800  -30.7651   21.3805 C   0  0  0  0  0  0
  -26.0531  -29.3889   20.7176 C   0  0  0  0  0  0
  -27.2276  -28.5641   20.7084 C   0  0  0  0  0  0
  -26.0092  -26.8626   19.4989 C   0  0  0  0  0  0
  -24.8609  -27.6740   19.4930 C   0  0  0  0  0  0
  -23.6493  -29.8182   20.1588 C   0  0  0  0  0  0
  -25.4118  -36.3068   24.0324 C   0  0  1  0  0  0
  -20.5902  -28.3706   23.1261 C   0  0  2  0  0  0
  -20.6784  -26.9421   22.5404 C   0  0  0  0  0  0
  -19.5755  -26.6385   21.5211 C   0  0  0  0  0  0
  -18.1937  -26.7930   22.1626 C   0  0  0  0  0  0
  -19.1549  -28.8863   23.2867 C   0  0  0  0  0  0
  -18.9469  -30.1463   23.8887 C   0  0  0  0  0  0
  -17.6467  -30.6589   24.0562 C   0  0  0  0  0  0
  -25.9061  -34.9439   23.5091 C   0  0  0  0  0  0
  -16.5358  -29.9084   23.6333 C   0  0  0  0  0  0
  -16.7281  -28.6502   23.0354 C   0  0  0  0  0  0
  -26.4511  -31.6582   25.0731 C   0  0  0  0  0  0
  -25.3724  -31.3738   26.1443 C   0  0  0  0  0  0
  -27.0363  -30.2995   24.6234 C   0  0  0  0  0  0
  -27.6058  -32.4328   25.7509 C   0  0  0  0  0  0
  -27.5579  -37.1797   24.8465 C   0  0  0  0  0  0
  -21.4221  -29.3051   22.3650 N   0  0  0  0  0  0
  -26.4290  -37.3769   23.9408 N   0  0  0  0  0  0
  -24.7009  -31.0507   22.0969 N   0  0  0  0  0  0
  -23.4209  -28.8139   23.3006 O   0  0  0  0  0  0
  -28.3164  -26.3407   20.1783 O   0  0  0  0  0  0
  -26.5633  -34.8915   22.4660 O   0  0  0  0  0  0
  -23.5483  -32.1375   23.7273 O   0  0  0  0  0  0
  -28.3545  -19.3300   19.9913 C   0  0  0  0  0  0
  -30.5668  -19.6337   20.7255 C   0  0  0  0  0  0
  -28.5010  -17.9112   20.1167 C   0  0  0  0  0  0
  -30.7469  -18.2015   20.8233 C   0  0  0  0  0  0
  -29.3636  -20.2939   20.2959 C   0  0  0  0  0  0
  -29.7042  -17.2759   20.5266 C   0  0  0  0  0  0
  -28.6488  -23.7647   19.8539 C   0  0  0  0  0  0
  -28.4603  -22.5188   19.1304 C   0  0  0  0  0  0
  -29.3401  -22.9801   20.8743 C   0  0  0  0  0  0
  -28.2379  -25.0630   19.5412 C   0  0  0  0  0  0
  -29.1311  -21.7616   20.1292 N   0  0  0  0  0  0
  -29.7050  -15.8007   20.7201 N   0  0  0  0  0  0
  -27.9000  -22.2909   18.0756 O   0  0  0  0  0  0
  -29.8478  -23.3033   21.9306 O   0  0  0  0  0  0
  -31.4871  -12.6099   19.1590 H   0  0  0  0  0  0
  -30.4166  -11.4739   19.9340 H   0  0  0  0  0  0
  -29.7994  -11.7480   17.5112 H   0  0  0  0  0  0
  -29.6368  -13.4724   17.7258 H   0  0  0  0  0  0
  -27.8998  -11.2808   18.9035 H   0  0  0  0  0  0
  -27.3835  -12.5292   17.8011 H   0  0  0  0  0  0
  -27.6488  -14.2464   19.4862 H   0  0  0  0  0  0
  -28.7344  -12.1114   21.3927 H   0  0  0  0  0  0
  -28.4265  -13.7698   21.8258 H   0  0  0  0  0  0
  -25.2763   -9.5673   22.4762 H   0  0  0  0  0  0
  -23.9998   -7.4627   22.7474 H   0  0  0  0  0  0
  -21.0841   -8.8774   19.8952 H   0  0  0  0  0  0
  -22.3702  -10.9671   19.6168 H   0  0  0  0  0  0
  -21.2005   -7.6147   23.9715 H   0  0  0  0  0  0
  -21.1481   -6.0522   25.9078 H   0  0  0  0  0  0
  -22.0599   -2.7608   23.2847 H   0  0  0  0  0  0
  -22.4096  -11.9876   22.4812 H   0  0  0  0  0  0
  -21.1101  -13.1243   22.2624 H   0  0  0  0  0  0
  -24.6449  -15.8332   20.4974 H   0  0  0  0  0  0
  -26.2473  -15.6169   20.0115 H   0  0  0  0  0  0
  -26.7223  -32.5398   23.1075 H   0  0  0  0  0  0
  -25.0085  -33.9690   25.0395 H   0  0  0  0  0  0
  -22.7278  -31.3028   21.3986 H   0  0  0  0  0  0
  -23.3755  -35.9611   23.3296 H   0  0  0  0  0  0
  -24.3580  -36.8912   22.2055 H   0  0  0  0  0  0
  -23.7241  -37.6478   23.6670 H   0  0  0  0  0  0
  -26.1229  -31.5281   20.6140 H   0  0  0  0  0  0
  -26.8558  -30.8104   22.0163 H   0  0  0  0  0  0
  -28.1265  -28.9115   21.1980 H   0  0  0  0  0  0
  -25.8875  -25.8929   19.0430 H   0  0  0  0  0  0
  -23.9563  -27.3098   19.0253 H   0  0  0  0  0  0
  -23.7762  -30.5966   19.4055 H   0  0  0  0  0  0
  -22.7667  -29.2545   19.8510 H   0  0  0  0  0  0
  -25.1300  -36.1911   25.0817 H   0  0  0  0  0  0
  -20.9994  -28.3284   24.1382 H   0  0  0  0  0  0
  -20.5686  -26.2315   23.3611 H   0  0  0  0  0  0
  -21.6651  -26.7443   22.1196 H   0  0  0  0  0  0
  -19.6919  -25.6292   21.1246 H   0  0  0  0  0  0
  -19.6691  -27.3190   20.6736 H   0  0  0  0  0  0
  -17.4206  -26.6674   21.4031 H   0  0  0  0  0  0
  -18.0342  -26.0075   22.9025 H   0  0  0  0  0  0
  -19.7944  -30.7283   24.2252 H   0  0  0  0  0  0
  -17.5020  -31.6268   24.5165 H   0  0  0  0  0  0
  -15.5358  -30.2983   23.7663 H   0  0  0  0  0  0
  -15.8681  -28.0818   22.7075 H   0  0  0  0  0  0
  -24.5904  -30.7082   25.7767 H   0  0  0  0  0  0
  -24.8910  -32.2909   26.4847 H   0  0  0  0  0  0
  -25.8032  -30.8927   27.0233 H   0  0  0  0  0  0
  -26.2957  -29.6736   24.1241 H   0  0  0  0  0  0
  -27.4018  -29.7265   25.4766 H   0  0  0  0  0  0
  -27.8847  -30.4261   23.9504 H   0  0  0  0  0  0
  -27.2660  -33.3635   26.2065 H   0  0  0  0  0  0
  -28.3881  -32.6878   25.0348 H   0  0  0  0  0  0
  -28.0711  -31.8468   26.5444 H   0  0  0  0  0  0
  -28.2592  -38.0099   24.7515 H   0  0  0  0  0  0
  -28.1080  -36.2629   24.6288 H   0  0  0  0  0  0
  -27.2296  -37.1441   25.8868 H   0  0  0  0  0  0
  -20.9409  -29.8778   21.6857 H   0  0  0  0  0  0
  -26.0167  -38.2841   24.1411 H   0  0  0  0  0  0
  -27.3918  -19.6921   19.6584 H   0  0  0  0  0  0
  -31.4144  -20.2538   20.9801 H   0  0  0  0  0  0
  -27.6402  -17.3007   19.8860 H   0  0  0  0  0  0
  -31.7001  -17.8230   21.1645 H   0  0  0  0  0  0
  -27.7683  -25.1745   18.5753 H   0  0  0  0  0  0
  -28.7878  -15.4347   20.9226 H   0  0  0  0  0  0
  1 25  1  0  0  0
  1 30  2  0  0  0
  1 82  1  0  0  0
  2  3  1  0  0  0
  2 25  1  0  0  0
  2 85  1  0  0  0
  2 86  1  0  0  0
  3  4  1  0  0  0
  3 87  1  0  0  0
  3 88  1  0  0  0
  4  5  1  0  0  0
  4 89  1  0  0  0
  4 90  1  0  0  0
  5  6  1  0  0  0
  5 26  1  0  0  0
  5 91  1  0  0  0
  6 25  1  0  0  0
  6 92  1  0  0  0
  6 93  1  0  0  0
  7  8  2  0  0  0
  7 26  1  0  0  0
  7 29  1  0  0  0
  8  9  1  0  0  0
  8 22  1  0  0  0
  9 10  1  0  0  0
  9 27  2  0  0  0
 10 11  2  0  0  0
 10 15  1  0  0  0
 11 12  1  0  0  0
 11 94  1  0  0  0
 12 13  2  0  0  0
 12 95  1  0  0  0
 13 14  1  0  0  0
 13 31  1  0  0  0
 14 15  2  0  0  0
 14 96  1  0  0  0
 15 97  1  0  0  0
 16 17  2  0  0  0
 16 21  1  0  0  0
 16 31  1  0  0  0
 17 18  1  0  0  0
 17 98  1  0  0  0
 18 19  2  0  0  0
 18 99  1  0  0  0
 19 20  1  0  0  0
 19 24  1  0  0  0
 20 21  2  0  0  0
 20100  1  0  0  0
 21 23  1  0  0  0
 22 28  1  0  0  0
 22 32  2  0  0  0
 26 27  1  0  0  0
 28101  1  0  0  0
 28102  1  0  0  0
 29103  1  0  0  0
 29104  1  0  0  0
 33 34  1  0  0  0
 33 66  1  0  0  0
 33 70  2  0  0  0
 34 36  1  0  0  0
 34 59  1  0  0  0
 34105  1  0  0  0
 35 44  2  0  0  0
 35 45  1  0  0  0
 35 68  1  0  0  0
 36 56  1  0  0  0
 36106  1  0  0  0
 37 39  1  0  0  0
 37 47  1  0  0  0
 37 66  1  0  0  0
 37107  1  0  0  0
 38 43  2  0  0  0
 38 46  1  0  0  0
 38 47  1  0  0  0
 39 64  1  0  0  0
 39 67  2  0  0  0
 40 52  1  0  0  0
 40 53  2  0  0  0
 40 58  1  0  0  0
 41108  1  0  0  0
 41109  1  0  0  0
 41110  1  0  0  0
 41 48  1  0  0  0
 42 43  1  0  0  0
 42 66  1  0  0  0
 42111  1  0  0  0
 42112  1  0  0  0
 43 44  1  0  0  0
 44113  1  0  0  0
 45 46  2  0  0  0
 45114  1  0  0  0
 46115  1  0  0  0
 47116  1  0  0  0
 47117  1  0  0  0
 48 56  1  0  0  0
 48 65  1  0  0  0
 48118  1  0  0  0
 49 50  1  0  0  0
 49 53  1  0  0  0
 49 64  1  0  0  0
 49119  1  0  0  0
 50 51  1  0  0  0
 50120  1  0  0  0
 50121  1  0  0  0
 51 52  1  0  0  0
 51122  1  0  0  0
 51123  1  0  0  0
 52124  1  0  0  0
 52125  1  0  0  0
 53 54  1  0  0  0
 54 55  2  0  0  0
 54126  1  0  0  0
 55 57  1  0  0  0
 55127  1  0  0  0
 56 69  2  0  0  0
 57 58  2  0  0  0
 57128  1  0  0  0
 58129  1  0  0  0
 59 60  1  0  0  0
 59 61  1  0  0  0
 59 62  1  0  0  0
 60130  1  0  0  0
 60131  1  0  0  0
 60132  1  0  0  0
 61133  1  0  0  0
 61134  1  0  0  0
 61135  1  0  0  0
 62136  1  0  0  0
 62137  1  0  0  0
 62138  1  0  0  0
 63 65  1  0  0  0
 63139  1  0  0  0
 63140  1  0  0  0
 63141  1  0  0  0
 64142  1  0  0  0
 65143  1  0  0  0
 68 80  1  0  0  0
 71 73  2  0  0  0
 71 75  1  0  0  0
 71144  1  0  0  0
 72 74  1  0  0  0
 72 75  2  0  0  0
 72145  1  0  0  0
 73 76  1  0  0  0
 73146  1  0  0  0
 74 76  2  0  0  0
 74147  1  0  0  0
 75 81  1  0  0  0
 76 82  1  0  0  0
 77 78  1  0  0  0
 77 79  1  0  0  0
 77 80  2  0  0  0
 78 81  1  0  0  0
 78 83  2  0  0  0
 79 81  1  0  0  0
 79 84  2  0  0  0
 80148  1  0  0  0
 82149  1  0  0  0
M  ISO  4   1 100  68 101  80 101  82 100
M  END
> <chiral flag>
0

> <version>
0

> <s_m_source_file>
/data/baiqing/PycharmProjects/Reinvent-master-3.2/result/LINK_invent/BTK/process_docking_weight1_custom_product_contain_oxygen_bond_distance_aromatic_linkinvent_7_9_3/rearranged_h_0083.sdf

> <i_m_source_file_index>
56

> <r_mmod_Potential_Energy-OPLS-2005>
205.04655456543

> <r_mmod_Stretch_Energy-OPLS-2005>
112.029167175293

> <r_mmod_Bend_Energy-OPLS-2005>
265.751098632812

> <r_mmod_Torsional_Energy-OPLS-2005>
227.429061889648

> <r_mmod_Improper_Torsional_Energy-OPLS-2005>
5.86768484115601

> <r_mmod_Van_der_Waal_Energy-OPLS-2005>
136.00553894043

> <r_mmod_Electrostatic_Energy-OPLS-2005>
-398.190032958984

> <r_mmod_Solvation_Energy-OPLS-2005>
-233.616638183594

> <b_mmod_Minimization_Converged-OPLS-2005>
0

> <r_mmod_RMS_Derivative-OPLS-2005>
0.452697724103928

$$$$
56
                    3D
 Structure written by MMmdl.
155164  0  0  1  0            999 V2000
  -30.6170  -14.7480   20.3697 C   0  0  0  0  0  0
  -30.4371  -12.4299   19.4670 C   0  0  0  0  0  0
  -29.5037  -12.3979   18.2345 C   0  0  0  0  0  0
  -28.0251  -12.2886   18.6575 C   0  0  0  0  0  0
  -27.6345  -13.2178   19.8404 C   0  0  2  0  0  0
  -28.6915  -13.2002   20.9638 C   0  0  0  0  0  0
  -25.2513  -13.8165   20.5729 C   0  0  0  0  0  0
  -24.1781  -13.0432   20.9212 C   0  0  0  0  0  0
  -24.6355  -11.6901   20.8773 C   0  0  0  0  0  0
  -23.9033  -10.4282   21.0414 C   0  0  0  0  0  0
  -24.3587   -9.4193   21.9186 C   0  0  0  0  0  0
  -23.6265   -8.2228   22.0751 C   0  0  0  0  0  0
  -22.4252   -8.0267   21.3536 C   0  0  0  0  0  0
  -21.9884   -9.0244   20.4641 C   0  0  0  0  0  0
  -22.7211  -10.2124   20.3053 C   0  0  0  0  0  0
  -21.6848   -6.0714   22.5276 C   0  0  0  0  0  0
  -21.4016   -6.5626   23.8207 C   0  0  0  0  0  0
  -21.3664   -5.6781   24.9173 C   0  0  0  0  0  0
  -21.6045   -4.3044   24.7229 C   0  0  0  0  0  0
  -21.8817   -3.8131   23.4355 C   0  0  0  0  0  0
  -21.9189   -4.6941   22.3404 C   0  0  0  0  0  0
  -22.7808  -13.5229   21.1860 C   0  0  0  0  0  0
  -22.1654   -4.2122   21.0983 F   0  0  0  0  0  0
  -21.5626   -3.4534   25.7746 F   0  0  0  0  0  0
  -29.9836  -13.5256   20.3479 N   0  0  0  0  0  0
  -26.2918  -12.9335   20.3331 N   0  0  0  0  0  0
  -25.9286  -11.6499   20.5831 N   0  0  0  0  0  0
  -22.0451  -12.8227   22.0416 N   0  0  0  0  0  0
  -25.4252  -15.1887   20.4164 N   0  0  0  0  0  0
  -31.8470  -14.8013   20.2774 O   0  0  0  0  0  0
  -21.6627   -6.8858   21.4235 O   0  0  0  0  0  0
  -22.3498  -14.5537   20.6705 O   0  0  0  0  0  0
  -24.6282  -31.8581   23.2018 C   0  0  0  0  0  0
  -25.9123  -32.4771   23.8352 C   0  0  1  0  0  0
  -27.2262  -27.3002   20.1313 C   0  0  0  0  0  0
  -25.5934  -33.8572   24.2276 N   0  0  0  0  0  0
  -23.4238  -30.4808   21.5442 C   0  0  2  0  0  0
  -24.8738  -28.9338   20.1102 C   0  0  0  0  0  0
  -22.7489  -29.4613   22.4934 C   0  0  0  0  0  0
  -18.0289  -28.1386   22.8487 C   0  0  0  0  0  0
  -24.1488  -36.7288   23.2637 C   0  0  0  0  0  0
  -25.9661  -30.7831   21.3774 C   0  0  0  0  0  0
  -26.0419  -29.4078   20.7224 C   0  0  0  0  0  0
  -27.2216  -28.6010   20.7271 C   0  0  0  0  0  0
  -26.0426  -26.8920   19.4766 C   0  0  0  0  0  0
  -24.8768  -27.6814   19.4769 C   0  0  0  0  0  0
  -23.6405  -29.8144   20.1598 C   0  0  0  0  0  0
  -25.4112  -36.3077   24.0328 C   0  0  1  0  0  0
  -20.5892  -28.3691   23.1280 C   0  0  2  0  0  0
  -20.6777  -26.9413   22.5410 C   0  0  0  0  0  0
  -19.5749  -26.6384   21.5216 C   0  0  0  0  0  0
  -18.1930  -26.7929   22.1627 C   0  0  0  0  0  0
  -19.1541  -28.8858   23.2878 C   0  0  0  0  0  0
  -18.9459  -30.1461   23.8894 C   0  0  0  0  0  0
  -17.6457  -30.6588   24.0562 C   0  0  0  0  0  0
  -25.9052  -34.9447   23.5101 C   0  0  0  0  0  0
  -16.5351  -29.9081   23.6333 C   0  0  0  0  0  0
  -16.7275  -28.6499   23.0353 C   0  0  0  0  0  0
  -26.4496  -31.6588   25.0731 C   0  0  0  0  0  0
  -25.3726  -31.3729   26.1455 C   0  0  0  0  0  0
  -27.0347  -30.3011   24.6204 C   0  0  0  0  0  0
  -27.6059  -32.4323   25.7497 C   0  0  0  0  0  0
  -27.5581  -37.1792   24.8459 C   0  0  0  0  0  0
  -21.4200  -29.3039   22.3671 N   0  0  0  0  0  0
  -26.4285  -37.3778   23.9416 N   0  0  0  0  0  0
  -24.6915  -31.0576   22.0982 N   0  0  0  0  0  0
  -23.4201  -28.8160   23.3028 O   0  0  0  0  0  0
  -28.3148  -26.4082   20.1770 O   0  0  0  0  0  0
  -26.5618  -34.8919   22.4666 O   0  0  0  0  0  0
  -23.5441  -32.1386   23.7335 O   0  0  0  0  0  0
  -28.4981  -19.3869   20.0301 C   0  0  0  0  0  0
  -30.6980  -19.4368   20.9720 C   0  0  0  0  0  0
  -28.5850  -17.9634   19.9461 C   0  0  0  0  0  0
  -30.7858  -18.0054   20.8882 C   0  0  0  0  0  0
  -29.5727  -20.1903   20.5004 C   0  0  0  0  0  0
  -29.7443  -17.2206   20.3218 C   0  0  0  0  0  0
  -28.8811  -23.9425   20.3468 C   0  0  0  0  0  0
  -28.5011  -22.5368   20.6588 C   0  0  0  0  0  0
  -30.6153  -22.4034   19.9625 C   0  0  0  0  0  0
  -28.0544  -25.0429   20.4715 C   0  0  0  0  0  0
  -30.2978  -23.8949   19.8740 C   0  0  0  0  0  0
  -29.7763  -15.7810   18.3875 C   0  0  0  0  0  0
  -29.5570  -21.6822   20.4105 N   0  0  0  0  0  0
  -29.8799  -15.8189   19.8611 N   0  0  0  0  0  0
  -27.4027  -22.1691   21.0931 O   0  0  0  0  0  0
  -31.7238  -21.9603   19.6382 O   0  0  0  0  0  0
  -31.4730  -12.5610   19.1500 H   0  0  0  0  0  0
  -30.4006  -11.4799   20.0019 H   0  0  0  0  0  0
  -29.7633  -11.5470   17.6032 H   0  0  0  0  0  0
  -29.6474  -13.2666   17.6001 H   0  0  0  0  0  0
  -27.8613  -11.2496   18.9445 H   0  0  0  0  0  0
  -27.3724  -12.4703   17.8034 H   0  0  0  0  0  0
  -27.6003  -14.2271   19.4398 H   0  0  0  0  0  0
  -28.7282  -12.2273   21.4555 H   0  0  0  0  0  0
  -28.4398  -13.9341   21.7315 H   0  0  0  0  0  0
  -25.2729   -9.5668   22.4763 H   0  0  0  0  0  0
  -23.9967   -7.4615   22.7474 H   0  0  0  0  0  0
  -21.0809   -8.8772   19.8944 H   0  0  0  0  0  0
  -22.3675  -10.9663   19.6159 H   0  0  0  0  0  0
  -21.2016   -7.6133   23.9706 H   0  0  0  0  0  0
  -21.1485   -6.0512   25.9075 H   0  0  0  0  0  0
  -22.0593   -2.7591   23.2870 H   0  0  0  0  0  0
  -22.4071  -11.9892   22.4803 H   0  0  0  0  0  0
  -21.1073  -13.1256   22.2625 H   0  0  0  0  0  0
  -24.6693  -15.8533   20.5409 H   0  0  0  0  0  0
  -26.2954  -15.6243   20.1400 H   0  0  0  0  0  0
  -26.7199  -32.5436   23.1107 H   0  0  0  0  0  0
  -25.0089  -33.9716   25.0424 H   0  0  0  0  0  0
  -22.7183  -31.3016   21.3999 H   0  0  0  0  0  0
  -23.3756  -35.9615   23.3288 H   0  0  0  0  0  0
  -24.3581  -36.8918   22.2054 H   0  0  0  0  0  0
  -23.7236  -37.6484   23.6663 H   0  0  0  0  0  0
  -26.0981  -31.5448   20.6076 H   0  0  0  0  0  0
  -26.8460  -30.8342   22.0069 H   0  0  0  0  0  0
  -28.1149  -28.9548   21.2221 H   0  0  0  0  0  0
  -26.0053  -25.9324   18.9808 H   0  0  0  0  0  0
  -23.9848  -27.3139   18.9884 H   0  0  0  0  0  0
  -23.7578  -30.5905   19.4025 H   0  0  0  0  0  0
  -22.7606  -29.2427   19.8591 H   0  0  0  0  0  0
  -25.1293  -36.1920   25.0819 H   0  0  0  0  0  0
  -20.9982  -28.3266   24.1401 H   0  0  0  0  0  0
  -20.5683  -26.2300   23.3612 H   0  0  0  0  0  0
  -21.6642  -26.7442   22.1199 H   0  0  0  0  0  0
  -19.6908  -25.6294   21.1246 H   0  0  0  0  0  0
  -19.6687  -27.3195   20.6747 H   0  0  0  0  0  0
  -17.4200  -26.6683   21.4027 H   0  0  0  0  0  0
  -18.0325  -26.0072   22.9024 H   0  0  0  0  0  0
  -19.7934  -30.7280   24.2259 H   0  0  0  0  0  0
  -17.5008  -31.6267   24.5162 H   0  0  0  0  0  0
  -15.5349  -30.2978   23.7661 H   0  0  0  0  0  0
  -15.8676  -28.0818   22.7067 H   0  0  0  0  0  0
  -24.5898  -30.7083   25.7774 H   0  0  0  0  0  0
  -24.8920  -32.2899   26.4882 H   0  0  0  0  0  0
  -25.8046  -30.8898   27.0230 H   0  0  0  0  0  0
  -26.2933  -29.6754   24.1221 H   0  0  0  0  0  0
  -27.4028  -29.7274   25.4720 H   0  0  0  0  0  0
  -27.8807  -30.4289   23.9447 H   0  0  0  0  0  0
  -27.2675  -33.3621   26.2081 H   0  0  0  0  0  0
  -28.3865  -32.6889   25.0321 H   0  0  0  0  0  0
  -28.0737  -31.8447   26.5406 H   0  0  0  0  0  0
  -28.2579  -38.0108   24.7540 H   0  0  0  0  0  0
  -28.1097  -36.2644   24.6239 H   0  0  0  0  0  0
  -27.2306  -37.1385   25.8861 H   0  0  0  0  0  0
  -20.9383  -29.8744   21.6863 H   0  0  0  0  0  0
  -26.0161  -38.2845   24.1440 H   0  0  0  0  0  0
  -27.6041  -19.8635   19.6510 H   0  0  0  0  0  0
  -31.5585  -19.9651   21.3584 H   0  0  0  0  0  0
  -27.7570  -17.4401   19.4890 H   0  0  0  0  0  0
  -31.7107  -17.5262   21.1786 H   0  0  0  0  0  0
  -27.0506  -24.9056   20.8506 H   0  0  0  0  0  0
  -30.9551  -24.4739   20.5220 H   0  0  0  0  0  0
  -30.3839  -24.2493   18.8472 H   0  0  0  0  0  0
  -29.8550  -16.7732   17.9401 H   0  0  0  0  0  0
  -28.8236  -15.3710   18.0594 H   0  0  0  0  0  0
  -30.5809  -15.2104   17.9198 H   0  0  0  0  0  0
  1 25  1  0  0  0
  1 30  2  0  0  0
  1 84  1  0  0  0
  2  3  1  0  0  0
  2 25  1  0  0  0
  2 87  1  0  0  0
  2 88  1  0  0  0
  3  4  1  0  0  0
  3 89  1  0  0  0
  3 90  1  0  0  0
  4  5  1  0  0  0
  4 91  1  0  0  0
  4 92  1  0  0  0
  5  6  1  0  0  0
  5 26  1  0  0  0
  5 93  1  0  0  0
  6 25  1  0  0  0
  6 94  1  0  0  0
  6 95  1  0  0  0
  7  8  2  0  0  0
  7 26  1  0  0  0
  7 29  1  0  0  0
  8  9  1  0  0  0
  8 22  1  0  0  0
  9 10  1  0  0  0
  9 27  2  0  0  0
 10 11  2  0  0  0
 10 15  1  0  0  0
 11 12  1  0  0  0
 11 96  1  0  0  0
 12 13  2  0  0  0
 12 97  1  0  0  0
 13 14  1  0  0  0
 13 31  1  0  0  0
 14 15  2  0  0  0
 14 98  1  0  0  0
 15 99  1  0  0  0
 16 17  2  0  0  0
 16 21  1  0  0  0
 16 31  1  0  0  0
 17 18  1  0  0  0
 17100  1  0  0  0
 18 19  2  0  0  0
 18101  1  0  0  0
 19 20  1  0  0  0
 19 24  1  0  0  0
 20 21  2  0  0  0
 20102  1  0  0  0
 21 23  1  0  0  0
 22 28  1  0  0  0
 22 32  2  0  0  0
 26 27  1  0  0  0
 28103  1  0  0  0
 28104  1  0  0  0
 29105  1  0  0  0
 29106  1  0  0  0
 33 34  1  0  0  0
 33 66  1  0  0  0
 33 70  2  0  0  0
 34 36  1  0  0  0
 34 59  1  0  0  0
 34107  1  0  0  0
 35 44  2  0  0  0
 35 45  1  0  0  0
 35 68  1  0  0  0
 36 56  1  0  0  0
 36108  1  0  0  0
 37 39  1  0  0  0
 37 47  1  0  0  0
 37 66  1  0  0  0
 37109  1  0  0  0
 38 43  2  0  0  0
 38 46  1  0  0  0
 38 47  1  0  0  0
 39 64  1  0  0  0
 39 67  2  0  0  0
 40 52  1  0  0  0
 40 53  2  0  0  0
 40 58  1  0  0  0
 41110  1  0  0  0
 41111  1  0  0  0
 41112  1  0  0  0
 41 48  1  0  0  0
 42 43  1  0  0  0
 42 66  1  0  0  0
 42113  1  0  0  0
 42114  1  0  0  0
 43 44  1  0  0  0
 44115  1  0  0  0
 45 46  2  0  0  0
 45116  1  0  0  0
 46117  1  0  0  0
 47118  1  0  0  0
 47119  1  0  0  0
 48 56  1  0  0  0
 48 65  1  0  0  0
 48120  1  0  0  0
 49 50  1  0  0  0
 49 53  1  0  0  0
 49 64  1  0  0  0
 49121  1  0  0  0
 50 51  1  0  0  0
 50122  1  0  0  0
 50123  1  0  0  0
 51 52  1  0  0  0
 51124  1  0  0  0
 51125  1  0  0  0
 52126  1  0  0  0
 52127  1  0  0  0
 53 54  1  0  0  0
 54 55  2  0  0  0
 54128  1  0  0  0
 55 57  1  0  0  0
 55129  1  0  0  0
 56 69  2  0  0  0
 57 58  2  0  0  0
 57130  1  0  0  0
 58131  1  0  0  0
 59 60  1  0  0  0
 59 61  1  0  0  0
 59 62  1  0  0  0
 60132  1  0  0  0
 60133  1  0  0  0
 60134  1  0  0  0
 61135  1  0  0  0
 61136  1  0  0  0
 61137  1  0  0  0
 62138  1  0  0  0
 62139  1  0  0  0
 62140  1  0  0  0
 63 65  1  0  0  0
 63141  1  0  0  0
 63142  1  0  0  0
 63143  1  0  0  0
 64144  1  0  0  0
 65145  1  0  0  0
 68 80  1  0  0  0
 71 73  2  0  0  0
 71 75  1  0  0  0
 71146  1  0  0  0
 72 74  1  0  0  0
 72 75  2  0  0  0
 72147  1  0  0  0
 73 76  1  0  0  0
 73148  1  0  0  0
 74 76  2  0  0  0
 74149  1  0  0  0
 75 83  1  0  0  0
 76 84  1  0  0  0
 77 78  1  0  0  0
 77 80  2  0  0  0
 77 81  1  0  0  0
 78 83  1  0  0  0
 78 85  2  0  0  0
 79 81  1  0  0  0
 79 83  1  0  0  0
 79 86  2  0  0  0
 80150  1  0  0  0
 81151  1  0  0  0
 81152  1  0  0  0
 82 84  1  0  0  0
 82153  1  0  0  0
 82154  1  0  0  0
 82155  1  0  0  0
M  ISO  4   1 100  68 101  80 101  84 100
M  END
> <chiral flag>
0

> <version>
0

> <s_m_source_file>
/data/baiqing/PycharmProjects/Reinvent-master-3.2/result/LINK_invent/BTK/process_docking_weight1_custom_product_contain_oxygen_bond_distance_aromatic_linkinvent_7_9_3/rearranged_h_0083.sdf

> <i_m_source_file_index>
57

> <r_mmod_Potential_Energy-OPLS-2005>
394.280120849609

> <r_mmod_Stretch_Energy-OPLS-2005>
99.8730087280273

> <r_mmod_Bend_Energy-OPLS-2005>
196.831878662109

> <r_mmod_Torsional_Energy-OPLS-2005>
357.915924072266

> <r_mmod_Improper_Torsional_Energy-OPLS-2005>
27.2569065093994

> <r_mmod_Van_der_Waal_Energy-OPLS-2005>
147.226715087891

> <r_mmod_Electrostatic_Energy-OPLS-2005>
-306.978057861328

> <r_mmod_Solvation_Energy-OPLS-2005>
-217.97607421875

> <b_mmod_Minimization_Converged-OPLS-2005>
0

> <r_mmod_RMS_Derivative-OPLS-2005>
0.976940453052521

$$$$
57
                    3D
 Structure written by MMmdl.
156164  0  0  1  0            999 V2000
  -30.6005  -14.6751   20.4867 C   0  0  0  0  0  0
  -30.4432  -12.4115   19.4590 C   0  0  0  0  0  0
  -29.5108  -12.5031   18.2297 C   0  0  0  0  0  0
  -28.0340  -12.3332   18.6419 C   0  0  0  0  0  0
  -27.6520  -13.2133   19.8611 C   0  0  2  0  0  0
  -28.6959  -13.0841   20.9925 C   0  0  0  0  0  0
  -25.2559  -13.8149   20.5651 C   0  0  0  0  0  0
  -24.1834  -13.0426   20.9200 C   0  0  0  0  0  0
  -24.6397  -11.6894   20.8763 C   0  0  0  0  0  0
  -23.9065  -10.4286   21.0423 C   0  0  0  0  0  0
  -24.3617   -9.4198   21.9194 C   0  0  0  0  0  0
  -23.6293   -8.2232   22.0764 C   0  0  0  0  0  0
  -22.4274   -8.0277   21.3551 C   0  0  0  0  0  0
  -21.9910   -9.0250   20.4652 C   0  0  0  0  0  0
  -22.7241  -10.2129   20.3066 C   0  0  0  0  0  0
  -21.6845   -6.0737   22.5278 C   0  0  0  0  0  0
  -21.4012   -6.5639   23.8212 C   0  0  0  0  0  0
  -21.3661   -5.6794   24.9171 C   0  0  0  0  0  0
  -21.6044   -4.3060   24.7218 C   0  0  0  0  0  0
  -21.8821   -3.8150   23.4344 C   0  0  0  0  0  0
  -21.9192   -4.6968   22.3403 C   0  0  0  0  0  0
  -22.7857  -13.5231   21.1852 C   0  0  0  0  0  0
  -22.1659   -4.2156   21.0980 F   0  0  0  0  0  0
  -21.5632   -3.4547   25.7730 F   0  0  0  0  0  0
  -30.0064  -13.4394   20.4266 N   0  0  0  0  0  0
  -26.2983  -12.9320   20.3305 N   0  0  0  0  0  0
  -25.9324  -11.6482   20.5779 N   0  0  0  0  0  0
  -22.0490  -12.8233   22.0406 N   0  0  0  0  0  0
  -25.4252  -15.1864   20.3966 N   0  0  0  0  0  0
  -31.7725  -14.8294   20.1294 O   0  0  0  0  0  0
  -21.6636   -6.8879   21.4240 O   0  0  0  0  0  0
  -22.3552  -14.5541   20.6694 O   0  0  0  0  0  0
  -24.6258  -31.8578   23.2026 C   0  0  0  0  0  0
  -25.9100  -32.4768   23.8362 C   0  0  1  0  0  0
  -27.2132  -27.2904   20.1355 C   0  0  0  0  0  0
  -25.5920  -33.8566   24.2290 N   0  0  0  0  0  0
  -23.4227  -30.4817   21.5438 C   0  0  2  0  0  0
  -24.8712  -28.9363   20.1101 C   0  0  0  0  0  0
  -22.7490  -29.4596   22.4916 C   0  0  0  0  0  0
  -18.0289  -28.1395   22.8451 C   0  0  0  0  0  0
  -24.1498  -36.7281   23.2637 C   0  0  0  0  0  0
  -25.9659  -30.7793   21.3823 C   0  0  0  0  0  0
  -26.0386  -29.4035   20.7276 C   0  0  0  0  0  0
  -27.2132  -28.5907   20.7350 C   0  0  0  0  0  0
  -26.0410  -26.9072   19.4517 C   0  0  0  0  0  0
  -24.8752  -27.6931   19.4607 C   0  0  0  0  0  0
  -23.6416  -29.8187   20.1582 C   0  0  0  0  0  0
  -25.4117  -36.3066   24.0337 C   0  0  1  0  0  0
  -20.5893  -28.3681   23.1282 C   0  0  2  0  0  0
  -20.6783  -26.9409   22.5410 C   0  0  0  0  0  0
  -19.5764  -26.6382   21.5204 C   0  0  0  0  0  0
  -18.1935  -26.7926   22.1603 C   0  0  0  0  0  0
  -19.1543  -28.8851   23.2858 C   0  0  0  0  0  0
  -18.9474  -30.1444   23.8886 C   0  0  0  0  0  0
  -17.6475  -30.6584   24.0559 C   0  0  0  0  0  0
  -25.9050  -34.9435   23.5107 C   0  0  0  0  0  0
  -16.5362  -29.9089   23.6341 C   0  0  0  0  0  0
  -16.7275  -28.6515   23.0334 C   0  0  0  0  0  0
  -26.4488  -31.6571   25.0728 C   0  0  0  0  0  0
  -25.3729  -31.3749   26.1466 C   0  0  0  0  0  0
  -27.0335  -30.2992   24.6179 C   0  0  0  0  0  0
  -27.6060  -32.4290   25.7489 C   0  0  0  0  0  0
  -27.5584  -37.1791   24.8468 C   0  0  0  0  0  0
  -21.4195  -29.3032   22.3675 N   0  0  0  0  0  0
  -26.4294  -37.3763   23.9411 N   0  0  0  0  0  0
  -24.6900  -31.0571   22.0990 N   0  0  0  0  0  0
  -23.4209  -28.8126   23.2998 O   0  0  0  0  0  0
  -28.3177  -26.4194   20.1306 O   0  0  0  0  0  0
  -26.5616  -34.8894   22.4676 O   0  0  0  0  0  0
  -23.5413  -32.1394   23.7323 O   0  0  0  0  0  0
  -31.0334  -19.3159   20.0832 C   0  0  0  0  0  0
  -28.6805  -19.4168   20.5255 C   0  0  0  0  0  0
  -31.0406  -17.9024   20.2910 C   0  0  0  0  0  0
  -28.6871  -17.9974   20.7378 C   0  0  0  0  0  0
  -29.8606  -20.1266   20.1767 C   0  0  0  0  0  0
  -29.8564  -17.1875   20.6061 C   0  0  0  0  0  0
  -29.9117  -21.6143   19.7252 C   0  0  0  0  0  0
  -29.1240  -23.9702   19.9307 C   0  0  0  0  0  0
  -28.9381  -25.2557   22.1194 C   0  0  0  0  0  0
  -26.8544  -24.4570   20.9796 C   0  0  0  0  0  0
  -28.2696  -25.0426   20.7482 C   0  0  0  0  0  0
  -29.7679  -15.7290   20.7943 N   0  0  0  0  0  0
  -29.1544  -22.6243   20.2831 N   0  0  0  0  0  0
  -30.7343  -21.8477   18.8312 O   0  0  0  0  0  0
  -29.7525  -24.4169   18.9633 O   0  0  0  0  0  0
  -31.4833  -12.5463   19.1569 H   0  0  0  0  0  0
  -30.3903  -11.4206   19.9117 H   0  0  0  0  0  0
  -29.7819  -11.7429   17.4963 H   0  0  0  0  0  0
  -29.6449  -13.4665   17.7352 H   0  0  0  0  0  0
  -27.8808  -11.2817   18.8856 H   0  0  0  0  0  0
  -27.3769  -12.5483   17.7987 H   0  0  0  0  0  0
  -27.6657  -14.2450   19.5093 H   0  0  0  0  0  0
  -28.7180  -12.0642   21.3792 H   0  0  0  0  0  0
  -28.4369  -13.7188   21.8413 H   0  0  0  0  0  0
  -25.2760   -9.5676   22.4776 H   0  0  0  0  0  0
  -24.0003   -7.4624   22.7486 H   0  0  0  0  0  0
  -21.0846   -8.8770   19.8955 H   0  0  0  0  0  0
  -22.3704  -10.9672   19.6184 H   0  0  0  0  0  0
  -21.2001   -7.6143   23.9720 H   0  0  0  0  0  0
  -21.1481   -6.0519   25.9077 H   0  0  0  0  0  0
  -22.0601   -2.7613   23.2837 H   0  0  0  0  0  0
  -22.4087  -11.9882   22.4782 H   0  0  0  0  0  0
  -21.1120  -13.1287   22.2628 H   0  0  0  0  0  0
  -24.6410  -15.8274   20.4594 H   0  0  0  0  0  0
  -26.2433  -15.6048   19.9719 H   0  0  0  0  0  0
  -26.7150  -32.5438   23.1098 H   0  0  0  0  0  0
  -25.0082  -33.9722   25.0438 H   0  0  0  0  0  0
  -22.7163  -31.3017   21.3985 H   0  0  0  0  0  0
  -23.3767  -35.9606   23.3289 H   0  0  0  0  0  0
  -24.3601  -36.8921   22.2056 H   0  0  0  0  0  0
  -23.7253  -37.6477   23.6669 H   0  0  0  0  0  0
  -26.1014  -31.5398   20.6122 H   0  0  0  0  0  0
  -26.8443  -30.8295   22.0144 H   0  0  0  0  0  0
  -28.1079  -28.9409   21.2295 H   0  0  0  0  0  0
  -26.0148  -25.9770   18.9066 H   0  0  0  0  0  0
  -23.9890  -27.3407   18.9500 H   0  0  0  0  0  0
  -23.7640  -30.5963   19.4036 H   0  0  0  0  0  0
  -22.7620  -29.2509   19.8490 H   0  0  0  0  0  0
  -25.1306  -36.1914   25.0839 H   0  0  0  0  0  0
  -20.9960  -28.3237   24.1410 H   0  0  0  0  0  0
  -20.5710  -26.2278   23.3600 H   0  0  0  0  0  0
  -21.6651  -26.7455   22.1193 H   0  0  0  0  0  0
  -19.6952  -25.6297   21.1231 H   0  0  0  0  0  0
  -19.6726  -27.3192   20.6741 H   0  0  0  0  0  0
  -17.4221  -26.6651   21.4000 H   0  0  0  0  0  0
  -18.0333  -26.0090   22.9029 H   0  0  0  0  0  0
  -19.7958  -30.7245   24.2259 H   0  0  0  0  0  0
  -17.5047  -31.6272   24.5150 H   0  0  0  0  0  0
  -15.5363  -30.3000   23.7680 H   0  0  0  0  0  0
  -15.8665  -28.0843   22.7059 H   0  0  0  0  0  0
  -24.5864  -30.7147   25.7805 H   0  0  0  0  0  0
  -24.8967  -32.2937   26.4888 H   0  0  0  0  0  0
  -25.8030  -30.8912   27.0243 H   0  0  0  0  0  0
  -26.2904  -29.6740   24.1208 H   0  0  0  0  0  0
  -27.4061  -29.7251   25.4676 H   0  0  0  0  0  0
  -27.8771  -30.4310   23.9399 H   0  0  0  0  0  0
  -27.2715  -33.3637   26.1987 H   0  0  0  0  0  0
  -28.3902  -32.6752   25.0329 H   0  0  0  0  0  0
  -28.0667  -31.8453   26.5461 H   0  0  0  0  0  0
  -28.2582  -38.0102   24.7504 H   0  0  0  0  0  0
  -28.1099  -36.2626   24.6308 H   0  0  0  0  0  0
  -27.2293  -37.1452   25.8868 H   0  0  0  0  0  0
  -20.9361  -29.8772   21.6904 H   0  0  0  0  0  0
  -26.0180  -38.2842   24.1411 H   0  0  0  0  0  0
  -31.9674  -19.7839   19.8059 H   0  0  0  0  0  0
  -27.7422  -19.9499   20.5909 H   0  0  0  0  0  0
  -31.9770  -17.3749   20.1827 H   0  0  0  0  0  0
  -27.7471  -17.5219   20.9824 H   0  0  0  0  0  0
  -28.9668  -24.3346   22.7022 H   0  0  0  0  0  0
  -28.3980  -25.9979   22.7081 H   0  0  0  0  0  0
  -29.9648  -25.6060   22.0097 H   0  0  0  0  0  0
  -26.8933  -23.5481   21.5809 H   0  0  0  0  0  0
  -26.3650  -24.1843   20.0452 H   0  0  0  0  0  0
  -26.2102  -25.1478   21.5235 H   0  0  0  0  0  0
  -28.8563  -15.4060   21.0801 H   0  0  0  0  0  0
  -28.5707  -22.3500   21.0558 H   0  0  0  0  0  0
  1 25  1  0  0  0
  1 30  2  0  0  0
  1 82  1  0  0  0
  2  3  1  0  0  0
  2 25  1  0  0  0
  2 86  1  0  0  0
  2 87  1  0  0  0
  3  4  1  0  0  0
  3 88  1  0  0  0
  3 89  1  0  0  0
  4  5  1  0  0  0
  4 90  1  0  0  0
  4 91  1  0  0  0
  5  6  1  0  0  0
  5 26  1  0  0  0
  5 92  1  0  0  0
  6 25  1  0  0  0
  6 93  1  0  0  0
  6 94  1  0  0  0
  7  8  2  0  0  0
  7 26  1  0  0  0
  7 29  1  0  0  0
  8  9  1  0  0  0
  8 22  1  0  0  0
  9 10  1  0  0  0
  9 27  2  0  0  0
 10 11  2  0  0  0
 10 15  1  0  0  0
 11 12  1  0  0  0
 11 95  1  0  0  0
 12 13  2  0  0  0
 12 96  1  0  0  0
 13 14  1  0  0  0
 13 31  1  0  0  0
 14 15  2  0  0  0
 14 97  1  0  0  0
 15 98  1  0  0  0
 16 17  2  0  0  0
 16 21  1  0  0  0
 16 31  1  0  0  0
 17 18  1  0  0  0
 17 99  1  0  0  0
 18 19  2  0  0  0
 18100  1  0  0  0
 19 20  1  0  0  0
 19 24  1  0  0  0
 20 21  2  0  0  0
 20101  1  0  0  0
 21 23  1  0  0  0
 22 28  1  0  0  0
 22 32  2  0  0  0
 26 27  1  0  0  0
 28102  1  0  0  0
 28103  1  0  0  0
 29104  1  0  0  0
 29105  1  0  0  0
 33 34  1  0  0  0
 33 66  1  0  0  0
 33 70  2  0  0  0
 34 36  1  0  0  0
 34 59  1  0  0  0
 34106  1  0  0  0
 35 44  2  0  0  0
 35 45  1  0  0  0
 35 68  1  0  0  0
 36 56  1  0  0  0
 36107  1  0  0  0
 37 39  1  0  0  0
 37 47  1  0  0  0
 37 66  1  0  0  0
 37108  1  0  0  0
 38 43  2  0  0  0
 38 46  1  0  0  0
 38 47  1  0  0  0
 39 64  1  0  0  0
 39 67  2  0  0  0
 40 52  1  0  0  0
 40 53  2  0  0  0
 40 58  1  0  0  0
 41109  1  0  0  0
 41110  1  0  0  0
 41111  1  0  0  0
 41 48  1  0  0  0
 42 43  1  0  0  0
 42 66  1  0  0  0
 42112  1  0  0  0
 42113  1  0  0  0
 43 44  1  0  0  0
 44114  1  0  0  0
 45 46  2  0  0  0
 45115  1  0  0  0
 46116  1  0  0  0
 47117  1  0  0  0
 47118  1  0  0  0
 48 56  1  0  0  0
 48 65  1  0  0  0
 48119  1  0  0  0
 49 50  1  0  0  0
 49 53  1  0  0  0
 49 64  1  0  0  0
 49120  1  0  0  0
 50 51  1  0  0  0
 50121  1  0  0  0
 50122  1  0  0  0
 51 52  1  0  0  0
 51123  1  0  0  0
 51124  1  0  0  0
 52125  1  0  0  0
 52126  1  0  0  0
 53 54  1  0  0  0
 54 55  2  0  0  0
 54127  1  0  0  0
 55 57  1  0  0  0
 55128  1  0  0  0
 56 69  2  0  0  0
 57 58  2  0  0  0
 57129  1  0  0  0
 58130  1  0  0  0
 59 60  1  0  0  0
 59 61  1  0  0  0
 59 62  1  0  0  0
 60131  1  0  0  0
 60132  1  0  0  0
 60133  1  0  0  0
 61134  1  0  0  0
 61135  1  0  0  0
 61136  1  0  0  0
 62137  1  0  0  0
 62138  1  0  0  0
 62139  1  0  0  0
 63 65  1  0  0  0
 63140  1  0  0  0
 63141  1  0  0  0
 63142  1  0  0  0
 64143  1  0  0  0
 65144  1  0  0  0
 68 81  1  0  0  0
 71 73  2  0  0  0
 71 75  1  0  0  0
 71145  1  0  0  0
 72 74  1  0  0  0
 72 75  2  0  0  0
 72146  1  0  0  0
 73 76  1  0  0  0
 73147  1  0  0  0
 74 76  2  0  0  0
 74148  1  0  0  0
 75 77  1  0  0  0
 76 82  1  0  0  0
 77 83  1  0  0  0
 77 84  2  0  0  0
 78 81  1  0  0  0
 78 83  1  0  0  0
 78 85  2  0  0  0
 79149  1  0  0  0
 79150  1  0  0  0
 79151  1  0  0  0
 79 81  1  0  0  0
 80 81  1  0  0  0
 80152  1  0  0  0
 80153  1  0  0  0
 80154  1  0  0  0
 82155  1  0  0  0
 83156  1  0  0  0
M  ISO  4   1 100  68 101  81 101  82 100
M  END
> <chiral flag>
0

> <version>
0

> <s_m_source_file>
/data/baiqing/PycharmProjects/Reinvent-master-3.2/result/LINK_invent/BTK/process_docking_weight1_custom_product_contain_oxygen_bond_distance_aromatic_linkinvent_7_9_3/rearranged_h_0083.sdf

> <i_m_source_file_index>
58

> <r_mmod_Potential_Energy-OPLS-2005>
-15.7962455749512

> <r_mmod_Stretch_Energy-OPLS-2005>
97.7363433837891

> <r_mmod_Bend_Energy-OPLS-2005>
158.564788818359

> <r_mmod_Torsional_Energy-OPLS-2005>
261.5556640625

> <r_mmod_Improper_Torsional_Energy-OPLS-2005>
5.84072875976562

> <r_mmod_Van_der_Waal_Energy-OPLS-2005>
153.347686767578

> <r_mmod_Electrostatic_Energy-OPLS-2005>
-475.461090087891

> <r_mmod_Solvation_Energy-OPLS-2005>
-278.231018066406

> <b_mmod_Minimization_Converged-OPLS-2005>
0

> <r_mmod_RMS_Derivative-OPLS-2005>
1.89524579048157

$$$$
58
                    3D
 Structure written by MMmdl.
163172  0  0  1  0            999 V2000
  -30.6403  -14.6207   20.5268 C   0  0  0  0  0  0
  -30.4521  -12.3931   19.4328 C   0  0  0  0  0  0
  -29.5180  -12.5195   18.2103 C   0  0  0  0  0  0
  -28.0372  -12.3612   18.6163 C   0  0  0  0  0  0
  -27.6587  -13.2164   19.8575 C   0  0  2  0  0  0
  -28.7083  -13.0478   20.9771 C   0  0  0  0  0  0
  -25.2597  -13.8154   20.5605 C   0  0  0  0  0  0
  -24.1847  -13.0432   20.9148 C   0  0  0  0  0  0
  -24.6442  -11.6891   20.8734 C   0  0  0  0  0  0
  -23.9099  -10.4288   21.0415 C   0  0  0  0  0  0
  -24.3641   -9.4188   21.9195 C   0  0  0  0  0  0
  -23.6292   -8.2244   22.0769 C   0  0  0  0  0  0
  -22.4281   -8.0283   21.3564 C   0  0  0  0  0  0
  -21.9908   -9.0267   20.4667 C   0  0  0  0  0  0
  -22.7261  -10.2133   20.3073 C   0  0  0  0  0  0
  -21.6858   -6.0725   22.5288 C   0  0  0  0  0  0
  -21.4009   -6.5646   23.8201 C   0  0  0  0  0  0
  -21.3655   -5.6809   24.9186 C   0  0  0  0  0  0
  -21.6057   -4.3071   24.7238 C   0  0  0  0  0  0
  -21.8822   -3.8140   23.4369 C   0  0  0  0  0  0
  -21.9183   -4.6955   22.3409 C   0  0  0  0  0  0
  -22.7887  -13.5229   21.1782 C   0  0  0  0  0  0
  -22.1669   -4.2128   21.0991 F   0  0  0  0  0  0
  -21.5617   -3.4553   25.7756 F   0  0  0  0  0  0
  -30.0177  -13.4062   20.4100 N   0  0  0  0  0  0
  -26.3025  -12.9341   20.3245 N   0  0  0  0  0  0
  -25.9371  -11.6508   20.5713 N   0  0  0  0  0  0
  -22.0521  -12.8259   22.0363 N   0  0  0  0  0  0
  -25.4278  -15.1856   20.3955 N   0  0  0  0  0  0
  -31.8293  -14.7601   20.2313 O   0  0  0  0  0  0
  -21.6663   -6.8878   21.4248 O   0  0  0  0  0  0
  -22.3575  -14.5543   20.6607 O   0  0  0  0  0  0
  -24.6242  -31.8675   23.2060 C   0  0  0  0  0  0
  -25.9105  -32.4808   23.8404 C   0  0  1  0  0  0
  -27.2551  -27.3543   20.1298 C   0  0  0  0  0  0
  -25.5950  -33.8617   24.2288 N   0  0  0  0  0  0
  -23.4189  -30.4811   21.5506 C   0  0  2  0  0  0
  -24.8715  -28.9242   20.1300 C   0  0  0  0  0  0
  -22.7432  -29.4677   22.5021 C   0  0  0  0  0  0
  -18.0253  -28.1400   22.8510 C   0  0  0  0  0  0
  -24.1480  -36.7285   23.2621 C   0  0  0  0  0  0
  -25.9525  -30.8042   21.3733 C   0  0  0  0  0  0
  -26.0346  -29.4261   20.7276 C   0  0  0  0  0  0
  -27.2305  -28.6509   20.7194 C   0  0  0  0  0  0
  -26.0691  -26.8852   19.5261 C   0  0  0  0  0  0
  -24.8844  -27.6524   19.5314 C   0  0  0  0  0  0
  -23.6352  -29.8001   20.1750 C   0  0  0  0  0  0
  -25.4105  -36.3085   24.0312 C   0  0  1  0  0  0
  -20.5845  -28.3731   23.1286 C   0  0  2  0  0  0
  -20.6769  -26.9464   22.5415 C   0  0  0  0  0  0
  -19.5739  -26.6420   21.5232 C   0  0  0  0  0  0
  -18.1900  -26.7948   22.1632 C   0  0  0  0  0  0
  -19.1496  -28.8883   23.2884 C   0  0  0  0  0  0
  -18.9425  -30.1465   23.8947 C   0  0  0  0  0  0
  -17.6439  -30.6618   24.0576 C   0  0  0  0  0  0
  -25.9056  -34.9463   23.5081 C   0  0  0  0  0  0
  -16.5325  -29.9128   23.6333 C   0  0  0  0  0  0
  -16.7256  -28.6522   23.0396 C   0  0  0  0  0  0
  -26.4537  -31.6572   25.0733 C   0  0  0  0  0  0
  -25.3769  -31.3723   26.1454 C   0  0  0  0  0  0
  -27.0310  -30.2968   24.6150 C   0  0  0  0  0  0
  -27.6152  -32.4264   25.7477 C   0  0  0  0  0  0
  -27.5569  -37.1792   24.8446 C   0  0  0  0  0  0
  -21.4167  -29.3063   22.3688 N   0  0  0  0  0  0
  -26.4280  -37.3778   23.9410 N   0  0  0  0  0  0
  -24.6837  -31.0640   22.1033 N   0  0  0  0  0  0
  -23.4151  -28.8271   23.3146 O   0  0  0  0  0  0
  -28.4124  -26.5810   20.0551 O   0  0  0  0  0  0
  -26.5630  -34.8938   22.4659 O   0  0  0  0  0  0
  -23.5425  -32.1532   23.7333 O   0  0  0  0  0  0
  -32.1046  -19.0570   18.9100 C   0  0  0  0  0  0
  -31.5392  -18.0318   19.6850 C   0  0  0  0  0  0
  -31.5512  -20.3480   18.9267 C   0  0  0  0  0  0
  -29.9173  -19.6248   20.5655 C   0  0  0  0  0  0
  -30.4231  -18.2621   20.5118 C   0  0  0  0  0  0
  -30.4406  -20.6900   19.7429 C   0  0  0  0  0  0
  -29.0713  -24.2189   19.9753 C   0  0  0  0  0  0
  -29.2904  -22.8742   20.5618 C   0  0  0  0  0  0
  -27.7895  -16.4500   22.6872 C   0  0  0  0  0  0
  -28.4525  -25.2831   20.5786 C   0  0  0  0  0  0
  -28.4823  -17.2933   21.9002 C   0  0  0  0  0  0
  -29.6483  -24.2502   18.5979 C   0  0  0  0  0  0
  -29.9916  -22.7819   18.3434 C   0  0  0  0  0  0
  -30.8355  -16.9780   22.6408 C   0  0  0  0  0  0
  -29.9129  -17.0562   21.4061 C   0  0  2  0  0  0
  -29.9000  -22.0657   19.6321 N   0  0  0  0  0  0
  -29.8118  -15.6685   20.8206 N   0  0  0  0  0  0
  -29.0043  -22.5307   21.7119 O   0  0  0  0  0  0
  -31.4916  -12.5329   19.1289 H   0  0  0  0  0  0
  -30.3983  -11.3937   19.8639 H   0  0  0  0  0  0
  -29.7867  -11.7769   17.4569 H   0  0  0  0  0  0
  -29.6658  -13.4961   17.7465 H   0  0  0  0  0  0
  -27.8616  -11.3053   18.8210 H   0  0  0  0  0  0
  -27.3943  -12.6196   17.7744 H   0  0  0  0  0  0
  -27.6787  -14.2573   19.5367 H   0  0  0  0  0  0
  -28.7262  -12.0157   21.3297 H   0  0  0  0  0  0
  -28.4517  -13.6497   21.8483 H   0  0  0  0  0  0
  -25.2798   -9.5658   22.4744 H   0  0  0  0  0  0
  -23.9995   -7.4650   22.7496 H   0  0  0  0  0  0
  -21.0821   -8.8798   19.8991 H   0  0  0  0  0  0
  -22.3724  -10.9677   19.6162 H   0  0  0  0  0  0
  -21.2026   -7.6155   23.9696 H   0  0  0  0  0  0
  -21.1472   -6.0557   25.9078 H   0  0  0  0  0  0
  -22.0601   -2.7596   23.2890 H   0  0  0  0  0  0
  -22.4141  -11.9915   22.4762 H   0  0  0  0  0  0
  -21.1138  -13.1289   22.2524 H   0  0  0  0  0  0
  -24.6568  -15.8358   20.4979 H   0  0  0  0  0  0
  -26.2773  -15.6279   20.0659 H   0  0  0  0  0  0
  -26.7183  -32.5516   23.1194 H   0  0  0  0  0  0
  -25.0089  -33.9807   25.0426 H   0  0  0  0  0  0
  -22.7094  -31.2991   21.4002 H   0  0  0  0  0  0
  -23.3748  -35.9621   23.3344 H   0  0  0  0  0  0
  -24.3538  -36.8873   22.2016 H   0  0  0  0  0  0
  -23.7248  -37.6518   23.6625 H   0  0  0  0  0  0
  -26.0572  -31.5610   20.5953 H   0  0  0  0  0  0
  -26.8480  -30.8726   21.9825 H   0  0  0  0  0  0
  -28.1351  -29.0407   21.1661 H   0  0  0  0  0  0
  -26.0691  -25.9184   19.0435 H   0  0  0  0  0  0
  -23.9903  -27.2595   19.0684 H   0  0  0  0  0  0
  -23.7412  -30.5740   19.4148 H   0  0  0  0  0  0
  -22.7625  -29.2166   19.8781 H   0  0  0  0  0  0
  -25.1266  -36.1967   25.0802 H   0  0  0  0  0  0
  -20.9874  -28.3364   24.1445 H   0  0  0  0  0  0
  -20.5659  -26.2395   23.3659 H   0  0  0  0  0  0
  -21.6645  -26.7526   22.1199 H   0  0  0  0  0  0
  -19.6957  -25.6340   21.1274 H   0  0  0  0  0  0
  -19.6676  -27.3231   20.6766 H   0  0  0  0  0  0
  -17.4165  -26.6702   21.4041 H   0  0  0  0  0  0
  -18.0334  -26.0077   22.9008 H   0  0  0  0  0  0
  -19.7893  -30.7226   24.2413 H   0  0  0  0  0  0
  -17.5000  -31.6319   24.5132 H   0  0  0  0  0  0
  -15.5327  -30.3061   23.7620 H   0  0  0  0  0  0
  -15.8651  -28.0826   22.7180 H   0  0  0  0  0  0
  -24.5881  -30.7186   25.7722 H   0  0  0  0  0  0
  -24.9064  -32.2906   26.4959 H   0  0  0  0  0  0
  -25.8046  -30.8783   27.0173 H   0  0  0  0  0  0
  -26.2855  -29.6791   24.1122 H   0  0  0  0  0  0
  -27.3931  -29.7155   25.4645 H   0  0  0  0  0  0
  -27.8791  -30.4220   23.9417 H   0  0  0  0  0  0
  -27.2811  -33.3510   26.2198 H   0  0  0  0  0  0
  -28.3888  -32.6911   25.0247 H   0  0  0  0  0  0
  -28.0945  -31.8311   26.5270 H   0  0  0  0  0  0
  -28.2570  -38.0083   24.7461 H   0  0  0  0  0  0
  -28.1070  -36.2632   24.6283 H   0  0  0  0  0  0
  -27.2307  -37.1407   25.8846 H   0  0  0  0  0  0
  -20.9410  -29.8693   21.6770 H   0  0  0  0  0  0
  -26.0177  -38.2861   24.1457 H   0  0  0  0  0  0
  -32.9700  -18.8442   18.2968 H   0  0  0  0  0  0
  -32.0134  -17.0661   19.6580 H   0  0  0  0  0  0
  -32.0441  -21.0672   18.2932 H   0  0  0  0  0  0
  -29.1054  -19.8788   21.2308 H   0  0  0  0  0  0
  -26.7754  -16.6823   22.9793 H   0  0  0  0  0  0
  -28.2118  -15.5232   23.0536 H   0  0  0  0  0  0
  -28.0291  -25.2415   21.5757 H   0  0  0  0  0  0
  -27.9651  -18.1897   21.5888 H   0  0  0  0  0  0
  -30.5427  -24.8763   18.5874 H   0  0  0  0  0  0
  -28.9402  -24.6438   17.8665 H   0  0  0  0  0  0
  -30.9551  -22.7296   17.8418 H   0  0  0  0  0  0
  -29.2515  -22.3341   17.6807 H   0  0  0  0  0  0
  -30.8172  -17.9109   23.2071 H   0  0  0  0  0  0
  -31.8703  -16.7993   22.3473 H   0  0  0  0  0  0
  -30.5444  -16.1754   23.3195 H   0  0  0  0  0  0
  -28.8549  -15.3567   20.8449 H   0  0  0  0  0  0
  1 25  1  0  0  0
  1 30  2  0  0  0
  1 87  1  0  0  0
  2  3  1  0  0  0
  2 25  1  0  0  0
  2 89  1  0  0  0
  2 90  1  0  0  0
  3  4  1  0  0  0
  3 91  1  0  0  0
  3 92  1  0  0  0
  4  5  1  0  0  0
  4 93  1  0  0  0
  4 94  1  0  0  0
  5  6  1  0  0  0
  5 26  1  0  0  0
  5 95  1  0  0  0
  6 25  1  0  0  0
  6 96  1  0  0  0
  6 97  1  0  0  0
  7  8  2  0  0  0
  7 26  1  0  0  0
  7 29  1  0  0  0
  8  9  1  0  0  0
  8 22  1  0  0  0
  9 10  1  0  0  0
  9 27  2  0  0  0
 10 11  2  0  0  0
 10 15  1  0  0  0
 11 12  1  0  0  0
 11 98  1  0  0  0
 12 13  2  0  0  0
 12 99  1  0  0  0
 13 14  1  0  0  0
 13 31  1  0  0  0
 14 15  2  0  0  0
 14100  1  0  0  0
 15101  1  0  0  0
 16 17  2  0  0  0
 16 21  1  0  0  0
 16 31  1  0  0  0
 17 18  1  0  0  0
 17102  1  0  0  0
 18 19  2  0  0  0
 18103  1  0  0  0
 19 20  1  0  0  0
 19 24  1  0  0  0
 20 21  2  0  0  0
 20104  1  0  0  0
 21 23  1  0  0  0
 22 28  1  0  0  0
 22 32  2  0  0  0
 26 27  1  0  0  0
 28105  1  0  0  0
 28106  1  0  0  0
 29107  1  0  0  0
 29108  1  0  0  0
 33 34  1  0  0  0
 33 66  1  0  0  0
 33 70  2  0  0  0
 34 36  1  0  0  0
 34 59  1  0  0  0
 34109  1  0  0  0
 35 44  2  0  0  0
 35 45  1  0  0  0
 35 68  1  0  0  0
 36 56  1  0  0  0
 36110  1  0  0  0
 37 39  1  0  0  0
 37 47  1  0  0  0
 37 66  1  0  0  0
 37111  1  0  0  0
 38 43  2  0  0  0
 38 46  1  0  0  0
 38 47  1  0  0  0
 39 64  1  0  0  0
 39 67  2  0  0  0
 40 52  1  0  0  0
 40 53  2  0  0  0
 40 58  1  0  0  0
 41112  1  0  0  0
 41113  1  0  0  0
 41114  1  0  0  0
 41 48  1  0  0  0
 42 43  1  0  0  0
 42 66  1  0  0  0
 42115  1  0  0  0
 42116  1  0  0  0
 43 44  1  0  0  0
 44117  1  0  0  0
 45 46  2  0  0  0
 45118  1  0  0  0
 46119  1  0  0  0
 47120  1  0  0  0
 47121  1  0  0  0
 48 56  1  0  0  0
 48 65  1  0  0  0
 48122  1  0  0  0
 49 50  1  0  0  0
 49 53  1  0  0  0
 49 64  1  0  0  0
 49123  1  0  0  0
 50 51  1  0  0  0
 50124  1  0  0  0
 50125  1  0  0  0
 51 52  1  0  0  0
 51126  1  0  0  0
 51127  1  0  0  0
 52128  1  0  0  0
 52129  1  0  0  0
 53 54  1  0  0  0
 54 55  2  0  0  0
 54130  1  0  0  0
 55 57  1  0  0  0
 55131  1  0  0  0
 56 69  2  0  0  0
 57 58  2  0  0  0
 57132  1  0  0  0
 58133  1  0  0  0
 59 60  1  0  0  0
 59 61  1  0  0  0
 59 62  1  0  0  0
 60134  1  0  0  0
 60135  1  0  0  0
 60136  1  0  0  0
 61137  1  0  0  0
 61138  1  0  0  0
 61139  1  0  0  0
 62140  1  0  0  0
 62141  1  0  0  0
 62142  1  0  0  0
 63 65  1  0  0  0
 63143  1  0  0  0
 63144  1  0  0  0
 63145  1  0  0  0
 64146  1  0  0  0
 65147  1  0  0  0
 68 80  1  0  0  0
 71 72  2  0  0  0
 71 73  1  0  0  0
 71148  1  0  0  0
 72 75  1  0  0  0
 72149  1  0  0  0
 73 76  2  0  0  0
 73150  1  0  0  0
 74 75  2  0  0  0
 74 76  1  0  0  0
 74151  1  0  0  0
 75 85  1  0  0  0
 76 86  1  0  0  0
 77 78  1  0  0  0
 77 80  2  0  0  0
 77 82  1  0  0  0
 78 86  1  0  0  0
 78 88  2  0  0  0
 79 81  2  0  0  0
 79152  1  0  0  0
 79153  1  0  0  0
 80154  1  0  0  0
 81155  1  0  0  0
 81 85  1  0  0  0
 82 83  1  0  0  0
 82156  1  0  0  0
 82157  1  0  0  0
 83 86  1  0  0  0
 83158  1  0  0  0
 83159  1  0  0  0
 84160  1  0  0  0
 84161  1  0  0  0
 84162  1  0  0  0
 84 85  1  0  0  0
 85 87  1  0  0  0
 87163  1  0  0  0
M  ISO  4   1 100  68 101  80 101  87 100
M  END
> <chiral flag>
0

> <version>
0

> <s_m_source_file>
/data/baiqing/PycharmProjects/Reinvent-master-3.2/result/LINK_invent/BTK/process_docking_weight1_custom_product_contain_oxygen_bond_distance_aromatic_linkinvent_7_9_3/rearranged_h_0083.sdf

> <i_m_source_file_index>
59

> <r_mmod_Potential_Energy-OPLS-2005>
132.255279541016

> <r_mmod_Stretch_Energy-OPLS-2005>
82.8012390136719

> <r_mmod_Bend_Energy-OPLS-2005>
191.791687011719

> <r_mmod_Torsional_Energy-OPLS-2005>
272.913360595703

> <r_mmod_Improper_Torsional_Energy-OPLS-2005>
5.27811574935913

> <r_mmod_Van_der_Waal_Energy-OPLS-2005>
141.232635498047

> <r_mmod_Electrostatic_Energy-OPLS-2005>
-395.269836425781

> <r_mmod_Solvation_Energy-OPLS-2005>
-203.930450439453

> <b_mmod_Minimization_Converged-OPLS-2005>
0

> <r_mmod_RMS_Derivative-OPLS-2005>
6.36450004577637

$$$$
59
                    3D
 Structure written by MMmdl.
146154  0  0  1  0            999 V2000
  -30.4907  -14.9884   20.4164 C   0  0  0  0  0  0
  -30.4537  -12.6136   19.4950 C   0  0  0  0  0  0
  -29.5276  -12.5393   18.2565 C   0  0  0  0  0  0
  -28.0606  -12.3164   18.6745 C   0  0  0  0  0  0
  -27.6316  -13.2463   19.8388 C   0  0  2  0  0  0
  -28.6759  -13.2664   20.9753 C   0  0  0  0  0  0
  -25.2471  -13.8210   20.5705 C   0  0  0  0  0  0
  -24.1788  -13.0432   20.9224 C   0  0  0  0  0  0
  -24.6403  -11.6918   20.8748 C   0  0  0  0  0  0
  -23.9083  -10.4291   21.0405 C   0  0  0  0  0  0
  -24.3628   -9.4205   21.9184 C   0  0  0  0  0  0
  -23.6298   -8.2244   22.0755 C   0  0  0  0  0  0
  -22.4279   -8.0283   21.3545 C   0  0  0  0  0  0
  -21.9919   -9.0257   20.4647 C   0  0  0  0  0  0
  -22.7253  -10.2134   20.3055 C   0  0  0  0  0  0
  -21.6855   -6.0736   22.5278 C   0  0  0  0  0  0
  -21.4016   -6.5639   23.8212 C   0  0  0  0  0  0
  -21.3660   -5.6792   24.9174 C   0  0  0  0  0  0
  -21.6044   -4.3055   24.7224 C   0  0  0  0  0  0
  -21.8819   -3.8147   23.4345 C   0  0  0  0  0  0
  -21.9193   -4.6964   22.3402 C   0  0  0  0  0  0
  -22.7807  -13.5204   21.1882 C   0  0  0  0  0  0
  -22.1662   -4.2149   21.0979 F   0  0  0  0  0  0
  -21.5628   -3.4538   25.7737 F   0  0  0  0  0  0
  -29.9482  -13.7013   20.3803 N   0  0  0  0  0  0
  -26.2898  -12.9439   20.3236 N   0  0  0  0  0  0
  -25.9335  -11.6568   20.5726 N   0  0  0  0  0  0
  -22.0459  -12.8192   22.0439 N   0  0  0  0  0  0
  -25.4074  -15.1947   20.4142 N   0  0  0  0  0  0
  -31.6958  -15.1024   20.1617 O   0  0  0  0  0  0
  -21.6642   -6.8881   21.4241 O   0  0  0  0  0  0
  -22.3482  -14.5506   20.6727 O   0  0  0  0  0  0
  -24.6464  -31.8412   23.1858 C   0  0  0  0  0  0
  -25.9222  -32.4680   23.8260 C   0  0  1  0  0  0
  -27.2202  -27.1026   20.1625 C   0  0  0  0  0  0
  -25.5959  -33.8487   24.2176 N   0  0  0  0  0  0
  -23.4523  -30.4587   21.5319 C   0  0  2  0  0  0
  -24.9036  -28.8763   20.1156 C   0  0  0  0  0  0
  -22.7583  -29.4532   22.4851 C   0  0  0  0  0  0
  -18.0308  -28.1398   22.8475 C   0  0  0  0  0  0
  -24.1492  -36.7248   23.2643 C   0  0  0  0  0  0
  -26.0104  -30.7030   21.3914 C   0  0  0  0  0  0
  -26.0817  -29.3085   20.7390 C   0  0  0  0  0  0
  -27.2407  -28.4382   20.7460 C   0  0  0  0  0  0
  -26.0169  -26.7823   19.4952 C   0  0  0  0  0  0
  -24.8849  -27.6266   19.4788 C   0  0  0  0  0  0
  -23.6824  -29.7839   20.1536 C   0  0  0  0  0  0
  -25.4126  -36.3024   24.0313 C   0  0  1  0  0  0
  -20.5922  -28.3728   23.1228 C   0  0  2  0  0  0
  -20.6792  -26.9428   22.5403 C   0  0  0  0  0  0
  -19.5766  -26.6381   21.5212 C   0  0  0  0  0  0
  -18.1947  -26.7935   22.1623 C   0  0  0  0  0  0
  -19.1565  -28.8881   23.2843 C   0  0  0  0  0  0
  -18.9480  -30.1475   23.8871 C   0  0  0  0  0  0
  -17.6476  -30.6593   24.0558 C   0  0  0  0  0  0
  -25.9078  -34.9399   23.5055 C   0  0  0  0  0  0
  -16.5367  -29.9084   23.6337 C   0  0  0  0  0  0
  -16.7292  -28.6503   23.0358 C   0  0  0  0  0  0
  -26.4533  -31.6559   25.0715 C   0  0  0  0  0  0
  -25.3708  -31.3758   26.1403 C   0  0  0  0  0  0
  -27.0404  -30.2949   24.6323 C   0  0  0  0  0  0
  -27.6056  -32.4333   25.7505 C   0  0  0  0  0  0
  -27.5576  -37.1782   24.8466 C   0  0  0  0  0  0
  -21.4272  -29.3048   22.3597 N   0  0  0  0  0  0
  -26.4287  -37.3739   23.9407 N   0  0  0  0  0  0
  -24.7230  -31.0233   22.0913 N   0  0  0  0  0  0
  -23.4210  -28.8081   23.3017 O   0  0  0  0  0  0
  -28.2684  -26.0993   20.1677 O   0  0  0  0  0  0
  -26.5667  -34.8902   22.4636 O   0  0  0  0  0  0
  -23.5574  -32.1307   23.7054 O   0  0  0  0  0  0
  -30.1867  -20.1172   20.8334 C   0  0  0  0  0  0
  -30.4822  -18.6729   20.8115 C   0  0  0  0  0  0
  -28.0287  -19.6834   20.0255 C   0  0  0  0  0  0
  -28.9267  -20.7219   20.4527 C   0  0  0  0  0  0
  -29.5407  -17.6433   20.4302 C   0  0  0  0  0  0
  -28.3061  -18.2558   20.0249 C   0  0  0  0  0  0
  -28.0398  -24.6723   20.4797 C   0  0  0  0  0  0
  -28.3908  -22.2185   20.7795 C   0  0  0  0  0  0
  -28.7592  -23.5406   20.2062 N   0  0  0  0  0  0
  -29.6026  -16.0979   20.5289 N   0  0  0  0  0  0
  -27.4957  -22.1675   21.6250 O   0  0  0  0  0  0
  -27.3048  -17.4214   19.6532 F   0  0  0  0  0  0
  -31.4818  -12.7989   19.1799 H   0  0  0  0  0  0
  -30.4701  -11.6609   20.0266 H   0  0  0  0  0  0
  -29.8525  -11.7416   17.5872 H   0  0  0  0  0  0
  -29.6066  -13.4669   17.6874 H   0  0  0  0  0  0
  -27.9613  -11.2747   18.9820 H   0  0  0  0  0  0
  -27.3971  -12.4461   17.8187 H   0  0  0  0  0  0
  -27.5925  -14.2487   19.4117 H   0  0  0  0  0  0
  -28.7725  -12.2832   21.4383 H   0  0  0  0  0  0
  -28.3690  -13.9501   21.7686 H   0  0  0  0  0  0
  -25.2771   -9.5682   22.4762 H   0  0  0  0  0  0
  -24.0004   -7.4636   22.7476 H   0  0  0  0  0  0
  -21.0849   -8.8780   19.8953 H   0  0  0  0  0  0
  -22.3712  -10.9674   19.6165 H   0  0  0  0  0  0
  -21.2010   -7.6147   23.9715 H   0  0  0  0  0  0
  -21.1482   -6.0522   25.9077 H   0  0  0  0  0  0
  -22.0598   -2.7609   23.2846 H   0  0  0  0  0  0
  -22.4084  -11.9859   22.4830 H   0  0  0  0  0  0
  -21.1075  -13.1212   22.2645 H   0  0  0  0  0  0
  -24.6263  -15.8300   20.5310 H   0  0  0  0  0  0
  -26.2313  -15.6627   20.0553 H   0  0  0  0  0  0
  -26.7288  -32.5278   23.0987 H   0  0  0  0  0  0
  -25.0082  -33.9598   25.0307 H   0  0  0  0  0  0
  -22.7567  -31.2855   21.3734 H   0  0  0  0  0  0
  -23.3761  -35.9574   23.3291 H   0  0  0  0  0  0
  -24.3577  -36.8897   22.2061 H   0  0  0  0  0  0
  -23.7243  -37.6437   23.6692 H   0  0  0  0  0  0
  -26.1690  -31.4525   20.6148 H   0  0  0  0  0  0
  -26.8797  -30.7573   22.0350 H   0  0  0  0  0  0
  -28.1405  -28.7679   21.2461 H   0  0  0  0  0  0
  -25.9314  -25.8283   18.9943 H   0  0  0  0  0  0
  -23.9880  -27.2923   18.9754 H   0  0  0  0  0  0
  -23.8239  -30.5561   19.3966 H   0  0  0  0  0  0
  -22.7964  -29.2281   19.8413 H   0  0  0  0  0  0
  -25.1316  -36.1848   25.0805 H   0  0  0  0  0  0
  -21.0013  -28.3321   24.1350 H   0  0  0  0  0  0
  -20.5684  -26.2343   23.3626 H   0  0  0  0  0  0
  -21.6658  -26.7430   22.1203 H   0  0  0  0  0  0
  -19.6928  -25.6284   21.1261 H   0  0  0  0  0  0
  -19.6702  -27.3175   20.6729 H   0  0  0  0  0  0
  -17.4216  -26.6678   21.4027 H   0  0  0  0  0  0
  -18.0347  -26.0084   22.9026 H   0  0  0  0  0  0
  -19.7956  -30.7298   24.2230 H   0  0  0  0  0  0
  -17.5029  -31.6271   24.5163 H   0  0  0  0  0  0
  -15.5366  -30.2977   23.7675 H   0  0  0  0  0  0
  -15.8693  -28.0811   22.7090 H   0  0  0  0  0  0
  -24.5898  -30.7093   25.7723 H   0  0  0  0  0  0
  -24.8883  -32.2941   26.4759 H   0  0  0  0  0  0
  -25.7983  -30.8979   27.0226 H   0  0  0  0  0  0
  -26.3031  -29.6662   24.1317 H   0  0  0  0  0  0
  -27.3987  -29.7261   25.4914 H   0  0  0  0  0  0
  -27.8952  -30.4173   23.9668 H   0  0  0  0  0  0
  -27.2644  -33.3657   26.2016 H   0  0  0  0  0  0
  -28.3903  -32.6855   25.0361 H   0  0  0  0  0  0
  -28.0683  -31.8503   26.5479 H   0  0  0  0  0  0
  -28.2584  -38.0086   24.7510 H   0  0  0  0  0  0
  -28.1080  -36.2614   24.6297 H   0  0  0  0  0  0
  -27.2292  -37.1433   25.8869 H   0  0  0  0  0  0
  -20.9492  -29.8753   21.6762 H   0  0  0  0  0  0
  -26.0151  -38.2806   24.1408 H   0  0  0  0  0  0
  -30.9509  -20.7735   21.2267 H   0  0  0  0  0  0
  -31.4522  -18.3564   21.1678 H   0  0  0  0  0  0
  -27.0258  -19.9792   19.7538 H   0  0  0  0  0  0
  -27.1181  -24.5646   21.0594 H   0  0  0  0  0  0
  -28.6658  -15.7314   20.5972 H   0  0  0  0  0  0
  1 25  1  0  0  0
  1 30  2  0  0  0
  1 80  1  0  0  0
  2  3  1  0  0  0
  2 25  1  0  0  0
  2 83  1  0  0  0
  2 84  1  0  0  0
  3  4  1  0  0  0
  3 85  1  0  0  0
  3 86  1  0  0  0
  4  5  1  0  0  0
  4 87  1  0  0  0
  4 88  1  0  0  0
  5  6  1  0  0  0
  5 26  1  0  0  0
  5 89  1  0  0  0
  6 25  1  0  0  0
  6 90  1  0  0  0
  6 91  1  0  0  0
  7  8  2  0  0  0
  7 26  1  0  0  0
  7 29  1  0  0  0
  8  9  1  0  0  0
  8 22  1  0  0  0
  9 10  1  0  0  0
  9 27  2  0  0  0
 10 11  2  0  0  0
 10 15  1  0  0  0
 11 12  1  0  0  0
 11 92  1  0  0  0
 12 13  2  0  0  0
 12 93  1  0  0  0
 13 14  1  0  0  0
 13 31  1  0  0  0
 14 15  2  0  0  0
 14 94  1  0  0  0
 15 95  1  0  0  0
 16 17  2  0  0  0
 16 21  1  0  0  0
 16 31  1  0  0  0
 17 18  1  0  0  0
 17 96  1  0  0  0
 18 19  2  0  0  0
 18 97  1  0  0  0
 19 20  1  0  0  0
 19 24  1  0  0  0
 20 21  2  0  0  0
 20 98  1  0  0  0
 21 23  1  0  0  0
 22 28  1  0  0  0
 22 32  2  0  0  0
 26 27  1  0  0  0
 28 99  1  0  0  0
 28100  1  0  0  0
 29101  1  0  0  0
 29102  1  0  0  0
 33 34  1  0  0  0
 33 66  1  0  0  0
 33 70  2  0  0  0
 34 36  1  0  0  0
 34 59  1  0  0  0
 34103  1  0  0  0
 35 44  2  0  0  0
 35 45  1  0  0  0
 35 68  1  0  0  0
 36 56  1  0  0  0
 36104  1  0  0  0
 37 39  1  0  0  0
 37 47  1  0  0  0
 37 66  1  0  0  0
 37105  1  0  0  0
 38 43  2  0  0  0
 38 46  1  0  0  0
 38 47  1  0  0  0
 39 64  1  0  0  0
 39 67  2  0  0  0
 40 52  1  0  0  0
 40 53  2  0  0  0
 40 58  1  0  0  0
 41106  1  0  0  0
 41107  1  0  0  0
 41108  1  0  0  0
 41 48  1  0  0  0
 42 43  1  0  0  0
 42 66  1  0  0  0
 42109  1  0  0  0
 42110  1  0  0  0
 43 44  1  0  0  0
 44111  1  0  0  0
 45 46  2  0  0  0
 45112  1  0  0  0
 46113  1  0  0  0
 47114  1  0  0  0
 47115  1  0  0  0
 48 56  1  0  0  0
 48 65  1  0  0  0
 48116  1  0  0  0
 49 50  1  0  0  0
 49 53  1  0  0  0
 49 64  1  0  0  0
 49117  1  0  0  0
 50 51  1  0  0  0
 50118  1  0  0  0
 50119  1  0  0  0
 51 52  1  0  0  0
 51120  1  0  0  0
 51121  1  0  0  0
 52122  1  0  0  0
 52123  1  0  0  0
 53 54  1  0  0  0
 54 55  2  0  0  0
 54124  1  0  0  0
 55 57  1  0  0  0
 55125  1  0  0  0
 56 69  2  0  0  0
 57 58  2  0  0  0
 57126  1  0  0  0
 58127  1  0  0  0
 59 60  1  0  0  0
 59 61  1  0  0  0
 59 62  1  0  0  0
 60128  1  0  0  0
 60129  1  0  0  0
 60130  1  0  0  0
 61131  1  0  0  0
 61132  1  0  0  0
 61133  1  0  0  0
 62134  1  0  0  0
 62135  1  0  0  0
 62136  1  0  0  0
 63 65  1  0  0  0
 63137  1  0  0  0
 63138  1  0  0  0
 63139  1  0  0  0
 64140  1  0  0  0
 65141  1  0  0  0
 68 77  1  0  0  0
 71 72  2  0  0  0
 71 74  1  0  0  0
 71142  1  0  0  0
 72 75  1  0  0  0
 72143  1  0  0  0
 73 74  2  0  0  0
 73 76  1  0  0  0
 73144  1  0  0  0
 74 78  1  0  0  0
 75 76  2  0  0  0
 75 80  1  0  0  0
 76 82  1  0  0  0
 77 79  2  0  0  0
 77145  1  0  0  0
 78 79  1  0  0  0
 78 81  2  0  0  0
 80146  1  0  0  0
M  ISO  4   1 100  68 101  77 101  80 100
M  END
> <chiral flag>
0

> <version>
0

> <s_m_source_file>
/data/baiqing/PycharmProjects/Reinvent-master-3.2/result/LINK_invent/BTK/process_docking_weight1_custom_product_contain_oxygen_bond_distance_aromatic_linkinvent_7_9_3/rearranged_h_0083.sdf

> <i_m_source_file_index>
60

> <r_mmod_Potential_Energy-OPLS-2005>
505.373352050781

> <r_mmod_Stretch_Energy-OPLS-2005>
251.301315307617

> <r_mmod_Bend_Energy-OPLS-2005>
281.185119628906

> <r_mmod_Torsional_Energy-OPLS-2005>
232.433609008789

> <r_mmod_Improper_Torsional_Energy-OPLS-2005>
8.78451347351074

> <r_mmod_Van_der_Waal_Energy-OPLS-2005>
134.64192199707

> <r_mmod_Electrostatic_Energy-OPLS-2005>
-428.645721435547

> <r_mmod_Solvation_Energy-OPLS-2005>
-197.043518066406

> <b_mmod_Minimization_Converged-OPLS-2005>
0

> <r_mmod_RMS_Derivative-OPLS-2005>
0.115087948739529

$$$$
60
                    3D
 Structure written by MMmdl.
156165  0  0  1  0            999 V2000
  -30.6290  -14.7493   20.5464 C   0  0  0  0  0  0
  -30.4324  -12.4782   19.4775 C   0  0  0  0  0  0
  -29.5133  -12.5376   18.2376 C   0  0  0  0  0  0
  -28.0412  -12.3366   18.6431 C   0  0  0  0  0  0
  -27.6418  -13.2234   19.8498 C   0  0  2  0  0  0
  -28.6764  -13.1393   20.9859 C   0  0  0  0  0  0
  -25.2529  -13.8166   20.5696 C   0  0  0  0  0  0
  -24.1806  -13.0424   20.9193 C   0  0  0  0  0  0
  -24.6392  -11.6901   20.8737 C   0  0  0  0  0  0
  -23.9077  -10.4282   21.0407 C   0  0  0  0  0  0
  -24.3631   -9.4200   21.9185 C   0  0  0  0  0  0
  -23.6299   -8.2241   22.0753 C   0  0  0  0  0  0
  -22.4280   -8.0285   21.3543 C   0  0  0  0  0  0
  -21.9919   -9.0262   20.4648 C   0  0  0  0  0  0
  -22.7254  -10.2132   20.3056 C   0  0  0  0  0  0
  -21.6855   -6.0742   22.5282 C   0  0  0  0  0  0
  -21.4014   -6.5642   23.8217 C   0  0  0  0  0  0
  -21.3652   -5.6792   24.9176 C   0  0  0  0  0  0
  -21.6042   -4.3056   24.7222 C   0  0  0  0  0  0
  -21.8821   -3.8153   23.4341 C   0  0  0  0  0  0
  -21.9194   -4.6971   22.3400 C   0  0  0  0  0  0
  -22.7833  -13.5216   21.1855 C   0  0  0  0  0  0
  -22.1663   -4.2165   21.0975 F   0  0  0  0  0  0
  -21.5624   -3.4530   25.7728 F   0  0  0  0  0  0
  -29.9878  -13.5239   20.4351 N   0  0  0  0  0  0
  -26.2932  -12.9351   20.3244 N   0  0  0  0  0  0
  -25.9311  -11.6505   20.5714 N   0  0  0  0  0  0
  -22.0480  -12.8212   22.0412 N   0  0  0  0  0  0
  -25.4240  -15.1896   20.4172 N   0  0  0  0  0  0
  -31.7451  -14.8878   20.0355 O   0  0  0  0  0  0
  -21.6635   -6.8888   21.4246 O   0  0  0  0  0  0
  -22.3524  -14.5525   20.6707 O   0  0  0  0  0  0
  -24.6351  -31.8525   23.1967 C   0  0  0  0  0  0
  -25.9158  -32.4743   23.8330 C   0  0  1  0  0  0
  -27.2259  -27.2366   20.1183 C   0  0  0  0  0  0
  -25.5933  -33.8540   24.2249 N   0  0  0  0  0  0
  -23.4341  -30.4746   21.5406 C   0  0  2  0  0  0
  -24.8817  -28.9197   20.1074 C   0  0  0  0  0  0
  -22.7536  -29.4577   22.4899 C   0  0  0  0  0  0
  -18.0300  -28.1397   22.8479 C   0  0  0  0  0  0
  -24.1479  -36.7277   23.2640 C   0  0  0  0  0  0
  -25.9839  -30.7551   21.3817 C   0  0  0  0  0  0
  -26.0557  -29.3767   20.7193 C   0  0  0  0  0  0
  -27.2270  -28.5467   20.7175 C   0  0  0  0  0  0
  -26.0193  -26.8491   19.4895 C   0  0  0  0  0  0
  -24.8698  -27.6636   19.4831 C   0  0  0  0  0  0
  -23.6549  -29.8109   20.1560 C   0  0  0  0  0  0
  -25.4106  -36.3060   24.0329 C   0  0  1  0  0  0
  -20.5905  -28.3705   23.1258 C   0  0  2  0  0  0
  -20.6787  -26.9416   22.5410 C   0  0  0  0  0  0
  -19.5760  -26.6382   21.5215 C   0  0  0  0  0  0
  -18.1941  -26.7934   22.1624 C   0  0  0  0  0  0
  -19.1556  -28.8872   23.2860 C   0  0  0  0  0  0
  -18.9471  -30.1467   23.8883 C   0  0  0  0  0  0
  -17.6468  -30.6587   24.0565 C   0  0  0  0  0  0
  -25.9054  -34.9432   23.5096 C   0  0  0  0  0  0
  -16.5363  -29.9081   23.6332 C   0  0  0  0  0  0
  -16.7286  -28.6502   23.0347 C   0  0  0  0  0  0
  -26.4500  -31.6583   25.0741 C   0  0  0  0  0  0
  -25.3706  -31.3759   26.1459 C   0  0  0  0  0  0
  -27.0350  -30.2989   24.6263 C   0  0  0  0  0  0
  -27.6048  -32.4335   25.7516 C   0  0  0  0  0  0
  -27.5575  -37.1793   24.8462 C   0  0  0  0  0  0
  -21.4237  -29.3038   22.3643 N   0  0  0  0  0  0
  -26.4281  -37.3763   23.9414 N   0  0  0  0  0  0
  -24.7038  -31.0461   22.0956 N   0  0  0  0  0  0
  -23.4222  -28.8127   23.3019 O   0  0  0  0  0  0
  -28.3022  -26.3099   20.2129 O   0  0  0  0  0  0
  -26.5634  -34.8912   22.4670 O   0  0  0  0  0  0
  -23.5490  -32.1360   23.7243 O   0  0  0  0  0  0
  -29.7387  -19.7065   21.5728 C   0  0  0  0  0  0
  -29.9865  -18.3140   21.8178 C   0  0  0  0  0  0
  -29.2169  -19.2058   19.3505 C   0  0  0  0  0  0
  -29.4614  -17.7919   19.5684 C   0  0  0  0  0  0
  -29.3234  -20.2565   20.3269 C   0  0  0  0  0  0
  -29.8575  -17.2672   20.8441 C   0  0  0  0  0  0
  -28.6215  -23.7406   19.8626 C   0  0  0  0  0  0
  -28.5864  -22.5395   19.0213 C   0  0  0  0  0  0
  -28.2856  -25.0571   19.5203 C   0  0  0  0  0  0
  -29.1110  -22.8459   21.0394 C   0  0  0  0  0  0
  -29.2377  -16.8492   18.3973 C   0  0  0  0  0  0
  -30.0236  -15.5643   22.6894 C   0  0  0  0  0  0
  -29.0367  -21.7072   20.0719 N   0  0  0  0  0  0
  -30.0249  -15.8098   21.2347 N   0  0  0  0  0  0
  -28.2659  -22.3931   17.8602 O   0  0  0  0  0  0
  -31.4734  -12.6056   19.1766 H   0  0  0  0  0  0
  -30.3836  -11.4930   19.9439 H   0  0  0  0  0  0
  -29.8091  -11.7823   17.5084 H   0  0  0  0  0  0
  -29.6293  -13.5039   17.7438 H   0  0  0  0  0  0
  -27.9088  -11.2839   18.8977 H   0  0  0  0  0  0
  -27.3849  -12.5327   17.7943 H   0  0  0  0  0  0
  -27.6392  -14.2486   19.4873 H   0  0  0  0  0  0
  -28.7181  -12.1311   21.4005 H   0  0  0  0  0  0
  -28.3485  -13.7835   21.7987 H   0  0  0  0  0  0
  -25.2777   -9.5662   22.4763 H   0  0  0  0  0  0
  -24.0002   -7.4625   22.7467 H   0  0  0  0  0  0
  -21.0850   -8.8795   19.8953 H   0  0  0  0  0  0
  -22.3726  -10.9680   19.6170 H   0  0  0  0  0  0
  -21.2008   -7.6151   23.9725 H   0  0  0  0  0  0
  -21.1469   -6.0518   25.9080 H   0  0  0  0  0  0
  -22.0604   -2.7619   23.2835 H   0  0  0  0  0  0
  -22.4091  -11.9880   22.4815 H   0  0  0  0  0  0
  -21.1110  -13.1256   22.2629 H   0  0  0  0  0  0
  -24.6638  -15.8470   20.5522 H   0  0  0  0  0  0
  -26.2894  -15.6366   20.1422 H   0  0  0  0  0  0
  -26.7235  -32.5379   23.1080 H   0  0  0  0  0  0
  -25.0066  -33.9663   25.0385 H   0  0  0  0  0  0
  -22.7312  -31.2976   21.3943 H   0  0  0  0  0  0
  -23.3745  -35.9608   23.3300 H   0  0  0  0  0  0
  -24.3571  -36.8903   22.2057 H   0  0  0  0  0  0
  -23.7230  -37.6473   23.6673 H   0  0  0  0  0  0
  -26.1298  -31.5159   20.6140 H   0  0  0  0  0  0
  -26.8580  -30.8013   22.0200 H   0  0  0  0  0  0
  -28.1206  -28.8856   21.2215 H   0  0  0  0  0  0
  -25.9218  -25.8772   19.0292 H   0  0  0  0  0  0
  -23.9683  -27.3024   19.0072 H   0  0  0  0  0  0
  -23.7875  -30.5894   19.4039 H   0  0  0  0  0  0
  -22.7711  -29.2512   19.8447 H   0  0  0  0  0  0
  -25.1283  -36.1908   25.0824 H   0  0  0  0  0  0
  -20.9990  -28.3290   24.1382 H   0  0  0  0  0  0
  -20.5684  -26.2313   23.3620 H   0  0  0  0  0  0
  -21.6657  -26.7436   22.1206 H   0  0  0  0  0  0
  -19.6918  -25.6288   21.1251 H   0  0  0  0  0  0
  -19.6694  -27.3184   20.6736 H   0  0  0  0  0  0
  -17.4209  -26.6682   21.4030 H   0  0  0  0  0  0
  -18.0334  -26.0082   22.9025 H   0  0  0  0  0  0
  -19.7946  -30.7294   24.2245 H   0  0  0  0  0  0
  -17.5016  -31.6258   24.5180 H   0  0  0  0  0  0
  -15.5358  -30.2976   23.7661 H   0  0  0  0  0  0
  -15.8688  -28.0815   22.7065 H   0  0  0  0  0  0
  -24.5878  -30.7104   25.7800 H   0  0  0  0  0  0
  -24.8901  -32.2935   26.4858 H   0  0  0  0  0  0
  -25.8010  -30.8963   27.0259 H   0  0  0  0  0  0
  -26.2946  -29.6740   24.1256 H   0  0  0  0  0  0
  -27.3967  -29.7253   25.4808 H   0  0  0  0  0  0
  -27.8848  -30.4246   23.9553 H   0  0  0  0  0  0
  -27.2644  -33.3636   26.2079 H   0  0  0  0  0  0
  -28.3859  -32.6900   25.0350 H   0  0  0  0  0  0
  -28.0713  -31.8478   26.5447 H   0  0  0  0  0  0
  -28.2587  -38.0093   24.7511 H   0  0  0  0  0  0
  -28.1074  -36.2628   24.6276 H   0  0  0  0  0  0
  -27.2303  -37.1428   25.8865 H   0  0  0  0  0  0
  -20.9444  -29.8751   21.6830 H   0  0  0  0  0  0
  -26.0158  -38.2836   24.1416 H   0  0  0  0  0  0
  -29.8682  -20.3807   22.4075 H   0  0  0  0  0  0
  -30.2814  -18.0772   22.8278 H   0  0  0  0  0  0
  -28.9075  -19.5036   18.3581 H   0  0  0  0  0  0
  -27.9835  -25.2283   18.4964 H   0  0  0  0  0  0
  -28.4252  -22.7084   21.8768 H   0  0  0  0  0  0
  -30.1271  -23.0028   21.4042 H   0  0  0  0  0  0
  -28.9453  -17.3868   17.4951 H   0  0  0  0  0  0
  -28.4426  -16.1417   18.6233 H   0  0  0  0  0  0
  -30.1438  -16.2910   18.1633 H   0  0  0  0  0  0
  -30.9084  -16.0048   23.1503 H   0  0  0  0  0  0
  -30.0437  -14.5116   22.9778 H   0  0  0  0  0  0
  -29.1375  -16.0006   23.1521 H   0  0  0  0  0  0
  1 25  1  0  0  0
  1 30  2  0  0  0
  1 84  1  0  0  0
  2  3  1  0  0  0
  2 25  1  0  0  0
  2 86  1  0  0  0
  2 87  1  0  0  0
  3  4  1  0  0  0
  3 88  1  0  0  0
  3 89  1  0  0  0
  4  5  1  0  0  0
  4 90  1  0  0  0
  4 91  1  0  0  0
  5  6  1  0  0  0
  5 26  1  0  0  0
  5 92  1  0  0  0
  6 25  1  0  0  0
  6 93  1  0  0  0
  6 94  1  0  0  0
  7  8  2  0  0  0
  7 26  1  0  0  0
  7 29  1  0  0  0
  8  9  1  0  0  0
  8 22  1  0  0  0
  9 10  1  0  0  0
  9 27  2  0  0  0
 10 11  2  0  0  0
 10 15  1  0  0  0
 11 12  1  0  0  0
 11 95  1  0  0  0
 12 13  2  0  0  0
 12 96  1  0  0  0
 13 14  1  0  0  0
 13 31  1  0  0  0
 14 15  2  0  0  0
 14 97  1  0  0  0
 15 98  1  0  0  0
 16 17  2  0  0  0
 16 21  1  0  0  0
 16 31  1  0  0  0
 17 18  1  0  0  0
 17 99  1  0  0  0
 18 19  2  0  0  0
 18100  1  0  0  0
 19 20  1  0  0  0
 19 24  1  0  0  0
 20 21  2  0  0  0
 20101  1  0  0  0
 21 23  1  0  0  0
 22 28  1  0  0  0
 22 32  2  0  0  0
 26 27  1  0  0  0
 28102  1  0  0  0
 28103  1  0  0  0
 29104  1  0  0  0
 29105  1  0  0  0
 33 34  1  0  0  0
 33 66  1  0  0  0
 33 70  2  0  0  0
 34 36  1  0  0  0
 34 59  1  0  0  0
 34106  1  0  0  0
 35 44  2  0  0  0
 35 45  1  0  0  0
 35 68  1  0  0  0
 36 56  1  0  0  0
 36107  1  0  0  0
 37 39  1  0  0  0
 37 47  1  0  0  0
 37 66  1  0  0  0
 37108  1  0  0  0
 38 43  2  0  0  0
 38 46  1  0  0  0
 38 47  1  0  0  0
 39 64  1  0  0  0
 39 67  2  0  0  0
 40 52  1  0  0  0
 40 53  2  0  0  0
 40 58  1  0  0  0
 41109  1  0  0  0
 41110  1  0  0  0
 41111  1  0  0  0
 41 48  1  0  0  0
 42 43  1  0  0  0
 42 66  1  0  0  0
 42112  1  0  0  0
 42113  1  0  0  0
 43 44  1  0  0  0
 44114  1  0  0  0
 45 46  2  0  0  0
 45115  1  0  0  0
 46116  1  0  0  0
 47117  1  0  0  0
 47118  1  0  0  0
 48 56  1  0  0  0
 48 65  1  0  0  0
 48119  1  0  0  0
 49 50  1  0  0  0
 49 53  1  0  0  0
 49 64  1  0  0  0
 49120  1  0  0  0
 50 51  1  0  0  0
 50121  1  0  0  0
 50122  1  0  0  0
 51 52  1  0  0  0
 51123  1  0  0  0
 51124  1  0  0  0
 52125  1  0  0  0
 52126  1  0  0  0
 53 54  1  0  0  0
 54 55  2  0  0  0
 54127  1  0  0  0
 55 57  1  0  0  0
 55128  1  0  0  0
 56 69  2  0  0  0
 57 58  2  0  0  0
 57129  1  0  0  0
 58130  1  0  0  0
 59 60  1  0  0  0
 59 61  1  0  0  0
 59 62  1  0  0  0
 60131  1  0  0  0
 60132  1  0  0  0
 60133  1  0  0  0
 61134  1  0  0  0
 61135  1  0  0  0
 61136  1  0  0  0
 62137  1  0  0  0
 62138  1  0  0  0
 62139  1  0  0  0
 63 65  1  0  0  0
 63140  1  0  0  0
 63141  1  0  0  0
 63142  1  0  0  0
 64143  1  0  0  0
 65144  1  0  0  0
 68 79  1  0  0  0
 71 72  2  0  0  0
 71 75  1  0  0  0
 71145  1  0  0  0
 72 76  1  0  0  0
 72146  1  0  0  0
 73 74  1  0  0  0
 73 75  2  0  0  0
 73147  1  0  0  0
 74 76  2  0  0  0
 74 81  1  0  0  0
 75 83  1  0  0  0
 76 84  1  0  0  0
 77 78  1  0  0  0
 77 79  2  0  0  0
 77 80  1  0  0  0
 78 83  1  0  0  0
 78 85  2  0  0  0
 79148  1  0  0  0
 80 83  1  0  0  0
 80149  1  0  0  0
 80150  1  0  0  0
 81151  1  0  0  0
 81152  1  0  0  0
 81153  1  0  0  0
 82 84  1  0  0  0
 82154  1  0  0  0
 82155  1  0  0  0
 82156  1  0  0  0
M  ISO  4   1 100  68 101  79 101  84 100
M  END
> <chiral flag>
0

> <version>
0

> <s_m_source_file>
/data/baiqing/PycharmProjects/Reinvent-master-3.2/result/LINK_invent/BTK/process_docking_weight1_custom_product_contain_oxygen_bond_distance_aromatic_linkinvent_7_9_3/rearranged_h_0083.sdf

> <i_m_source_file_index>
61

> <r_mmod_Potential_Energy-OPLS-2005>
411.649749755859

> <r_mmod_Stretch_Energy-OPLS-2005>
134.29850769043

> <r_mmod_Bend_Energy-OPLS-2005>
271.709838867188

> <r_mmod_Torsional_Energy-OPLS-2005>
280.900299072266

> <r_mmod_Improper_Torsional_Energy-OPLS-2005>
3.68094968795776

> <r_mmod_Van_der_Waal_Energy-OPLS-2005>
146.000305175781

> <r_mmod_Electrostatic_Energy-OPLS-2005>
-314.760467529297

> <r_mmod_Solvation_Energy-OPLS-2005>
-204.014434814453

> <b_mmod_Minimization_Converged-OPLS-2005>
0

> <r_mmod_RMS_Derivative-OPLS-2005>
1.33449554443359

$$$$
61
                    3D
 Structure written by MMmdl.
150158  0  0  1  0            999 V2000
  -30.6068  -14.6767   20.4859 C   0  0  0  0  0  0
  -30.4403  -12.4122   19.4593 C   0  0  0  0  0  0
  -29.5106  -12.5080   18.2285 C   0  0  0  0  0  0
  -28.0338  -12.3410   18.6395 C   0  0  0  0  0  0
  -27.6511  -13.2185   19.8608 C   0  0  2  0  0  0
  -28.6960  -13.0917   20.9924 C   0  0  0  0  0  0
  -25.2554  -13.8173   20.5683 C   0  0  0  0  0  0
  -24.1826  -13.0438   20.9196 C   0  0  0  0  0  0
  -24.6396  -11.6908   20.8743 C   0  0  0  0  0  0
  -23.9064  -10.4291   21.0407 C   0  0  0  0  0  0
  -24.3616   -9.4207   21.9184 C   0  0  0  0  0  0
  -23.6290   -8.2243   22.0754 C   0  0  0  0  0  0
  -22.4273   -8.0281   21.3543 C   0  0  0  0  0  0
  -21.9908   -9.0256   20.4647 C   0  0  0  0  0  0
  -22.7236  -10.2135   20.3057 C   0  0  0  0  0  0
  -21.6854   -6.0735   22.5278 C   0  0  0  0  0  0
  -21.4016   -6.5639   23.8211 C   0  0  0  0  0  0
  -21.3659   -5.6791   24.9173 C   0  0  0  0  0  0
  -21.6043   -4.3054   24.7224 C   0  0  0  0  0  0
  -21.8819   -3.8146   23.4345 C   0  0  0  0  0  0
  -21.9193   -4.6962   22.3401 C   0  0  0  0  0  0
  -22.7848  -13.5230   21.1856 C   0  0  0  0  0  0
  -22.1661   -4.2148   21.0978 F   0  0  0  0  0  0
  -21.5628   -3.4538   25.7737 F   0  0  0  0  0  0
  -30.0074  -13.4426   20.4260 N   0  0  0  0  0  0
  -26.2979  -12.9355   20.3306 N   0  0  0  0  0  0
  -25.9324  -11.6510   20.5756 N   0  0  0  0  0  0
  -22.0488  -12.8225   22.0413 N   0  0  0  0  0  0
  -25.4263  -15.1897   20.4085 N   0  0  0  0  0  0
  -31.7770  -14.8269   20.1216 O   0  0  0  0  0  0
  -21.6639   -6.8878   21.4240 O   0  0  0  0  0  0
  -22.3534  -14.5535   20.6701 O   0  0  0  0  0  0
  -24.6279  -31.8583   23.2013 C   0  0  0  0  0  0
  -25.9118  -32.4771   23.8346 C   0  0  1  0  0  0
  -27.2233  -27.3013   20.1185 C   0  0  0  0  0  0
  -25.5926  -33.8572   24.2272 N   0  0  0  0  0  0
  -23.4224  -30.4821   21.5443 C   0  0  2  0  0  0
  -24.8689  -28.9355   20.1105 C   0  0  0  0  0  0
  -22.7483  -29.4617   22.4927 C   0  0  0  0  0  0
  -18.0288  -28.1385   22.8486 C   0  0  0  0  0  0
  -24.1489  -36.7292   23.2639 C   0  0  0  0  0  0
  -25.9655  -30.7838   21.3751 C   0  0  0  0  0  0
  -26.0393  -29.4103   20.7158 C   0  0  0  0  0  0
  -27.2195  -28.6055   20.7085 C   0  0  0  0  0  0
  -26.0280  -26.8849   19.4874 C   0  0  0  0  0  0
  -24.8664  -27.6793   19.4868 C   0  0  0  0  0  0
  -23.6379  -29.8177   20.1596 C   0  0  0  0  0  0
  -25.4114  -36.3079   24.0328 C   0  0  1  0  0  0
  -20.5890  -28.3691   23.1278 C   0  0  2  0  0  0
  -20.6776  -26.9412   22.5409 C   0  0  0  0  0  0
  -19.5751  -26.6383   21.5212 C   0  0  0  0  0  0
  -18.1932  -26.7927   22.1626 C   0  0  0  0  0  0
  -19.1541  -28.8855   23.2878 C   0  0  0  0  0  0
  -18.9463  -30.1457   23.8895 C   0  0  0  0  0  0
  -17.6462  -30.6587   24.0563 C   0  0  0  0  0  0
  -25.9052  -34.9448   23.5101 C   0  0  0  0  0  0
  -16.5354  -29.9085   23.6329 C   0  0  0  0  0  0
  -16.7275  -28.6503   23.0351 C   0  0  0  0  0  0
  -26.4495  -31.6587   25.0724 C   0  0  0  0  0  0
  -25.3724  -31.3732   26.1449 C   0  0  0  0  0  0
  -27.0341  -30.3007   24.6192 C   0  0  0  0  0  0
  -27.6050  -32.4327   25.7497 C   0  0  0  0  0  0
  -27.5579  -37.1801   24.8464 C   0  0  0  0  0  0
  -21.4195  -29.3044   22.3670 N   0  0  0  0  0  0
  -26.4291  -37.3774   23.9407 N   0  0  0  0  0  0
  -24.6909  -31.0582   22.0970 N   0  0  0  0  0  0
  -23.4200  -28.8155   23.3011 O   0  0  0  0  0  0
  -28.3346  -26.4386   20.1737 O   0  0  0  0  0  0
  -26.5622  -34.8918   22.4669 O   0  0  0  0  0  0
  -23.5438  -32.1387   23.7332 O   0  0  0  0  0  0
  -31.0735  -19.3280   20.1619 C   0  0  0  0  0  0
  -28.8199  -19.4610   20.9662 C   0  0  0  0  0  0
  -31.0390  -17.9004   20.2188 C   0  0  0  0  0  0
  -28.7843  -18.0277   21.0253 C   0  0  0  0  0  0
  -29.9793  -20.1639   20.5416 C   0  0  0  0  0  0
  -29.8924  -17.1981   20.6727 C   0  0  0  0  0  0
  -30.1830  -21.7020   20.6515 C   0  0  0  0  0  0
  -29.3055  -24.0265   20.4400 C   0  0  0  0  0  0
  -28.1051  -24.9690   20.0188 C   0  0  0  0  0  0
  -29.7812  -15.7336   20.8002 N   0  0  0  0  0  0
  -29.2078  -22.6402   20.3729 N   0  0  0  0  0  0
  -31.3264  -22.0403   20.9800 O   0  0  0  0  0  0
  -30.3264  -24.6080   20.8290 O   0  0  0  0  0  0
  -31.4808  -12.5424   19.1569 H   0  0  0  0  0  0
  -30.3822  -11.4208   19.9114 H   0  0  0  0  0  0
  -29.7809  -11.7508   17.4914 H   0  0  0  0  0  0
  -29.6475  -13.4737   17.7388 H   0  0  0  0  0  0
  -27.8758  -11.2886   18.8782 H   0  0  0  0  0  0
  -27.3792  -12.5619   17.7955 H   0  0  0  0  0  0
  -27.6629  -14.2502   19.5094 H   0  0  0  0  0  0
  -28.7157  -12.0742   21.3857 H   0  0  0  0  0  0
  -28.4372  -13.7320   21.8371 H   0  0  0  0  0  0
  -25.2763   -9.5681   22.4757 H   0  0  0  0  0  0
  -23.9999   -7.4635   22.7474 H   0  0  0  0  0  0
  -21.0838   -8.8777   19.8954 H   0  0  0  0  0  0
  -22.3696  -10.9675   19.6166 H   0  0  0  0  0  0
  -21.2011   -7.6147   23.9714 H   0  0  0  0  0  0
  -21.1480   -6.0522   25.9076 H   0  0  0  0  0  0
  -22.0599   -2.7608   23.2847 H   0  0  0  0  0  0
  -22.4103  -11.9889   22.4805 H   0  0  0  0  0  0
  -21.1107  -13.1257   22.2617 H   0  0  0  0  0  0
  -24.6543  -15.8401   20.5078 H   0  0  0  0  0  0
  -26.2636  -15.6250   20.0439 H   0  0  0  0  0  0
  -26.7186  -32.5435   23.1093 H   0  0  0  0  0  0
  -25.0067  -33.9712   25.0412 H   0  0  0  0  0  0
  -22.7170  -31.3033   21.4009 H   0  0  0  0  0  0
  -23.3749  -35.9627   23.3302 H   0  0  0  0  0  0
  -24.3580  -36.8914   22.2054 H   0  0  0  0  0  0
  -23.7245  -37.6495   23.6662 H   0  0  0  0  0  0
  -26.1000  -31.5474   20.6076 H   0  0  0  0  0  0
  -26.8447  -30.8314   22.0061 H   0  0  0  0  0  0
  -28.1166  -28.9648   21.1932 H   0  0  0  0  0  0
  -25.9595  -25.9267   18.9951 H   0  0  0  0  0  0
  -23.9699  -27.3109   19.0072 H   0  0  0  0  0  0
  -23.7587  -30.5946   19.4038 H   0  0  0  0  0  0
  -22.7572  -29.2488   19.8561 H   0  0  0  0  0  0
  -25.1295  -36.1930   25.0820 H   0  0  0  0  0  0
  -20.9983  -28.3268   24.1398 H   0  0  0  0  0  0
  -20.5678  -26.2301   23.3610 H   0  0  0  0  0  0
  -21.6645  -26.7440   22.1202 H   0  0  0  0  0  0
  -19.6912  -25.6294   21.1242 H   0  0  0  0  0  0
  -19.6687  -27.3192   20.6742 H   0  0  0  0  0  0
  -17.4199  -26.6671   21.4032 H   0  0  0  0  0  0
  -18.0336  -26.0071   22.9026 H   0  0  0  0  0  0
  -19.7938  -30.7274   24.2263 H   0  0  0  0  0  0
  -17.5016  -31.6266   24.5165 H   0  0  0  0  0  0
  -15.5354  -30.2987   23.7653 H   0  0  0  0  0  0
  -15.8676  -28.0821   22.7067 H   0  0  0  0  0  0
  -24.5895  -30.7087   25.7777 H   0  0  0  0  0  0
  -24.8923  -32.2903   26.4872 H   0  0  0  0  0  0
  -25.8044  -30.8908   27.0225 H   0  0  0  0  0  0
  -26.2921  -29.6756   24.1209 H   0  0  0  0  0  0
  -27.4025  -29.7265   25.4703 H   0  0  0  0  0  0
  -27.8796  -30.4288   23.9429 H   0  0  0  0  0  0
  -27.2653  -33.3625   26.2072 H   0  0  0  0  0  0
  -28.3860  -32.6892   25.0327 H   0  0  0  0  0  0
  -28.0717  -31.8456   26.5416 H   0  0  0  0  0  0
  -28.2594  -38.0101   24.7513 H   0  0  0  0  0  0
  -28.1079  -36.2632   24.6286 H   0  0  0  0  0  0
  -27.2298  -37.1445   25.8867 H   0  0  0  0  0  0
  -20.9373  -29.8771   21.6884 H   0  0  0  0  0  0
  -26.0172  -38.2849   24.1409 H   0  0  0  0  0  0
  -31.9968  -19.7957   19.8482 H   0  0  0  0  0  0
  -27.9556  -20.0182   21.2998 H   0  0  0  0  0  0
  -31.9261  -17.3565   19.9275 H   0  0  0  0  0  0
  -27.8748  -17.5622   21.3794 H   0  0  0  0  0  0
  -27.2398  -24.6693   20.6114 H   0  0  0  0  0  0
  -27.8774  -24.7506   18.9752 H   0  0  0  0  0  0
  -28.8733  -15.4168   21.1032 H   0  0  0  0  0  0
  -28.3231  -22.2684   20.0655 H   0  0  0  0  0  0
  1 25  1  0  0  0
  1 30  2  0  0  0
  1 80  1  0  0  0
  2  3  1  0  0  0
  2 25  1  0  0  0
  2 84  1  0  0  0
  2 85  1  0  0  0
  3  4  1  0  0  0
  3 86  1  0  0  0
  3 87  1  0  0  0
  4  5  1  0  0  0
  4 88  1  0  0  0
  4 89  1  0  0  0
  5  6  1  0  0  0
  5 26  1  0  0  0
  5 90  1  0  0  0
  6 25  1  0  0  0
  6 91  1  0  0  0
  6 92  1  0  0  0
  7  8  2  0  0  0
  7 26  1  0  0  0
  7 29  1  0  0  0
  8  9  1  0  0  0
  8 22  1  0  0  0
  9 10  1  0  0  0
  9 27  2  0  0  0
 10 11  2  0  0  0
 10 15  1  0  0  0
 11 12  1  0  0  0
 11 93  1  0  0  0
 12 13  2  0  0  0
 12 94  1  0  0  0
 13 14  1  0  0  0
 13 31  1  0  0  0
 14 15  2  0  0  0
 14 95  1  0  0  0
 15 96  1  0  0  0
 16 17  2  0  0  0
 16 21  1  0  0  0
 16 31  1  0  0  0
 17 18  1  0  0  0
 17 97  1  0  0  0
 18 19  2  0  0  0
 18 98  1  0  0  0
 19 20  1  0  0  0
 19 24  1  0  0  0
 20 21  2  0  0  0
 20 99  1  0  0  0
 21 23  1  0  0  0
 22 28  1  0  0  0
 22 32  2  0  0  0
 26 27  1  0  0  0
 28100  1  0  0  0
 28101  1  0  0  0
 29102  1  0  0  0
 29103  1  0  0  0
 33 34  1  0  0  0
 33 66  1  0  0  0
 33 70  2  0  0  0
 34 36  1  0  0  0
 34 59  1  0  0  0
 34104  1  0  0  0
 35 44  2  0  0  0
 35 45  1  0  0  0
 35 68  1  0  0  0
 36 56  1  0  0  0
 36105  1  0  0  0
 37 39  1  0  0  0
 37 47  1  0  0  0
 37 66  1  0  0  0
 37106  1  0  0  0
 38 43  2  0  0  0
 38 46  1  0  0  0
 38 47  1  0  0  0
 39 64  1  0  0  0
 39 67  2  0  0  0
 40 52  1  0  0  0
 40 53  2  0  0  0
 40 58  1  0  0  0
 41107  1  0  0  0
 41108  1  0  0  0
 41109  1  0  0  0
 41 48  1  0  0  0
 42 43  1  0  0  0
 42 66  1  0  0  0
 42110  1  0  0  0
 42111  1  0  0  0
 43 44  1  0  0  0
 44112  1  0  0  0
 45 46  2  0  0  0
 45113  1  0  0  0
 46114  1  0  0  0
 47115  1  0  0  0
 47116  1  0  0  0
 48 56  1  0  0  0
 48 65  1  0  0  0
 48117  1  0  0  0
 49 50  1  0  0  0
 49 53  1  0  0  0
 49 64  1  0  0  0
 49118  1  0  0  0
 50 51  1  0  0  0
 50119  1  0  0  0
 50120  1  0  0  0
 51 52  1  0  0  0
 51121  1  0  0  0
 51122  1  0  0  0
 52123  1  0  0  0
 52124  1  0  0  0
 53 54  1  0  0  0
 54 55  2  0  0  0
 54125  1  0  0  0
 55 57  1  0  0  0
 55126  1  0  0  0
 56 69  2  0  0  0
 57 58  2  0  0  0
 57127  1  0  0  0
 58128  1  0  0  0
 59 60  1  0  0  0
 59 61  1  0  0  0
 59 62  1  0  0  0
 60129  1  0  0  0
 60130  1  0  0  0
 60131  1  0  0  0
 61132  1  0  0  0
 61133  1  0  0  0
 61134  1  0  0  0
 62135  1  0  0  0
 62136  1  0  0  0
 62137  1  0  0  0
 63 65  1  0  0  0
 63138  1  0  0  0
 63139  1  0  0  0
 63140  1  0  0  0
 64141  1  0  0  0
 65142  1  0  0  0
 68 79  1  0  0  0
 71 73  2  0  0  0
 71 75  1  0  0  0
 71143  1  0  0  0
 72 74  1  0  0  0
 72 75  2  0  0  0
 72144  1  0  0  0
 73 76  1  0  0  0
 73145  1  0  0  0
 74 76  2  0  0  0
 74146  1  0  0  0
 75 77  1  0  0  0
 76 80  1  0  0  0
 77 81  1  0  0  0
 77 82  2  0  0  0
 78 79  1  0  0  0
 78 81  1  0  0  0
 78 83  2  0  0  0
 79147  1  0  0  0
 79148  1  0  0  0
 80149  1  0  0  0
 81150  1  0  0  0
M  ISO  4   1 100  68 101  79 101  80 100
M  END
> <chiral flag>
0

> <version>
0

> <s_m_source_file>
/data/baiqing/PycharmProjects/Reinvent-master-3.2/result/LINK_invent/BTK/process_docking_weight1_custom_product_contain_oxygen_bond_distance_aromatic_linkinvent_7_9_3/rearranged_h_0083.sdf

> <i_m_source_file_index>
62

> <r_mmod_Potential_Energy-OPLS-2005>
-55.1184234619141

> <r_mmod_Stretch_Energy-OPLS-2005>
92.2701950073242

> <r_mmod_Bend_Energy-OPLS-2005>
148.72624206543

> <r_mmod_Torsional_Energy-OPLS-2005>
220.304656982422

> <r_mmod_Improper_Torsional_Energy-OPLS-2005>
5.15767621994019

> <r_mmod_Van_der_Waal_Energy-OPLS-2005>
152.321136474609

> <r_mmod_Electrostatic_Energy-OPLS-2005>
-438.132751464844

> <r_mmod_Solvation_Energy-OPLS-2005>
-295.065979003906

> <b_mmod_Minimization_Converged-OPLS-2005>
0

> <r_mmod_RMS_Derivative-OPLS-2005>
0.221084013581276

$$$$
62
                    3D
 Structure written by MMmdl.
152161  0  0  1  0            999 V2000
  -30.7339  -14.5479   20.4628 C   0  0  0  0  0  0
  -30.3972  -12.3211   19.4730 C   0  0  0  0  0  0
  -29.4967  -12.4622   18.2298 C   0  0  0  0  0  0
  -28.0159  -12.3395   18.6332 C   0  0  0  0  0  0
  -27.6452  -13.2282   19.8529 C   0  0  2  0  0  0
  -28.6882  -13.1286   20.9907 C   0  0  0  0  0  0
  -25.2503  -13.8223   20.5687 C   0  0  0  0  0  0
  -24.1789  -13.0463   20.9181 C   0  0  0  0  0  0
  -24.6371  -11.6937   20.8742 C   0  0  0  0  0  0
  -23.9056  -10.4306   21.0396 C   0  0  0  0  0  0
  -24.3618   -9.4220   21.9168 C   0  0  0  0  0  0
  -23.6296   -8.2256   22.0740 C   0  0  0  0  0  0
  -22.4277   -8.0285   21.3544 C   0  0  0  0  0  0
  -21.9903   -9.0255   20.4654 C   0  0  0  0  0  0
  -22.7221  -10.2140   20.3063 C   0  0  0  0  0  0
  -21.6862   -6.0740   22.5272 C   0  0  0  0  0  0
  -21.4020   -6.5646   23.8205 C   0  0  0  0  0  0
  -21.3650   -5.6791   24.9174 C   0  0  0  0  0  0
  -21.6045   -4.3058   24.7223 C   0  0  0  0  0  0
  -21.8823   -3.8151   23.4348 C   0  0  0  0  0  0
  -21.9186   -4.6963   22.3401 C   0  0  0  0  0  0
  -22.7808  -13.5241   21.1826 C   0  0  0  0  0  0
  -22.1654   -4.2136   21.0982 F   0  0  0  0  0  0
  -21.5619   -3.4541   25.7739 F   0  0  0  0  0  0
  -30.0108  -13.3902   20.4146 N   0  0  0  0  0  0
  -26.2941  -12.9429   20.3307 N   0  0  0  0  0  0
  -25.9317  -11.6566   20.5782 N   0  0  0  0  0  0
  -22.0475  -12.8248   22.0413 N   0  0  0  0  0  0
  -25.4190  -15.1952   20.4162 N   0  0  0  0  0  0
  -31.9272  -14.5200   20.1551 O   0  0  0  0  0  0
  -21.6654   -6.8879   21.4237 O   0  0  0  0  0  0
  -22.3479  -14.5521   20.6635 O   0  0  0  0  0  0
  -24.6164  -31.8661   23.2077 C   0  0  0  0  0  0
  -25.9066  -32.4807   23.8366 C   0  0  1  0  0  0
  -27.2165  -27.3987   20.1003 C   0  0  0  0  0  0
  -25.5930  -33.8603   24.2297 N   0  0  0  0  0  0
  -23.4068  -30.4892   21.5504 C   0  0  2  0  0  0
  -24.8525  -28.9540   20.1117 C   0  0  0  0  0  0
  -22.7424  -29.4645   22.4983 C   0  0  0  0  0  0
  -18.0292  -28.1349   22.8492 C   0  0  0  0  0  0
  -24.1499  -36.7302   23.2621 C   0  0  0  0  0  0
  -25.9413  -30.8165   21.3743 C   0  0  0  0  0  0
  -26.0166  -29.4516   20.7140 C   0  0  0  0  0  0
  -27.2073  -28.6799   20.7094 C   0  0  0  0  0  0
  -26.0424  -26.9250   19.4856 C   0  0  0  0  0  0
  -24.8618  -27.6914   19.4951 C   0  0  0  0  0  0
  -23.6153  -29.8238   20.1648 C   0  0  0  0  0  0
  -25.4120  -36.3093   24.0323 C   0  0  1  0  0  0
  -20.5881  -28.3644   23.1306 C   0  0  2  0  0  0
  -20.6775  -26.9371   22.5426 C   0  0  0  0  0  0
  -19.5759  -26.6354   21.5214 C   0  0  0  0  0  0
  -18.1940  -26.7891   22.1633 C   0  0  0  0  0  0
  -19.1543  -28.8815   23.2891 C   0  0  0  0  0  0
  -18.9461  -30.1434   23.8881 C   0  0  0  0  0  0
  -17.6463  -30.6557   24.0556 C   0  0  0  0  0  0
  -25.9060  -34.9469   23.5109 C   0  0  0  0  0  0
  -16.5355  -29.9060   23.6316 C   0  0  0  0  0  0
  -16.7290  -28.6481   23.0337 C   0  0  0  0  0  0
  -26.4462  -31.6600   25.0723 C   0  0  0  0  0  0
  -25.3722  -31.3811   26.1497 C   0  0  0  0  0  0
  -27.0230  -30.2989   24.6167 C   0  0  0  0  0  0
  -27.6052  -32.4314   25.7456 C   0  0  0  0  0  0
  -27.5634  -37.1751   24.8416 C   0  0  0  0  0  0
  -21.4155  -29.3004   22.3700 N   0  0  0  0  0  0
  -26.4277  -37.3806   23.9452 N   0  0  0  0  0  0
  -24.6725  -31.0713   22.1009 N   0  0  0  0  0  0
  -23.4177  -28.8186   23.3034 O   0  0  0  0  0  0
  -28.3189  -26.5714   20.0925 O   0  0  0  0  0  0
  -26.5608  -34.8918   22.4657 O   0  0  0  0  0  0
  -23.5353  -32.1443   23.7454 O   0  0  0  0  0  0
  -30.6241  -19.3986   21.0036 C   0  0  0  0  0  0
  -30.0610  -20.6850   21.1258 C   0  0  0  0  0  0
  -27.9014  -19.7786   20.6435 C   0  0  0  0  0  0
  -29.8452  -18.2612   20.6808 C   0  0  0  0  0  0
  -28.6834  -20.9340   20.9302 C   0  0  0  0  0  0
  -28.4545  -18.4684   20.5187 C   0  0  0  0  0  0
  -28.3294  -24.2741   20.9848 C   0  0  0  0  0  0
  -28.3969  -23.2676   22.0097 C   0  0  0  0  0  0
  -28.3509  -25.6302   21.1039 C   0  0  0  0  0  0
  -30.5757  -16.9673   20.3460 C   0  0  0  0  0  0
  -28.2810  -23.1943   19.9150 C   0  0  0  0  0  0
  -28.1481  -22.2637   21.0621 N   0  0  0  0  0  0
  -30.0686  -15.7295   20.6461 N   0  0  0  0  0  0
  -28.7272  -23.3276   23.1779 O   0  0  0  0  0  0
  -31.6764  -17.1342   19.8012 O   0  0  0  0  0  0
  -27.6414  -17.4254   20.2117 F   0  0  0  0  0  0
  -31.4467  -12.3644   19.1779 H   0  0  0  0  0  0
  -30.2660  -11.3436   19.9397 H   0  0  0  0  0  0
  -29.7490  -11.6908   17.5006 H   0  0  0  0  0  0
  -29.6736  -13.4199   17.7390 H   0  0  0  0  0  0
  -27.8347  -11.2918   18.8750 H   0  0  0  0  0  0
  -27.3759  -12.5678   17.7815 H   0  0  0  0  0  0
  -27.6528  -14.2581   19.4923 H   0  0  0  0  0  0
  -28.6691  -12.1405   21.4500 H   0  0  0  0  0  0
  -28.4626  -13.8416   21.7851 H   0  0  0  0  0  0
  -25.2783   -9.5684   22.4720 H   0  0  0  0  0  0
  -24.0008   -7.4657   22.7463 H   0  0  0  0  0  0
  -21.0821   -8.8776   19.8980 H   0  0  0  0  0  0
  -22.3672  -10.9681   19.6172 H   0  0  0  0  0  0
  -21.2041   -7.6158   23.9717 H   0  0  0  0  0  0
  -21.1457   -6.0529   25.9072 H   0  0  0  0  0  0
  -22.0611   -2.7609   23.2865 H   0  0  0  0  0  0
  -22.4129  -11.9985   22.4891 H   0  0  0  0  0  0
  -21.1084  -13.1262   22.2599 H   0  0  0  0  0  0
  -24.6534  -15.8457   20.5586 H   0  0  0  0  0  0
  -26.2819  -15.6605   20.1566 H   0  0  0  0  0  0
  -26.7134  -32.5507   23.1127 H   0  0  0  0  0  0
  -25.0062  -33.9762   25.0435 H   0  0  0  0  0  0
  -22.6973  -31.3075   21.4138 H   0  0  0  0  0  0
  -23.3772  -35.9621   23.3208 H   0  0  0  0  0  0
  -24.3611  -36.8983   22.2048 H   0  0  0  0  0  0
  -23.7228  -37.6476   23.6674 H   0  0  0  0  0  0
  -26.0763  -31.5877   20.6146 H   0  0  0  0  0  0
  -26.8186  -30.8505   22.0088 H   0  0  0  0  0  0
  -28.1064  -29.0518   21.1818 H   0  0  0  0  0  0
  -26.0405  -25.9535   19.0095 H   0  0  0  0  0  0
  -23.9669  -27.3070   19.0268 H   0  0  0  0  0  0
  -23.7233  -30.6022   19.4086 H   0  0  0  0  0  0
  -22.7374  -29.2457   19.8679 H   0  0  0  0  0  0
  -25.1271  -36.1923   25.0802 H   0  0  0  0  0  0
  -20.9984  -28.3227   24.1424 H   0  0  0  0  0  0
  -20.5661  -26.2245   23.3622 H   0  0  0  0  0  0
  -21.6646  -26.7391   22.1238 H   0  0  0  0  0  0
  -19.6910  -25.6264   21.1234 H   0  0  0  0  0  0
  -19.6710  -27.3166   20.6744 H   0  0  0  0  0  0
  -17.4213  -26.6638   21.4035 H   0  0  0  0  0  0
  -18.0346  -26.0030   22.9024 H   0  0  0  0  0  0
  -19.7938  -30.7252   24.2239 H   0  0  0  0  0  0
  -17.5004  -31.6232   24.5169 H   0  0  0  0  0  0
  -15.5346  -30.2947   23.7630 H   0  0  0  0  0  0
  -15.8708  -28.0795   22.7032 H   0  0  0  0  0  0
  -24.5805  -30.7264   25.7846 H   0  0  0  0  0  0
  -24.9051  -32.3036   26.4940 H   0  0  0  0  0  0
  -25.8041  -30.8943   27.0254 H   0  0  0  0  0  0
  -26.2777  -29.6815   24.1140 H   0  0  0  0  0  0
  -27.3817  -29.7173   25.4667 H   0  0  0  0  0  0
  -27.8703  -30.4212   23.9424 H   0  0  0  0  0  0
  -27.2654  -33.3557   26.2125 H   0  0  0  0  0  0
  -28.3786  -32.6981   25.0249 H   0  0  0  0  0  0
  -28.0799  -31.8400   26.5291 H   0  0  0  0  0  0
  -28.2513  -38.0183   24.7672 H   0  0  0  0  0  0
  -28.1258  -36.2732   24.5949 H   0  0  0  0  0  0
  -27.2380  -37.1034   25.8806 H   0  0  0  0  0  0
  -20.9312  -29.8713   21.6921 H   0  0  0  0  0  0
  -26.0145  -38.2843   24.1598 H   0  0  0  0  0  0
  -31.6971  -19.3058   21.1215 H   0  0  0  0  0  0
  -30.7240  -21.5088   21.3549 H   0  0  0  0  0  0
  -26.8366  -19.8940   20.5027 H   0  0  0  0  0  0
  -28.4048  -26.1057   22.0738 H   0  0  0  0  0  0
  -29.1932  -23.0241   19.3371 H   0  0  0  0  0  0
  -27.4070  -23.1572   19.2612 H   0  0  0  0  0  0
  -29.1184  -15.6969   20.9786 H   0  0  0  0  0  0
  1 25  1  0  0  0
  1 30  2  0  0  0
  1 83  1  0  0  0
  2  3  1  0  0  0
  2 25  1  0  0  0
  2 87  1  0  0  0
  2 88  1  0  0  0
  3  4  1  0  0  0
  3 89  1  0  0  0
  3 90  1  0  0  0
  4  5  1  0  0  0
  4 91  1  0  0  0
  4 92  1  0  0  0
  5  6  1  0  0  0
  5 26  1  0  0  0
  5 93  1  0  0  0
  6 25  1  0  0  0
  6 94  1  0  0  0
  6 95  1  0  0  0
  7  8  2  0  0  0
  7 26  1  0  0  0
  7 29  1  0  0  0
  8  9  1  0  0  0
  8 22  1  0  0  0
  9 10  1  0  0  0
  9 27  2  0  0  0
 10 11  2  0  0  0
 10 15  1  0  0  0
 11 12  1  0  0  0
 11 96  1  0  0  0
 12 13  2  0  0  0
 12 97  1  0  0  0
 13 14  1  0  0  0
 13 31  1  0  0  0
 14 15  2  0  0  0
 14 98  1  0  0  0
 15 99  1  0  0  0
 16 17  2  0  0  0
 16 21  1  0  0  0
 16 31  1  0  0  0
 17 18  1  0  0  0
 17100  1  0  0  0
 18 19  2  0  0  0
 18101  1  0  0  0
 19 20  1  0  0  0
 19 24  1  0  0  0
 20 21  2  0  0  0
 20102  1  0  0  0
 21 23  1  0  0  0
 22 28  1  0  0  0
 22 32  2  0  0  0
 26 27  1  0  0  0
 28103  1  0  0  0
 28104  1  0  0  0
 29105  1  0  0  0
 29106  1  0  0  0
 33 34  1  0  0  0
 33 66  1  0  0  0
 33 70  2  0  0  0
 34 36  1  0  0  0
 34 59  1  0  0  0
 34107  1  0  0  0
 35 44  2  0  0  0
 35 45  1  0  0  0
 35 68  1  0  0  0
 36 56  1  0  0  0
 36108  1  0  0  0
 37 39  1  0  0  0
 37 47  1  0  0  0
 37 66  1  0  0  0
 37109  1  0  0  0
 38 43  2  0  0  0
 38 46  1  0  0  0
 38 47  1  0  0  0
 39 64  1  0  0  0
 39 67  2  0  0  0
 40 52  1  0  0  0
 40 53  2  0  0  0
 40 58  1  0  0  0
 41110  1  0  0  0
 41111  1  0  0  0
 41112  1  0  0  0
 41 48  1  0  0  0
 42 43  1  0  0  0
 42 66  1  0  0  0
 42113  1  0  0  0
 42114  1  0  0  0
 43 44  1  0  0  0
 44115  1  0  0  0
 45 46  2  0  0  0
 45116  1  0  0  0
 46117  1  0  0  0
 47118  1  0  0  0
 47119  1  0  0  0
 48 56  1  0  0  0
 48 65  1  0  0  0
 48120  1  0  0  0
 49 50  1  0  0  0
 49 53  1  0  0  0
 49 64  1  0  0  0
 49121  1  0  0  0
 50 51  1  0  0  0
 50122  1  0  0  0
 50123  1  0  0  0
 51 52  1  0  0  0
 51124  1  0  0  0
 51125  1  0  0  0
 52126  1  0  0  0
 52127  1  0  0  0
 53 54  1  0  0  0
 54 55  2  0  0  0
 54128  1  0  0  0
 55 57  1  0  0  0
 55129  1  0  0  0
 56 69  2  0  0  0
 57 58  2  0  0  0
 57130  1  0  0  0
 58131  1  0  0  0
 59 60  1  0  0  0
 59 61  1  0  0  0
 59 62  1  0  0  0
 60132  1  0  0  0
 60133  1  0  0  0
 60134  1  0  0  0
 61135  1  0  0  0
 61136  1  0  0  0
 61137  1  0  0  0
 62138  1  0  0  0
 62139  1  0  0  0
 62140  1  0  0  0
 63 65  1  0  0  0
 63141  1  0  0  0
 63142  1  0  0  0
 63143  1  0  0  0
 64144  1  0  0  0
 65145  1  0  0  0
 68 79  1  0  0  0
 71 72  2  0  0  0
 71 74  1  0  0  0
 71146  1  0  0  0
 72 75  1  0  0  0
 72147  1  0  0  0
 73 75  2  0  0  0
 73 76  1  0  0  0
 73148  1  0  0  0
 74 76  2  0  0  0
 74 80  1  0  0  0
 75 82  1  0  0  0
 76 86  1  0  0  0
 77 78  1  0  0  0
 77 79  2  0  0  0
 77 81  1  0  0  0
 78 82  1  0  0  0
 78 84  2  0  0  0
 79149  1  0  0  0
 80 83  1  0  0  0
 80 85  2  0  0  0
 81 82  1  0  0  0
 81150  1  0  0  0
 81151  1  0  0  0
 83152  1  0  0  0
M  ISO  4   1 100  68 101  79 101  83 100
M  END
> <chiral flag>
0

> <version>
0

> <s_m_source_file>
/data/baiqing/PycharmProjects/Reinvent-master-3.2/result/LINK_invent/BTK/process_docking_weight1_custom_product_contain_oxygen_bond_distance_aromatic_linkinvent_7_9_3/rearranged_h_0083.sdf

> <i_m_source_file_index>
63

> <r_mmod_Potential_Energy-OPLS-2005>
62.9358177185059

> <r_mmod_Stretch_Energy-OPLS-2005>
48.2437210083008

> <r_mmod_Bend_Energy-OPLS-2005>
174.407196044922

> <r_mmod_Torsional_Energy-OPLS-2005>
275.952575683594

> <r_mmod_Improper_Torsional_Energy-OPLS-2005>
12.2748527526855

> <r_mmod_Van_der_Waal_Energy-OPLS-2005>
153.373092651367

> <r_mmod_Electrostatic_Energy-OPLS-2005>
-414.128082275391

> <r_mmod_Solvation_Energy-OPLS-2005>
-223.071670532227

> <b_mmod_Minimization_Converged-OPLS-2005>
0

> <r_mmod_RMS_Derivative-OPLS-2005>
3.7019739151001

$$$$
63
                    3D
 Structure written by MMmdl.
152161  0  0  1  0            999 V2000
  -30.7293  -14.5210   20.5792 C   0  0  0  0  0  0
  -30.4073  -12.3447   19.4401 C   0  0  0  0  0  0
  -29.4961  -12.5086   18.2105 C   0  0  0  0  0  0
  -28.0160  -12.3690   18.6159 C   0  0  0  0  0  0
  -27.6478  -13.2256   19.8581 C   0  0  2  0  0  0
  -28.6881  -13.0703   20.9889 C   0  0  0  0  0  0
  -25.2508  -13.8197   20.5649 C   0  0  0  0  0  0
  -24.1800  -13.0448   20.9165 C   0  0  0  0  0  0
  -24.6393  -11.6914   20.8730 C   0  0  0  0  0  0
  -23.9085  -10.4284   21.0388 C   0  0  0  0  0  0
  -24.3634   -9.4190   21.9155 C   0  0  0  0  0  0
  -23.6295   -8.2237   22.0740 C   0  0  0  0  0  0
  -22.4270   -8.0289   21.3549 C   0  0  0  0  0  0
  -21.9905   -9.0259   20.4652 C   0  0  0  0  0  0
  -22.7250  -10.2123   20.3045 C   0  0  0  0  0  0
  -21.6852   -6.0744   22.5284 C   0  0  0  0  0  0
  -21.4023   -6.5640   23.8223 C   0  0  0  0  0  0
  -21.3653   -5.6786   24.9180 C   0  0  0  0  0  0
  -21.6035   -4.3055   24.7224 C   0  0  0  0  0  0
  -21.8825   -3.8148   23.4351 C   0  0  0  0  0  0
  -21.9189   -4.6968   22.3402 C   0  0  0  0  0  0
  -22.7823  -13.5207   21.1846 C   0  0  0  0  0  0
  -22.1658   -4.2158   21.0977 F   0  0  0  0  0  0
  -21.5624   -3.4544   25.7731 F   0  0  0  0  0  0
  -30.0093  -13.3729   20.4222 N   0  0  0  0  0  0
  -26.2947  -12.9409   20.3272 N   0  0  0  0  0  0
  -25.9319  -11.6549   20.5709 N   0  0  0  0  0  0
  -22.0482  -12.8203   22.0418 N   0  0  0  0  0  0
  -25.4185  -15.1932   20.4074 N   0  0  0  0  0  0
  -31.8892  -14.5805   20.1606 O   0  0  0  0  0  0
  -21.6648   -6.8880   21.4247 O   0  0  0  0  0  0
  -22.3474  -14.5477   20.6654 O   0  0  0  0  0  0
  -24.6161  -31.8684   23.2088 C   0  0  0  0  0  0
  -25.9047  -32.4823   23.8376 C   0  0  1  0  0  0
  -27.2129  -27.4104   20.1106 C   0  0  0  0  0  0
  -25.5894  -33.8613   24.2311 N   0  0  0  0  0  0
  -23.4044  -30.4937   21.5508 C   0  0  2  0  0  0
  -24.8522  -28.9673   20.1033 C   0  0  0  0  0  0
  -22.7416  -29.4646   22.4962 C   0  0  0  0  0  0
  -18.0285  -28.1373   22.8490 C   0  0  0  0  0  0
  -24.1493  -36.7306   23.2628 C   0  0  0  0  0  0
  -25.9364  -30.8312   21.3660 C   0  0  0  0  0  0
  -26.0158  -29.4674   20.7045 C   0  0  0  0  0  0
  -27.2058  -28.6978   20.7043 C   0  0  0  0  0  0
  -26.0412  -26.9401   19.4849 C   0  0  0  0  0  0
  -24.8625  -27.7073   19.4815 C   0  0  0  0  0  0
  -23.6118  -29.8322   20.1625 C   0  0  0  0  0  0
  -25.4112  -36.3101   24.0330 C   0  0  1  0  0  0
  -20.5869  -28.3651   23.1327 C   0  0  2  0  0  0
  -20.6767  -26.9387   22.5424 C   0  0  0  0  0  0
  -19.5738  -26.6375   21.5219 C   0  0  0  0  0  0
  -18.1919  -26.7919   22.1634 C   0  0  0  0  0  0
  -19.1536  -28.8829   23.2910 C   0  0  0  0  0  0
  -18.9452  -30.1440   23.8920 C   0  0  0  0  0  0
  -17.6445  -30.6564   24.0566 C   0  0  0  0  0  0
  -25.9039  -34.9465   23.5121 C   0  0  0  0  0  0
  -16.5342  -29.9060   23.6321 C   0  0  0  0  0  0
  -16.7265  -28.6481   23.0335 C   0  0  0  0  0  0
  -26.4443  -31.6599   25.0717 C   0  0  0  0  0  0
  -25.3693  -31.3791   26.1460 C   0  0  0  0  0  0
  -27.0218  -30.2993   24.6131 C   0  0  0  0  0  0
  -27.6036  -32.4294   25.7469 C   0  0  0  0  0  0
  -27.5590  -37.1816   24.8445 C   0  0  0  0  0  0
  -21.4127  -29.3017   22.3725 N   0  0  0  0  0  0
  -26.4294  -37.3783   23.9398 N   0  0  0  0  0  0
  -24.6700  -31.0782   22.0999 N   0  0  0  0  0  0
  -23.4209  -28.8182   23.2994 O   0  0  0  0  0  0
  -28.2826  -26.5427   20.2028 O   0  0  0  0  0  0
  -26.5598  -34.8931   22.4687 O   0  0  0  0  0  0
  -23.5345  -32.1442   23.7467 O   0  0  0  0  0  0
  -30.7170  -19.2131   20.5839 C   0  0  0  0  0  0
  -28.6718  -18.4342   21.6002 C   0  0  0  0  0  0
  -30.1812  -20.5148   20.4727 C   0  0  0  0  0  0
  -28.1567  -19.7588   21.5105 C   0  0  0  0  0  0
  -29.9800  -18.1426   21.1460 C   0  0  0  0  0  0
  -28.8902  -20.8500   20.9553 C   0  0  0  0  0  0
  -28.2767  -24.1999   20.9865 C   0  0  0  0  0  0
  -28.0253  -23.1200   21.9126 C   0  0  0  0  0  0
  -28.0781  -25.5354   21.1360 C   0  0  0  0  0  0
  -30.6847  -16.8077   21.3430 C   0  0  0  0  0  0
  -28.8004  -23.2238   19.9514 C   0  0  0  0  0  0
  -28.3656  -22.1927   20.9243 N   0  0  0  0  0  0
  -30.0755  -15.6350   21.0182 N   0  0  0  0  0  0
  -27.7658  -23.1134   23.0987 O   0  0  0  0  0  0
  -31.8532  -16.8648   21.7528 O   0  0  0  0  0  0
  -31.4540  -12.4218   19.1419 H   0  0  0  0  0  0
  -30.3009  -11.3478   19.8713 H   0  0  0  0  0  0
  -29.7483  -11.7666   17.4523 H   0  0  0  0  0  0
  -29.6689  -13.4843   17.7548 H   0  0  0  0  0  0
  -27.8295  -11.3157   18.8207 H   0  0  0  0  0  0
  -27.3726  -12.6304   17.7747 H   0  0  0  0  0  0
  -27.6693  -14.2666   19.5322 H   0  0  0  0  0  0
  -28.6730  -12.0523   21.3788 H   0  0  0  0  0  0
  -28.4455  -13.7167   21.8329 H   0  0  0  0  0  0
  -25.2807   -9.5658   22.4709 H   0  0  0  0  0  0
  -24.0031   -7.4618   22.7447 H   0  0  0  0  0  0
  -21.0839   -8.8776   19.8949 H   0  0  0  0  0  0
  -22.3728  -10.9659   19.6146 H   0  0  0  0  0  0
  -21.2035   -7.6159   23.9731 H   0  0  0  0  0  0
  -21.1456   -6.0522   25.9082 H   0  0  0  0  0  0
  -22.0607   -2.7614   23.2860 H   0  0  0  0  0  0
  -22.4099  -11.9916   22.4891 H   0  0  0  0  0  0
  -21.1082  -13.1205   22.2563 H   0  0  0  0  0  0
  -24.6469  -15.8436   20.5066 H   0  0  0  0  0  0
  -26.2609  -15.6386   20.0683 H   0  0  0  0  0  0
  -26.7121  -32.5532   23.1156 H   0  0  0  0  0  0
  -25.0028  -33.9773   25.0439 H   0  0  0  0  0  0
  -22.6911  -31.3091   21.4184 H   0  0  0  0  0  0
  -23.3725  -35.9673   23.3328 H   0  0  0  0  0  0
  -24.3583  -36.8858   22.2032 H   0  0  0  0  0  0
  -23.7298  -37.6549   23.6609 H   0  0  0  0  0  0
  -26.0558  -31.6040   20.6048 H   0  0  0  0  0  0
  -26.8200  -30.8750   21.9902 H   0  0  0  0  0  0
  -28.0948  -29.0653   21.1962 H   0  0  0  0  0  0
  -26.0326  -25.9594   19.0321 H   0  0  0  0  0  0
  -23.9664  -27.3170   19.0182 H   0  0  0  0  0  0
  -23.7083  -30.6125   19.4060 H   0  0  0  0  0  0
  -22.7344  -29.2494   19.8722 H   0  0  0  0  0  0
  -25.1281  -36.1961   25.0820 H   0  0  0  0  0  0
  -20.9981  -28.3231   24.1439 H   0  0  0  0  0  0
  -20.5642  -26.2252   23.3612 H   0  0  0  0  0  0
  -21.6641  -26.7408   22.1241 H   0  0  0  0  0  0
  -19.6891  -25.6285   21.1238 H   0  0  0  0  0  0
  -19.6678  -27.3203   20.6770 H   0  0  0  0  0  0
  -17.4189  -26.6649   21.4030 H   0  0  0  0  0  0
  -18.0319  -26.0057   22.9024 H   0  0  0  0  0  0
  -19.7926  -30.7253   24.2273 H   0  0  0  0  0  0
  -17.4996  -31.6236   24.5161 H   0  0  0  0  0  0
  -15.5351  -30.2970   23.7601 H   0  0  0  0  0  0
  -15.8674  -28.0808   22.7029 H   0  0  0  0  0  0
  -24.5823  -30.7178   25.7813 H   0  0  0  0  0  0
  -24.8961  -32.3003   26.4858 H   0  0  0  0  0  0
  -25.7983  -30.8974   27.0254 H   0  0  0  0  0  0
  -26.2775  -29.6843   24.1049 H   0  0  0  0  0  0
  -27.3776  -29.7135   25.4624 H   0  0  0  0  0  0
  -27.8719  -30.4230   23.9416 H   0  0  0  0  0  0
  -27.2646  -33.3571   26.2085 H   0  0  0  0  0  0
  -28.3818  -32.6872   25.0277 H   0  0  0  0  0  0
  -28.0731  -31.8400   26.5359 H   0  0  0  0  0  0
  -28.2620  -38.0096   24.7472 H   0  0  0  0  0  0
  -28.1081  -36.2641   24.6285 H   0  0  0  0  0  0
  -27.2310  -37.1475   25.8843 H   0  0  0  0  0  0
  -20.9277  -29.8763   21.6975 H   0  0  0  0  0  0
  -26.0182  -38.2864   24.1385 H   0  0  0  0  0  0
  -31.7333  -19.0429   20.2504 H   0  0  0  0  0  0
  -28.0715  -17.6617   22.0654 H   0  0  0  0  0  0
  -30.8213  -21.2749   20.0460 H   0  0  0  0  0  0
  -27.1598  -19.9313   21.9051 H   0  0  0  0  0  0
  -27.6708  -25.9284   22.0590 H   0  0  0  0  0  0
  -29.8767  -23.2546   19.7754 H   0  0  0  0  0  0
  -28.2585  -23.1555   19.0060 H   0  0  0  0  0  0
  -29.0700  -15.6234   20.9971 H   0  0  0  0  0  0
  1 25  1  0  0  0
  1 30  2  0  0  0
  1 83  1  0  0  0
  2  3  1  0  0  0
  2 25  1  0  0  0
  2 86  1  0  0  0
  2 87  1  0  0  0
  3  4  1  0  0  0
  3 88  1  0  0  0
  3 89  1  0  0  0
  4  5  1  0  0  0
  4 90  1  0  0  0
  4 91  1  0  0  0
  5  6  1  0  0  0
  5 26  1  0  0  0
  5 92  1  0  0  0
  6 25  1  0  0  0
  6 93  1  0  0  0
  6 94  1  0  0  0
  7  8  2  0  0  0
  7 26  1  0  0  0
  7 29  1  0  0  0
  8  9  1  0  0  0
  8 22  1  0  0  0
  9 10  1  0  0  0
  9 27  2  0  0  0
 10 11  2  0  0  0
 10 15  1  0  0  0
 11 12  1  0  0  0
 11 95  1  0  0  0
 12 13  2  0  0  0
 12 96  1  0  0  0
 13 14  1  0  0  0
 13 31  1  0  0  0
 14 15  2  0  0  0
 14 97  1  0  0  0
 15 98  1  0  0  0
 16 17  2  0  0  0
 16 21  1  0  0  0
 16 31  1  0  0  0
 17 18  1  0  0  0
 17 99  1  0  0  0
 18 19  2  0  0  0
 18100  1  0  0  0
 19 20  1  0  0  0
 19 24  1  0  0  0
 20 21  2  0  0  0
 20101  1  0  0  0
 21 23  1  0  0  0
 22 28  1  0  0  0
 22 32  2  0  0  0
 26 27  1  0  0  0
 28102  1  0  0  0
 28103  1  0  0  0
 29104  1  0  0  0
 29105  1  0  0  0
 33 34  1  0  0  0
 33 66  1  0  0  0
 33 70  2  0  0  0
 34 36  1  0  0  0
 34 59  1  0  0  0
 34106  1  0  0  0
 35 44  2  0  0  0
 35 45  1  0  0  0
 35 68  1  0  0  0
 36 56  1  0  0  0
 36107  1  0  0  0
 37 39  1  0  0  0
 37 47  1  0  0  0
 37 66  1  0  0  0
 37108  1  0  0  0
 38 43  2  0  0  0
 38 46  1  0  0  0
 38 47  1  0  0  0
 39 64  1  0  0  0
 39 67  2  0  0  0
 40 52  1  0  0  0
 40 53  2  0  0  0
 40 58  1  0  0  0
 41109  1  0  0  0
 41110  1  0  0  0
 41111  1  0  0  0
 41 48  1  0  0  0
 42 43  1  0  0  0
 42 66  1  0  0  0
 42112  1  0  0  0
 42113  1  0  0  0
 43 44  1  0  0  0
 44114  1  0  0  0
 45 46  2  0  0  0
 45115  1  0  0  0
 46116  1  0  0  0
 47117  1  0  0  0
 47118  1  0  0  0
 48 56  1  0  0  0
 48 65  1  0  0  0
 48119  1  0  0  0
 49 50  1  0  0  0
 49 53  1  0  0  0
 49 64  1  0  0  0
 49120  1  0  0  0
 50 51  1  0  0  0
 50121  1  0  0  0
 50122  1  0  0  0
 51 52  1  0  0  0
 51123  1  0  0  0
 51124  1  0  0  0
 52125  1  0  0  0
 52126  1  0  0  0
 53 54  1  0  0  0
 54 55  2  0  0  0
 54127  1  0  0  0
 55 57  1  0  0  0
 55128  1  0  0  0
 56 69  2  0  0  0
 57 58  2  0  0  0
 57129  1  0  0  0
 58130  1  0  0  0
 59 60  1  0  0  0
 59 61  1  0  0  0
 59 62  1  0  0  0
 60131  1  0  0  0
 60132  1  0  0  0
 60133  1  0  0  0
 61134  1  0  0  0
 61135  1  0  0  0
 61136  1  0  0  0
 62137  1  0  0  0
 62138  1  0  0  0
 62139  1  0  0  0
 63 65  1  0  0  0
 63140  1  0  0  0
 63141  1  0  0  0
 63142  1  0  0  0
 64143  1  0  0  0
 65144  1  0  0  0
 68 79  1  0  0  0
 71 73  2  0  0  0
 71 75  1  0  0  0
 71145  1  0  0  0
 72 74  1  0  0  0
 72 75  2  0  0  0
 72146  1  0  0  0
 73 76  1  0  0  0
 73147  1  0  0  0
 74 76  2  0  0  0
 74148  1  0  0  0
 75 80  1  0  0  0
 76 82  1  0  0  0
 77 78  1  0  0  0
 77 79  2  0  0  0
 77 81  1  0  0  0
 78 82  1  0  0  0
 78 84  2  0  0  0
 79149  1  0  0  0
 80 83  1  0  0  0
 80 85  2  0  0  0
 81 82  1  0  0  0
 81150  1  0  0  0
 81151  1  0  0  0
 83152  1  0  0  0
M  ISO  4   1 100  68 101  79 101  83 100
M  END
> <chiral flag>
0

> <version>
0

> <s_m_source_file>
/data/baiqing/PycharmProjects/Reinvent-master-3.2/result/LINK_invent/BTK/process_docking_weight1_custom_product_contain_oxygen_bond_distance_aromatic_linkinvent_7_9_3/rearranged_h_0083.sdf

> <i_m_source_file_index>
64

> <r_mmod_Potential_Energy-OPLS-2005>
24.8535251617432

> <r_mmod_Stretch_Energy-OPLS-2005>
46.4953651428223

> <r_mmod_Bend_Energy-OPLS-2005>
178.622421264648

> <r_mmod_Torsional_Energy-OPLS-2005>
273.555725097656

> <r_mmod_Improper_Torsional_Energy-OPLS-2005>
9.22615814208984

> <r_mmod_Van_der_Waal_Energy-OPLS-2005>
151.069976806641

> <r_mmod_Electrostatic_Energy-OPLS-2005>
-429.060485839844

> <r_mmod_Solvation_Energy-OPLS-2005>
-234.706481933594

> <b_mmod_Minimization_Converged-OPLS-2005>
0

> <r_mmod_RMS_Derivative-OPLS-2005>
3.90416979789734

$$$$
64
                    3D
 Structure written by MMmdl.
152161  0  0  1  0            999 V2000
  -30.6130  -14.6499   20.5056 C   0  0  0  0  0  0
  -30.4430  -12.3996   19.4520 C   0  0  0  0  0  0
  -29.5094  -12.5124   18.2252 C   0  0  0  0  0  0
  -28.0314  -12.3486   18.6349 C   0  0  0  0  0  0
  -27.6545  -13.2158   19.8655 C   0  0  2  0  0  0
  -28.6994  -13.0623   20.9935 C   0  0  0  0  0  0
  -25.2560  -13.8173   20.5692 C   0  0  0  0  0  0
  -24.1822  -13.0441   20.9192 C   0  0  0  0  0  0
  -24.6388  -11.6913   20.8747 C   0  0  0  0  0  0
  -23.9059  -10.4293   21.0407 C   0  0  0  0  0  0
  -24.3613   -9.4208   21.9180 C   0  0  0  0  0  0
  -23.6294   -8.2245   22.0746 C   0  0  0  0  0  0
  -22.4275   -8.0281   21.3541 C   0  0  0  0  0  0
  -21.9908   -9.0253   20.4641 C   0  0  0  0  0  0
  -22.7235  -10.2134   20.3052 C   0  0  0  0  0  0
  -21.6851   -6.0742   22.5285 C   0  0  0  0  0  0
  -21.4012   -6.5643   23.8220 C   0  0  0  0  0  0
  -21.3659   -5.6792   24.9181 C   0  0  0  0  0  0
  -21.6044   -4.3055   24.7226 C   0  0  0  0  0  0
  -21.8817   -3.8151   23.4345 C   0  0  0  0  0  0
  -21.9189   -4.6971   22.3406 C   0  0  0  0  0  0
  -22.7843  -13.5239   21.1856 C   0  0  0  0  0  0
  -22.1658   -4.2160   21.0981 F   0  0  0  0  0  0
  -21.5627   -3.4535   25.7735 F   0  0  0  0  0  0
  -30.0156  -13.4158   20.4357 N   0  0  0  0  0  0
  -26.2993  -12.9352   20.3326 N   0  0  0  0  0  0
  -25.9315  -11.6509   20.5756 N   0  0  0  0  0  0
  -22.0474  -12.8239   22.0411 N   0  0  0  0  0  0
  -25.4279  -15.1896   20.4115 N   0  0  0  0  0  0
  -31.7676  -14.8244   20.1043 O   0  0  0  0  0  0
  -21.6637   -6.8882   21.4244 O   0  0  0  0  0  0
  -22.3534  -14.5552   20.6710 O   0  0  0  0  0  0
  -24.6299  -31.8600   23.2056 C   0  0  0  0  0  0
  -25.9146  -32.4778   23.8379 C   0  0  1  0  0  0
  -27.2169  -27.2994   20.1109 C   0  0  0  0  0  0
  -25.5966  -33.8578   24.2312 N   0  0  0  0  0  0
  -23.4252  -30.4906   21.5456 C   0  0  2  0  0  0
  -24.8710  -28.9531   20.1073 C   0  0  0  0  0  0
  -22.7501  -29.4653   22.4886 C   0  0  0  0  0  0
  -18.0307  -28.1400   22.8487 C   0  0  0  0  0  0
  -24.1493  -36.7275   23.2635 C   0  0  0  0  0  0
  -25.9716  -30.7843   21.3838 C   0  0  0  0  0  0
  -26.0433  -29.4129   20.7207 C   0  0  0  0  0  0
  -27.2191  -28.5977   20.7168 C   0  0  0  0  0  0
  -26.0185  -26.9159   19.4563 C   0  0  0  0  0  0
  -24.8621  -27.7106   19.4652 C   0  0  0  0  0  0
  -23.6434  -29.8375   20.1575 C   0  0  0  0  0  0
  -25.4111  -36.3077   24.0341 C   0  0  1  0  0  0
  -20.5913  -28.3725   23.1253 C   0  0  2  0  0  0
  -20.6803  -26.9442   22.5393 C   0  0  0  0  0  0
  -19.5776  -26.6394   21.5210 C   0  0  0  0  0  0
  -18.1956  -26.7946   22.1622 C   0  0  0  0  0  0
  -19.1558  -28.8874   23.2873 C   0  0  0  0  0  0
  -18.9480  -30.1468   23.8903 C   0  0  0  0  0  0
  -17.6479  -30.6598   24.0574 C   0  0  0  0  0  0
  -25.9054  -34.9449   23.5116 C   0  0  0  0  0  0
  -16.5370  -29.9101   23.6331 C   0  0  0  0  0  0
  -16.7292  -28.6518   23.0353 C   0  0  0  0  0  0
  -26.4522  -31.6571   25.0735 C   0  0  0  0  0  0
  -25.3753  -31.3714   26.1456 C   0  0  0  0  0  0
  -27.0354  -30.2991   24.6186 C   0  0  0  0  0  0
  -27.6108  -32.4273   25.7488 C   0  0  0  0  0  0
  -27.5590  -37.1785   24.8463 C   0  0  0  0  0  0
  -21.4209  -29.3078   22.3633 N   0  0  0  0  0  0
  -26.4282  -37.3780   23.9433 N   0  0  0  0  0  0
  -24.6945  -31.0610   22.1017 N   0  0  0  0  0  0
  -23.4217  -28.8171   23.2956 O   0  0  0  0  0  0
  -28.3037  -26.3973   20.1762 O   0  0  0  0  0  0
  -26.5598  -34.8920   22.4667 O   0  0  0  0  0  0
  -23.5451  -32.1401   23.7367 O   0  0  0  0  0  0
  -30.8040  -19.3318   20.0734 C   0  0  0  0  0  0
  -28.6562  -19.3138   21.1394 C   0  0  0  0  0  0
  -30.8774  -17.9043   20.1691 C   0  0  0  0  0  0
  -28.7304  -17.8927   21.2391 C   0  0  0  0  0  0
  -29.6951  -20.0937   20.5589 C   0  0  0  0  0  0
  -29.8379  -17.1388   20.7641 C   0  0  0  0  0  0
  -30.2284  -23.7745   20.6108 C   0  0  0  0  0  0
  -28.9380  -23.7751   20.2762 C   0  0  0  0  0  0
  -30.6865  -22.4012   20.7552 C   0  0  0  0  0  0
  -28.5469  -22.3545   20.2089 C   0  0  0  0  0  0
  -27.9677  -24.9628   19.9418 C   0  0  0  0  0  0
  -29.6382  -21.5789   20.4974 N   0  0  0  0  0  0
  -29.7994  -15.6782   20.9094 N   0  0  0  0  0  0
  -31.8284  -22.0433   21.0673 O   0  0  0  0  0  0
  -27.4252  -21.9192   19.9225 O   0  0  0  0  0  0
  -31.4822  -12.5350   19.1474 H   0  0  0  0  0  0
  -30.3891  -11.4014   19.8893 H   0  0  0  0  0  0
  -29.7753  -11.7617   17.4796 H   0  0  0  0  0  0
  -29.6485  -13.4822   17.7448 H   0  0  0  0  0  0
  -27.8665  -11.2947   18.8608 H   0  0  0  0  0  0
  -27.3787  -12.5830   17.7931 H   0  0  0  0  0  0
  -27.6733  -14.2527   19.5298 H   0  0  0  0  0  0
  -28.7115  -12.0355   21.3621 H   0  0  0  0  0  0
  -28.4402  -13.6796   21.8545 H   0  0  0  0  0  0
  -25.2757   -9.5691   22.4757 H   0  0  0  0  0  0
  -24.0006   -7.4632   22.7459 H   0  0  0  0  0  0
  -21.0843   -8.8774   19.8942 H   0  0  0  0  0  0
  -22.3695  -10.9677   19.6166 H   0  0  0  0  0  0
  -21.2005   -7.6150   23.9733 H   0  0  0  0  0  0
  -21.1482   -6.0516   25.9086 H   0  0  0  0  0  0
  -22.0596   -2.7615   23.2838 H   0  0  0  0  0  0
  -22.4080  -11.9901   22.4815 H   0  0  0  0  0  0
  -21.1093  -13.1270   22.2603 H   0  0  0  0  0  0
  -24.6589  -15.8430   20.5148 H   0  0  0  0  0  0
  -26.2767  -15.6301   20.0809 H   0  0  0  0  0  0
  -26.7212  -32.5449   23.1125 H   0  0  0  0  0  0
  -25.0184  -33.9726   25.0507 H   0  0  0  0  0  0
  -22.7216  -31.3136   21.4046 H   0  0  0  0  0  0
  -23.3779  -35.9580   23.3250 H   0  0  0  0  0  0
  -24.3615  -36.8922   22.2061 H   0  0  0  0  0  0
  -23.7201  -37.6452   23.6666 H   0  0  0  0  0  0
  -26.1093  -31.5509   20.6201 H   0  0  0  0  0  0
  -26.8501  -30.8279   22.0155 H   0  0  0  0  0  0
  -28.1127  -28.9422   21.2188 H   0  0  0  0  0  0
  -25.9243  -25.9789   18.9308 H   0  0  0  0  0  0
  -23.9681  -27.3581   18.9691 H   0  0  0  0  0  0
  -23.7744  -30.6211   19.4100 H   0  0  0  0  0  0
  -22.7618  -29.2758   19.8437 H   0  0  0  0  0  0
  -25.1278  -36.1923   25.0830 H   0  0  0  0  0  0
  -21.0020  -28.3312   24.1368 H   0  0  0  0  0  0
  -20.5731  -26.2340   23.3602 H   0  0  0  0  0  0
  -21.6670  -26.7488   22.1168 H   0  0  0  0  0  0
  -19.6949  -25.6301   21.1252 H   0  0  0  0  0  0
  -19.6716  -27.3196   20.6736 H   0  0  0  0  0  0
  -17.4229  -26.6701   21.4017 H   0  0  0  0  0  0
  -18.0356  -26.0081   22.9012 H   0  0  0  0  0  0
  -19.7955  -30.7281   24.2277 H   0  0  0  0  0  0
  -17.5039  -31.6280   24.5172 H   0  0  0  0  0  0
  -15.5375  -30.3015   23.7647 H   0  0  0  0  0  0
  -15.8693  -28.0841   22.7063 H   0  0  0  0  0  0
  -24.5963  -30.7019   25.7789 H   0  0  0  0  0  0
  -24.8907  -32.2876   26.4839 H   0  0  0  0  0  0
  -25.8079  -30.8936   27.0253 H   0  0  0  0  0  0
  -26.2926  -29.6729   24.1230 H   0  0  0  0  0  0
  -27.4076  -29.7247   25.4678 H   0  0  0  0  0  0
  -27.8791  -30.4267   23.9402 H   0  0  0  0  0  0
  -27.2779  -33.3604   26.2041 H   0  0  0  0  0  0
  -28.3942  -32.6756   25.0315 H   0  0  0  0  0  0
  -28.0746  -31.8389   26.5413 H   0  0  0  0  0  0
  -28.2557  -38.0132   24.7572 H   0  0  0  0  0  0
  -28.1130  -36.2664   24.6189 H   0  0  0  0  0  0
  -27.2328  -37.1311   25.8868 H   0  0  0  0  0  0
  -20.9380  -29.8822   21.6862 H   0  0  0  0  0  0
  -26.0155  -38.2838   24.1486 H   0  0  0  0  0  0
  -31.6365  -19.8435   19.6110 H   0  0  0  0  0  0
  -27.7791  -19.8035   21.5391 H   0  0  0  0  0  0
  -31.7534  -17.4080   19.7761 H   0  0  0  0  0  0
  -27.9011  -17.3765   21.7024 H   0  0  0  0  0  0
  -30.8483  -24.6484   20.7322 H   0  0  0  0  0  0
  -27.0538  -24.7343   20.4940 H   0  0  0  0  0  0
  -27.7419  -24.8423   18.8815 H   0  0  0  0  0  0
  -28.9289  -15.3308   21.2808 H   0  0  0  0  0  0
  1 25  1  0  0  0
  1 30  2  0  0  0
  1 83  1  0  0  0
  2  3  1  0  0  0
  2 25  1  0  0  0
  2 86  1  0  0  0
  2 87  1  0  0  0
  3  4  1  0  0  0
  3 88  1  0  0  0
  3 89  1  0  0  0
  4  5  1  0  0  0
  4 90  1  0  0  0
  4 91  1  0  0  0
  5  6  1  0  0  0
  5 26  1  0  0  0
  5 92  1  0  0  0
  6 25  1  0  0  0
  6 93  1  0  0  0
  6 94  1  0  0  0
  7  8  2  0  0  0
  7 26  1  0  0  0
  7 29  1  0  0  0
  8  9  1  0  0  0
  8 22  1  0  0  0
  9 10  1  0  0  0
  9 27  2  0  0  0
 10 11  2  0  0  0
 10 15  1  0  0  0
 11 12  1  0  0  0
 11 95  1  0  0  0
 12 13  2  0  0  0
 12 96  1  0  0  0
 13 14  1  0  0  0
 13 31  1  0  0  0
 14 15  2  0  0  0
 14 97  1  0  0  0
 15 98  1  0  0  0
 16 17  2  0  0  0
 16 21  1  0  0  0
 16 31  1  0  0  0
 17 18  1  0  0  0
 17 99  1  0  0  0
 18 19  2  0  0  0
 18100  1  0  0  0
 19 20  1  0  0  0
 19 24  1  0  0  0
 20 21  2  0  0  0
 20101  1  0  0  0
 21 23  1  0  0  0
 22 28  1  0  0  0
 22 32  2  0  0  0
 26 27  1  0  0  0
 28102  1  0  0  0
 28103  1  0  0  0
 29104  1  0  0  0
 29105  1  0  0  0
 33 34  1  0  0  0
 33 66  1  0  0  0
 33 70  2  0  0  0
 34 36  1  0  0  0
 34 59  1  0  0  0
 34106  1  0  0  0
 35 44  2  0  0  0
 35 45  1  0  0  0
 35 68  1  0  0  0
 36 56  1  0  0  0
 36107  1  0  0  0
 37 39  1  0  0  0
 37 47  1  0  0  0
 37 66  1  0  0  0
 37108  1  0  0  0
 38 43  2  0  0  0
 38 46  1  0  0  0
 38 47  1  0  0  0
 39 64  1  0  0  0
 39 67  2  0  0  0
 40 52  1  0  0  0
 40 53  2  0  0  0
 40 58  1  0  0  0
 41109  1  0  0  0
 41110  1  0  0  0
 41111  1  0  0  0
 41 48  1  0  0  0
 42 43  1  0  0  0
 42 66  1  0  0  0
 42112  1  0  0  0
 42113  1  0  0  0
 43 44  1  0  0  0
 44114  1  0  0  0
 45 46  2  0  0  0
 45115  1  0  0  0
 46116  1  0  0  0
 47117  1  0  0  0
 47118  1  0  0  0
 48 56  1  0  0  0
 48 65  1  0  0  0
 48119  1  0  0  0
 49 50  1  0  0  0
 49 53  1  0  0  0
 49 64  1  0  0  0
 49120  1  0  0  0
 50 51  1  0  0  0
 50121  1  0  0  0
 50122  1  0  0  0
 51 52  1  0  0  0
 51123  1  0  0  0
 51124  1  0  0  0
 52125  1  0  0  0
 52126  1  0  0  0
 53 54  1  0  0  0
 54 55  2  0  0  0
 54127  1  0  0  0
 55 57  1  0  0  0
 55128  1  0  0  0
 56 69  2  0  0  0
 57 58  2  0  0  0
 57129  1  0  0  0
 58130  1  0  0  0
 59 60  1  0  0  0
 59 61  1  0  0  0
 59 62  1  0  0  0
 60131  1  0  0  0
 60132  1  0  0  0
 60133  1  0  0  0
 61134  1  0  0  0
 61135  1  0  0  0
 61136  1  0  0  0
 62137  1  0  0  0
 62138  1  0  0  0
 62139  1  0  0  0
 63 65  1  0  0  0
 63140  1  0  0  0
 63141  1  0  0  0
 63142  1  0  0  0
 64143  1  0  0  0
 65144  1  0  0  0
 68 81  1  0  0  0
 71 73  2  0  0  0
 71 75  1  0  0  0
 71145  1  0  0  0
 72 74  1  0  0  0
 72 75  2  0  0  0
 72146  1  0  0  0
 73 76  1  0  0  0
 73147  1  0  0  0
 74 76  2  0  0  0
 74148  1  0  0  0
 75 82  1  0  0  0
 76 83  1  0  0  0
 77 78  2  0  0  0
 77 79  1  0  0  0
 77149  1  0  0  0
 78 80  1  0  0  0
 78 81  1  0  0  0
 79 82  1  0  0  0
 79 84  2  0  0  0
 80 82  1  0  0  0
 80 85  2  0  0  0
 81150  1  0  0  0
 81151  1  0  0  0
 83152  1  0  0  0
M  ISO  4   1 100  68 101  81 101  83 100
M  END
> <chiral flag>
0

> <version>
0

> <s_m_source_file>
/data/baiqing/PycharmProjects/Reinvent-master-3.2/result/LINK_invent/BTK/process_docking_weight1_custom_product_contain_oxygen_bond_distance_aromatic_linkinvent_7_9_3/rearranged_h_0083.sdf

> <i_m_source_file_index>
65

> <r_mmod_Potential_Energy-OPLS-2005>
82.7786254882812

> <r_mmod_Stretch_Energy-OPLS-2005>
87.6945190429688

> <r_mmod_Bend_Energy-OPLS-2005>
189.800857543945

> <r_mmod_Torsional_Energy-OPLS-2005>
235.467269897461

> <r_mmod_Improper_Torsional_Energy-OPLS-2005>
3.68464469909668

> <r_mmod_Van_der_Waal_Energy-OPLS-2005>
148.999633789062

> <r_mmod_Electrostatic_Energy-OPLS-2005>
-403.608795166016

> <r_mmod_Solvation_Energy-OPLS-2005>
-237.189315795898

> <b_mmod_Minimization_Converged-OPLS-2005>
0

> <r_mmod_RMS_Derivative-OPLS-2005>
1.06836152076721

$$$$
65
                    3D
 Structure written by MMmdl.
156165  0  0  1  0            999 V2000
  -30.5852  -14.8141   20.4445 C   0  0  0  0  0  0
  -30.4291  -12.4905   19.4959 C   0  0  0  0  0  0
  -29.5201  -12.5258   18.2470 C   0  0  0  0  0  0
  -28.0434  -12.3392   18.6457 C   0  0  0  0  0  0
  -27.6339  -13.2460   19.8369 C   0  0  2  0  0  0
  -28.6694  -13.2159   20.9769 C   0  0  0  0  0  0
  -25.2463  -13.8213   20.5666 C   0  0  0  0  0  0
  -24.1768  -13.0436   20.9175 C   0  0  0  0  0  0
  -24.6392  -11.6928   20.8717 C   0  0  0  0  0  0
  -23.9082  -10.4286   21.0391 C   0  0  0  0  0  0
  -24.3639   -9.4208   21.9173 C   0  0  0  0  0  0
  -23.6316   -8.2244   22.0744 C   0  0  0  0  0  0
  -22.4295   -8.0273   21.3542 C   0  0  0  0  0  0
  -21.9927   -9.0244   20.4638 C   0  0  0  0  0  0
  -22.7251  -10.2125   20.3040 C   0  0  0  0  0  0
  -21.6858   -6.0734   22.5279 C   0  0  0  0  0  0
  -21.4002   -6.5638   23.8204 C   0  0  0  0  0  0
  -21.3666   -5.6796   24.9166 C   0  0  0  0  0  0
  -21.6055   -4.3053   24.7221 C   0  0  0  0  0  0
  -21.8821   -3.8148   23.4337 C   0  0  0  0  0  0
  -21.9192   -4.6965   22.3399 C   0  0  0  0  0  0
  -22.7790  -13.5202   21.1876 C   0  0  0  0  0  0
  -22.1660   -4.2146   21.0977 F   0  0  0  0  0  0
  -21.5648   -3.4546   25.7739 F   0  0  0  0  0  0
  -29.9728  -13.5721   20.4084 N   0  0  0  0  0  0
  -26.2892  -12.9453   20.3192 N   0  0  0  0  0  0
  -25.9312  -11.6579   20.5677 N   0  0  0  0  0  0
  -22.0462  -12.8177   22.0440 N   0  0  0  0  0  0
  -25.4187  -15.1929   20.4116 N   0  0  0  0  0  0
  -31.7822  -14.8318   20.1516 O   0  0  0  0  0  0
  -21.6654   -6.8879   21.4238 O   0  0  0  0  0  0
  -22.3460  -14.5509   20.6731 O   0  0  0  0  0  0
  -24.6353  -31.8524   23.1954 C   0  0  0  0  0  0
  -25.9168  -32.4739   23.8315 C   0  0  1  0  0  0
  -27.2223  -27.2259   20.1585 C   0  0  0  0  0  0
  -25.5973  -33.8534   24.2250 N   0  0  0  0  0  0
  -23.4359  -30.4701   21.5377 C   0  0  2  0  0  0
  -24.8884  -28.9080   20.1156 C   0  0  0  0  0  0
  -22.7541  -29.4569   22.4902 C   0  0  0  0  0  0
  -18.0296  -28.1390   22.8469 C   0  0  0  0  0  0
  -24.1500  -36.7251   23.2644 C   0  0  0  0  0  0
  -25.9828  -30.7569   21.3804 C   0  0  0  0  0  0
  -26.0604  -29.3736   20.7271 C   0  0  0  0  0  0
  -27.2353  -28.5483   20.7296 C   0  0  0  0  0  0
  -26.0309  -26.8313   19.5202 C   0  0  0  0  0  0
  -24.8819  -27.6472   19.4973 C   0  0  0  0  0  0
  -23.6597  -29.7985   20.1562 C   0  0  0  0  0  0
  -25.4131  -36.3046   24.0329 C   0  0  1  0  0  0
  -20.5906  -28.3698   23.1270 C   0  0  2  0  0  0
  -20.6789  -26.9406   22.5417 C   0  0  0  0  0  0
  -19.5762  -26.6375   21.5219 C   0  0  0  0  0  0
  -18.1937  -26.7930   22.1612 C   0  0  0  0  0  0
  -19.1555  -28.8860   23.2863 C   0  0  0  0  0  0
  -18.9466  -30.1462   23.8880 C   0  0  0  0  0  0
  -17.6457  -30.6586   24.0553 C   0  0  0  0  0  0
  -25.9072  -34.9425   23.5085 C   0  0  0  0  0  0
  -16.5352  -29.9070   23.6338 C   0  0  0  0  0  0
  -16.7280  -28.6499   23.0347 C   0  0  0  0  0  0
  -26.4521  -31.6567   25.0710 C   0  0  0  0  0  0
  -25.3737  -31.3713   26.1422 C   0  0  0  0  0  0
  -27.0380  -30.2982   24.6227 C   0  0  0  0  0  0
  -27.6078  -32.4305   25.7482 C   0  0  0  0  0  0
  -27.5578  -37.1783   24.8464 C   0  0  0  0  0  0
  -21.4244  -29.3036   22.3652 N   0  0  0  0  0  0
  -26.4289  -37.3765   23.9413 N   0  0  0  0  0  0
  -24.7027  -31.0462   22.0938 N   0  0  0  0  0  0
  -23.4220  -28.8118   23.3026 O   0  0  0  0  0  0
  -28.2988  -26.3015   20.1460 O   0  0  0  0  0  0
  -26.5618  -34.8904   22.4639 O   0  0  0  0  0  0
  -23.5502  -32.1350   23.7229 O   0  0  0  0  0  0
  -29.8022  -19.9986   20.5693 C   0  0  0  0  0  0
  -27.9142  -18.6665   20.3892 C   0  0  0  0  0  0
  -29.2828  -18.6111   20.4435 C   0  0  0  0  0  0
  -28.8802  -21.0795   20.5446 C   0  0  0  0  0  0
  -28.2749  -23.5463   20.2391 C   0  0  0  0  0  0
  -30.0951  -17.2564   20.2885 C   0  0  0  0  0  0
  -30.5100  -24.3181   21.7767 C   0  0  0  0  0  0
  -29.2443  -25.1227   22.0868 C   0  0  0  0  0  0
  -30.1787  -22.8176   21.6449 C   0  0  0  0  0  0
  -28.2085  -25.0173   20.9524 C   0  0  1  0  0  0
  -31.3608  -17.5436   19.4808 C   0  0  0  0  0  0
  -29.7657  -16.0082   20.6655 N   0  0  0  0  0  0
  -29.0612  -22.4817   20.7372 N   0  0  0  0  0  0
  -27.5754  -23.3816   19.2355 O   0  0  0  0  0  0
  -27.2945  -20.3258   20.3943 S   0  0  0  0  0  0
  -31.4736  -12.6008   19.1991 H   0  0  0  0  0  0
  -30.3626  -11.5193   19.9889 H   0  0  0  0  0  0
  -29.8177  -11.7505   17.5397 H   0  0  0  0  0  0
  -29.6450  -13.4797   17.7306 H   0  0  0  0  0  0
  -27.9028  -11.2914   18.9109 H   0  0  0  0  0  0
  -27.3947  -12.5277   17.7885 H   0  0  0  0  0  0
  -27.6204  -14.2640   19.4452 H   0  0  0  0  0  0
  -28.7062  -12.2300   21.4425 H   0  0  0  0  0  0
  -28.3890  -13.9204   21.7630 H   0  0  0  0  0  0
  -25.2786   -9.5701   22.4749 H   0  0  0  0  0  0
  -24.0026   -7.4649   22.7471 H   0  0  0  0  0  0
  -21.0857   -8.8758   19.8964 H   0  0  0  0  0  0
  -22.3701  -10.9659   19.6154 H   0  0  0  0  0  0
  -21.1967   -7.6141   23.9708 H   0  0  0  0  0  0
  -21.1498   -6.0523   25.9077 H   0  0  0  0  0  0
  -22.0593   -2.7611   23.2845 H   0  0  0  0  0  0
  -22.4106  -11.9844   22.4818 H   0  0  0  0  0  0
  -21.1070  -13.1165   22.2668 H   0  0  0  0  0  0
  -24.6629  -15.8603   20.5198 H   0  0  0  0  0  0
  -26.2896  -15.6123   20.1117 H   0  0  0  0  0  0
  -26.7237  -32.5381   23.1059 H   0  0  0  0  0  0
  -25.0165  -33.9681   25.0430 H   0  0  0  0  0  0
  -22.7329  -31.2921   21.3851 H   0  0  0  0  0  0
  -23.3781  -35.9559   23.3277 H   0  0  0  0  0  0
  -24.3597  -36.8901   22.2065 H   0  0  0  0  0  0
  -23.7226  -37.6434   23.6681 H   0  0  0  0  0  0
  -26.1295  -31.5176   20.6129 H   0  0  0  0  0  0
  -26.8563  -30.8063   22.0179 H   0  0  0  0  0  0
  -28.1355  -28.9074   21.2085 H   0  0  0  0  0  0
  -25.9855  -25.8592   19.0483 H   0  0  0  0  0  0
  -23.9866  -27.2882   19.0098 H   0  0  0  0  0  0
  -23.7889  -30.5722   19.3981 H   0  0  0  0  0  0
  -22.7793  -29.2309   19.8491 H   0  0  0  0  0  0
  -25.1318  -36.1880   25.0823 H   0  0  0  0  0  0
  -20.9983  -28.3267   24.1402 H   0  0  0  0  0  0
  -20.5685  -26.2307   23.3634 H   0  0  0  0  0  0
  -21.6652  -26.7431   22.1200 H   0  0  0  0  0  0
  -19.6923  -25.6283   21.1260 H   0  0  0  0  0  0
  -19.6723  -27.3187   20.6753 H   0  0  0  0  0  0
  -17.4225  -26.6700   21.3998 H   0  0  0  0  0  0
  -18.0308  -26.0078   22.9008 H   0  0  0  0  0  0
  -19.7943  -30.7283   24.2253 H   0  0  0  0  0  0
  -17.5009  -31.6264   24.5142 H   0  0  0  0  0  0
  -15.5349  -30.2951   23.7691 H   0  0  0  0  0  0
  -15.8685  -28.0805   22.7074 H   0  0  0  0  0  0
  -24.5958  -30.7016   25.7729 H   0  0  0  0  0  0
  -24.8892  -32.2883   26.4792 H   0  0  0  0  0  0
  -25.8065  -30.8931   27.0222 H   0  0  0  0  0  0
  -26.2979  -29.6704   24.1257 H   0  0  0  0  0  0
  -27.4054  -29.7271   25.4761 H   0  0  0  0  0  0
  -27.8854  -30.4236   23.9486 H   0  0  0  0  0  0
  -27.2702  -33.3628   26.2016 H   0  0  0  0  0  0
  -28.3915  -32.6821   25.0319 H   0  0  0  0  0  0
  -28.0711  -31.8451   26.5438 H   0  0  0  0  0  0
  -28.2577  -38.0095   24.7520 H   0  0  0  0  0  0
  -28.1091  -36.2630   24.6269 H   0  0  0  0  0  0
  -27.2294  -37.1390   25.8863 H   0  0  0  0  0  0
  -20.9456  -29.8743   21.6826 H   0  0  0  0  0  0
  -26.0153  -38.2825   24.1432 H   0  0  0  0  0  0
  -30.8669  -20.1510   20.6632 H   0  0  0  0  0  0
  -27.2265  -17.8363   20.2992 H   0  0  0  0  0  0
  -31.2480  -24.4601   22.5665 H   0  0  0  0  0  0
  -30.9733  -24.6835   20.8587 H   0  0  0  0  0  0
  -29.4959  -26.1674   22.2760 H   0  0  0  0  0  0
  -28.8077  -24.7503   23.0145 H   0  0  0  0  0  0
  -29.9370  -22.4163   22.6315 H   0  0  0  0  0  0
  -31.0871  -22.3077   21.3223 H   0  0  0  0  0  0
  -27.2287  -25.0381   21.4324 H   0  0  0  0  0  0
  -31.3152  -18.5131   18.9877 H   0  0  0  0  0  0
  -31.4863  -16.8195   18.6766 H   0  0  0  0  0  0
  -32.2387  -17.5340   20.1257 H   0  0  0  0  0  0
  1 25  1  0  0  0
  1 30  2  0  0  0
  1 82  1  0  0  0
  2  3  1  0  0  0
  2 25  1  0  0  0
  2 86  1  0  0  0
  2 87  1  0  0  0
  3  4  1  0  0  0
  3 88  1  0  0  0
  3 89  1  0  0  0
  4  5  1  0  0  0
  4 90  1  0  0  0
  4 91  1  0  0  0
  5  6  1  0  0  0
  5 26  1  0  0  0
  5 92  1  0  0  0
  6 25  1  0  0  0
  6 93  1  0  0  0
  6 94  1  0  0  0
  7  8  2  0  0  0
  7 26  1  0  0  0
  7 29  1  0  0  0
  8  9  1  0  0  0
  8 22  1  0  0  0
  9 10  1  0  0  0
  9 27  2  0  0  0
 10 11  2  0  0  0
 10 15  1  0  0  0
 11 12  1  0  0  0
 11 95  1  0  0  0
 12 13  2  0  0  0
 12 96  1  0  0  0
 13 14  1  0  0  0
 13 31  1  0  0  0
 14 15  2  0  0  0
 14 97  1  0  0  0
 15 98  1  0  0  0
 16 17  2  0  0  0
 16 21  1  0  0  0
 16 31  1  0  0  0
 17 18  1  0  0  0
 17 99  1  0  0  0
 18 19  2  0  0  0
 18100  1  0  0  0
 19 20  1  0  0  0
 19 24  1  0  0  0
 20 21  2  0  0  0
 20101  1  0  0  0
 21 23  1  0  0  0
 22 28  1  0  0  0
 22 32  2  0  0  0
 26 27  1  0  0  0
 28102  1  0  0  0
 28103  1  0  0  0
 29104  1  0  0  0
 29105  1  0  0  0
 33 34  1  0  0  0
 33 66  1  0  0  0
 33 70  2  0  0  0
 34 36  1  0  0  0
 34 59  1  0  0  0
 34106  1  0  0  0
 35 44  2  0  0  0
 35 45  1  0  0  0
 35 68  1  0  0  0
 36 56  1  0  0  0
 36107  1  0  0  0
 37 39  1  0  0  0
 37 47  1  0  0  0
 37 66  1  0  0  0
 37108  1  0  0  0
 38 43  2  0  0  0
 38 46  1  0  0  0
 38 47  1  0  0  0
 39 64  1  0  0  0
 39 67  2  0  0  0
 40 52  1  0  0  0
 40 53  2  0  0  0
 40 58  1  0  0  0
 41109  1  0  0  0
 41110  1  0  0  0
 41111  1  0  0  0
 41 48  1  0  0  0
 42 43  1  0  0  0
 42 66  1  0  0  0
 42112  1  0  0  0
 42113  1  0  0  0
 43 44  1  0  0  0
 44114  1  0  0  0
 45 46  2  0  0  0
 45115  1  0  0  0
 46116  1  0  0  0
 47117  1  0  0  0
 47118  1  0  0  0
 48 56  1  0  0  0
 48 65  1  0  0  0
 48119  1  0  0  0
 49 50  1  0  0  0
 49 53  1  0  0  0
 49 64  1  0  0  0
 49120  1  0  0  0
 50 51  1  0  0  0
 50121  1  0  0  0
 50122  1  0  0  0
 51 52  1  0  0  0
 51123  1  0  0  0
 51124  1  0  0  0
 52125  1  0  0  0
 52126  1  0  0  0
 53 54  1  0  0  0
 54 55  2  0  0  0
 54127  1  0  0  0
 55 57  1  0  0  0
 55128  1  0  0  0
 56 69  2  0  0  0
 57 58  2  0  0  0
 57129  1  0  0  0
 58130  1  0  0  0
 59 60  1  0  0  0
 59 61  1  0  0  0
 59 62  1  0  0  0
 60131  1  0  0  0
 60132  1  0  0  0
 60133  1  0  0  0
 61134  1  0  0  0
 61135  1  0  0  0
 61136  1  0  0  0
 62137  1  0  0  0
 62138  1  0  0  0
 62139  1  0  0  0
 63 65  1  0  0  0
 63140  1  0  0  0
 63141  1  0  0  0
 63142  1  0  0  0
 64143  1  0  0  0
 65144  1  0  0  0
 68 80  1  0  0  0
 71 73  1  0  0  0
 71 74  2  0  0  0
 71145  1  0  0  0
 72 73  2  0  0  0
 72 85  1  0  0  0
 72146  1  0  0  0
 73 76  1  0  0  0
 74 83  1  0  0  0
 74 85  1  0  0  0
 75 80  1  0  0  0
 75 83  1  0  0  0
 75 84  2  0  0  0
 76 81  1  0  0  0
 76 82  2  0  0  0
 77 78  1  0  0  0
 77 79  1  0  0  0
 77147  1  0  0  0
 77148  1  0  0  0
 78 80  1  0  0  0
 78149  1  0  0  0
 78150  1  0  0  0
 79 83  1  0  0  0
 79151  1  0  0  0
 79152  1  0  0  0
 80153  1  0  0  0
 81154  1  0  0  0
 81155  1  0  0  0
 81156  1  0  0  0
M  ISO  4   1 100  68 101  80 101  82 100
M  END
> <chiral flag>
0

> <version>
0

> <s_m_source_file>
/data/baiqing/PycharmProjects/Reinvent-master-3.2/result/LINK_invent/BTK/process_docking_weight1_custom_product_contain_oxygen_bond_distance_aromatic_linkinvent_7_9_3/rearranged_h_0083.sdf

> <i_m_source_file_index>
66

> <r_mmod_Potential_Energy-OPLS-2005>
345.591217041016

> <r_mmod_Stretch_Energy-OPLS-2005>
171.543350219727

> <r_mmod_Bend_Energy-OPLS-2005>
197.646286010742

> <r_mmod_Torsional_Energy-OPLS-2005>
253.280792236328

> <r_mmod_Improper_Torsional_Energy-OPLS-2005>
4.51512289047241

> <r_mmod_Van_der_Waal_Energy-OPLS-2005>
136.852966308594

> <r_mmod_Electrostatic_Energy-OPLS-2005>
-327.639739990234

> <r_mmod_Solvation_Energy-OPLS-2005>
-201.802703857422

> <b_mmod_Minimization_Converged-OPLS-2005>
0

> <r_mmod_RMS_Derivative-OPLS-2005>
2.14728951454163

$$$$
66
                    3D
 Structure written by MMmdl.
145154  0  0  1  0            999 V2000
  -30.4902  -15.1189   20.3852 C   0  0  0  0  0  0
  -30.4400  -12.6957   19.5344 C   0  0  0  0  0  0
  -29.5357  -12.5584   18.2841 C   0  0  0  0  0  0
  -28.0724  -12.3148   18.6946 C   0  0  0  0  0  0
  -27.6205  -13.2688   19.8293 C   0  0  2  0  0  0
  -28.6540  -13.3709   20.9699 C   0  0  0  0  0  0
  -25.2404  -13.8242   20.5688 C   0  0  0  0  0  0
  -24.1760  -13.0441   20.9245 C   0  0  0  0  0  0
  -24.6407  -11.6936   20.8760 C   0  0  0  0  0  0
  -23.9097  -10.4297   21.0409 C   0  0  0  0  0  0
  -24.3640   -9.4209   21.9187 C   0  0  0  0  0  0
  -23.6307   -8.2247   22.0756 C   0  0  0  0  0  0
  -22.4288   -8.0286   21.3545 C   0  0  0  0  0  0
  -21.9930   -9.0262   20.4647 C   0  0  0  0  0  0
  -22.7266  -10.2137   20.3059 C   0  0  0  0  0  0
  -21.6859   -6.0740   22.5279 C   0  0  0  0  0  0
  -21.4017   -6.5643   23.8212 C   0  0  0  0  0  0
  -21.3661   -5.6795   24.9174 C   0  0  0  0  0  0
  -21.6043   -4.3058   24.7224 C   0  0  0  0  0  0
  -21.8819   -3.8149   23.4345 C   0  0  0  0  0  0
  -21.9194   -4.6966   22.3401 C   0  0  0  0  0  0
  -22.7777  -13.5196   21.1895 C   0  0  0  0  0  0
  -22.1663   -4.2151   21.0979 F   0  0  0  0  0  0
  -21.5627   -3.4541   25.7737 F   0  0  0  0  0  0
  -29.9193  -13.8262   20.3773 N   0  0  0  0  0  0
  -26.2845  -12.9518   20.3197 N   0  0  0  0  0  0
  -25.9344  -11.6628   20.5720 N   0  0  0  0  0  0
  -22.0438  -12.8179   22.0453 N   0  0  0  0  0  0
  -25.4003  -15.1965   20.4039 N   0  0  0  0  0  0
  -31.6987  -15.1180   20.1155 O   0  0  0  0  0  0
  -21.6648   -6.8885   21.4242 O   0  0  0  0  0  0
  -22.3456  -14.5495   20.6733 O   0  0  0  0  0  0
  -24.6539  -31.8336   23.1799 C   0  0  0  0  0  0
  -25.9262  -32.4641   23.8227 C   0  0  1  0  0  0
  -27.2149  -27.0210   20.1751 C   0  0  0  0  0  0
  -25.5965  -33.8451   24.2134 N   0  0  0  0  0  0
  -23.4646  -30.4493   21.5269 C   0  0  2  0  0  0
  -24.9182  -28.8565   20.1122 C   0  0  0  0  0  0
  -22.7625  -29.4490   22.4812 C   0  0  0  0  0  0
  -18.0316  -28.1404   22.8470 C   0  0  0  0  0  0
  -24.1495  -36.7234   23.2649 C   0  0  0  0  0  0
  -26.0287  -30.6687   21.3996 C   0  0  0  0  0  0
  -26.0984  -29.2674   20.7459 C   0  0  0  0  0  0
  -27.2454  -28.3668   20.7614 C   0  0  0  0  0  0
  -26.0136  -26.7491   19.4836 C   0  0  0  0  0  0
  -24.8948  -27.6137   19.4626 C   0  0  0  0  0  0
  -23.7003  -29.7730   20.1497 C   0  0  0  0  0  0
  -25.4134  -36.3001   24.0307 C   0  0  1  0  0  0
  -20.5936  -28.3742   23.1206 C   0  0  2  0  0  0
  -20.6796  -26.9432   22.5401 C   0  0  0  0  0  0
  -19.5769  -26.6379   21.5212 C   0  0  0  0  0  0
  -18.1951  -26.7939   22.1623 C   0  0  0  0  0  0
  -19.1576  -28.8892   23.2828 C   0  0  0  0  0  0
  -18.9487  -30.1483   23.8861 C   0  0  0  0  0  0
  -17.6482  -30.6595   24.0557 C   0  0  0  0  0  0
  -25.9085  -34.9377   23.5035 C   0  0  0  0  0  0
  -16.5372  -29.9085   23.6341 C   0  0  0  0  0  0
  -16.7299  -28.6505   23.0359 C   0  0  0  0  0  0
  -26.4544  -31.6550   25.0716 C   0  0  0  0  0  0
  -25.3695  -31.3770   26.1387 C   0  0  0  0  0  0
  -27.0433  -30.2930   24.6387 C   0  0  0  0  0  0
  -27.6048  -32.4345   25.7514 C   0  0  0  0  0  0
  -27.5564  -37.1792   24.8478 C   0  0  0  0  0  0
  -21.4304  -29.3048   22.3563 N   0  0  0  0  0  0
  -26.4297  -37.3716   23.9386 N   0  0  0  0  0  0
  -24.7361  -31.0083   22.0895 N   0  0  0  0  0  0
  -23.4213  -28.8047   23.3013 O   0  0  0  0  0  0
  -28.2121  -25.9393   20.2174 O   0  0  0  0  0  0
  -26.5684  -34.8890   22.4622 O   0  0  0  0  0  0
  -23.5628  -32.1266   23.6943 O   0  0  0  0  0  0
  -28.4911  -17.0090   20.9893 C   0  0  0  0  0  0
  -28.1408  -18.4522   20.9722 C   0  0  0  0  0  0
  -29.7359  -16.5973   20.5241 C   0  0  0  0  0  0
  -29.0560  -19.4033   20.5161 C   0  0  0  0  0  0
  -28.3699  -23.1416   20.3896 C   0  0  0  0  0  0
  -27.6739  -21.8612   20.7255 C   0  0  0  0  0  0
  -27.8355  -24.5016   20.4389 C   0  0  0  0  0  0
  -29.6289  -22.1862   20.0772 C   0  0  0  0  0  0
  -28.7845  -20.9719   20.4465 N   0  0  0  0  0  0
  -26.5353  -21.6942   21.1112 O   0  0  0  0  0  0
  -30.4716  -18.2669   20.0932 S   0  0  0  0  0  0
  -31.4716  -12.8588   19.2201 H   0  0  0  0  0  0
  -30.4549  -11.7652   20.1043 H   0  0  0  0  0  0
  -29.8878  -11.7456   17.6479 H   0  0  0  0  0  0
  -29.6017  -13.4684   17.6858 H   0  0  0  0  0  0
  -27.9937  -11.2806   19.0318 H   0  0  0  0  0  0
  -27.4122  -12.4056   17.8312 H   0  0  0  0  0  0
  -27.5617  -14.2555   19.3686 H   0  0  0  0  0  0
  -28.7746  -12.4141   21.4800 H   0  0  0  0  0  0
  -28.3215  -14.0798   21.7282 H   0  0  0  0  0  0
  -25.2783   -9.5682   22.4767 H   0  0  0  0  0  0
  -24.0011   -7.4638   22.7477 H   0  0  0  0  0  0
  -21.0861   -8.8786   19.8951 H   0  0  0  0  0  0
  -22.3726  -10.9677   19.6169 H   0  0  0  0  0  0
  -21.2012   -7.6152   23.9718 H   0  0  0  0  0  0
  -21.1484   -6.0524   25.9077 H   0  0  0  0  0  0
  -22.0595   -2.7611   23.2845 H   0  0  0  0  0  0
  -22.4072  -11.9850   22.4846 H   0  0  0  0  0  0
  -21.1050  -13.1185   22.2659 H   0  0  0  0  0  0
  -24.6154  -15.8338   20.4850 H   0  0  0  0  0  0
  -26.2155  -15.6247   19.9859 H   0  0  0  0  0  0
  -26.7329  -32.5212   23.0948 H   0  0  0  0  0  0
  -25.0072  -33.9548   25.0256 H   0  0  0  0  0  0
  -22.7728  -31.2783   21.3637 H   0  0  0  0  0  0
  -23.3746  -35.9580   23.3337 H   0  0  0  0  0  0
  -24.3560  -36.8846   22.2057 H   0  0  0  0  0  0
  -23.7274  -37.6445   23.6680 H   0  0  0  0  0  0
  -26.1986  -31.4142   20.6216 H   0  0  0  0  0  0
  -26.8932  -30.7241   22.0492 H   0  0  0  0  0  0
  -28.1400  -28.6749   21.2835 H   0  0  0  0  0  0
  -25.9125  -25.8001   18.9766 H   0  0  0  0  0  0
  -23.9996  -27.2958   18.9460 H   0  0  0  0  0  0
  -23.8485  -30.5451   19.3938 H   0  0  0  0  0  0
  -22.8125  -29.2222   19.8337 H   0  0  0  0  0  0
  -25.1336  -36.1824   25.0801 H   0  0  0  0  0  0
  -21.0026  -28.3343   24.1329 H   0  0  0  0  0  0
  -20.5682  -26.2359   23.3633 H   0  0  0  0  0  0
  -21.6660  -26.7420   22.1204 H   0  0  0  0  0  0
  -19.6928  -25.6280   21.1267 H   0  0  0  0  0  0
  -19.6705  -27.3169   20.6725 H   0  0  0  0  0  0
  -17.4218  -26.6679   21.4029 H   0  0  0  0  0  0
  -18.0350  -26.0091   22.9030 H   0  0  0  0  0  0
  -19.7961  -30.7309   24.2213 H   0  0  0  0  0  0
  -17.5033  -31.6272   24.5166 H   0  0  0  0  0  0
  -15.5371  -30.2974   23.7685 H   0  0  0  0  0  0
  -15.8700  -28.0811   22.7096 H   0  0  0  0  0  0
  -24.5886  -30.7112   25.7697 H   0  0  0  0  0  0
  -24.8875  -32.2963   26.4724 H   0  0  0  0  0  0
  -25.7948  -30.8994   27.0223 H   0  0  0  0  0  0
  -26.3085  -29.6622   24.1373 H   0  0  0  0  0  0
  -27.3977  -29.7269   25.5011 H   0  0  0  0  0  0
  -27.9020  -30.4133   23.9780 H   0  0  0  0  0  0
  -27.2619  -33.3673   26.2003 H   0  0  0  0  0  0
  -28.3907  -32.6864   25.0381 H   0  0  0  0  0  0
  -28.0666  -31.8534   26.5506 H   0  0  0  0  0  0
  -28.2623  -38.0044   24.7437 H   0  0  0  0  0  0
  -28.1017  -36.2567   24.6427 H   0  0  0  0  0  0
  -27.2262  -37.1585   25.8879 H   0  0  0  0  0  0
  -20.9538  -29.8750   21.6717 H   0  0  0  0  0  0
  -26.0159  -38.2793   24.1333 H   0  0  0  0  0  0
  -27.7656  -16.3040   21.3652 H   0  0  0  0  0  0
  -27.1618  -18.7428   21.3269 H   0  0  0  0  0  0
  -26.8078  -24.5135   20.7752 H   0  0  0  0  0  0
  -30.4951  -22.2798   20.7342 H   0  0  0  0  0  0
  -29.9644  -22.1338   19.0403 H   0  0  0  0  0  0
  1 25  1  0  0  0
  1 30  2  0  0  0
  1 73  1  0  0  0
  2  3  1  0  0  0
  2 25  1  0  0  0
  2 82  1  0  0  0
  2 83  1  0  0  0
  3  4  1  0  0  0
  3 84  1  0  0  0
  3 85  1  0  0  0
  4  5  1  0  0  0
  4 86  1  0  0  0
  4 87  1  0  0  0
  5  6  1  0  0  0
  5 26  1  0  0  0
  5 88  1  0  0  0
  6 25  1  0  0  0
  6 89  1  0  0  0
  6 90  1  0  0  0
  7  8  2  0  0  0
  7 26  1  0  0  0
  7 29  1  0  0  0
  8  9  1  0  0  0
  8 22  1  0  0  0
  9 10  1  0  0  0
  9 27  2  0  0  0
 10 11  2  0  0  0
 10 15  1  0  0  0
 11 12  1  0  0  0
 11 91  1  0  0  0
 12 13  2  0  0  0
 12 92  1  0  0  0
 13 14  1  0  0  0
 13 31  1  0  0  0
 14 15  2  0  0  0
 14 93  1  0  0  0
 15 94  1  0  0  0
 16 17  2  0  0  0
 16 21  1  0  0  0
 16 31  1  0  0  0
 17 18  1  0  0  0
 17 95  1  0  0  0
 18 19  2  0  0  0
 18 96  1  0  0  0
 19 20  1  0  0  0
 19 24  1  0  0  0
 20 21  2  0  0  0
 20 97  1  0  0  0
 21 23  1  0  0  0
 22 28  1  0  0  0
 22 32  2  0  0  0
 26 27  1  0  0  0
 28 98  1  0  0  0
 28 99  1  0  0  0
 29100  1  0  0  0
 29101  1  0  0  0
 33 34  1  0  0  0
 33 66  1  0  0  0
 33 70  2  0  0  0
 34 36  1  0  0  0
 34 59  1  0  0  0
 34102  1  0  0  0
 35 44  2  0  0  0
 35 45  1  0  0  0
 35 68  1  0  0  0
 36 56  1  0  0  0
 36103  1  0  0  0
 37 39  1  0  0  0
 37 47  1  0  0  0
 37 66  1  0  0  0
 37104  1  0  0  0
 38 43  2  0  0  0
 38 46  1  0  0  0
 38 47  1  0  0  0
 39 64  1  0  0  0
 39 67  2  0  0  0
 40 52  1  0  0  0
 40 53  2  0  0  0
 40 58  1  0  0  0
 41105  1  0  0  0
 41106  1  0  0  0
 41107  1  0  0  0
 41 48  1  0  0  0
 42 43  1  0  0  0
 42 66  1  0  0  0
 42108  1  0  0  0
 42109  1  0  0  0
 43 44  1  0  0  0
 44110  1  0  0  0
 45 46  2  0  0  0
 45111  1  0  0  0
 46112  1  0  0  0
 47113  1  0  0  0
 47114  1  0  0  0
 48 56  1  0  0  0
 48 65  1  0  0  0
 48115  1  0  0  0
 49 50  1  0  0  0
 49 53  1  0  0  0
 49 64  1  0  0  0
 49116  1  0  0  0
 50 51  1  0  0  0
 50117  1  0  0  0
 50118  1  0  0  0
 51 52  1  0  0  0
 51119  1  0  0  0
 51120  1  0  0  0
 52121  1  0  0  0
 52122  1  0  0  0
 53 54  1  0  0  0
 54 55  2  0  0  0
 54123  1  0  0  0
 55 57  1  0  0  0
 55124  1  0  0  0
 56 69  2  0  0  0
 57 58  2  0  0  0
 57125  1  0  0  0
 58126  1  0  0  0
 59 60  1  0  0  0
 59 61  1  0  0  0
 59 62  1  0  0  0
 60127  1  0  0  0
 60128  1  0  0  0
 60129  1  0  0  0
 61130  1  0  0  0
 61131  1  0  0  0
 61132  1  0  0  0
 62133  1  0  0  0
 62134  1  0  0  0
 62135  1  0  0  0
 63 65  1  0  0  0
 63136  1  0  0  0
 63137  1  0  0  0
 63138  1  0  0  0
 64139  1  0  0  0
 65140  1  0  0  0
 68 77  1  0  0  0
 71 72  1  0  0  0
 71 73  2  0  0  0
 71141  1  0  0  0
 72 74  2  0  0  0
 72142  1  0  0  0
 73 81  1  0  0  0
 74 79  1  0  0  0
 74 81  1  0  0  0
 75 76  1  0  0  0
 75 77  2  0  0  0
 75 78  1  0  0  0
 76 79  1  0  0  0
 76 80  2  0  0  0
 77143  1  0  0  0
 78 79  1  0  0  0
 78144  1  0  0  0
 78145  1  0  0  0
M  ISO  4   1 100  68 101  73 100  77 101
M  END
> <chiral flag>
0

> <version>
0

> <s_m_source_file>
/data/baiqing/PycharmProjects/Reinvent-master-3.2/result/LINK_invent/BTK/process_docking_weight1_custom_product_contain_oxygen_bond_distance_aromatic_linkinvent_7_9_3/rearranged_h_0083.sdf

> <i_m_source_file_index>
67

> <r_mmod_Potential_Energy-OPLS-2005>
862.873291015625

> <r_mmod_Stretch_Energy-OPLS-2005>
339.752868652344

> <r_mmod_Bend_Energy-OPLS-2005>
423.831268310547

> <r_mmod_Torsional_Energy-OPLS-2005>
195.209533691406

> <r_mmod_Improper_Torsional_Energy-OPLS-2005>
3.91606616973877

> <r_mmod_Van_der_Waal_Energy-OPLS-2005>
105.95263671875

> <r_mmod_Electrostatic_Energy-OPLS-2005>
-320.764984130859

> <r_mmod_Solvation_Energy-OPLS-2005>
-206.95361328125

> <b_mmod_Minimization_Converged-OPLS-2005>
0

> <r_mmod_RMS_Derivative-OPLS-2005>
0.236049294471741

$$$$
67
                    3D
 Structure written by MMmdl.
155164  0  0  1  0            999 V2000
  -30.7062  -14.5203   20.5226 C   0  0  0  0  0  0
  -30.4344  -12.3247   19.4379 C   0  0  0  0  0  0
  -29.4983  -12.4774   18.2219 C   0  0  0  0  0  0
  -28.0299  -12.3072   18.6518 C   0  0  0  0  0  0
  -27.6640  -13.1979   19.8702 C   0  0  2  0  0  0
  -28.7103  -13.0330   20.9975 C   0  0  0  0  0  0
  -25.2635  -13.8178   20.5665 C   0  0  0  0  0  0
  -24.1879  -13.0481   20.9217 C   0  0  0  0  0  0
  -24.6387  -11.6944   20.8822 C   0  0  0  0  0  0
  -23.9041  -10.4336   21.0495 C   0  0  0  0  0  0
  -24.3618   -9.4201   21.9209 C   0  0  0  0  0  0
  -23.6291   -8.2238   22.0742 C   0  0  0  0  0  0
  -22.4249   -8.0321   21.3557 C   0  0  0  0  0  0
  -21.9840   -9.0338   20.4742 C   0  0  0  0  0  0
  -22.7175  -10.2214   20.3189 C   0  0  0  0  0  0
  -21.6836   -6.0755   22.5277 C   0  0  0  0  0  0
  -21.3992   -6.5673   23.8218 C   0  0  0  0  0  0
  -21.3646   -5.6840   24.9181 C   0  0  0  0  0  0
  -21.6021   -4.3095   24.7254 C   0  0  0  0  0  0
  -21.8800   -3.8181   23.4374 C   0  0  0  0  0  0
  -21.9179   -4.6987   22.3420 C   0  0  0  0  0  0
  -22.7920  -13.5319   21.1890 C   0  0  0  0  0  0
  -22.1661   -4.2155   21.1003 F   0  0  0  0  0  0
  -21.5595   -3.4578   25.7773 F   0  0  0  0  0  0
  -30.0332  -13.3366   20.4325 N   0  0  0  0  0  0
  -26.3051  -12.9306   20.3381 N   0  0  0  0  0  0
  -25.9312  -11.6483   20.5849 N   0  0  0  0  0  0
  -22.0633  -12.8467   22.0645 N   0  0  0  0  0  0
  -25.4413  -15.1851   20.3914 N   0  0  0  0  0  0
  -31.8706  -14.6136   20.1237 O   0  0  0  0  0  0
  -21.6629   -6.8896   21.4240 O   0  0  0  0  0  0
  -22.3571  -14.5533   20.6554 O   0  0  0  0  0  0
  -24.6183  -31.8667   23.2099 C   0  0  0  0  0  0
  -25.9066  -32.4817   23.8400 C   0  0  1  0  0  0
  -27.2139  -27.3773   20.1179 C   0  0  0  0  0  0
  -25.5893  -33.8611   24.2314 N   0  0  0  0  0  0
  -23.4111  -30.4902   21.5517 C   0  0  2  0  0  0
  -24.8597  -28.9686   20.1012 C   0  0  0  0  0  0
  -22.7452  -29.4630   22.4958 C   0  0  0  0  0  0
  -18.0284  -28.1365   22.8512 C   0  0  0  0  0  0
  -24.1481  -36.7297   23.2635 C   0  0  0  0  0  0
  -25.9463  -30.8138   21.3792 C   0  0  0  0  0  0
  -26.0232  -29.4502   20.7141 C   0  0  0  0  0  0
  -27.2052  -28.6635   20.7227 C   0  0  0  0  0  0
  -26.0427  -26.9483   19.4530 C   0  0  0  0  0  0
  -24.8698  -27.7229   19.4550 C   0  0  0  0  0  0
  -23.6191  -29.8341   20.1634 C   0  0  0  0  0  0
  -25.4106  -36.3114   24.0338 C   0  0  1  0  0  0
  -20.5873  -28.3640   23.1323 C   0  0  2  0  0  0
  -20.6762  -26.9373   22.5441 C   0  0  0  0  0  0
  -19.5752  -26.6380   21.5226 C   0  0  0  0  0  0
  -18.1924  -26.7910   22.1630 C   0  0  0  0  0  0
  -19.1533  -28.8836   23.2907 C   0  0  0  0  0  0
  -18.9448  -30.1437   23.8916 C   0  0  0  0  0  0
  -17.6450  -30.6580   24.0557 C   0  0  0  0  0  0
  -25.9046  -34.9468   23.5131 C   0  0  0  0  0  0
  -16.5346  -29.9076   23.6324 C   0  0  0  0  0  0
  -16.7268  -28.6489   23.0360 C   0  0  0  0  0  0
  -26.4447  -31.6615   25.0752 C   0  0  0  0  0  0
  -25.3673  -31.3816   26.1495 C   0  0  0  0  0  0
  -27.0240  -30.3009   24.6230 C   0  0  0  0  0  0
  -27.6075  -32.4310   25.7459 C   0  0  0  0  0  0
  -27.5574  -37.1802   24.8460 C   0  0  0  0  0  0
  -21.4172  -29.3010   22.3710 N   0  0  0  0  0  0
  -26.4297  -37.3793   23.9399 N   0  0  0  0  0  0
  -24.6754  -31.0713   22.1033 N   0  0  0  0  0  0
  -23.4195  -28.8168   23.3033 O   0  0  0  0  0  0
  -28.2739  -26.4864   20.2352 O   0  0  0  0  0  0
  -26.5635  -34.8934   22.4710 O   0  0  0  0  0  0
  -23.5365  -32.1440   23.7452 O   0  0  0  0  0  0
  -27.3487  -18.6025   22.5856 C   0  0  0  0  0  0
  -28.2342  -17.6109   22.1329 C   0  0  0  0  0  0
  -27.5335  -19.9525   22.2301 C   0  0  0  0  0  0
  -29.4720  -19.3323   20.9236 C   0  0  0  0  0  0
  -29.3172  -17.9570   21.2947 C   0  0  0  0  0  0
  -28.5943  -20.3651   21.3801 C   0  0  0  0  0  0
  -28.5743  -24.0450   20.6992 C   0  0  0  0  0  0
  -27.9337  -22.8126   21.1587 C   0  0  0  0  0  0
  -27.8999  -25.2296   20.7252 C   0  0  0  0  0  0
  -30.3316  -16.9113   20.8508 C   0  0  0  0  0  0
  -29.9613  -23.7523   20.2110 C   0  0  0  0  0  0
  -30.0445  -22.2165   20.3519 C   0  0  0  0  0  0
  -28.7999  -21.7680   21.0020 N   0  0  0  0  0  0
  -29.9697  -15.5995   20.9012 N   0  0  0  0  0  0
  -26.7744  -22.7366   21.5843 O   0  0  0  0  0  0
  -31.4223  -17.3177   20.4303 O   0  0  0  0  0  0
  -31.4713  -12.4262   19.1127 H   0  0  0  0  0  0
  -30.3595  -11.3232   19.8612 H   0  0  0  0  0  0
  -29.7595  -11.7419   17.4603 H   0  0  0  0  0  0
  -29.6318  -13.4588   17.7638 H   0  0  0  0  0  0
  -27.8938  -11.2585   18.9138 H   0  0  0  0  0  0
  -27.3597  -12.5000   17.8147 H   0  0  0  0  0  0
  -27.6973  -14.2320   19.5209 H   0  0  0  0  0  0
  -28.6960  -12.0066   21.3702 H   0  0  0  0  0  0
  -28.4792  -13.6667   21.8567 H   0  0  0  0  0  0
  -25.2769   -9.5648   22.4764 H   0  0  0  0  0  0
  -24.0013   -7.4602   22.7406 H   0  0  0  0  0  0
  -21.0702   -8.8942   19.9137 H   0  0  0  0  0  0
  -22.3588  -10.9824   19.6382 H   0  0  0  0  0  0
  -21.1985   -7.6188   23.9699 H   0  0  0  0  0  0
  -21.1464   -6.0596   25.9074 H   0  0  0  0  0  0
  -22.0564   -2.7633   23.2907 H   0  0  0  0  0  0
  -22.4378  -12.0344   22.5307 H   0  0  0  0  0  0
  -21.1302  -13.1582   22.2932 H   0  0  0  0  0  0
  -24.6650  -15.8365   20.4357 H   0  0  0  0  0  0
  -26.2698  -15.5924   19.9792 H   0  0  0  0  0  0
  -26.7121  -32.5505   23.1153 H   0  0  0  0  0  0
  -24.9949  -33.9754   25.0390 H   0  0  0  0  0  0
  -22.7011  -31.3076   21.4188 H   0  0  0  0  0  0
  -23.3754  -35.9622   23.3342 H   0  0  0  0  0  0
  -24.3565  -36.8862   22.2040 H   0  0  0  0  0  0
  -23.7222  -37.6511   23.6614 H   0  0  0  0  0  0
  -26.0791  -31.5872   20.6213 H   0  0  0  0  0  0
  -26.8257  -30.8546   22.0122 H   0  0  0  0  0  0
  -28.0915  -29.0151   21.2314 H   0  0  0  0  0  0
  -26.0188  -25.9821   18.9705 H   0  0  0  0  0  0
  -23.9787  -27.3573   18.9628 H   0  0  0  0  0  0
  -23.7205  -30.6166   19.4103 H   0  0  0  0  0  0
  -22.7459  -29.2508   19.8649 H   0  0  0  0  0  0
  -25.1269  -36.1993   25.0829 H   0  0  0  0  0  0
  -20.9962  -28.3232   24.1442 H   0  0  0  0  0  0
  -20.5639  -26.2252   23.3626 H   0  0  0  0  0  0
  -21.6624  -26.7401   22.1236 H   0  0  0  0  0  0
  -19.6912  -25.6304   21.1229 H   0  0  0  0  0  0
  -19.6693  -27.3212   20.6774 H   0  0  0  0  0  0
  -17.4181  -26.6681   21.4038 H   0  0  0  0  0  0
  -18.0324  -26.0035   22.9007 H   0  0  0  0  0  0
  -19.7918  -30.7252   24.2298 H   0  0  0  0  0  0
  -17.4995  -31.6257   24.5136 H   0  0  0  0  0  0
  -15.5337  -30.2967   23.7640 H   0  0  0  0  0  0
  -15.8666  -28.0797   22.7073 H   0  0  0  0  0  0
  -24.5903  -30.7067   25.7873 H   0  0  0  0  0  0
  -24.8776  -32.2991   26.4778 H   0  0  0  0  0  0
  -25.7993  -30.9146   27.0357 H   0  0  0  0  0  0
  -26.2793  -29.6800   24.1249 H   0  0  0  0  0  0
  -27.3863  -29.7254   25.4755 H   0  0  0  0  0  0
  -27.8703  -30.4232   23.9479 H   0  0  0  0  0  0
  -27.2780  -33.3648   26.2044 H   0  0  0  0  0  0
  -28.3870  -32.6814   25.0238 H   0  0  0  0  0  0
  -28.0773  -31.8416   26.5358 H   0  0  0  0  0  0
  -28.2633  -38.0057   24.7466 H   0  0  0  0  0  0
  -28.1035  -36.2594   24.6338 H   0  0  0  0  0  0
  -27.2294  -37.1508   25.8866 H   0  0  0  0  0  0
  -20.9354  -29.8695   21.6885 H   0  0  0  0  0  0
  -26.0209  -38.2874   24.1412 H   0  0  0  0  0  0
  -26.5157  -18.3277   23.2206 H   0  0  0  0  0  0
  -28.0716  -16.5922   22.4510 H   0  0  0  0  0  0
  -26.8282  -20.6518   22.6466 H   0  0  0  0  0  0
  -30.2923  -19.5923   20.2687 H   0  0  0  0  0  0
  -26.9004  -25.2461   21.1446 H   0  0  0  0  0  0
  -30.6935  -24.2451   20.8532 H   0  0  0  0  0  0
  -30.1148  -24.0929   19.1865 H   0  0  0  0  0  0
  -30.9132  -21.9199   20.9417 H   0  0  0  0  0  0
  -30.1321  -21.7546   19.3664 H   0  0  0  0  0  0
  -29.0358  -15.4099   21.2190 H   0  0  0  0  0  0
  1 25  1  0  0  0
  1 30  2  0  0  0
  1 84  1  0  0  0
  2  3  1  0  0  0
  2 25  1  0  0  0
  2 87  1  0  0  0
  2 88  1  0  0  0
  3  4  1  0  0  0
  3 89  1  0  0  0
  3 90  1  0  0  0
  4  5  1  0  0  0
  4 91  1  0  0  0
  4 92  1  0  0  0
  5  6  1  0  0  0
  5 26  1  0  0  0
  5 93  1  0  0  0
  6 25  1  0  0  0
  6 94  1  0  0  0
  6 95  1  0  0  0
  7  8  2  0  0  0
  7 26  1  0  0  0
  7 29  1  0  0  0
  8  9  1  0  0  0
  8 22  1  0  0  0
  9 10  1  0  0  0
  9 27  2  0  0  0
 10 11  2  0  0  0
 10 15  1  0  0  0
 11 12  1  0  0  0
 11 96  1  0  0  0
 12 13  2  0  0  0
 12 97  1  0  0  0
 13 14  1  0  0  0
 13 31  1  0  0  0
 14 15  2  0  0  0
 14 98  1  0  0  0
 15 99  1  0  0  0
 16 17  2  0  0  0
 16 21  1  0  0  0
 16 31  1  0  0  0
 17 18  1  0  0  0
 17100  1  0  0  0
 18 19  2  0  0  0
 18101  1  0  0  0
 19 20  1  0  0  0
 19 24  1  0  0  0
 20 21  2  0  0  0
 20102  1  0  0  0
 21 23  1  0  0  0
 22 28  1  0  0  0
 22 32  2  0  0  0
 26 27  1  0  0  0
 28103  1  0  0  0
 28104  1  0  0  0
 29105  1  0  0  0
 29106  1  0  0  0
 33 34  1  0  0  0
 33 66  1  0  0  0
 33 70  2  0  0  0
 34 36  1  0  0  0
 34 59  1  0  0  0
 34107  1  0  0  0
 35 44  2  0  0  0
 35 45  1  0  0  0
 35 68  1  0  0  0
 36 56  1  0  0  0
 36108  1  0  0  0
 37 39  1  0  0  0
 37 47  1  0  0  0
 37 66  1  0  0  0
 37109  1  0  0  0
 38 43  2  0  0  0
 38 46  1  0  0  0
 38 47  1  0  0  0
 39 64  1  0  0  0
 39 67  2  0  0  0
 40 52  1  0  0  0
 40 53  2  0  0  0
 40 58  1  0  0  0
 41110  1  0  0  0
 41111  1  0  0  0
 41112  1  0  0  0
 41 48  1  0  0  0
 42 43  1  0  0  0
 42 66  1  0  0  0
 42113  1  0  0  0
 42114  1  0  0  0
 43 44  1  0  0  0
 44115  1  0  0  0
 45 46  2  0  0  0
 45116  1  0  0  0
 46117  1  0  0  0
 47118  1  0  0  0
 47119  1  0  0  0
 48 56  1  0  0  0
 48 65  1  0  0  0
 48120  1  0  0  0
 49 50  1  0  0  0
 49 53  1  0  0  0
 49 64  1  0  0  0
 49121  1  0  0  0
 50 51  1  0  0  0
 50122  1  0  0  0
 50123  1  0  0  0
 51 52  1  0  0  0
 51124  1  0  0  0
 51125  1  0  0  0
 52126  1  0  0  0
 52127  1  0  0  0
 53 54  1  0  0  0
 54 55  2  0  0  0
 54128  1  0  0  0
 55 57  1  0  0  0
 55129  1  0  0  0
 56 69  2  0  0  0
 57 58  2  0  0  0
 57130  1  0  0  0
 58131  1  0  0  0
 59 60  1  0  0  0
 59 61  1  0  0  0
 59 62  1  0  0  0
 60132  1  0  0  0
 60133  1  0  0  0
 60134  1  0  0  0
 61135  1  0  0  0
 61136  1  0  0  0
 61137  1  0  0  0
 62138  1  0  0  0
 62139  1  0  0  0
 62140  1  0  0  0
 63 65  1  0  0  0
 63141  1  0  0  0
 63142  1  0  0  0
 63143  1  0  0  0
 64144  1  0  0  0
 65145  1  0  0  0
 68 79  1  0  0  0
 71 72  2  0  0  0
 71 73  1  0  0  0
 71146  1  0  0  0
 72 75  1  0  0  0
 72147  1  0  0  0
 73 76  2  0  0  0
 73148  1  0  0  0
 74 75  2  0  0  0
 74 76  1  0  0  0
 74149  1  0  0  0
 75 80  1  0  0  0
 76 83  1  0  0  0
 77 78  1  0  0  0
 77 79  2  0  0  0
 77 81  1  0  0  0
 78 83  1  0  0  0
 78 85  2  0  0  0
 79150  1  0  0  0
 80 84  1  0  0  0
 80 86  2  0  0  0
 81 82  1  0  0  0
 81151  1  0  0  0
 81152  1  0  0  0
 82 83  1  0  0  0
 82153  1  0  0  0
 82154  1  0  0  0
 84155  1  0  0  0
M  ISO  4   1 100  68 101  79 101  84 100
M  END
> <chiral flag>
0

> <version>
0

> <s_m_source_file>
/data/baiqing/PycharmProjects/Reinvent-master-3.2/result/LINK_invent/BTK/process_docking_weight1_custom_product_contain_oxygen_bond_distance_aromatic_linkinvent_7_9_3/rearranged_h_0083.sdf

> <i_m_source_file_index>
68

> <r_mmod_Potential_Energy-OPLS-2005>
38.8839340209961

> <r_mmod_Stretch_Energy-OPLS-2005>
56.2797660827637

> <r_mmod_Bend_Energy-OPLS-2005>
135.297348022461

> <r_mmod_Torsional_Energy-OPLS-2005>
255.21516418457

> <r_mmod_Improper_Torsional_Energy-OPLS-2005>
5.08545303344727

> <r_mmod_Van_der_Waal_Energy-OPLS-2005>
170.98258972168

> <r_mmod_Electrostatic_Energy-OPLS-2005>
-395.785919189453

> <r_mmod_Solvation_Energy-OPLS-2005>
-223.777618408203

> <b_mmod_Minimization_Converged-OPLS-2005>
0

> <r_mmod_RMS_Derivative-OPLS-2005>
5.31065082550049

$$$$
68
                    3D
 Structure written by MMmdl.
152161  0  0  1  0            999 V2000
  -30.5624  -14.7553   20.4739 C   0  0  0  0  0  0
  -30.4531  -12.4633   19.4598 C   0  0  0  0  0  0
  -29.5170  -12.5185   18.2306 C   0  0  0  0  0  0
  -28.0417  -12.3339   18.6450 C   0  0  0  0  0  0
  -27.6495  -13.2200   19.8551 C   0  0  2  0  0  0
  -28.6957  -13.1161   20.9866 C   0  0  0  0  0  0
  -25.2539  -13.8172   20.5668 C   0  0  0  0  0  0
  -24.1818  -13.0442   20.9216 C   0  0  0  0  0  0
  -24.6389  -11.6914   20.8760 C   0  0  0  0  0  0
  -23.9059  -10.4296   21.0413 C   0  0  0  0  0  0
  -24.3611   -9.4208   21.9183 C   0  0  0  0  0  0
  -23.6285   -8.2246   22.0752 C   0  0  0  0  0  0
  -22.4262   -8.0285   21.3553 C   0  0  0  0  0  0
  -21.9898   -9.0257   20.4654 C   0  0  0  0  0  0
  -22.7232  -10.2134   20.3061 C   0  0  0  0  0  0
  -21.6851   -6.0726   22.5272 C   0  0  0  0  0  0
  -21.4013   -6.5628   23.8206 C   0  0  0  0  0  0
  -21.3665   -5.6783   24.9168 C   0  0  0  0  0  0
  -21.6044   -4.3046   24.7220 C   0  0  0  0  0  0
  -21.8821   -3.8140   23.4341 C   0  0  0  0  0  0
  -21.9195   -4.6955   22.3397 C   0  0  0  0  0  0
  -22.7835  -13.5226   21.1864 C   0  0  0  0  0  0
  -22.1663   -4.2143   21.0976 F   0  0  0  0  0  0
  -21.5632   -3.4528   25.7738 F   0  0  0  0  0  0
  -29.9997  -13.4972   20.4169 N   0  0  0  0  0  0
  -26.2967  -12.9352   20.3279 N   0  0  0  0  0  0
  -25.9312  -11.6509   20.5754 N   0  0  0  0  0  0
  -22.0452  -12.8233   22.0416 N   0  0  0  0  0  0
  -25.4218  -15.1892   20.3982 N   0  0  0  0  0  0
  -31.7381  -14.9302   20.1373 O   0  0  0  0  0  0
  -21.6635   -6.8873   21.4240 O   0  0  0  0  0  0
  -22.3531  -14.5526   20.6695 O   0  0  0  0  0  0
  -24.6307  -31.8569   23.1978 C   0  0  0  0  0  0
  -25.9128  -32.4782   23.8330 C   0  0  1  0  0  0
  -27.2356  -27.2767   20.1307 C   0  0  0  0  0  0
  -25.5917  -33.8573   24.2267 N   0  0  0  0  0  0
  -23.4294  -30.4770   21.5401 C   0  0  2  0  0  0
  -24.8825  -28.9192   20.1169 C   0  0  0  0  0  0
  -22.7509  -29.4617   22.4916 C   0  0  0  0  0  0
  -18.0299  -28.1426   22.8502 C   0  0  0  0  0  0
  -24.1480  -36.7286   23.2629 C   0  0  0  0  0  0
  -25.9731  -30.7757   21.3721 C   0  0  0  0  0  0
  -26.0540  -29.3936   20.7246 C   0  0  0  0  0  0
  -27.2358  -28.5833   20.7252 C   0  0  0  0  0  0
  -26.0431  -26.8612   19.5052 C   0  0  0  0  0  0
  -24.8799  -27.6575   19.5001 C   0  0  0  0  0  0
  -23.6513  -29.8055   20.1587 C   0  0  0  0  0  0
  -25.4108  -36.3094   24.0329 C   0  0  1  0  0  0
  -20.5907  -28.3732   23.1283 C   0  0  2  0  0  0
  -20.6781  -26.9442   22.5423 C   0  0  0  0  0  0
  -19.5756  -26.6423   21.5223 C   0  0  0  0  0  0
  -18.1939  -26.7973   22.1634 C   0  0  0  0  0  0
  -19.1555  -28.8893   23.2893 C   0  0  0  0  0  0
  -18.9472  -30.1486   23.8929 C   0  0  0  0  0  0
  -17.6474  -30.6611   24.0586 C   0  0  0  0  0  0
  -25.9060  -34.9462   23.5117 C   0  0  0  0  0  0
  -16.5368  -29.9126   23.6323 C   0  0  0  0  0  0
  -16.7286  -28.6538   23.0353 C   0  0  0  0  0  0
  -26.4492  -31.6586   25.0704 C   0  0  0  0  0  0
  -25.3712  -31.3733   26.1432 C   0  0  0  0  0  0
  -27.0291  -30.2997   24.6141 C   0  0  0  0  0  0
  -27.6084  -32.4278   25.7463 C   0  0  0  0  0  0
  -27.5600  -37.1785   24.8447 C   0  0  0  0  0  0
  -21.4218  -29.3075   22.3661 N   0  0  0  0  0  0
  -26.4279  -37.3805   23.9442 N   0  0  0  0  0  0
  -24.6974  -31.0540   22.0942 N   0  0  0  0  0  0
  -23.4199  -28.8159   23.3020 O   0  0  0  0  0  0
  -28.3013  -26.3520   20.1204 O   0  0  0  0  0  0
  -26.5649  -34.8939   22.4695 O   0  0  0  0  0  0
  -23.5460  -32.1373   23.7282 O   0  0  0  0  0  0
  -28.2080  -19.3407   20.7756 C   0  0  0  0  0  0
  -28.3839  -17.9215   20.7486 C   0  0  0  0  0  0
  -30.7482  -18.1951   20.5420 C   0  0  0  0  0  0
  -29.2927  -20.2569   20.7115 C   0  0  0  0  0  0
  -29.6525  -17.2809   20.6526 C   0  0  0  0  0  0
  -30.5753  -19.6323   20.5810 C   0  0  0  0  0  0
  -28.6026  -24.0061   21.2504 C   0  0  0  0  0  0
  -28.5354  -23.4135   22.5790 C   0  0  0  0  0  0
  -28.9600  -22.8685   20.3379 C   0  0  0  0  0  0
  -28.3229  -25.3748   21.1415 C   0  0  0  0  0  0
  -28.8233  -21.9331   22.4952 C   0  0  0  0  0  0
  -29.0805  -21.6852   21.0771 N   0  0  0  0  0  0
  -29.6797  -15.7919   20.7370 N   0  0  0  0  0  0
  -28.2922  -23.9836   23.6503 O   0  0  0  0  0  0
  -29.1240  -22.9352   19.1135 O   0  0  0  0  0  0
  -31.6776  -20.4205   20.5664 F   0  0  0  0  0  0
  -31.4867  -12.6248   19.1467 H   0  0  0  0  0  0
  -30.4290  -11.4748   19.9230 H   0  0  0  0  0  0
  -29.7976  -11.7545   17.5048 H   0  0  0  0  0  0
  -29.6375  -13.4780   17.7271 H   0  0  0  0  0  0
  -27.8966  -11.2838   18.8965 H   0  0  0  0  0  0
  -27.3850  -12.5366   17.7985 H   0  0  0  0  0  0
  -27.6522  -14.2458   19.4879 H   0  0  0  0  0  0
  -28.7344  -12.1013   21.3842 H   0  0  0  0  0  0
  -28.4236  -13.7537   21.8297 H   0  0  0  0  0  0
  -25.2749   -9.5682   22.4764 H   0  0  0  0  0  0
  -23.9998   -7.4625   22.7464 H   0  0  0  0  0  0
  -21.0831   -8.8779   19.8952 H   0  0  0  0  0  0
  -22.3689  -10.9674   19.6181 H   0  0  0  0  0  0
  -21.1994   -7.6133   23.9711 H   0  0  0  0  0  0
  -21.1487   -6.0507   25.9074 H   0  0  0  0  0  0
  -22.0594   -2.7602   23.2847 H   0  0  0  0  0  0
  -22.4017  -11.9900   22.4847 H   0  0  0  0  0  0
  -21.1067  -13.1293   22.2570 H   0  0  0  0  0  0
  -24.6368  -15.8280   20.4595 H   0  0  0  0  0  0
  -26.2304  -15.6055   19.9548 H   0  0  0  0  0  0
  -26.7206  -32.5461   23.1089 H   0  0  0  0  0  0
  -25.0017  -33.9695   25.0381 H   0  0  0  0  0  0
  -22.7246  -31.2985   21.3920 H   0  0  0  0  0  0
  -23.3787  -35.9568   23.3226 H   0  0  0  0  0  0
  -24.3579  -36.8968   22.2054 H   0  0  0  0  0  0
  -23.7162  -37.6439   23.6688 H   0  0  0  0  0  0
  -26.0956  -31.5285   20.5925 H   0  0  0  0  0  0
  -26.8554  -30.8431   21.9961 H   0  0  0  0  0  0
  -28.1344  -28.9428   21.2067 H   0  0  0  0  0  0
  -26.0073  -25.8865   19.0388 H   0  0  0  0  0  0
  -23.9825  -27.2843   19.0268 H   0  0  0  0  0  0
  -23.7795  -30.5793   19.4006 H   0  0  0  0  0  0
  -22.7697  -29.2405   19.8514 H   0  0  0  0  0  0
  -25.1262  -36.1951   25.0815 H   0  0  0  0  0  0
  -21.0004  -28.3323   24.1402 H   0  0  0  0  0  0
  -20.5690  -26.2331   23.3626 H   0  0  0  0  0  0
  -21.6651  -26.7469   22.1217 H   0  0  0  0  0  0
  -19.6901  -25.6338   21.1243 H   0  0  0  0  0  0
  -19.6688  -27.3239   20.6757 H   0  0  0  0  0  0
  -17.4199  -26.6741   21.4040 H   0  0  0  0  0  0
  -18.0325  -26.0110   22.9022 H   0  0  0  0  0  0
  -19.7948  -30.7301   24.2311 H   0  0  0  0  0  0
  -17.5026  -31.6286   24.5211 H   0  0  0  0  0  0
  -15.5369  -30.3044   23.7625 H   0  0  0  0  0  0
  -15.8683  -28.0863   22.7064 H   0  0  0  0  0  0
  -24.5914  -30.7043   25.7770 H   0  0  0  0  0  0
  -24.8875  -32.2900   26.4824 H   0  0  0  0  0  0
  -25.8040  -30.8948   27.0229 H   0  0  0  0  0  0
  -26.2830  -29.6787   24.1176 H   0  0  0  0  0  0
  -27.3989  -29.7225   25.4629 H   0  0  0  0  0  0
  -27.8712  -30.4265   23.9329 H   0  0  0  0  0  0
  -27.2757  -33.3618   26.2003 H   0  0  0  0  0  0
  -28.3919  -32.6751   25.0282 H   0  0  0  0  0  0
  -28.0715  -31.8398   26.5401 H   0  0  0  0  0  0
  -28.2560  -38.0146   24.7626 H   0  0  0  0  0  0
  -28.1155  -36.2696   24.6094 H   0  0  0  0  0  0
  -27.2345  -37.1224   25.8849 H   0  0  0  0  0  0
  -20.9411  -29.8786   21.6855 H   0  0  0  0  0  0
  -26.0162  -38.2858   24.1532 H   0  0  0  0  0  0
  -27.2075  -19.7267   20.9126 H   0  0  0  0  0  0
  -27.4942  -17.3153   20.8456 H   0  0  0  0  0  0
  -31.7533  -17.8022   20.4792 H   0  0  0  0  0  0
  -28.0793  -25.8919   22.0610 H   0  0  0  0  0  0
  -27.9664  -21.3636   22.8560 H   0  0  0  0  0  0
  -29.6974  -21.6839   23.0966 H   0  0  0  0  0  0
  -28.7755  -15.4070   20.9655 H   0  0  0  0  0  0
  1 25  1  0  0  0
  1 30  2  0  0  0
  1 83  1  0  0  0
  2  3  1  0  0  0
  2 25  1  0  0  0
  2 87  1  0  0  0
  2 88  1  0  0  0
  3  4  1  0  0  0
  3 89  1  0  0  0
  3 90  1  0  0  0
  4  5  1  0  0  0
  4 91  1  0  0  0
  4 92  1  0  0  0
  5  6  1  0  0  0
  5 26  1  0  0  0
  5 93  1  0  0  0
  6 25  1  0  0  0
  6 94  1  0  0  0
  6 95  1  0  0  0
  7  8  2  0  0  0
  7 26  1  0  0  0
  7 29  1  0  0  0
  8  9  1  0  0  0
  8 22  1  0  0  0
  9 10  1  0  0  0
  9 27  2  0  0  0
 10 11  2  0  0  0
 10 15  1  0  0  0
 11 12  1  0  0  0
 11 96  1  0  0  0
 12 13  2  0  0  0
 12 97  1  0  0  0
 13 14  1  0  0  0
 13 31  1  0  0  0
 14 15  2  0  0  0
 14 98  1  0  0  0
 15 99  1  0  0  0
 16 17  2  0  0  0
 16 21  1  0  0  0
 16 31  1  0  0  0
 17 18  1  0  0  0
 17100  1  0  0  0
 18 19  2  0  0  0
 18101  1  0  0  0
 19 20  1  0  0  0
 19 24  1  0  0  0
 20 21  2  0  0  0
 20102  1  0  0  0
 21 23  1  0  0  0
 22 28  1  0  0  0
 22 32  2  0  0  0
 26 27  1  0  0  0
 28103  1  0  0  0
 28104  1  0  0  0
 29105  1  0  0  0
 29106  1  0  0  0
 33 34  1  0  0  0
 33 66  1  0  0  0
 33 70  2  0  0  0
 34 36  1  0  0  0
 34 59  1  0  0  0
 34107  1  0  0  0
 35 44  2  0  0  0
 35 45  1  0  0  0
 35 68  1  0  0  0
 36 56  1  0  0  0
 36108  1  0  0  0
 37 39  1  0  0  0
 37 47  1  0  0  0
 37 66  1  0  0  0
 37109  1  0  0  0
 38 43  2  0  0  0
 38 46  1  0  0  0
 38 47  1  0  0  0
 39 64  1  0  0  0
 39 67  2  0  0  0
 40 52  1  0  0  0
 40 53  2  0  0  0
 40 58  1  0  0  0
 41110  1  0  0  0
 41111  1  0  0  0
 41112  1  0  0  0
 41 48  1  0  0  0
 42 43  1  0  0  0
 42 66  1  0  0  0
 42113  1  0  0  0
 42114  1  0  0  0
 43 44  1  0  0  0
 44115  1  0  0  0
 45 46  2  0  0  0
 45116  1  0  0  0
 46117  1  0  0  0
 47118  1  0  0  0
 47119  1  0  0  0
 48 56  1  0  0  0
 48 65  1  0  0  0
 48120  1  0  0  0
 49 50  1  0  0  0
 49 53  1  0  0  0
 49 64  1  0  0  0
 49121  1  0  0  0
 50 51  1  0  0  0
 50122  1  0  0  0
 50123  1  0  0  0
 51 52  1  0  0  0
 51124  1  0  0  0
 51125  1  0  0  0
 52126  1  0  0  0
 52127  1  0  0  0
 53 54  1  0  0  0
 54 55  2  0  0  0
 54128  1  0  0  0
 55 57  1  0  0  0
 55129  1  0  0  0
 56 69  2  0  0  0
 57 58  2  0  0  0
 57130  1  0  0  0
 58131  1  0  0  0
 59 60  1  0  0  0
 59 61  1  0  0  0
 59 62  1  0  0  0
 60132  1  0  0  0
 60133  1  0  0  0
 60134  1  0  0  0
 61135  1  0  0  0
 61136  1  0  0  0
 61137  1  0  0  0
 62138  1  0  0  0
 62139  1  0  0  0
 62140  1  0  0  0
 63 65  1  0  0  0
 63141  1  0  0  0
 63142  1  0  0  0
 63143  1  0  0  0
 64144  1  0  0  0
 65145  1  0  0  0
 68 80  1  0  0  0
 71 72  2  0  0  0
 71 74  1  0  0  0
 71146  1  0  0  0
 72 75  1  0  0  0
 72147  1  0  0  0
 73 75  2  0  0  0
 73 76  1  0  0  0
 73148  1  0  0  0
 74 76  2  0  0  0
 74 82  1  0  0  0
 75 83  1  0  0  0
 76 86  1  0  0  0
 77 78  1  0  0  0
 77 79  1  0  0  0
 77 80  2  0  0  0
 78 81  1  0  0  0
 78 84  2  0  0  0
 79 82  1  0  0  0
 79 85  2  0  0  0
 80149  1  0  0  0
 81 82  1  0  0  0
 81150  1  0  0  0
 81151  1  0  0  0
 83152  1  0  0  0
M  ISO  4   1 100  68 101  80 101  83 100
M  END
> <chiral flag>
0

> <version>
0

> <s_m_source_file>
/data/baiqing/PycharmProjects/Reinvent-master-3.2/result/LINK_invent/BTK/process_docking_weight1_custom_product_contain_oxygen_bond_distance_aromatic_linkinvent_7_9_3/rearranged_h_0083.sdf

> <i_m_source_file_index>
69

> <r_mmod_Potential_Energy-OPLS-2005>
280.198608398438

> <r_mmod_Stretch_Energy-OPLS-2005>
112.381683349609

> <r_mmod_Bend_Energy-OPLS-2005>
260.190368652344

> <r_mmod_Torsional_Energy-OPLS-2005>
301.230712890625

> <r_mmod_Improper_Torsional_Energy-OPLS-2005>
7.79251050949097

> <r_mmod_Van_der_Waal_Energy-OPLS-2005>
125.019226074219

> <r_mmod_Electrostatic_Energy-OPLS-2005>
-373.0458984375

> <r_mmod_Solvation_Energy-OPLS-2005>
-239.428329467773

> <b_mmod_Minimization_Converged-OPLS-2005>
0

> <r_mmod_RMS_Derivative-OPLS-2005>
2.17042231559753

$$$$
69
                    3D
 Structure written by MMmdl.
149158  0  0  1  0            999 V2000
  -30.6663  -14.6759   20.4562 C   0  0  0  0  0  0
  -30.4171  -12.4078   19.4715 C   0  0  0  0  0  0
  -29.5029  -12.4944   18.2317 C   0  0  0  0  0  0
  -28.0276  -12.3354   18.6441 C   0  0  0  0  0  0
  -27.6421  -13.2322   19.8514 C   0  0  2  0  0  0
  -28.6872  -13.1595   20.9872 C   0  0  0  0  0  0
  -25.2507  -13.8205   20.5700 C   0  0  0  0  0  0
  -24.1802  -13.0447   20.9216 C   0  0  0  0  0  0
  -24.6391  -11.6925   20.8754 C   0  0  0  0  0  0
  -23.9068  -10.4297   21.0407 C   0  0  0  0  0  0
  -24.3620   -9.4211   21.9184 C   0  0  0  0  0  0
  -23.6295   -8.2246   22.0753 C   0  0  0  0  0  0
  -22.4279   -8.0280   21.3542 C   0  0  0  0  0  0
  -21.9914   -9.0254   20.4647 C   0  0  0  0  0  0
  -22.7241  -10.2135   20.3055 C   0  0  0  0  0  0
  -21.6854   -6.0733   22.5275 C   0  0  0  0  0  0
  -21.4018   -6.5637   23.8209 C   0  0  0  0  0  0
  -21.3661   -5.6789   24.9171 C   0  0  0  0  0  0
  -21.6044   -4.3052   24.7222 C   0  0  0  0  0  0
  -21.8820   -3.8144   23.4344 C   0  0  0  0  0  0
  -21.9195   -4.6960   22.3400 C   0  0  0  0  0  0
  -22.7822  -13.5227   21.1867 C   0  0  0  0  0  0
  -22.1661   -4.2146   21.0978 F   0  0  0  0  0  0
  -21.5629   -3.4536   25.7736 F   0  0  0  0  0  0
  -29.9958  -13.4773   20.4044 N   0  0  0  0  0  0
  -26.2936  -12.9416   20.3291 N   0  0  0  0  0  0
  -25.9321  -11.6557   20.5761 N   0  0  0  0  0  0
  -22.0464  -12.8217   22.0420 N   0  0  0  0  0  0
  -25.4191  -15.1931   20.4104 N   0  0  0  0  0  0
  -31.8605  -14.6947   20.1472 O   0  0  0  0  0  0
  -21.6643   -6.8877   21.4236 O   0  0  0  0  0  0
  -22.3509  -14.5530   20.6707 O   0  0  0  0  0  0
  -24.6269  -31.8591   23.2012 C   0  0  0  0  0  0
  -25.9114  -32.4773   23.8346 C   0  0  1  0  0  0
  -27.2215  -27.3095   20.1099 C   0  0  0  0  0  0
  -25.5925  -33.8575   24.2272 N   0  0  0  0  0  0
  -23.4211  -30.4828   21.5439 C   0  0  2  0  0  0
  -24.8667  -28.9383   20.1066 C   0  0  0  0  0  0
  -22.7486  -29.4615   22.4924 C   0  0  0  0  0  0
  -18.0290  -28.1380   22.8486 C   0  0  0  0  0  0
  -24.1491  -36.7292   23.2639 C   0  0  0  0  0  0
  -25.9632  -30.7859   21.3742 C   0  0  0  0  0  0
  -26.0361  -29.4136   20.7131 C   0  0  0  0  0  0
  -27.2147  -28.6087   20.7088 C   0  0  0  0  0  0
  -26.0242  -26.8849   19.4885 C   0  0  0  0  0  0
  -24.8629  -27.6798   19.4863 C   0  0  0  0  0  0
  -23.6357  -29.8198   20.1580 C   0  0  0  0  0  0
  -25.4116  -36.3080   24.0327 C   0  0  1  0  0  0
  -20.5893  -28.3690   23.1279 C   0  0  2  0  0  0
  -20.6786  -26.9414   22.5404 C   0  0  0  0  0  0
  -19.5759  -26.6384   21.5210 C   0  0  0  0  0  0
  -18.1939  -26.7924   22.1621 C   0  0  0  0  0  0
  -19.1541  -28.8851   23.2878 C   0  0  0  0  0  0
  -18.9461  -30.1453   23.8894 C   0  0  0  0  0  0
  -17.6461  -30.6584   24.0560 C   0  0  0  0  0  0
  -25.9053  -34.9450   23.5100 C   0  0  0  0  0  0
  -16.5353  -29.9082   23.6323 C   0  0  0  0  0  0
  -16.7278  -28.6497   23.0349 C   0  0  0  0  0  0
  -26.4497  -31.6583   25.0720 C   0  0  0  0  0  0
  -25.3725  -31.3721   26.1441 C   0  0  0  0  0  0
  -27.0344  -30.3008   24.6179 C   0  0  0  0  0  0
  -27.6051  -32.4323   25.7494 C   0  0  0  0  0  0
  -27.5579  -37.1803   24.8465 C   0  0  0  0  0  0
  -21.4196  -29.3046   22.3676 N   0  0  0  0  0  0
  -26.4293  -37.3774   23.9406 N   0  0  0  0  0  0
  -24.6892  -31.0595   22.0965 N   0  0  0  0  0  0
  -23.4211  -28.8147   23.2999 O   0  0  0  0  0  0
  -28.3205  -26.4378   20.2038 O   0  0  0  0  0  0
  -26.5626  -34.8919   22.4670 O   0  0  0  0  0  0
  -23.5430  -32.1395   23.7334 O   0  0  0  0  0  0
  -28.2184  -18.5071   21.2550 C   0  0  0  0  0  0
  -27.8836  -19.9051   21.2396 C   0  0  0  0  0  0
  -29.4515  -18.3539   20.6751 C   0  0  0  0  0  0
  -28.9108  -20.5882   20.6416 C   0  0  0  0  0  0
  -28.6018  -23.9334   19.8564 C   0  0  0  0  0  0
  -28.8131  -23.2223   21.1057 C   0  0  0  0  0  0
  -28.3598  -25.2372   19.4669 C   0  0  0  0  0  0
  -30.3767  -17.1442   20.4993 C   0  0  0  0  0  0
  -28.6749  -22.5908   19.1148 C   0  0  0  0  0  0
  -29.1136  -22.0205   20.4045 N   0  0  0  0  0  0
  -29.9392  -15.8386   20.6455 N   0  0  0  0  0  0
  -28.6300  -23.5554   22.2585 O   0  0  0  0  0  0
  -31.5426  -17.4225   20.1942 O   0  0  0  0  0  0
  -29.8702  -19.6400   20.2896 O   0  0  0  0  0  0
  -31.4622  -12.4939   19.1695 H   0  0  0  0  0  0
  -30.3281  -11.4307   19.9491 H   0  0  0  0  0  0
  -29.7733  -11.7240   17.5082 H   0  0  0  0  0  0
  -29.6466  -13.4522   17.7293 H   0  0  0  0  0  0
  -27.8722  -11.2868   18.8997 H   0  0  0  0  0  0
  -27.3733  -12.5403   17.7960 H   0  0  0  0  0  0
  -27.6399  -14.2555   19.4756 H   0  0  0  0  0  0
  -28.7039  -12.1655   21.4366 H   0  0  0  0  0  0
  -28.4350  -13.8538   21.7903 H   0  0  0  0  0  0
  -25.2761   -9.5689   22.4762 H   0  0  0  0  0  0
  -24.0003   -7.4638   22.7474 H   0  0  0  0  0  0
  -21.0845   -8.8771   19.8953 H   0  0  0  0  0  0
  -22.3694  -10.9674   19.6167 H   0  0  0  0  0  0
  -21.2012   -7.6146   23.9711 H   0  0  0  0  0  0
  -21.1483   -6.0521   25.9074 H   0  0  0  0  0  0
  -22.0600   -2.7607   23.2844 H   0  0  0  0  0  0
  -22.4084  -11.9886   22.4821 H   0  0  0  0  0  0
  -21.1076  -13.1237   22.2610 H   0  0  0  0  0  0
  -24.6429  -15.8392   20.5059 H   0  0  0  0  0  0
  -26.2507  -15.6293   20.0350 H   0  0  0  0  0  0
  -26.7177  -32.5437   23.1089 H   0  0  0  0  0  0
  -25.0064  -33.9720   25.0410 H   0  0  0  0  0  0
  -22.7150  -31.3036   21.4024 H   0  0  0  0  0  0
  -23.3752  -35.9626   23.3303 H   0  0  0  0  0  0
  -24.3578  -36.8914   22.2053 H   0  0  0  0  0  0
  -23.7247  -37.6495   23.6664 H   0  0  0  0  0  0
  -26.0973  -31.5504   20.6078 H   0  0  0  0  0  0
  -26.8427  -30.8322   22.0048 H   0  0  0  0  0  0
  -28.1094  -28.9634   21.2011 H   0  0  0  0  0  0
  -25.9525  -25.9106   19.0276 H   0  0  0  0  0  0
  -23.9634  -27.3066   19.0165 H   0  0  0  0  0  0
  -23.7565  -30.5980   19.4036 H   0  0  0  0  0  0
  -22.7550  -29.2510   19.8540 H   0  0  0  0  0  0
  -25.1298  -36.1930   25.0820 H   0  0  0  0  0  0
  -20.9987  -28.3268   24.1398 H   0  0  0  0  0  0
  -21.6653  -26.7453   22.1187 H   0  0  0  0  0  0
  -20.5701  -26.2298   23.3604 H   0  0  0  0  0  0
  -19.6689  -27.3191   20.6735 H   0  0  0  0  0  0
  -19.6926  -25.6293   21.1246 H   0  0  0  0  0  0
  -17.4213  -26.6672   21.4019 H   0  0  0  0  0  0
  -18.0342  -26.0057   22.9008 H   0  0  0  0  0  0
  -19.7934  -30.7271   24.2269 H   0  0  0  0  0  0
  -17.5011  -31.6262   24.5167 H   0  0  0  0  0  0
  -15.5352  -30.2982   23.7640 H   0  0  0  0  0  0
  -15.8680  -28.0816   22.7061 H   0  0  0  0  0  0
  -24.5905  -30.7066   25.7762 H   0  0  0  0  0  0
  -24.8909  -32.2886   26.4860 H   0  0  0  0  0  0
  -25.8044  -30.8899   27.0218 H   0  0  0  0  0  0
  -26.2922  -29.6755   24.1205 H   0  0  0  0  0  0
  -27.4044  -29.7267   25.4683 H   0  0  0  0  0  0
  -27.8787  -30.4295   23.9403 H   0  0  0  0  0  0
  -27.2656  -33.3623   26.2068 H   0  0  0  0  0  0
  -28.3863  -32.6886   25.0326 H   0  0  0  0  0  0
  -28.0717  -31.8452   26.5415 H   0  0  0  0  0  0
  -28.2599  -38.0097   24.7508 H   0  0  0  0  0  0
  -28.1073  -36.2629   24.6299 H   0  0  0  0  0  0
  -27.2296  -37.1459   25.8869 H   0  0  0  0  0  0
  -20.9373  -29.8782   21.6901 H   0  0  0  0  0  0
  -26.0173  -38.2850   24.1404 H   0  0  0  0  0  0
  -27.6282  -17.7051   21.6754 H   0  0  0  0  0  0
  -26.9863  -20.3584   21.6375 H   0  0  0  0  0  0
  -28.2085  -25.4481   18.4175 H   0  0  0  0  0  0
  -29.4340  -22.4718   18.3403 H   0  0  0  0  0  0
  -27.7261  -22.1653   18.7807 H   0  0  0  0  0  0
  -28.9654  -15.7287   20.8669 H   0  0  0  0  0  0
  1 25  1  0  0  0
  1 30  2  0  0  0
  1 81  1  0  0  0
  2  3  1  0  0  0
  2 25  1  0  0  0
  2 85  1  0  0  0
  2 86  1  0  0  0
  3  4  1  0  0  0
  3 87  1  0  0  0
  3 88  1  0  0  0
  4  5  1  0  0  0
  4 89  1  0  0  0
  4 90  1  0  0  0
  5  6  1  0  0  0
  5 26  1  0  0  0
  5 91  1  0  0  0
  6 25  1  0  0  0
  6 92  1  0  0  0
  6 93  1  0  0  0
  7  8  2  0  0  0
  7 26  1  0  0  0
  7 29  1  0  0  0
  8  9  1  0  0  0
  8 22  1  0  0  0
  9 10  1  0  0  0
  9 27  2  0  0  0
 10 11  2  0  0  0
 10 15  1  0  0  0
 11 12  1  0  0  0
 11 94  1  0  0  0
 12 13  2  0  0  0
 12 95  1  0  0  0
 13 14  1  0  0  0
 13 31  1  0  0  0
 14 15  2  0  0  0
 14 96  1  0  0  0
 15 97  1  0  0  0
 16 17  2  0  0  0
 16 21  1  0  0  0
 16 31  1  0  0  0
 17 18  1  0  0  0
 17 98  1  0  0  0
 18 19  2  0  0  0
 18 99  1  0  0  0
 19 20  1  0  0  0
 19 24  1  0  0  0
 20 21  2  0  0  0
 20100  1  0  0  0
 21 23  1  0  0  0
 22 28  1  0  0  0
 22 32  2  0  0  0
 26 27  1  0  0  0
 28101  1  0  0  0
 28102  1  0  0  0
 29103  1  0  0  0
 29104  1  0  0  0
 33 34  1  0  0  0
 33 66  1  0  0  0
 33 70  2  0  0  0
 34 36  1  0  0  0
 34 59  1  0  0  0
 34105  1  0  0  0
 35 44  2  0  0  0
 35 45  1  0  0  0
 35 68  1  0  0  0
 36 56  1  0  0  0
 36106  1  0  0  0
 37 39  1  0  0  0
 37 47  1  0  0  0
 37 66  1  0  0  0
 37107  1  0  0  0
 38 43  2  0  0  0
 38 46  1  0  0  0
 38 47  1  0  0  0
 39 64  1  0  0  0
 39 67  2  0  0  0
 40 52  1  0  0  0
 40 53  2  0  0  0
 40 58  1  0  0  0
 41108  1  0  0  0
 41109  1  0  0  0
 41110  1  0  0  0
 41 48  1  0  0  0
 42 43  1  0  0  0
 42 66  1  0  0  0
 42111  1  0  0  0
 42112  1  0  0  0
 43 44  1  0  0  0
 44113  1  0  0  0
 45 46  2  0  0  0
 45114  1  0  0  0
 46115  1  0  0  0
 47116  1  0  0  0
 47117  1  0  0  0
 48 56  1  0  0  0
 48 65  1  0  0  0
 48118  1  0  0  0
 49 50  1  0  0  0
 49 53  1  0  0  0
 49 64  1  0  0  0
 49119  1  0  0  0
 50 51  1  0  0  0
 50120  1  0  0  0
 50121  1  0  0  0
 51 52  1  0  0  0
 51122  1  0  0  0
 51123  1  0  0  0
 52124  1  0  0  0
 52125  1  0  0  0
 53 54  1  0  0  0
 54 55  2  0  0  0
 54126  1  0  0  0
 55 57  1  0  0  0
 55127  1  0  0  0
 56 69  2  0  0  0
 57 58  2  0  0  0
 57128  1  0  0  0
 58129  1  0  0  0
 59 60  1  0  0  0
 59 61  1  0  0  0
 59 62  1  0  0  0
 60130  1  0  0  0
 60131  1  0  0  0
 60132  1  0  0  0
 61133  1  0  0  0
 61134  1  0  0  0
 61135  1  0  0  0
 62136  1  0  0  0
 62137  1  0  0  0
 62138  1  0  0  0
 63 65  1  0  0  0
 63139  1  0  0  0
 63140  1  0  0  0
 63141  1  0  0  0
 64142  1  0  0  0
 65143  1  0  0  0
 68 77  1  0  0  0
 71 72  1  0  0  0
 71 73  2  0  0  0
 71144  1  0  0  0
 72 74  2  0  0  0
 72145  1  0  0  0
 73 78  1  0  0  0
 73 84  1  0  0  0
 74 80  1  0  0  0
 74 84  1  0  0  0
 75 76  1  0  0  0
 75 77  2  0  0  0
 75 79  1  0  0  0
 76 80  1  0  0  0
 76 82  2  0  0  0
 77146  1  0  0  0
 78 81  1  0  0  0
 78 83  2  0  0  0
 79 80  1  0  0  0
 79147  1  0  0  0
 79148  1  0  0  0
 81149  1  0  0  0
M  ISO  4   1 100  68 101  77 101  81 100
M  END
> <chiral flag>
0

> <version>
0

> <s_m_source_file>
/data/baiqing/PycharmProjects/Reinvent-master-3.2/result/LINK_invent/BTK/process_docking_weight1_custom_product_contain_oxygen_bond_distance_aromatic_linkinvent_7_9_3/rearranged_h_0083.sdf

> <i_m_source_file_index>
70

> <r_mmod_Potential_Energy-OPLS-2005>
27.5350227355957

> <r_mmod_Stretch_Energy-OPLS-2005>
78.3733062744141

> <r_mmod_Bend_Energy-OPLS-2005>
190.387619018555

> <r_mmod_Torsional_Energy-OPLS-2005>
246.716583251953

> <r_mmod_Improper_Torsional_Energy-OPLS-2005>
10.9789924621582

> <r_mmod_Van_der_Waal_Energy-OPLS-2005>
124.443557739258

> <r_mmod_Electrostatic_Energy-OPLS-2005>
-429.169555664062

> <r_mmod_Solvation_Energy-OPLS-2005>
-257.122802734375

> <b_mmod_Minimization_Converged-OPLS-2005>
0

> <r_mmod_RMS_Derivative-OPLS-2005>
0.537542521953583

$$$$
70
                    3D
 Structure written by MMmdl.
150159  0  0  1  0            999 V2000
  -30.5812  -14.8839   20.4356 C   0  0  0  0  0  0
  -30.4336  -12.5472   19.4879 C   0  0  0  0  0  0
  -29.5143  -12.5187   18.2467 C   0  0  0  0  0  0
  -28.0459  -12.3181   18.6661 C   0  0  0  0  0  0
  -27.6310  -13.2453   19.8391 C   0  0  2  0  0  0
  -28.6761  -13.2557   20.9749 C   0  0  0  0  0  0
  -25.2466  -13.8216   20.5712 C   0  0  0  0  0  0
  -24.1780  -13.0440   20.9227 C   0  0  0  0  0  0
  -24.6394  -11.6925   20.8757 C   0  0  0  0  0  0
  -23.9078  -10.4294   21.0409 C   0  0  0  0  0  0
  -24.3626   -9.4207   21.9185 C   0  0  0  0  0  0
  -23.6298   -8.2244   22.0754 C   0  0  0  0  0  0
  -22.4280   -8.0282   21.3545 C   0  0  0  0  0  0
  -21.9919   -9.0257   20.4646 C   0  0  0  0  0  0
  -22.7250  -10.2135   20.3057 C   0  0  0  0  0  0
  -21.6855   -6.0736   22.5279 C   0  0  0  0  0  0
  -21.4016   -6.5640   23.8212 C   0  0  0  0  0  0
  -21.3660   -5.6793   24.9174 C   0  0  0  0  0  0
  -21.6044   -4.3056   24.7225 C   0  0  0  0  0  0
  -21.8819   -3.8147   23.4346 C   0  0  0  0  0  0
  -21.9194   -4.6964   22.3402 C   0  0  0  0  0  0
  -22.7799  -13.5210   21.1881 C   0  0  0  0  0  0
  -22.1662   -4.2149   21.0980 F   0  0  0  0  0  0
  -21.5628   -3.4539   25.7737 F   0  0  0  0  0  0
  -29.9572  -13.6444   20.3736 N   0  0  0  0  0  0
  -26.2892  -12.9446   20.3255 N   0  0  0  0  0  0
  -25.9326  -11.6576   20.5748 N   0  0  0  0  0  0
  -22.0452  -12.8196   22.0437 N   0  0  0  0  0  0
  -25.4118  -15.1947   20.4133 N   0  0  0  0  0  0
  -31.7866  -14.9199   20.1698 O   0  0  0  0  0  0
  -21.6643   -6.8880   21.4241 O   0  0  0  0  0  0
  -22.3480  -14.5513   20.6725 O   0  0  0  0  0  0
  -24.6401  -31.8475   23.1918 C   0  0  0  0  0  0
  -25.9187  -32.4714   23.8295 C   0  0  1  0  0  0
  -27.2151  -27.1728   20.1491 C   0  0  0  0  0  0
  -25.5948  -33.8519   24.2211 N   0  0  0  0  0  0
  -23.4425  -30.4679   21.5363 C   0  0  2  0  0  0
  -24.8933  -28.9016   20.1103 C   0  0  0  0  0  0
  -22.7553  -29.4562   22.4871 C   0  0  0  0  0  0
  -18.0302  -28.1394   22.8478 C   0  0  0  0  0  0
  -24.1491  -36.7265   23.2642 C   0  0  0  0  0  0
  -25.9963  -30.7316   21.3876 C   0  0  0  0  0  0
  -26.0690  -29.3456   20.7311 C   0  0  0  0  0  0
  -27.2343  -28.4948   20.7389 C   0  0  0  0  0  0
  -26.0200  -26.8255   19.4843 C   0  0  0  0  0  0
  -24.8786  -27.6526   19.4725 C   0  0  0  0  0  0
  -23.6681  -29.7995   20.1546 C   0  0  0  0  0  0
  -25.4122  -36.3044   24.0319 C   0  0  1  0  0  0
  -20.5913  -28.3717   23.1242 C   0  0  2  0  0  0
  -20.6787  -26.9423   22.5404 C   0  0  0  0  0  0
  -19.5761  -26.6382   21.5212 C   0  0  0  0  0  0
  -18.1942  -26.7933   22.1623 C   0  0  0  0  0  0
  -19.1558  -28.8873   23.2853 C   0  0  0  0  0  0
  -18.9475  -30.1470   23.8878 C   0  0  0  0  0  0
  -17.6472  -30.6591   24.0560 C   0  0  0  0  0  0
  -25.9069  -34.9418   23.5072 C   0  0  0  0  0  0
  -16.5363  -29.9084   23.6335 C   0  0  0  0  0  0
  -16.7287  -28.6503   23.0356 C   0  0  0  0  0  0
  -26.4521  -31.6571   25.0722 C   0  0  0  0  0  0
  -25.3712  -31.3747   26.1420 C   0  0  0  0  0  0
  -27.0388  -30.2972   24.6284 C   0  0  0  0  0  0
  -27.6052  -32.4335   25.7508 C   0  0  0  0  0  0
  -27.5576  -37.1789   24.8465 C   0  0  0  0  0  0
  -21.4249  -29.3048   22.3618 N   0  0  0  0  0  0
  -26.4289  -37.3753   23.9407 N   0  0  0  0  0  0
  -24.7124  -31.0359   22.0939 N   0  0  0  0  0  0
  -23.4210  -28.8106   23.3008 O   0  0  0  0  0  0
  -28.2445  -26.1747   20.1870 O   0  0  0  0  0  0
  -26.5651  -34.8908   22.4648 O   0  0  0  0  0  0
  -23.5527  -32.1337   23.7156 O   0  0  0  0  0  0
  -31.9721  -19.1735   21.1764 C   0  0  0  0  0  0
  -31.1410  -20.2748   20.8958 C   0  0  0  0  0  0
  -31.5249  -17.8480   21.0492 C   0  0  0  0  0  0
  -29.7912  -20.1713   20.4815 C   0  0  0  0  0  0
  -30.2105  -17.5483   20.6358 C   0  0  0  0  0  0
  -29.3615  -18.7451   20.3825 C   0  0  0  0  0  0
  -28.4314  -23.5150   20.4495 C   0  0  0  0  0  0
  -29.5860  -22.8509   19.8303 C   0  0  0  0  0  0
  -27.8974  -24.8215   20.5939 C   0  0  0  0  0  0
  -28.0171  -22.0981   20.9862 C   0  0  0  0  0  0
  -29.1332  -21.5213   20.1896 N   0  0  0  0  0  0
  -29.8214  -16.0752   20.5475 N   0  0  0  0  0  0
  -30.5869  -23.3241   19.3328 O   0  0  0  0  0  0
  -28.0832  -18.5132   19.9977 F   0  0  0  0  0  0
  -31.4702  -12.6868   19.1772 H   0  0  0  0  0  0
  -30.4072  -11.5910   20.0130 H   0  0  0  0  0  0
  -29.8213  -11.7244   17.5650 H   0  0  0  0  0  0
  -29.6143  -13.4540   17.6936 H   0  0  0  0  0  0
  -27.9311  -11.2753   18.9639 H   0  0  0  0  0  0
  -27.3832  -12.4648   17.8123 H   0  0  0  0  0  0
  -27.5997  -14.2511   19.4196 H   0  0  0  0  0  0
  -28.7486  -12.2780   21.4533 H   0  0  0  0  0  0
  -28.3890  -13.9625   21.7552 H   0  0  0  0  0  0
  -25.2769   -9.5684   22.4763 H   0  0  0  0  0  0
  -24.0006   -7.4635   22.7474 H   0  0  0  0  0  0
  -21.0850   -8.8778   19.8952 H   0  0  0  0  0  0
  -22.3708  -10.9675   19.6168 H   0  0  0  0  0  0
  -21.2009   -7.6149   23.9716 H   0  0  0  0  0  0
  -21.1482   -6.0523   25.9077 H   0  0  0  0  0  0
  -22.0598   -2.7610   23.2846 H   0  0  0  0  0  0
  -22.4078  -11.9863   22.4827 H   0  0  0  0  0  0
  -21.1066  -13.1210   22.2641 H   0  0  0  0  0  0
  -24.6395  -15.8423   20.5262 H   0  0  0  0  0  0
  -26.2504  -15.6413   20.0663 H   0  0  0  0  0  0
  -26.7253  -32.5336   23.1028 H   0  0  0  0  0  0
  -25.0076  -33.9641   25.0345 H   0  0  0  0  0  0
  -22.7434  -31.2928   21.3841 H   0  0  0  0  0  0
  -23.3757  -35.9593   23.3295 H   0  0  0  0  0  0
  -24.3576  -36.8903   22.2057 H   0  0  0  0  0  0
  -23.7243  -37.6458   23.6682 H   0  0  0  0  0  0
  -26.1480  -31.4870   20.6154 H   0  0  0  0  0  0
  -26.8683  -30.7819   22.0280 H   0  0  0  0  0  0
  -28.1302  -28.8252   21.2453 H   0  0  0  0  0  0
  -25.9513  -25.8648   18.9940 H   0  0  0  0  0  0
  -23.9821  -27.3085   18.9751 H   0  0  0  0  0  0
  -23.8019  -30.5750   19.3997 H   0  0  0  0  0  0
  -22.7839  -29.2395   19.8445 H   0  0  0  0  0  0
  -25.1309  -36.1877   25.0811 H   0  0  0  0  0  0
  -21.0005  -28.3306   24.1363 H   0  0  0  0  0  0
  -20.5682  -26.2331   23.3621 H   0  0  0  0  0  0
  -21.6654  -26.7433   22.1201 H   0  0  0  0  0  0
  -19.6923  -25.6287   21.1254 H   0  0  0  0  0  0
  -19.6698  -27.3181   20.6732 H   0  0  0  0  0  0
  -17.4211  -26.6677   21.4028 H   0  0  0  0  0  0
  -18.0343  -26.0080   22.9025 H   0  0  0  0  0  0
  -19.7951  -30.7292   24.2239 H   0  0  0  0  0  0
  -17.5025  -31.6269   24.5165 H   0  0  0  0  0  0
  -15.5362  -30.2980   23.7671 H   0  0  0  0  0  0
  -15.8688  -28.0815   22.7082 H   0  0  0  0  0  0
  -24.5905  -30.7079   25.7742 H   0  0  0  0  0  0
  -24.8885  -32.2923   26.4792 H   0  0  0  0  0  0
  -25.8003  -30.8961   27.0232 H   0  0  0  0  0  0
  -26.3003  -29.6697   24.1281 H   0  0  0  0  0  0
  -27.4002  -29.7266   25.4849 H   0  0  0  0  0  0
  -27.8909  -30.4218   23.9598 H   0  0  0  0  0  0
  -27.2641  -33.3647   26.2044 H   0  0  0  0  0  0
  -28.3885  -32.6879   25.0356 H   0  0  0  0  0  0
  -28.0696  -31.8490   26.5460 H   0  0  0  0  0  0
  -28.2589  -38.0091   24.7511 H   0  0  0  0  0  0
  -28.1078  -36.2620   24.6296 H   0  0  0  0  0  0
  -27.2293  -37.1440   25.8868 H   0  0  0  0  0  0
  -20.9454  -29.8763   21.6803 H   0  0  0  0  0  0
  -26.0159  -38.2823   24.1408 H   0  0  0  0  0  0
  -32.9892  -19.3537   21.4962 H   0  0  0  0  0  0
  -31.5834  -21.2540   21.0118 H   0  0  0  0  0  0
  -32.2242  -17.0625   21.2930 H   0  0  0  0  0  0
  -26.9932  -24.8750   21.1840 H   0  0  0  0  0  0
  -27.0522  -21.6980   20.6711 H   0  0  0  0  0  0
  -28.1568  -21.9232   22.0548 H   0  0  0  0  0  0
  -28.8262  -15.9145   20.5639 H   0  0  0  0  0  0
  1 25  1  0  0  0
  1 30  2  0  0  0
  1 82  1  0  0  0
  2  3  1  0  0  0
  2 25  1  0  0  0
  2 85  1  0  0  0
  2 86  1  0  0  0
  3  4  1  0  0  0
  3 87  1  0  0  0
  3 88  1  0  0  0
  4  5  1  0  0  0
  4 89  1  0  0  0
  4 90  1  0  0  0
  5  6  1  0  0  0
  5 26  1  0  0  0
  5 91  1  0  0  0
  6 25  1  0  0  0
  6 92  1  0  0  0
  6 93  1  0  0  0
  7  8  2  0  0  0
  7 26  1  0  0  0
  7 29  1  0  0  0
  8  9  1  0  0  0
  8 22  1  0  0  0
  9 10  1  0  0  0
  9 27  2  0  0  0
 10 11  2  0  0  0
 10 15  1  0  0  0
 11 12  1  0  0  0
 11 94  1  0  0  0
 12 13  2  0  0  0
 12 95  1  0  0  0
 13 14  1  0  0  0
 13 31  1  0  0  0
 14 15  2  0  0  0
 14 96  1  0  0  0
 15 97  1  0  0  0
 16 17  2  0  0  0
 16 21  1  0  0  0
 16 31  1  0  0  0
 17 18  1  0  0  0
 17 98  1  0  0  0
 18 19  2  0  0  0
 18 99  1  0  0  0
 19 20  1  0  0  0
 19 24  1  0  0  0
 20 21  2  0  0  0
 20100  1  0  0  0
 21 23  1  0  0  0
 22 28  1  0  0  0
 22 32  2  0  0  0
 26 27  1  0  0  0
 28101  1  0  0  0
 28102  1  0  0  0
 29103  1  0  0  0
 29104  1  0  0  0
 33 34  1  0  0  0
 33 66  1  0  0  0
 33 70  2  0  0  0
 34 36  1  0  0  0
 34 59  1  0  0  0
 34105  1  0  0  0
 35 44  2  0  0  0
 35 45  1  0  0  0
 35 68  1  0  0  0
 36 56  1  0  0  0
 36106  1  0  0  0
 37 39  1  0  0  0
 37 47  1  0  0  0
 37 66  1  0  0  0
 37107  1  0  0  0
 38 43  2  0  0  0
 38 46  1  0  0  0
 38 47  1  0  0  0
 39 64  1  0  0  0
 39 67  2  0  0  0
 40 52  1  0  0  0
 40 53  2  0  0  0
 40 58  1  0  0  0
 41108  1  0  0  0
 41109  1  0  0  0
 41110  1  0  0  0
 41 48  1  0  0  0
 42 43  1  0  0  0
 42 66  1  0  0  0
 42111  1  0  0  0
 42112  1  0  0  0
 43 44  1  0  0  0
 44113  1  0  0  0
 45 46  2  0  0  0
 45114  1  0  0  0
 46115  1  0  0  0
 47116  1  0  0  0
 47117  1  0  0  0
 48 56  1  0  0  0
 48 65  1  0  0  0
 48118  1  0  0  0
 49 50  1  0  0  0
 49 53  1  0  0  0
 49 64  1  0  0  0
 49119  1  0  0  0
 50 51  1  0  0  0
 50120  1  0  0  0
 50121  1  0  0  0
 51 52  1  0  0  0
 51122  1  0  0  0
 51123  1  0  0  0
 52124  1  0  0  0
 52125  1  0  0  0
 53 54  1  0  0  0
 54 55  2  0  0  0
 54126  1  0  0  0
 55 57  1  0  0  0
 55127  1  0  0  0
 56 69  2  0  0  0
 57 58  2  0  0  0
 57128  1  0  0  0
 58129  1  0  0  0
 59 60  1  0  0  0
 59 61  1  0  0  0
 59 62  1  0  0  0
 60130  1  0  0  0
 60131  1  0  0  0
 60132  1  0  0  0
 61133  1  0  0  0
 61134  1  0  0  0
 61135  1  0  0  0
 62136  1  0  0  0
 62137  1  0  0  0
 62138  1  0  0  0
 63 65  1  0  0  0
 63139  1  0  0  0
 63140  1  0  0  0
 63141  1  0  0  0
 64142  1  0  0  0
 65143  1  0  0  0
 68 79  1  0  0  0
 71 72  2  0  0  0
 71 73  1  0  0  0
 71144  1  0  0  0
 72 74  1  0  0  0
 72145  1  0  0  0
 73 75  2  0  0  0
 73146  1  0  0  0
 74 76  2  0  0  0
 74 81  1  0  0  0
 75 76  1  0  0  0
 75 82  1  0  0  0
 76 84  1  0  0  0
 77 78  1  0  0  0
 77 79  2  0  0  0
 77 80  1  0  0  0
 78 81  1  0  0  0
 78 83  2  0  0  0
 79147  1  0  0  0
 80 81  1  0  0  0
 80148  1  0  0  0
 80149  1  0  0  0
 82150  1  0  0  0
M  ISO  4   1 100  68 101  79 101  82 100
M  END
> <chiral flag>
0

> <version>
0

> <s_m_source_file>
/data/baiqing/PycharmProjects/Reinvent-master-3.2/result/LINK_invent/BTK/process_docking_weight1_custom_product_contain_oxygen_bond_distance_aromatic_linkinvent_7_9_3/rearranged_h_0083.sdf

> <i_m_source_file_index>
71

> <r_mmod_Potential_Energy-OPLS-2005>
424.202697753906

> <r_mmod_Stretch_Energy-OPLS-2005>
192.246795654297

> <r_mmod_Bend_Energy-OPLS-2005>
278.433990478516

> <r_mmod_Torsional_Energy-OPLS-2005>
242.282638549805

> <r_mmod_Improper_Torsional_Energy-OPLS-2005>
9.47599697113037

> <r_mmod_Van_der_Waal_Energy-OPLS-2005>
133.535385131836

> <r_mmod_Electrostatic_Energy-OPLS-2005>
-373.323394775391

> <r_mmod_Solvation_Energy-OPLS-2005>
-217.390335083008

> <b_mmod_Minimization_Converged-OPLS-2005>
0

> <r_mmod_RMS_Derivative-OPLS-2005>
0.174578055739403

$$$$
71
                    3D
 Structure written by MMmdl.
158167  0  0  1  0            999 V2000
  -30.6523  -14.8204   20.5188 C   0  0  0  0  0  0
  -30.4305  -12.5122   19.5269 C   0  0  0  0  0  0
  -29.5262  -12.5087   18.2743 C   0  0  0  0  0  0
  -28.0614  -12.3062   18.6965 C   0  0  0  0  0  0
  -27.6374  -13.2472   19.8641 C   0  0  2  0  0  0
  -28.6789  -13.2353   21.0091 C   0  0  0  0  0  0
  -25.2270  -13.8034   20.5519 C   0  0  0  0  0  0
  -24.1645  -13.0282   20.9118 C   0  0  0  0  0  0
  -24.6318  -11.6832   20.8733 C   0  0  0  0  0  0
  -23.9034  -10.4221   21.0383 C   0  0  0  0  0  0
  -24.3544   -9.4141   21.9182 C   0  0  0  0  0  0
  -23.6209   -8.2190   22.0749 C   0  0  0  0  0  0
  -22.4215   -8.0227   21.3564 C   0  0  0  0  0  0
  -21.9860   -9.0192   20.4662 C   0  0  0  0  0  0
  -22.7187  -10.2075   20.3060 C   0  0  0  0  0  0
  -21.6842   -6.0683   22.5261 C   0  0  0  0  0  0
  -21.4029   -6.5595   23.8195 C   0  0  0  0  0  0
  -21.3657   -5.6747   24.9171 C   0  0  0  0  0  0
  -21.6010   -4.3003   24.7228 C   0  0  0  0  0  0
  -21.8826   -3.8102   23.4350 C   0  0  0  0  0  0
  -21.9172   -4.6911   22.3395 C   0  0  0  0  0  0
  -22.7702  -13.5130   21.1729 C   0  0  0  0  0  0
  -22.1649   -4.2073   21.0980 F   0  0  0  0  0  0
  -21.5619   -3.4509   25.7754 F   0  0  0  0  0  0
  -29.9750  -13.6100   20.4323 N   0  0  0  0  0  0
  -26.2889  -12.9394   20.3313 N   0  0  0  0  0  0
  -25.9313  -11.6527   20.5845 N   0  0  0  0  0  0
  -22.0308  -12.8297   22.0354 N   0  0  0  0  0  0
  -25.3578  -15.1730   20.3655 N   0  0  0  0  0  0
  -31.7837  -14.8672   20.0303 O   0  0  0  0  0  0
  -21.6637   -6.8822   21.4243 O   0  0  0  0  0  0
  -22.3403  -14.5432   20.6507 O   0  0  0  0  0  0
  -24.6329  -31.8586   23.1991 C   0  0  0  0  0  0
  -25.9155  -32.4785   23.8358 C   0  0  1  0  0  0
  -27.2127  -27.2481   20.1302 C   0  0  0  0  0  0
  -25.5969  -33.8589   24.2283 N   0  0  0  0  0  0
  -23.4323  -30.4818   21.5365 C   0  0  2  0  0  0
  -24.8787  -28.9328   20.1126 C   0  0  0  0  0  0
  -22.7519  -29.4590   22.4827 C   0  0  0  0  0  0
  -18.0310  -28.1412   22.8450 C   0  0  0  0  0  0
  -24.1467  -36.7294   23.2624 C   0  0  0  0  0  0
  -25.9814  -30.7649   21.3836 C   0  0  0  0  0  0
  -26.0508  -29.3850   20.7316 C   0  0  0  0  0  0
  -27.2208  -28.5526   20.7344 C   0  0  0  0  0  0
  -26.0247  -26.8948   19.4502 C   0  0  0  0  0  0
  -24.8672  -27.6927   19.4609 C   0  0  0  0  0  0
  -23.6555  -29.8218   20.1540 C   0  0  0  0  0  0
  -25.4078  -36.3085   24.0325 C   0  0  1  0  0  0
  -20.5907  -28.3709   23.1210 C   0  0  2  0  0  0
  -20.6747  -26.9420   22.5339 C   0  0  0  0  0  0
  -19.5746  -26.6371   21.5143 C   0  0  0  0  0  0
  -18.1951  -26.7938   22.1596 C   0  0  0  0  0  0
  -19.1575  -28.8865   23.2833 C   0  0  0  0  0  0
  -18.9502  -30.1436   23.8870 C   0  0  0  0  0  0
  -17.6508  -30.6581   24.0550 C   0  0  0  0  0  0
  -25.9045  -34.9464   23.5092 C   0  0  0  0  0  0
  -16.5380  -29.9080   23.6330 C   0  0  0  0  0  0
  -16.7292  -28.6512   23.0331 C   0  0  0  0  0  0
  -26.4543  -31.6602   25.0717 C   0  0  0  0  0  0
  -25.3800  -31.3743   26.1439 C   0  0  0  0  0  0
  -27.0393  -30.3027   24.6184 C   0  0  0  0  0  0
  -27.6082  -32.4339   25.7507 C   0  0  0  0  0  0
  -27.5560  -37.1782   24.8459 C   0  0  0  0  0  0
  -21.4221  -29.3092   22.3630 N   0  0  0  0  0  0
  -26.4264  -37.3779   23.9439 N   0  0  0  0  0  0
  -24.7018  -31.0536   22.0961 N   0  0  0  0  0  0
  -23.4189  -28.8076   23.2917 O   0  0  0  0  0  0
  -28.2717  -26.3054   20.1856 O   0  0  0  0  0  0
  -26.5643  -34.8925   22.4667 O   0  0  0  0  0  0
  -23.5457  -32.1427   23.7262 O   0  0  0  0  0  0
  -27.0132  -17.9877   20.9162 C   0  0  0  0  0  0
  -27.4652  -19.3120   20.7569 C   0  0  0  0  0  0
  -27.9106  -16.9020   20.9492 C   0  0  0  0  0  0
  -29.7224  -18.4715   20.5831 C   0  0  0  0  0  0
  -28.8319  -19.6411   20.5614 C   0  0  0  0  0  0
  -29.2937  -17.0854   20.7856 C   0  0  0  0  0  0
  -30.2109  -23.7798   20.5271 C   0  0  0  0  0  0
  -30.5975  -21.3963   20.6007 C   0  0  0  0  0  0
  -28.8851  -23.6288   20.3751 C   0  0  0  0  0  0
  -31.1061  -22.6443   20.6144 C   0  0  0  0  0  0
  -28.3583  -22.2053   20.2226 C   0  0  0  0  0  0
  -31.0986  -16.4199   22.2689 C   0  0  0  0  0  0
  -27.8794  -24.8643   20.4488 C   0  0  0  0  0  0
  -29.2226  -21.1071   20.4537 N   0  0  0  0  0  0
  -30.1779  -15.9582   21.2099 N   0  0  0  0  0  0
  -27.1957  -22.0448   19.8382 O   0  0  0  0  0  0
  -32.4261  -22.8219   20.7378 O   0  0  0  0  0  0
  -31.4791  -12.6154   19.2439 H   0  0  0  0  0  0
  -30.3743  -11.5543   20.0460 H   0  0  0  0  0  0
  -29.8322  -11.7203   17.5867 H   0  0  0  0  0  0
  -29.6363  -13.4392   17.7213 H   0  0  0  0  0  0
  -27.9688  -11.2712   19.0334 H   0  0  0  0  0  0
  -27.3982  -12.4039   17.8411 H   0  0  0  0  0  0
  -27.6111  -14.2525   19.4433 H   0  0  0  0  0  0
  -28.7499  -12.2433   21.4562 H   0  0  0  0  0  0
  -28.3851  -13.9068   21.8211 H   0  0  0  0  0  0
  -25.2671   -9.5661   22.4799 H   0  0  0  0  0  0
  -23.9861   -7.4636   22.7540 H   0  0  0  0  0  0
  -21.0712   -8.8701   19.9053 H   0  0  0  0  0  0
  -22.3536  -10.9590   19.6178 H   0  0  0  0  0  0
  -21.2080   -7.6108   23.9676 H   0  0  0  0  0  0
  -21.1468   -6.0498   25.9049 H   0  0  0  0  0  0
  -22.0613   -2.7559   23.2864 H   0  0  0  0  0  0
  -22.3843  -12.0072   22.5018 H   0  0  0  0  0  0
  -21.0932  -13.1515   22.2441 H   0  0  0  0  0  0
  -24.5936  -15.8106   20.5452 H   0  0  0  0  0  0
  -26.1999  -15.6359   20.0584 H   0  0  0  0  0  0
  -26.7178  -32.5440   23.1068 H   0  0  0  0  0  0
  -25.0185  -33.9755   25.0463 H   0  0  0  0  0  0
  -22.7262  -31.3004   21.3854 H   0  0  0  0  0  0
  -23.3755  -35.9614   23.3312 H   0  0  0  0  0  0
  -24.3542  -36.8890   22.2032 H   0  0  0  0  0  0
  -23.7202  -37.6476   23.6655 H   0  0  0  0  0  0
  -26.1165  -31.5159   20.6064 H   0  0  0  0  0  0
  -26.8600  -30.8224   22.0116 H   0  0  0  0  0  0
  -28.1075  -28.8990   21.2493 H   0  0  0  0  0  0
  -25.9498  -25.9840   18.8882 H   0  0  0  0  0  0
  -23.9776  -27.3493   18.9485 H   0  0  0  0  0  0
  -23.8010  -30.5979   19.4044 H   0  0  0  0  0  0
  -22.7815  -29.2552   19.8352 H   0  0  0  0  0  0
  -25.1255  -36.1930   25.0824 H   0  0  0  0  0  0
  -21.0003  -28.3297   24.1333 H   0  0  0  0  0  0
  -20.5569  -26.2365   23.3579 H   0  0  0  0  0  0
  -21.6642  -26.7372   22.1227 H   0  0  0  0  0  0
  -19.6919  -25.6273   21.1219 H   0  0  0  0  0  0
  -19.6679  -27.3154   20.6672 H   0  0  0  0  0  0
  -17.4180  -26.6626   21.4029 H   0  0  0  0  0  0
  -18.0404  -26.0062   22.9017 H   0  0  0  0  0  0
  -19.7973  -30.7254   24.2208 H   0  0  0  0  0  0
  -17.5073  -31.6267   24.5198 H   0  0  0  0  0  0
  -15.5386  -30.3013   23.7645 H   0  0  0  0  0  0
  -15.8686  -28.0836   22.7044 H   0  0  0  0  0  0
  -24.5954  -30.7120   25.7792 H   0  0  0  0  0  0
  -24.9035  -32.2902   26.4932 H   0  0  0  0  0  0
  -25.8126  -30.8882   27.0190 H   0  0  0  0  0  0
  -26.2984  -29.6743   24.1232 H   0  0  0  0  0  0
  -27.4127  -29.7287   25.4680 H   0  0  0  0  0  0
  -27.8841  -30.4308   23.9411 H   0  0  0  0  0  0
  -27.2689  -33.3598   26.2160 H   0  0  0  0  0  0
  -28.3881  -32.6972   25.0364 H   0  0  0  0  0  0
  -28.0806  -31.8452   26.5366 H   0  0  0  0  0  0
  -28.2570  -38.0088   24.7563 H   0  0  0  0  0  0
  -28.1067  -36.2640   24.6232 H   0  0  0  0  0  0
  -27.2327  -37.1365   25.8868 H   0  0  0  0  0  0
  -20.9404  -29.8902   21.6930 H   0  0  0  0  0  0
  -26.0150  -38.2851   24.1491 H   0  0  0  0  0  0
  -25.9548  -17.8454   21.1030 H   0  0  0  0  0  0
  -26.6997  -20.0638   20.8561 H   0  0  0  0  0  0
  -27.5466  -15.9358   21.2348 H   0  0  0  0  0  0
  -30.7899  -18.6105   20.5334 H   0  0  0  0  0  0
  -30.6081  -24.7774   20.6475 H   0  0  0  0  0  0
  -31.2581  -20.5531   20.7002 H   0  0  0  0  0  0
  -30.9358  -17.4565   22.5745 H   0  0  0  0  0  0
  -32.1441  -16.3784   21.9631 H   0  0  0  0  0  0
  -30.9775  -15.8418   23.1847 H   0  0  0  0  0  0
  -27.4770  -24.8649   21.4630 H   0  0  0  0  0  0
  -27.0575  -24.5518   19.8147 H   0  0  0  0  0  0
  -32.5939  -23.7551   20.7327 H   0  0  0  0  0  0
  1 25  1  0  0  0
  1 30  2  0  0  0
  1 85  1  0  0  0
  2  3  1  0  0  0
  2 25  1  0  0  0
  2 88  1  0  0  0
  2 89  1  0  0  0
  3  4  1  0  0  0
  3 90  1  0  0  0
  3 91  1  0  0  0
  4  5  1  0  0  0
  4 92  1  0  0  0
  4 93  1  0  0  0
  5  6  1  0  0  0
  5 26  1  0  0  0
  5 94  1  0  0  0
  6 25  1  0  0  0
  6 95  1  0  0  0
  6 96  1  0  0  0
  7  8  2  0  0  0
  7 26  1  0  0  0
  7 29  1  0  0  0
  8  9  1  0  0  0
  8 22  1  0  0  0
  9 10  1  0  0  0
  9 27  2  0  0  0
 10 11  2  0  0  0
 10 15  1  0  0  0
 11 12  1  0  0  0
 11 97  1  0  0  0
 12 13  2  0  0  0
 12 98  1  0  0  0
 13 14  1  0  0  0
 13 31  1  0  0  0
 14 15  2  0  0  0
 14 99  1  0  0  0
 15100  1  0  0  0
 16 17  2  0  0  0
 16 21  1  0  0  0
 16 31  1  0  0  0
 17 18  1  0  0  0
 17101  1  0  0  0
 18 19  2  0  0  0
 18102  1  0  0  0
 19 20  1  0  0  0
 19 24  1  0  0  0
 20 21  2  0  0  0
 20103  1  0  0  0
 21 23  1  0  0  0
 22 28  1  0  0  0
 22 32  2  0  0  0
 26 27  1  0  0  0
 28104  1  0  0  0
 28105  1  0  0  0
 29106  1  0  0  0
 29107  1  0  0  0
 33 34  1  0  0  0
 33 66  1  0  0  0
 33 70  2  0  0  0
 34 36  1  0  0  0
 34 59  1  0  0  0
 34108  1  0  0  0
 35 44  2  0  0  0
 35 45  1  0  0  0
 35 68  1  0  0  0
 36 56  1  0  0  0
 36109  1  0  0  0
 37 39  1  0  0  0
 37 47  1  0  0  0
 37 66  1  0  0  0
 37110  1  0  0  0
 38 43  2  0  0  0
 38 46  1  0  0  0
 38 47  1  0  0  0
 39 64  1  0  0  0
 39 67  2  0  0  0
 40 52  1  0  0  0
 40 53  2  0  0  0
 40 58  1  0  0  0
 41111  1  0  0  0
 41112  1  0  0  0
 41113  1  0  0  0
 41 48  1  0  0  0
 42 43  1  0  0  0
 42 66  1  0  0  0
 42114  1  0  0  0
 42115  1  0  0  0
 43 44  1  0  0  0
 44116  1  0  0  0
 45 46  2  0  0  0
 45117  1  0  0  0
 46118  1  0  0  0
 47119  1  0  0  0
 47120  1  0  0  0
 48 56  1  0  0  0
 48 65  1  0  0  0
 48121  1  0  0  0
 49 50  1  0  0  0
 49 53  1  0  0  0
 49 64  1  0  0  0
 49122  1  0  0  0
 50 51  1  0  0  0
 50123  1  0  0  0
 50124  1  0  0  0
 51 52  1  0  0  0
 51125  1  0  0  0
 51126  1  0  0  0
 52127  1  0  0  0
 52128  1  0  0  0
 53 54  1  0  0  0
 54 55  2  0  0  0
 54129  1  0  0  0
 55 57  1  0  0  0
 55130  1  0  0  0
 56 69  2  0  0  0
 57 58  2  0  0  0
 57131  1  0  0  0
 58132  1  0  0  0
 59 60  1  0  0  0
 59 61  1  0  0  0
 59 62  1  0  0  0
 60133  1  0  0  0
 60134  1  0  0  0
 60135  1  0  0  0
 61136  1  0  0  0
 61137  1  0  0  0
 61138  1  0  0  0
 62139  1  0  0  0
 62140  1  0  0  0
 62141  1  0  0  0
 63 65  1  0  0  0
 63142  1  0  0  0
 63143  1  0  0  0
 63144  1  0  0  0
 64145  1  0  0  0
 65146  1  0  0  0
 68 83  1  0  0  0
 71 72  2  0  0  0
 71 73  1  0  0  0
 71147  1  0  0  0
 72 75  1  0  0  0
 72148  1  0  0  0
 73 76  2  0  0  0
 73149  1  0  0  0
 74 75  2  0  0  0
 74 76  1  0  0  0
 74150  1  0  0  0
 75 84  1  0  0  0
 76 85  1  0  0  0
 77 79  2  0  0  0
 77 80  1  0  0  0
 77151  1  0  0  0
 78 80  2  0  0  0
 78 84  1  0  0  0
 78152  1  0  0  0
 79 81  1  0  0  0
 79 83  1  0  0  0
 80 87  1  0  0  0
 81 84  1  0  0  0
 81 86  2  0  0  0
 82 85  1  0  0  0
 82153  1  0  0  0
 82154  1  0  0  0
 82155  1  0  0  0
 83156  1  0  0  0
 83157  1  0  0  0
 87158  1  0  0  0
M  ISO  4   1 100  68 101  83 101  85 100
M  END
> <chiral flag>
0

> <version>
0

> <s_m_source_file>
/data/baiqing/PycharmProjects/Reinvent-master-3.2/result/LINK_invent/BTK/process_docking_weight1_custom_product_contain_oxygen_bond_distance_aromatic_linkinvent_7_9_3/rearranged_h_0083.sdf

> <i_m_source_file_index>
72

> <r_mmod_Potential_Energy-OPLS-2005>
520.438903808594

> <r_mmod_Stretch_Energy-OPLS-2005>
165.705932617188

> <r_mmod_Bend_Energy-OPLS-2005>
209.667953491211

> <r_mmod_Torsional_Energy-OPLS-2005>
319.385498046875

> <r_mmod_Improper_Torsional_Energy-OPLS-2005>
8.44673919677734

> <r_mmod_Van_der_Waal_Energy-OPLS-2005>
192.543930053711

> <r_mmod_Electrostatic_Energy-OPLS-2005>
-281.231140136719

> <r_mmod_Solvation_Energy-OPLS-2005>
-207.800704956055

> <b_mmod_Minimization_Converged-OPLS-2005>
0

> <r_mmod_RMS_Derivative-OPLS-2005>
10.1620645523071

$$$$
72
                    3D
 Structure written by MMmdl.
150159  0  0  1  0            999 V2000
  -30.5692  -14.7421   20.4850 C   0  0  0  0  0  0
  -30.4511  -12.4556   19.4667 C   0  0  0  0  0  0
  -29.5167  -12.5196   18.2354 C   0  0  0  0  0  0
  -28.0415  -12.3384   18.6472 C   0  0  0  0  0  0
  -27.6514  -13.2208   19.8618 C   0  0  2  0  0  0
  -28.6968  -13.1055   20.9942 C   0  0  0  0  0  0
  -25.2559  -13.8174   20.5689 C   0  0  0  0  0  0
  -24.1830  -13.0437   20.9196 C   0  0  0  0  0  0
  -24.6401  -11.6907   20.8741 C   0  0  0  0  0  0
  -23.9068  -10.4291   21.0407 C   0  0  0  0  0  0
  -24.3618   -9.4205   21.9186 C   0  0  0  0  0  0
  -23.6292   -8.2241   22.0755 C   0  0  0  0  0  0
  -22.4275   -8.0280   21.3543 C   0  0  0  0  0  0
  -21.9909   -9.0255   20.4647 C   0  0  0  0  0  0
  -22.7237  -10.2136   20.3058 C   0  0  0  0  0  0
  -21.6853   -6.0734   22.5277 C   0  0  0  0  0  0
  -21.4013   -6.5638   23.8211 C   0  0  0  0  0  0
  -21.3661   -5.6792   24.9174 C   0  0  0  0  0  0
  -21.6046   -4.3055   24.7226 C   0  0  0  0  0  0
  -21.8819   -3.8144   23.4347 C   0  0  0  0  0  0
  -21.9194   -4.6961   22.3402 C   0  0  0  0  0  0
  -22.7851  -13.5229   21.1858 C   0  0  0  0  0  0
  -22.1663   -4.2146   21.0980 F   0  0  0  0  0  0
  -21.5630   -3.4539   25.7739 F   0  0  0  0  0  0
  -30.0028  -13.4861   20.4307 N   0  0  0  0  0  0
  -26.2984  -12.9356   20.3309 N   0  0  0  0  0  0
  -25.9333  -11.6509   20.5755 N   0  0  0  0  0  0
  -22.0493  -12.8223   22.0415 N   0  0  0  0  0  0
  -25.4275  -15.1895   20.4100 N   0  0  0  0  0  0
  -31.7264  -14.9244   20.0924 O   0  0  0  0  0  0
  -21.6639   -6.8876   21.4239 O   0  0  0  0  0  0
  -22.3536  -14.5535   20.6704 O   0  0  0  0  0  0
  -24.6314  -31.8549   23.1984 C   0  0  0  0  0  0
  -25.9134  -32.4756   23.8333 C   0  0  1  0  0  0
  -27.2250  -27.2670   20.1294 C   0  0  0  0  0  0
  -25.5927  -33.8558   24.2257 N   0  0  0  0  0  0
  -23.4299  -30.4768   21.5412 C   0  0  2  0  0  0
  -24.8813  -28.9255   20.1089 C   0  0  0  0  0  0
  -22.7508  -29.4598   22.4904 C   0  0  0  0  0  0
  -18.0293  -28.1387   22.8484 C   0  0  0  0  0  0
  -24.1489  -36.7287   23.2640 C   0  0  0  0  0  0
  -25.9762  -30.7685   21.3801 C   0  0  0  0  0  0
  -26.0527  -29.3913   20.7223 C   0  0  0  0  0  0
  -27.2303  -28.5734   20.7248 C   0  0  0  0  0  0
  -26.0356  -26.8726   19.4803 C   0  0  0  0  0  0
  -24.8772  -27.6731   19.4764 C   0  0  0  0  0  0
  -23.6501  -29.8107   20.1576 C   0  0  0  0  0  0
  -25.4115  -36.3072   24.0326 C   0  0  1  0  0  0
  -20.5898  -28.3700   23.1263 C   0  0  2  0  0  0
  -20.6781  -26.9416   22.5405 C   0  0  0  0  0  0
  -19.5756  -26.6381   21.5211 C   0  0  0  0  0  0
  -18.1937  -26.7927   22.1628 C   0  0  0  0  0  0
  -19.1547  -28.8861   23.2868 C   0  0  0  0  0  0
  -18.9469  -30.1460   23.8888 C   0  0  0  0  0  0
  -17.6468  -30.6588   24.0562 C   0  0  0  0  0  0
  -25.9054  -34.9440   23.5096 C   0  0  0  0  0  0
  -16.5358  -29.9085   23.6332 C   0  0  0  0  0  0
  -16.7280  -28.6503   23.0354 C   0  0  0  0  0  0
  -26.4501  -31.6579   25.0723 C   0  0  0  0  0  0
  -25.3721  -31.3735   26.1441 C   0  0  0  0  0  0
  -27.0351  -30.2993   24.6217 C   0  0  0  0  0  0
  -27.6049  -32.4325   25.7499 C   0  0  0  0  0  0
  -27.5577  -37.1802   24.8467 C   0  0  0  0  0  0
  -21.4213  -29.3046   22.3649 N   0  0  0  0  0  0
  -26.4294  -37.3768   23.9402 N   0  0  0  0  0  0
  -24.6980  -31.0509   22.0963 N   0  0  0  0  0  0
  -23.4201  -28.8136   23.3008 O   0  0  0  0  0  0
  -28.2753  -26.3204   20.1787 O   0  0  0  0  0  0
  -26.5632  -34.8914   22.4668 O   0  0  0  0  0  0
  -23.5459  -32.1370   23.7272 O   0  0  0  0  0  0
  -28.4147  -19.3382   21.3791 C   0  0  0  0  0  0
  -28.6190  -17.9253   21.4410 C   0  0  0  0  0  0
  -30.5052  -18.1406   20.0189 C   0  0  0  0  0  0
  -29.2142  -20.2597   20.6377 C   0  0  0  0  0  0
  -29.6714  -17.2542   20.7664 C   0  0  0  0  0  0
  -30.2800  -19.5711   19.9586 C   0  0  0  0  0  0
  -28.4329  -23.7445   20.6059 C   0  0  0  0  0  0
  -27.9293  -22.5503   21.2765 C   0  0  0  0  0  0
  -27.9469  -25.0473   20.7329 C   0  0  0  0  0  0
  -29.4929  -22.8503   19.8929 C   0  0  0  0  0  0
  -28.8819  -21.7191   20.6560 N   0  0  0  0  0  0
  -29.7268  -15.7694   20.8755 N   0  0  0  0  0  0
  -27.0121  -22.4075   22.0586 O   0  0  0  0  0  0
  -31.1316  -20.3109   19.2077 F   0  0  0  0  0  0
  -31.4873  -12.6086   19.1603 H   0  0  0  0  0  0
  -30.4187  -11.4666   19.9261 H   0  0  0  0  0  0
  -29.7977  -11.7565   17.5082 H   0  0  0  0  0  0
  -29.6392  -13.4802   17.7325 H   0  0  0  0  0  0
  -27.8950  -11.2863   18.8949 H   0  0  0  0  0  0
  -27.3838  -12.5451   17.8020 H   0  0  0  0  0  0
  -27.6590  -14.2508   19.5047 H   0  0  0  0  0  0
  -28.7335  -12.0856   21.3802 H   0  0  0  0  0  0
  -28.4237  -13.7328   21.8440 H   0  0  0  0  0  0
  -25.2766   -9.5679   22.4757 H   0  0  0  0  0  0
  -24.0002   -7.4631   22.7474 H   0  0  0  0  0  0
  -21.0839   -8.8773   19.8953 H   0  0  0  0  0  0
  -22.3696  -10.9675   19.6166 H   0  0  0  0  0  0
  -21.2003   -7.6146   23.9713 H   0  0  0  0  0  0
  -21.1484   -6.0523   25.9077 H   0  0  0  0  0  0
  -22.0597   -2.7606   23.2849 H   0  0  0  0  0  0
  -22.4110  -11.9886   22.4805 H   0  0  0  0  0  0
  -21.1109  -13.1249   22.2618 H   0  0  0  0  0  0
  -24.6575  -15.8417   20.5111 H   0  0  0  0  0  0
  -26.2692  -15.6257   20.0557 H   0  0  0  0  0  0
  -26.7202  -32.5412   23.1077 H   0  0  0  0  0  0
  -25.0057  -33.9692   25.0390 H   0  0  0  0  0  0
  -22.7266  -31.2991   21.3942 H   0  0  0  0  0  0
  -23.3747  -35.9625   23.3312 H   0  0  0  0  0  0
  -24.3575  -36.8900   22.2053 H   0  0  0  0  0  0
  -23.7250  -37.6494   23.6659 H   0  0  0  0  0  0
  -26.1149  -31.5293   20.6105 H   0  0  0  0  0  0
  -26.8530  -30.8180   22.0142 H   0  0  0  0  0  0
  -28.1244  -28.9185   21.2249 H   0  0  0  0  0  0
  -25.9906  -25.9060   18.9985 H   0  0  0  0  0  0
  -23.9820  -27.3108   18.9898 H   0  0  0  0  0  0
  -23.7730  -30.5874   19.4019 H   0  0  0  0  0  0
  -22.7692  -29.2432   19.8524 H   0  0  0  0  0  0
  -25.1299  -36.1923   25.0821 H   0  0  0  0  0  0
  -20.9994  -28.3282   24.1382 H   0  0  0  0  0  0
  -20.5678  -26.2313   23.3613 H   0  0  0  0  0  0
  -21.6649  -26.7436   22.1201 H   0  0  0  0  0  0
  -19.6918  -25.6290   21.1246 H   0  0  0  0  0  0
  -19.6690  -27.3187   20.6737 H   0  0  0  0  0  0
  -17.4204  -26.6666   21.4035 H   0  0  0  0  0  0
  -18.0347  -26.0071   22.9028 H   0  0  0  0  0  0
  -19.7944  -30.7279   24.2254 H   0  0  0  0  0  0
  -17.5022  -31.6267   24.5165 H   0  0  0  0  0  0
  -15.5359  -30.2987   23.7655 H   0  0  0  0  0  0
  -15.8680  -28.0818   22.7075 H   0  0  0  0  0  0
  -24.5883  -30.7104   25.7763 H   0  0  0  0  0  0
  -24.8932  -32.2912   26.4868 H   0  0  0  0  0  0
  -25.8030  -30.8900   27.0218 H   0  0  0  0  0  0
  -26.2942  -29.6738   24.1227 H   0  0  0  0  0  0
  -27.4010  -29.7259   25.4744 H   0  0  0  0  0  0
  -27.8829  -30.4260   23.9480 H   0  0  0  0  0  0
  -27.2645  -33.3622   26.2070 H   0  0  0  0  0  0
  -28.3863  -32.6891   25.0335 H   0  0  0  0  0  0
  -28.0714  -31.8458   26.5423 H   0  0  0  0  0  0
  -28.2605  -38.0089   24.7496 H   0  0  0  0  0  0
  -28.1064  -36.2619   24.6320 H   0  0  0  0  0  0
  -27.2292  -37.1482   25.8870 H   0  0  0  0  0  0
  -20.9399  -29.8771   21.6856 H   0  0  0  0  0  0
  -26.0176  -38.2846   24.1388 H   0  0  0  0  0  0
  -27.5767  -19.7268   21.9396 H   0  0  0  0  0  0
  -27.9237  -17.3468   22.0337 H   0  0  0  0  0  0
  -31.3323  -17.7308   19.4585 H   0  0  0  0  0  0
  -27.1165  -25.1720   21.4163 H   0  0  0  0  0  0
  -30.5402  -22.9998   20.1597 H   0  0  0  0  0  0
  -29.3912  -22.7119   18.8152 H   0  0  0  0  0  0
  -28.8841  -15.3800   21.2699 H   0  0  0  0  0  0
  1 25  1  0  0  0
  1 30  2  0  0  0
  1 82  1  0  0  0
  2  3  1  0  0  0
  2 25  1  0  0  0
  2 85  1  0  0  0
  2 86  1  0  0  0
  3  4  1  0  0  0
  3 87  1  0  0  0
  3 88  1  0  0  0
  4  5  1  0  0  0
  4 89  1  0  0  0
  4 90  1  0  0  0
  5  6  1  0  0  0
  5 26  1  0  0  0
  5 91  1  0  0  0
  6 25  1  0  0  0
  6 92  1  0  0  0
  6 93  1  0  0  0
  7  8  2  0  0  0
  7 26  1  0  0  0
  7 29  1  0  0  0
  8  9  1  0  0  0
  8 22  1  0  0  0
  9 10  1  0  0  0
  9 27  2  0  0  0
 10 11  2  0  0  0
 10 15  1  0  0  0
 11 12  1  0  0  0
 11 94  1  0  0  0
 12 13  2  0  0  0
 12 95  1  0  0  0
 13 14  1  0  0  0
 13 31  1  0  0  0
 14 15  2  0  0  0
 14 96  1  0  0  0
 15 97  1  0  0  0
 16 17  2  0  0  0
 16 21  1  0  0  0
 16 31  1  0  0  0
 17 18  1  0  0  0
 17 98  1  0  0  0
 18 19  2  0  0  0
 18 99  1  0  0  0
 19 20  1  0  0  0
 19 24  1  0  0  0
 20 21  2  0  0  0
 20100  1  0  0  0
 21 23  1  0  0  0
 22 28  1  0  0  0
 22 32  2  0  0  0
 26 27  1  0  0  0
 28101  1  0  0  0
 28102  1  0  0  0
 29103  1  0  0  0
 29104  1  0  0  0
 33 34  1  0  0  0
 33 66  1  0  0  0
 33 70  2  0  0  0
 34 36  1  0  0  0
 34 59  1  0  0  0
 34105  1  0  0  0
 35 44  2  0  0  0
 35 45  1  0  0  0
 35 68  1  0  0  0
 36 56  1  0  0  0
 36106  1  0  0  0
 37 39  1  0  0  0
 37 47  1  0  0  0
 37 66  1  0  0  0
 37107  1  0  0  0
 38 43  2  0  0  0
 38 46  1  0  0  0
 38 47  1  0  0  0
 39 64  1  0  0  0
 39 67  2  0  0  0
 40 52  1  0  0  0
 40 53  2  0  0  0
 40 58  1  0  0  0
 41108  1  0  0  0
 41109  1  0  0  0
 41110  1  0  0  0
 41 48  1  0  0  0
 42 43  1  0  0  0
 42 66  1  0  0  0
 42111  1  0  0  0
 42112  1  0  0  0
 43 44  1  0  0  0
 44113  1  0  0  0
 45 46  2  0  0  0
 45114  1  0  0  0
 46115  1  0  0  0
 47116  1  0  0  0
 47117  1  0  0  0
 48 56  1  0  0  0
 48 65  1  0  0  0
 48118  1  0  0  0
 49 50  1  0  0  0
 49 53  1  0  0  0
 49 64  1  0  0  0
 49119  1  0  0  0
 50 51  1  0  0  0
 50120  1  0  0  0
 50121  1  0  0  0
 51 52  1  0  0  0
 51122  1  0  0  0
 51123  1  0  0  0
 52124  1  0  0  0
 52125  1  0  0  0
 53 54  1  0  0  0
 54 55  2  0  0  0
 54126  1  0  0  0
 55 57  1  0  0  0
 55127  1  0  0  0
 56 69  2  0  0  0
 57 58  2  0  0  0
 57128  1  0  0  0
 58129  1  0  0  0
 59 60  1  0  0  0
 59 61  1  0  0  0
 59 62  1  0  0  0
 60130  1  0  0  0
 60131  1  0  0  0
 60132  1  0  0  0
 61133  1  0  0  0
 61134  1  0  0  0
 61135  1  0  0  0
 62136  1  0  0  0
 62137  1  0  0  0
 62138  1  0  0  0
 63 65  1  0  0  0
 63139  1  0  0  0
 63140  1  0  0  0
 63141  1  0  0  0
 64142  1  0  0  0
 65143  1  0  0  0
 68 79  1  0  0  0
 71 72  2  0  0  0
 71 74  1  0  0  0
 71144  1  0  0  0
 72 75  1  0  0  0
 72145  1  0  0  0
 73 75  2  0  0  0
 73 76  1  0  0  0
 73146  1  0  0  0
 74 76  2  0  0  0
 74 81  1  0  0  0
 75 82  1  0  0  0
 76 84  1  0  0  0
 77 78  1  0  0  0
 77 79  2  0  0  0
 77 80  1  0  0  0
 78 81  1  0  0  0
 78 83  2  0  0  0
 79147  1  0  0  0
 80 81  1  0  0  0
 80148  1  0  0  0
 80149  1  0  0  0
 82150  1  0  0  0
M  ISO  4   1 100  68 101  79 101  82 100
M  END
> <chiral flag>
0

> <version>
0

> <s_m_source_file>
/data/baiqing/PycharmProjects/Reinvent-master-3.2/result/LINK_invent/BTK/process_docking_weight1_custom_product_contain_oxygen_bond_distance_aromatic_linkinvent_7_9_3/rearranged_h_0083.sdf

> <i_m_source_file_index>
73

> <r_mmod_Potential_Energy-OPLS-2005>
227.970703125

> <r_mmod_Stretch_Energy-OPLS-2005>
107.681640625

> <r_mmod_Bend_Energy-OPLS-2005>
270.576690673828

> <r_mmod_Torsional_Energy-OPLS-2005>
220.03254699707

> <r_mmod_Improper_Torsional_Energy-OPLS-2005>
3.48363852500916

> <r_mmod_Van_der_Waal_Energy-OPLS-2005>
134.12727355957

> <r_mmod_Electrostatic_Energy-OPLS-2005>
-381.995819091797

> <r_mmod_Solvation_Energy-OPLS-2005>
-213.960922241211

> <b_mmod_Minimization_Converged-OPLS-2005>
0

> <r_mmod_RMS_Derivative-OPLS-2005>
0.390327841043472

$$$$
73
                    3D
 Structure written by MMmdl.
154163  0  0  1  0            999 V2000
  -30.6210  -14.6616   20.4941 C   0  0  0  0  0  0
  -30.4414  -12.4037   19.4539 C   0  0  0  0  0  0
  -29.5081  -12.5087   18.2259 C   0  0  0  0  0  0
  -28.0330  -12.3412   18.6406 C   0  0  0  0  0  0
  -27.6553  -13.2169   19.8648 C   0  0  2  0  0  0
  -28.7026  -13.0799   20.9943 C   0  0  0  0  0  0
  -25.2571  -13.8171   20.5690 C   0  0  0  0  0  0
  -24.1833  -13.0439   20.9180 C   0  0  0  0  0  0
  -24.6399  -11.6909   20.8738 C   0  0  0  0  0  0
  -23.9061  -10.4292   21.0401 C   0  0  0  0  0  0
  -24.3616   -9.4207   21.9177 C   0  0  0  0  0  0
  -23.6293   -8.2244   22.0757 C   0  0  0  0  0  0
  -22.4274   -8.0281   21.3547 C   0  0  0  0  0  0
  -21.9906   -9.0249   20.4647 C   0  0  0  0  0  0
  -22.7235  -10.2127   20.3051 C   0  0  0  0  0  0
  -21.6848   -6.0734   22.5276 C   0  0  0  0  0  0
  -21.4014   -6.5640   23.8208 C   0  0  0  0  0  0
  -21.3662   -5.6795   24.9173 C   0  0  0  0  0  0
  -21.6042   -4.3058   24.7224 C   0  0  0  0  0  0
  -21.8818   -3.8145   23.4346 C   0  0  0  0  0  0
  -21.9192   -4.6961   22.3401 C   0  0  0  0  0  0
  -22.7854  -13.5230   21.1843 C   0  0  0  0  0  0
  -22.1658   -4.2146   21.0979 F   0  0  0  0  0  0
  -21.5628   -3.4539   25.7736 F   0  0  0  0  0  0
  -30.0187  -13.4284   20.4317 N   0  0  0  0  0  0
  -26.3005  -12.9353   20.3336 N   0  0  0  0  0  0
  -25.9331  -11.6507   20.5770 N   0  0  0  0  0  0
  -22.0495  -12.8223   22.0404 N   0  0  0  0  0  0
  -25.4292  -15.1897   20.4127 N   0  0  0  0  0  0
  -31.7708  -14.8336   20.0784 O   0  0  0  0  0  0
  -21.6645   -6.8875   21.4239 O   0  0  0  0  0  0
  -22.3536  -14.5534   20.6694 O   0  0  0  0  0  0
  -24.6302  -31.8593   23.2060 C   0  0  0  0  0  0
  -25.9144  -32.4774   23.8376 C   0  0  1  0  0  0
  -27.2175  -27.2966   20.1050 C   0  0  0  0  0  0
  -25.5975  -33.8582   24.2308 N   0  0  0  0  0  0
  -23.4255  -30.4889   21.5471 C   0  0  2  0  0  0
  -24.8705  -28.9517   20.1074 C   0  0  0  0  0  0
  -22.7489  -29.4640   22.4898 C   0  0  0  0  0  0
  -18.0300  -28.1402   22.8488 C   0  0  0  0  0  0
  -24.1496  -36.7277   23.2636 C   0  0  0  0  0  0
  -25.9717  -30.7800   21.3860 C   0  0  0  0  0  0
  -26.0433  -29.4090   20.7220 C   0  0  0  0  0  0
  -27.2175  -28.5920   20.7179 C   0  0  0  0  0  0
  -26.0191  -26.9167   19.4480 C   0  0  0  0  0  0
  -24.8620  -27.7102   19.4626 C   0  0  0  0  0  0
  -23.6431  -29.8367   20.1587 C   0  0  0  0  0  0
  -25.4118  -36.3076   24.0336 C   0  0  1  0  0  0
  -20.5902  -28.3718   23.1268 C   0  0  2  0  0  0
  -20.6799  -26.9440   22.5403 C   0  0  0  0  0  0
  -19.5771  -26.6393   21.5216 C   0  0  0  0  0  0
  -18.1947  -26.7951   22.1619 C   0  0  0  0  0  0
  -19.1550  -28.8873   23.2882 C   0  0  0  0  0  0
  -18.9477  -30.1468   23.8905 C   0  0  0  0  0  0
  -17.6478  -30.6605   24.0574 C   0  0  0  0  0  0
  -25.9057  -34.9448   23.5108 C   0  0  0  0  0  0
  -16.5364  -29.9110   23.6334 C   0  0  0  0  0  0
  -16.7285  -28.6528   23.0349 C   0  0  0  0  0  0
  -26.4521  -31.6582   25.0741 C   0  0  0  0  0  0
  -25.3752  -31.3730   26.1461 C   0  0  0  0  0  0
  -27.0360  -30.3005   24.6197 C   0  0  0  0  0  0
  -27.6097  -32.4291   25.7506 C   0  0  0  0  0  0
  -27.5583  -37.1793   24.8462 C   0  0  0  0  0  0
  -21.4195  -29.3075   22.3651 N   0  0  0  0  0  0
  -26.4289  -37.3774   23.9415 N   0  0  0  0  0  0
  -24.6947  -31.0580   22.1033 N   0  0  0  0  0  0
  -23.4202  -28.8146   23.2962 O   0  0  0  0  0  0
  -28.3066  -26.3956   20.1654 O   0  0  0  0  0  0
  -26.5585  -34.8914   22.4650 O   0  0  0  0  0  0
  -23.5453  -32.1409   23.7368 O   0  0  0  0  0  0
  -28.9621  -17.9389   21.5564 C   0  0  0  0  0  0
  -30.6719  -17.9096   19.8711 C   0  0  0  0  0  0
  -29.6668  -20.1048   20.5561 C   0  0  0  0  0  0
  -29.8635  -17.1630   20.7758 C   0  0  0  0  0  0
  -28.8647  -19.3611   21.4660 C   0  0  0  0  0  0
  -30.5747  -19.3380   19.7643 C   0  0  0  0  0  0
  -30.1580  -23.7603   20.7888 C   0  0  0  0  0  0
  -28.9424  -23.7710   20.2348 C   0  0  0  0  0  0
  -30.5975  -22.3815   20.9581 C   0  0  0  0  0  0
  -28.5912  -22.3513   20.0322 C   0  0  0  0  0  0
  -27.9986  -24.9681   19.8540 C   0  0  0  0  0  0
  -29.6155  -21.5801   20.4938 N   0  0  0  0  0  0
  -27.9764  -20.0197   22.3204 N   0  0  0  0  0  0
  -29.8289  -15.6963   20.9267 N   0  0  0  0  0  0
  -31.6684  -22.0007   21.4444 O   0  0  0  0  0  0
  -27.5520  -21.9125   19.5280 O   0  0  0  0  0  0
  -31.3725  -19.9803   18.8757 F   0  0  0  0  0  0
  -31.4815  -12.5299   19.1485 H   0  0  0  0  0  0
  -30.3812  -11.4089   19.8985 H   0  0  0  0  0  0
  -29.7744  -11.7540   17.4844 H   0  0  0  0  0  0
  -29.6436  -13.4757   17.7387 H   0  0  0  0  0  0
  -27.8754  -11.2884   18.8782 H   0  0  0  0  0  0
  -27.3753  -12.5612   17.7990 H   0  0  0  0  0  0
  -27.6716  -14.2512   19.5204 H   0  0  0  0  0  0
  -28.7178  -12.0602   21.3810 H   0  0  0  0  0  0
  -28.4427  -13.7130   21.8439 H   0  0  0  0  0  0
  -25.2760   -9.5684   22.4752 H   0  0  0  0  0  0
  -24.0000   -7.4635   22.7478 H   0  0  0  0  0  0
  -21.0835   -8.8758   19.8955 H   0  0  0  0  0  0
  -22.3684  -10.9663   19.6161 H   0  0  0  0  0  0
  -21.2008   -7.6149   23.9708 H   0  0  0  0  0  0
  -21.1486   -6.0528   25.9074 H   0  0  0  0  0  0
  -22.0597   -2.7608   23.2843 H   0  0  0  0  0  0
  -22.4116  -11.9889   22.4797 H   0  0  0  0  0  0
  -21.1114  -13.1247   22.2610 H   0  0  0  0  0  0
  -24.6641  -15.8455   20.5263 H   0  0  0  0  0  0
  -26.2825  -15.6306   20.0936 H   0  0  0  0  0  0
  -26.7203  -32.5426   23.1116 H   0  0  0  0  0  0
  -25.0205  -33.9733   25.0505 H   0  0  0  0  0  0
  -22.7236  -31.3136   21.4077 H   0  0  0  0  0  0
  -23.3772  -35.9592   23.3277 H   0  0  0  0  0  0
  -24.3608  -36.8903   22.2055 H   0  0  0  0  0  0
  -23.7227  -37.6473   23.6652 H   0  0  0  0  0  0
  -26.1102  -31.5473   20.6233 H   0  0  0  0  0  0
  -26.8511  -30.8231   22.0170 H   0  0  0  0  0  0
  -28.1111  -28.9350   21.2216 H   0  0  0  0  0  0
  -25.9257  -25.9842   18.9139 H   0  0  0  0  0  0
  -23.9683  -27.3599   18.9643 H   0  0  0  0  0  0
  -23.7720  -30.6218   19.4121 H   0  0  0  0  0  0
  -22.7604  -29.2760   19.8457 H   0  0  0  0  0  0
  -25.1300  -36.1926   25.0829 H   0  0  0  0  0  0
  -21.0004  -28.3294   24.1387 H   0  0  0  0  0  0
  -20.5721  -26.2325   23.3604 H   0  0  0  0  0  0
  -21.6662  -26.7483   22.1178 H   0  0  0  0  0  0
  -19.6939  -25.6300   21.1257 H   0  0  0  0  0  0
  -19.6720  -27.3195   20.6740 H   0  0  0  0  0  0
  -17.4223  -26.6704   21.4015 H   0  0  0  0  0  0
  -18.0340  -26.0101   22.9018 H   0  0  0  0  0  0
  -19.7951  -30.7283   24.2272 H   0  0  0  0  0  0
  -17.5038  -31.6287   24.5174 H   0  0  0  0  0  0
  -15.5365  -30.3019   23.7664 H   0  0  0  0  0  0
  -15.8679  -28.0859   22.7044 H   0  0  0  0  0  0
  -24.5967  -30.7026   25.7804 H   0  0  0  0  0  0
  -24.8894  -32.2891   26.4825 H   0  0  0  0  0  0
  -25.8087  -30.8975   27.0265 H   0  0  0  0  0  0
  -26.2937  -29.6749   24.1226 H   0  0  0  0  0  0
  -27.4071  -29.7266   25.4695 H   0  0  0  0  0  0
  -27.8804  -30.4298   23.9427 H   0  0  0  0  0  0
  -27.2755  -33.3612   26.2070 H   0  0  0  0  0  0
  -28.3930  -32.6795   25.0340 H   0  0  0  0  0  0
  -28.0732  -31.8401   26.5427 H   0  0  0  0  0  0
  -28.2578  -38.0110   24.7531 H   0  0  0  0  0  0
  -28.1100  -36.2644   24.6256 H   0  0  0  0  0  0
  -27.2305  -37.1394   25.8865 H   0  0  0  0  0  0
  -20.9351  -29.8850   21.6922 H   0  0  0  0  0  0
  -26.0168  -38.2840   24.1447 H   0  0  0  0  0  0
  -28.3224  -17.4234   22.2589 H   0  0  0  0  0  0
  -31.3738  -17.3947   19.2307 H   0  0  0  0  0  0
  -30.7248  -24.6317   21.0768 H   0  0  0  0  0  0
  -27.0576  -24.7115   20.3437 H   0  0  0  0  0  0
  -27.8323  -24.8845   18.7789 H   0  0  0  0  0  0
  -27.3051  -19.4588   22.8358 H   0  0  0  0  0  0
  -27.5873  -20.9094   22.0306 H   0  0  0  0  0  0
  -28.9891  -15.3516   21.3668 H   0  0  0  0  0  0
  1 25  1  0  0  0
  1 30  2  0  0  0
  1 84  1  0  0  0
  2  3  1  0  0  0
  2 25  1  0  0  0
  2 88  1  0  0  0
  2 89  1  0  0  0
  3  4  1  0  0  0
  3 90  1  0  0  0
  3 91  1  0  0  0
  4  5  1  0  0  0
  4 92  1  0  0  0
  4 93  1  0  0  0
  5  6  1  0  0  0
  5 26  1  0  0  0
  5 94  1  0  0  0
  6 25  1  0  0  0
  6 95  1  0  0  0
  6 96  1  0  0  0
  7  8  2  0  0  0
  7 26  1  0  0  0
  7 29  1  0  0  0
  8  9  1  0  0  0
  8 22  1  0  0  0
  9 10  1  0  0  0
  9 27  2  0  0  0
 10 11  2  0  0  0
 10 15  1  0  0  0
 11 12  1  0  0  0
 11 97  1  0  0  0
 12 13  2  0  0  0
 12 98  1  0  0  0
 13 14  1  0  0  0
 13 31  1  0  0  0
 14 15  2  0  0  0
 14 99  1  0  0  0
 15100  1  0  0  0
 16 17  2  0  0  0
 16 21  1  0  0  0
 16 31  1  0  0  0
 17 18  1  0  0  0
 17101  1  0  0  0
 18 19  2  0  0  0
 18102  1  0  0  0
 19 20  1  0  0  0
 19 24  1  0  0  0
 20 21  2  0  0  0
 20103  1  0  0  0
 21 23  1  0  0  0
 22 28  1  0  0  0
 22 32  2  0  0  0
 26 27  1  0  0  0
 28104  1  0  0  0
 28105  1  0  0  0
 29106  1  0  0  0
 29107  1  0  0  0
 33 34  1  0  0  0
 33 66  1  0  0  0
 33 70  2  0  0  0
 34 36  1  0  0  0
 34 59  1  0  0  0
 34108  1  0  0  0
 35 44  2  0  0  0
 35 45  1  0  0  0
 35 68  1  0  0  0
 36 56  1  0  0  0
 36109  1  0  0  0
 37 39  1  0  0  0
 37 47  1  0  0  0
 37 66  1  0  0  0
 37110  1  0  0  0
 38 43  2  0  0  0
 38 46  1  0  0  0
 38 47  1  0  0  0
 39 64  1  0  0  0
 39 67  2  0  0  0
 40 52  1  0  0  0
 40 53  2  0  0  0
 40 58  1  0  0  0
 41111  1  0  0  0
 41112  1  0  0  0
 41113  1  0  0  0
 41 48  1  0  0  0
 42 43  1  0  0  0
 42 66  1  0  0  0
 42114  1  0  0  0
 42115  1  0  0  0
 43 44  1  0  0  0
 44116  1  0  0  0
 45 46  2  0  0  0
 45117  1  0  0  0
 46118  1  0  0  0
 47119  1  0  0  0
 47120  1  0  0  0
 48 56  1  0  0  0
 48 65  1  0  0  0
 48121  1  0  0  0
 49 50  1  0  0  0
 49 53  1  0  0  0
 49 64  1  0  0  0
 49122  1  0  0  0
 50 51  1  0  0  0
 50123  1  0  0  0
 50124  1  0  0  0
 51 52  1  0  0  0
 51125  1  0  0  0
 51126  1  0  0  0
 52127  1  0  0  0
 52128  1  0  0  0
 53 54  1  0  0  0
 54 55  2  0  0  0
 54129  1  0  0  0
 55 57  1  0  0  0
 55130  1  0  0  0
 56 69  2  0  0  0
 57 58  2  0  0  0
 57131  1  0  0  0
 58132  1  0  0  0
 59 60  1  0  0  0
 59 61  1  0  0  0
 59 62  1  0  0  0
 60133  1  0  0  0
 60134  1  0  0  0
 60135  1  0  0  0
 61136  1  0  0  0
 61137  1  0  0  0
 61138  1  0  0  0
 62139  1  0  0  0
 62140  1  0  0  0
 62141  1  0  0  0
 63 65  1  0  0  0
 63142  1  0  0  0
 63143  1  0  0  0
 63144  1  0  0  0
 64145  1  0  0  0
 65146  1  0  0  0
 68 81  1  0  0  0
 71 74  2  0  0  0
 71 75  1  0  0  0
 71147  1  0  0  0
 72 74  1  0  0  0
 72 76  2  0  0  0
 72148  1  0  0  0
 73 75  2  0  0  0
 73 76  1  0  0  0
 73 82  1  0  0  0
 74 84  1  0  0  0
 75 83  1  0  0  0
 76 87  1  0  0  0
 77 78  2  0  0  0
 77 79  1  0  0  0
 77149  1  0  0  0
 78 80  1  0  0  0
 78 81  1  0  0  0
 79 82  1  0  0  0
 79 85  2  0  0  0
 80 82  1  0  0  0
 80 86  2  0  0  0
 81150  1  0  0  0
 81151  1  0  0  0
 83152  1  0  0  0
 83153  1  0  0  0
 84154  1  0  0  0
M  ISO  4   1 100  68 101  81 101  84 100
M  END
> <chiral flag>
0

> <version>
0

> <s_m_source_file>
/data/baiqing/PycharmProjects/Reinvent-master-3.2/result/LINK_invent/BTK/process_docking_weight1_custom_product_contain_oxygen_bond_distance_aromatic_linkinvent_7_9_3/rearranged_h_0083.sdf

> <i_m_source_file_index>
74

> <r_mmod_Potential_Energy-OPLS-2005>
-3.83684706687927

> <r_mmod_Stretch_Energy-OPLS-2005>
87.2612762451172

> <r_mmod_Bend_Energy-OPLS-2005>
190.992111206055

> <r_mmod_Torsional_Energy-OPLS-2005>
254.432189941406

> <r_mmod_Improper_Torsional_Energy-OPLS-2005>
6.62667655944824

> <r_mmod_Van_der_Waal_Energy-OPLS-2005>
143.786880493164

> <r_mmod_Electrostatic_Energy-OPLS-2005>
-500.136932373047

> <r_mmod_Solvation_Energy-OPLS-2005>
-247.197006225586

> <b_mmod_Minimization_Converged-OPLS-2005>
0

> <r_mmod_RMS_Derivative-OPLS-2005>
1.29143571853638

$$$$
74
                    3D
 Structure written by MMmdl.
153161  0  0  1  0            999 V2000
  -30.6684  -14.4908   20.5838 C   0  0  0  0  0  0
  -30.4378  -12.3240   19.4122 C   0  0  0  0  0  0
  -29.4971  -12.5119   18.2021 C   0  0  0  0  0  0
  -28.0179  -12.3664   18.6167 C   0  0  0  0  0  0
  -27.6630  -13.2003   19.8764 C   0  0  2  0  0  0
  -28.7072  -12.9609   20.9907 C   0  0  0  0  0  0
  -25.2596  -13.8137   20.5680 C   0  0  0  0  0  0
  -24.1832  -13.0421   20.9140 C   0  0  0  0  0  0
  -24.6385  -11.6888   20.8711 C   0  0  0  0  0  0
  -23.9050  -10.4282   21.0392 C   0  0  0  0  0  0
  -24.3603   -9.4204   21.9175 C   0  0  0  0  0  0
  -23.6280   -8.2240   22.0755 C   0  0  0  0  0  0
  -22.4262   -8.0276   21.3545 C   0  0  0  0  0  0
  -21.9890   -9.0249   20.4649 C   0  0  0  0  0  0
  -22.7219  -10.2126   20.3050 C   0  0  0  0  0  0
  -21.6852   -6.0727   22.5276 C   0  0  0  0  0  0
  -21.4017   -6.5633   23.8208 C   0  0  0  0  0  0
  -21.3658   -5.6790   24.9172 C   0  0  0  0  0  0
  -21.6042   -4.3051   24.7225 C   0  0  0  0  0  0
  -21.8821   -3.8142   23.4347 C   0  0  0  0  0  0
  -21.9194   -4.6956   22.3400 C   0  0  0  0  0  0
  -22.7861  -13.5234   21.1818 C   0  0  0  0  0  0
  -22.1661   -4.2141   21.0976 F   0  0  0  0  0  0
  -21.5626   -3.4536   25.7740 F   0  0  0  0  0  0
  -30.0364  -13.2925   20.4426 N   0  0  0  0  0  0
  -26.3034  -12.9297   20.3378 N   0  0  0  0  0  0
  -25.9315  -11.6462   20.5758 N   0  0  0  0  0  0
  -22.0506  -12.8239   22.0389 N   0  0  0  0  0  0
  -25.4305  -15.1859   20.4168 N   0  0  0  0  0  0
  -31.7986  -14.7144   20.1379 O   0  0  0  0  0  0
  -21.6633   -6.8869   21.4238 O   0  0  0  0  0  0
  -22.3547  -14.5544   20.6679 O   0  0  0  0  0  0
  -24.6152  -31.8672   23.2093 C   0  0  0  0  0  0
  -25.9041  -32.4820   23.8390 C   0  0  1  0  0  0
  -27.2379  -27.4282   20.1047 C   0  0  0  0  0  0
  -25.5893  -33.8617   24.2320 N   0  0  0  0  0  0
  -23.4047  -30.4889   21.5499 C   0  0  2  0  0  0
  -24.8536  -28.9478   20.1229 C   0  0  0  0  0  0
  -22.7415  -29.4652   22.4992 C   0  0  0  0  0  0
  -18.0272  -28.1378   22.8491 C   0  0  0  0  0  0
  -24.1486  -36.7317   23.2639 C   0  0  0  0  0  0
  -25.9337  -30.8296   21.3645 C   0  0  0  0  0  0
  -26.0135  -29.4597   20.7202 C   0  0  0  0  0  0
  -27.2122  -28.7068   20.7094 C   0  0  0  0  0  0
  -26.0636  -26.9274   19.5096 C   0  0  0  0  0  0
  -24.8723  -27.6789   19.5167 C   0  0  0  0  0  0
  -23.6162  -29.8170   20.1666 C   0  0  0  0  0  0
  -25.4106  -36.3108   24.0336 C   0  0  1  0  0  0
  -20.5862  -28.3665   23.1317 C   0  0  2  0  0  0
  -20.6764  -26.9401   22.5418 C   0  0  0  0  0  0
  -19.5744  -26.6386   21.5213 C   0  0  0  0  0  0
  -18.1921  -26.7924   22.1623 C   0  0  0  0  0  0
  -19.1521  -28.8837   23.2903 C   0  0  0  0  0  0
  -18.9451  -30.1443   23.8914 C   0  0  0  0  0  0
  -17.6454  -30.6584   24.0568 C   0  0  0  0  0  0
  -25.9032  -34.9474   23.5126 C   0  0  0  0  0  0
  -16.5344  -29.9089   23.6323 C   0  0  0  0  0  0
  -16.7262  -28.6505   23.0345 C   0  0  0  0  0  0
  -26.4470  -31.6599   25.0717 C   0  0  0  0  0  0
  -25.3741  -31.3711   26.1473 C   0  0  0  0  0  0
  -27.0298  -30.3041   24.6088 C   0  0  0  0  0  0
  -27.6047  -32.4320   25.7476 C   0  0  0  0  0  0
  -27.5578  -37.1813   24.8465 C   0  0  0  0  0  0
  -21.4142  -29.3031   22.3726 N   0  0  0  0  0  0
  -26.4295  -37.3788   23.9403 N   0  0  0  0  0  0
  -24.6693  -31.0765   22.0998 N   0  0  0  0  0  0
  -23.4179  -28.8197   23.3044 O   0  0  0  0  0  0
  -28.3906  -26.6807   20.0190 O   0  0  0  0  0  0
  -26.5599  -34.8927   22.4690 O   0  0  0  0  0  0
  -23.5344  -32.1425   23.7485 O   0  0  0  0  0  0
  -31.2782  -18.9190   21.6987 C   0  0  0  0  0  0
  -31.2609  -17.5191   21.4771 C   0  0  0  0  0  0
  -28.8939  -19.0420   21.2345 C   0  0  0  0  0  0
  -30.0908  -19.6910   21.6088 C   0  0  0  0  0  0
  -30.0438  -16.8647   21.1756 C   0  0  0  0  0  0
  -28.8724  -17.6432   21.0380 C   0  0  0  0  0  0
  -28.9953  -24.4394   20.6577 C   0  0  0  0  0  0
  -28.5940  -25.6985   20.9608 C   0  0  0  0  0  0
  -30.0739  -21.1040   22.0479 C   0  0  0  0  0  0
  -29.3099  -23.4866   21.7229 C   0  0  0  0  0  0
  -29.8873  -15.4478   21.1172 N   0  0  0  0  0  0
  -29.5297  -22.1105   21.3075 N   0  0  0  0  0  0
  -30.6184  -21.3383   23.2478 N   0  3  0  0  0  0
  -29.4293  -23.8023   22.9146 O   0  0  0  0  0  0
  -27.7008  -17.0258   20.7485 F   0  0  0  0  0  0
  -31.4781  -12.4511   19.1070 H   0  0  0  0  0  0
  -30.3634  -11.3080   19.8033 H   0  0  0  0  0  0
  -29.7379  -11.7876   17.4229 H   0  0  0  0  0  0
  -29.6584  -13.4975   17.7622 H   0  0  0  0  0  0
  -27.8303  -11.3095   18.8097 H   0  0  0  0  0  0
  -27.3660  -12.6432   17.7870 H   0  0  0  0  0  0
  -27.7082  -14.2498   19.5853 H   0  0  0  0  0  0
  -28.6924  -11.9158   21.3028 H   0  0  0  0  0  0
  -28.4621  -13.5278   21.8902 H   0  0  0  0  0  0
  -25.2749   -9.5681   22.4745 H   0  0  0  0  0  0
  -23.9989   -7.4635   22.7476 H   0  0  0  0  0  0
  -21.0817   -8.8770   19.8959 H   0  0  0  0  0  0
  -22.3677  -10.9664   19.6159 H   0  0  0  0  0  0
  -21.2014   -7.6144   23.9710 H   0  0  0  0  0  0
  -21.1475   -6.0519   25.9073 H   0  0  0  0  0  0
  -22.0602   -2.7606   23.2851 H   0  0  0  0  0  0
  -22.4113  -11.9896   22.4776 H   0  0  0  0  0  0
  -21.1135  -13.1288   22.2611 H   0  0  0  0  0  0
  -24.6693  -15.8390   20.5606 H   0  0  0  0  0  0
  -26.3073  -15.6514   20.2103 H   0  0  0  0  0  0
  -26.7116  -32.5538   23.1159 H   0  0  0  0  0  0
  -25.0040  -33.9776   25.0464 H   0  0  0  0  0  0
  -22.6939  -31.3055   21.4076 H   0  0  0  0  0  0
  -23.3735  -35.9665   23.3323 H   0  0  0  0  0  0
  -24.3578  -36.8910   22.2049 H   0  0  0  0  0  0
  -23.7258  -37.6537   23.6640 H   0  0  0  0  0  0
  -26.0441  -31.5903   20.5906 H   0  0  0  0  0  0
  -26.8224  -30.8887   21.9809 H   0  0  0  0  0  0
  -28.1136  -29.1019   21.1562 H   0  0  0  0  0  0
  -26.0782  -25.9573   19.0328 H   0  0  0  0  0  0
  -23.9814  -27.2785   19.0524 H   0  0  0  0  0  0
  -23.7282  -30.5891   19.4046 H   0  0  0  0  0  0
  -22.7401  -29.2372   19.8703 H   0  0  0  0  0  0
  -25.1284  -36.1974   25.0830 H   0  0  0  0  0  0
  -20.9949  -28.3232   24.1441 H   0  0  0  0  0  0
  -20.5661  -26.2274   23.3606 H   0  0  0  0  0  0
  -21.6639  -26.7445   22.1213 H   0  0  0  0  0  0
  -19.6906  -25.6300   21.1232 H   0  0  0  0  0  0
  -19.6680  -27.3206   20.6749 H   0  0  0  0  0  0
  -17.4189  -26.6668   21.4028 H   0  0  0  0  0  0
  -18.0324  -26.0062   22.9015 H   0  0  0  0  0  0
  -19.7929  -30.7254   24.2289 H   0  0  0  0  0  0
  -17.5012  -31.6264   24.5169 H   0  0  0  0  0  0
  -15.5346  -30.3000   23.7638 H   0  0  0  0  0  0
  -15.8660  -28.0833   22.7050 H   0  0  0  0  0  0
  -24.5894  -30.7080   25.7813 H   0  0  0  0  0  0
  -24.8960  -32.2873   26.4946 H   0  0  0  0  0  0
  -25.8097  -30.8856   27.0214 H   0  0  0  0  0  0
  -26.2836  -29.6806   24.1147 H   0  0  0  0  0  0
  -27.4079  -29.7273   25.4539 H   0  0  0  0  0  0
  -27.8668  -30.4362   23.9226 H   0  0  0  0  0  0
  -27.2659  -33.3602   26.2092 H   0  0  0  0  0  0
  -28.3832  -32.6912   25.0288 H   0  0  0  0  0  0
  -28.0743  -31.8423   26.5360 H   0  0  0  0  0  0
  -28.2612  -38.0094   24.7491 H   0  0  0  0  0  0
  -28.1055  -36.2625   24.6313 H   0  0  0  0  0  0
  -27.2296  -37.1496   25.8870 H   0  0  0  0  0  0
  -20.9306  -29.8760   21.6951 H   0  0  0  0  0  0
  -26.0185  -38.2870   24.1389 H   0  0  0  0  0  0
  -32.2083  -19.3919   21.9857 H   0  0  0  0  0  0
  -32.1719  -16.9508   21.5992 H   0  0  0  0  0  0
  -27.9665  -19.5934   21.1726 H   0  0  0  0  0  0
  -29.1131  -24.1525   19.6234 H   0  0  0  0  0  0
  -28.4308  -26.0583   21.9691 H   0  0  0  0  0  0
  -28.9538  -15.1317   21.3272 H   0  0  0  0  0  0
  -29.3492  -21.8183   20.3595 H   0  0  0  0  0  0
  -30.9669  -20.5775   23.8098 H   0  0  0  0  0  0
  -30.5295  -22.2631   23.6496 H   0  0  0  0  0  0
  1 25  1  0  0  0
  1 30  2  0  0  0
  1 81  1  0  0  0
  2  3  1  0  0  0
  2 25  1  0  0  0
  2 86  1  0  0  0
  2 87  1  0  0  0
  3  4  1  0  0  0
  3 88  1  0  0  0
  3 89  1  0  0  0
  4  5  1  0  0  0
  4 90  1  0  0  0
  4 91  1  0  0  0
  5  6  1  0  0  0
  5 26  1  0  0  0
  5 92  1  0  0  0
  6 25  1  0  0  0
  6 93  1  0  0  0
  6 94  1  0  0  0
  7  8  2  0  0  0
  7 26  1  0  0  0
  7 29  1  0  0  0
  8  9  1  0  0  0
  8 22  1  0  0  0
  9 10  1  0  0  0
  9 27  2  0  0  0
 10 11  2  0  0  0
 10 15  1  0  0  0
 11 12  1  0  0  0
 11 95  1  0  0  0
 12 13  2  0  0  0
 12 96  1  0  0  0
 13 14  1  0  0  0
 13 31  1  0  0  0
 14 15  2  0  0  0
 14 97  1  0  0  0
 15 98  1  0  0  0
 16 17  2  0  0  0
 16 21  1  0  0  0
 16 31  1  0  0  0
 17 18  1  0  0  0
 17 99  1  0  0  0
 18 19  2  0  0  0
 18100  1  0  0  0
 19 20  1  0  0  0
 19 24  1  0  0  0
 20 21  2  0  0  0
 20101  1  0  0  0
 21 23  1  0  0  0
 22 28  1  0  0  0
 22 32  2  0  0  0
 26 27  1  0  0  0
 28102  1  0  0  0
 28103  1  0  0  0
 29104  1  0  0  0
 29105  1  0  0  0
 33 34  1  0  0  0
 33 66  1  0  0  0
 33 70  2  0  0  0
 34 36  1  0  0  0
 34 59  1  0  0  0
 34106  1  0  0  0
 35 44  2  0  0  0
 35 45  1  0  0  0
 35 68  1  0  0  0
 36 56  1  0  0  0
 36107  1  0  0  0
 37 39  1  0  0  0
 37 47  1  0  0  0
 37 66  1  0  0  0
 37108  1  0  0  0
 38 43  2  0  0  0
 38 46  1  0  0  0
 38 47  1  0  0  0
 39 64  1  0  0  0
 39 67  2  0  0  0
 40 52  1  0  0  0
 40 53  2  0  0  0
 40 58  1  0  0  0
 41109  1  0  0  0
 41110  1  0  0  0
 41111  1  0  0  0
 41 48  1  0  0  0
 42 43  1  0  0  0
 42 66  1  0  0  0
 42112  1  0  0  0
 42113  1  0  0  0
 43 44  1  0  0  0
 44114  1  0  0  0
 45 46  2  0  0  0
 45115  1  0  0  0
 46116  1  0  0  0
 47117  1  0  0  0
 47118  1  0  0  0
 48 56  1  0  0  0
 48 65  1  0  0  0
 48119  1  0  0  0
 49 50  1  0  0  0
 49 53  1  0  0  0
 49 64  1  0  0  0
 49120  1  0  0  0
 50 51  1  0  0  0
 50121  1  0  0  0
 50122  1  0  0  0
 51 52  1  0  0  0
 51123  1  0  0  0
 51124  1  0  0  0
 52125  1  0  0  0
 52126  1  0  0  0
 53 54  1  0  0  0
 54 55  2  0  0  0
 54127  1  0  0  0
 55 57  1  0  0  0
 55128  1  0  0  0
 56 69  2  0  0  0
 57 58  2  0  0  0
 57129  1  0  0  0
 58130  1  0  0  0
 59 60  1  0  0  0
 59 61  1  0  0  0
 59 62  1  0  0  0
 60131  1  0  0  0
 60132  1  0  0  0
 60133  1  0  0  0
 61134  1  0  0  0
 61135  1  0  0  0
 61136  1  0  0  0
 62137  1  0  0  0
 62138  1  0  0  0
 62139  1  0  0  0
 63 65  1  0  0  0
 63140  1  0  0  0
 63141  1  0  0  0
 63142  1  0  0  0
 64143  1  0  0  0
 65144  1  0  0  0
 68 78  1  0  0  0
 71 72  2  0  0  0
 71 74  1  0  0  0
 71145  1  0  0  0
 72 75  1  0  0  0
 72146  1  0  0  0
 73 74  2  0  0  0
 73 76  1  0  0  0
 73147  1  0  0  0
 74 79  1  0  0  0
 75 76  2  0  0  0
 75 81  1  0  0  0
 76 85  1  0  0  0
 77 78  2  0  0  0
 77 80  1  0  0  0
 77148  1  0  0  0
 78149  1  0  0  0
 79 82  1  0  0  0
 79 83  2  0  0  0
 80 82  1  0  0  0
 80 84  2  0  0  0
 81150  1  0  0  0
 82151  1  0  0  0
 83152  1  0  0  0
 83153  1  0  0  0
M  CHG  1  83   1
M  ISO  4   1 100  68 101  78 101  81 100
M  END
> <chiral flag>
0

> <version>
0

> <s_m_source_file>
/data/baiqing/PycharmProjects/Reinvent-master-3.2/result/LINK_invent/BTK/process_docking_weight1_custom_product_contain_oxygen_bond_distance_aromatic_linkinvent_7_9_3/rearranged_h_0083.sdf

> <i_m_source_file_index>
75

> <r_mmod_Potential_Energy-OPLS-2005>
-391.929107666016

> <r_mmod_Stretch_Energy-OPLS-2005>
39.0806159973145

> <r_mmod_Bend_Energy-OPLS-2005>
108.951728820801

> <r_mmod_Torsional_Energy-OPLS-2005>
240.52702331543

> <r_mmod_Improper_Torsional_Energy-OPLS-2005>
5.69613361358643

> <r_mmod_Van_der_Waal_Energy-OPLS-2005>
161.190231323242

> <r_mmod_Electrostatic_Energy-OPLS-2005>
-511.949615478516

> <r_mmod_Solvation_Energy-OPLS-2005>
-448.688903808594

> <b_mmod_Minimization_Converged-OPLS-2005>
0

> <r_mmod_RMS_Derivative-OPLS-2005>
0.629418015480042

$$$$
75
                    3D
 Structure written by MMmdl.
150159  0  0  1  0            999 V2000
  -30.5729  -14.7439   20.4846 C   0  0  0  0  0  0
  -30.4506  -12.4572   19.4680 C   0  0  0  0  0  0
  -29.5163  -12.5185   18.2365 C   0  0  0  0  0  0
  -28.0410  -12.3387   18.6486 C   0  0  0  0  0  0
  -27.6511  -13.2227   19.8625 C   0  0  2  0  0  0
  -28.6967  -13.1104   20.9949 C   0  0  0  0  0  0
  -25.2544  -13.8170   20.5678 C   0  0  0  0  0  0
  -24.1818  -13.0431   20.9182 C   0  0  0  0  0  0
  -24.6402  -11.6908   20.8743 C   0  0  0  0  0  0
  -23.9073  -10.4290   21.0407 C   0  0  0  0  0  0
  -24.3622   -9.4205   21.9183 C   0  0  0  0  0  0
  -23.6295   -8.2241   22.0754 C   0  0  0  0  0  0
  -22.4276   -8.0281   21.3546 C   0  0  0  0  0  0
  -21.9913   -9.0257   20.4649 C   0  0  0  0  0  0
  -22.7245  -10.2134   20.3059 C   0  0  0  0  0  0
  -21.6853   -6.0733   22.5279 C   0  0  0  0  0  0
  -21.4013   -6.5637   23.8211 C   0  0  0  0  0  0
  -21.3659   -5.6792   24.9175 C   0  0  0  0  0  0
  -21.6045   -4.3054   24.7227 C   0  0  0  0  0  0
  -21.8821   -3.8146   23.4349 C   0  0  0  0  0  0
  -21.9193   -4.6961   22.3404 C   0  0  0  0  0  0
  -22.7841  -13.5223   21.1847 C   0  0  0  0  0  0
  -22.1658   -4.2144   21.0983 F   0  0  0  0  0  0
  -21.5636   -3.4538   25.7742 F   0  0  0  0  0  0
  -30.0028  -13.4897   20.4304 N   0  0  0  0  0  0
  -26.2985  -12.9366   20.3328 N   0  0  0  0  0  0
  -25.9337  -11.6516   20.5772 N   0  0  0  0  0  0
  -22.0491  -12.8218   22.0413 N   0  0  0  0  0  0
  -25.4238  -15.1887   20.4079 N   0  0  0  0  0  0
  -31.7307  -14.9218   20.0917 O   0  0  0  0  0  0
  -21.6643   -6.8876   21.4241 O   0  0  0  0  0  0
  -22.3518  -14.5524   20.6694 O   0  0  0  0  0  0
  -24.6312  -31.8552   23.1981 C   0  0  0  0  0  0
  -25.9133  -32.4756   23.8332 C   0  0  1  0  0  0
  -27.2254  -27.2666   20.1305 C   0  0  0  0  0  0
  -25.5925  -33.8558   24.2251 N   0  0  0  0  0  0
  -23.4299  -30.4766   21.5411 C   0  0  2  0  0  0
  -24.8814  -28.9256   20.1086 C   0  0  0  0  0  0
  -22.7508  -29.4596   22.4906 C   0  0  0  0  0  0
  -18.0296  -28.1381   22.8488 C   0  0  0  0  0  0
  -24.1489  -36.7288   23.2640 C   0  0  0  0  0  0
  -25.9760  -30.7680   21.3805 C   0  0  0  0  0  0
  -26.0526  -29.3912   20.7222 C   0  0  0  0  0  0
  -27.2300  -28.5729   20.7259 C   0  0  0  0  0  0
  -26.0365  -26.8730   19.4798 C   0  0  0  0  0  0
  -24.8778  -27.6733   19.4756 C   0  0  0  0  0  0
  -23.6499  -29.8102   20.1576 C   0  0  0  0  0  0
  -25.4116  -36.3072   24.0324 C   0  0  1  0  0  0
  -20.5899  -28.3698   23.1263 C   0  0  2  0  0  0
  -20.6780  -26.9414   22.5406 C   0  0  0  0  0  0
  -19.5753  -26.6379   21.5212 C   0  0  0  0  0  0
  -18.1937  -26.7921   22.1632 C   0  0  0  0  0  0
  -19.1550  -28.8857   23.2869 C   0  0  0  0  0  0
  -18.9470  -30.1459   23.8886 C   0  0  0  0  0  0
  -17.6468  -30.6585   24.0562 C   0  0  0  0  0  0
  -25.9055  -34.9441   23.5092 C   0  0  0  0  0  0
  -16.5359  -29.9082   23.6329 C   0  0  0  0  0  0
  -16.7282  -28.6498   23.0354 C   0  0  0  0  0  0
  -26.4499  -31.6580   25.0723 C   0  0  0  0  0  0
  -25.3722  -31.3746   26.1445 C   0  0  0  0  0  0
  -27.0342  -30.2990   24.6221 C   0  0  0  0  0  0
  -27.6045  -32.4328   25.7501 C   0  0  0  0  0  0
  -27.5579  -37.1799   24.8466 C   0  0  0  0  0  0
  -21.4213  -29.3045   22.3650 N   0  0  0  0  0  0
  -26.4293  -37.3768   23.9407 N   0  0  0  0  0  0
  -24.6978  -31.0512   22.0961 N   0  0  0  0  0  0
  -23.4203  -28.8140   23.3013 O   0  0  0  0  0  0
  -28.2755  -26.3192   20.1831 O   0  0  0  0  0  0
  -26.5635  -34.8917   22.4666 O   0  0  0  0  0  0
  -23.5459  -32.1376   23.7270 O   0  0  0  0  0  0
  -30.3145  -19.5787   20.0086 C   0  0  0  0  0  0
  -30.5504  -18.1502   20.0558 C   0  0  0  0  0  0
  -28.3987  -19.3223   21.3474 C   0  0  0  0  0  0
  -29.2225  -20.2587   20.6507 C   0  0  0  0  0  0
  -29.6892  -17.2567   20.7605 C   0  0  0  0  0  0
  -28.6057  -17.9086   21.4006 C   0  0  0  0  0  0
  -28.4365  -23.7433   20.6153 C   0  0  0  0  0  0
  -27.9263  -22.5486   21.2796 C   0  0  0  0  0  0
  -27.9439  -25.0446   20.7333 C   0  0  0  0  0  0
  -29.5123  -22.8520   19.9215 C   0  0  0  0  0  0
  -28.8910  -21.7178   20.6722 N   0  0  0  0  0  0
  -29.7381  -15.7750   20.8724 N   0  0  0  0  0  0
  -26.9982  -22.4039   22.0491 O   0  0  0  0  0  0
  -27.7206  -17.1472   22.0893 F   0  0  0  0  0  0
  -31.4870  -12.6091   19.1613 H   0  0  0  0  0  0
  -30.4182  -11.4692   19.9296 H   0  0  0  0  0  0
  -29.7977  -11.7532   17.5117 H   0  0  0  0  0  0
  -29.6392  -13.4774   17.7308 H   0  0  0  0  0  0
  -27.8952  -11.2872   18.8979 H   0  0  0  0  0  0
  -27.3831  -12.5438   17.8033 H   0  0  0  0  0  0
  -27.6575  -14.2525   19.5042 H   0  0  0  0  0  0
  -28.7333  -12.0916   21.3832 H   0  0  0  0  0  0
  -28.4234  -13.7411   21.8422 H   0  0  0  0  0  0
  -25.2768   -9.5677   22.4757 H   0  0  0  0  0  0
  -24.0004   -7.4632   22.7473 H   0  0  0  0  0  0
  -21.0844   -8.8778   19.8955 H   0  0  0  0  0  0
  -22.3704  -10.9674   19.6171 H   0  0  0  0  0  0
  -21.2001   -7.6143   23.9713 H   0  0  0  0  0  0
  -21.1480   -6.0522   25.9078 H   0  0  0  0  0  0
  -22.0599   -2.7606   23.2853 H   0  0  0  0  0  0
  -22.4114  -11.9884   22.4802 H   0  0  0  0  0  0
  -21.1115  -13.1246   22.2635 H   0  0  0  0  0  0
  -24.6615  -15.8447   20.5357 H   0  0  0  0  0  0
  -26.2880  -15.6369   20.1328 H   0  0  0  0  0  0
  -26.7203  -32.5410   23.1078 H   0  0  0  0  0  0
  -25.0051  -33.9694   25.0382 H   0  0  0  0  0  0
  -22.7265  -31.2988   21.3937 H   0  0  0  0  0  0
  -23.3748  -35.9625   23.3305 H   0  0  0  0  0  0
  -24.3576  -36.8910   22.2054 H   0  0  0  0  0  0
  -23.7250  -37.6493   23.6663 H   0  0  0  0  0  0
  -26.1156  -31.5286   20.6111 H   0  0  0  0  0  0
  -26.8523  -30.8172   22.0149 H   0  0  0  0  0  0
  -28.1233  -28.9176   21.2275 H   0  0  0  0  0  0
  -25.9923  -25.9065   18.9975 H   0  0  0  0  0  0
  -23.9827  -27.3111   18.9883 H   0  0  0  0  0  0
  -23.7723  -30.5864   19.4013 H   0  0  0  0  0  0
  -22.7695  -29.2415   19.8526 H   0  0  0  0  0  0
  -25.1300  -36.1918   25.0817 H   0  0  0  0  0  0
  -20.9995  -28.3277   24.1382 H   0  0  0  0  0  0
  -20.5676  -26.2312   23.3615 H   0  0  0  0  0  0
  -21.6647  -26.7430   22.1201 H   0  0  0  0  0  0
  -19.6914  -25.6288   21.1247 H   0  0  0  0  0  0
  -19.6683  -27.3186   20.6740 H   0  0  0  0  0  0
  -17.4201  -26.6662   21.4041 H   0  0  0  0  0  0
  -18.0349  -26.0063   22.9032 H   0  0  0  0  0  0
  -19.7947  -30.7278   24.2245 H   0  0  0  0  0  0
  -17.5024  -31.6263   24.5169 H   0  0  0  0  0  0
  -15.5359  -30.2983   23.7654 H   0  0  0  0  0  0
  -15.8683  -28.0814   22.7072 H   0  0  0  0  0  0
  -24.5856  -30.7150   25.7767 H   0  0  0  0  0  0
  -24.8970  -32.2933   26.4897 H   0  0  0  0  0  0
  -25.8023  -30.8883   27.0209 H   0  0  0  0  0  0
  -26.2930  -29.6739   24.1226 H   0  0  0  0  0  0
  -27.3995  -29.7251   25.4750 H   0  0  0  0  0  0
  -27.8825  -30.4253   23.9487 H   0  0  0  0  0  0
  -27.2630  -33.3619   26.2078 H   0  0  0  0  0  0
  -28.3852  -32.6907   25.0332 H   0  0  0  0  0  0
  -28.0715  -31.8461   26.5420 H   0  0  0  0  0  0
  -28.2598  -38.0093   24.7499 H   0  0  0  0  0  0
  -28.1070  -36.2622   24.6306 H   0  0  0  0  0  0
  -27.2294  -37.1467   25.8869 H   0  0  0  0  0  0
  -20.9401  -29.8775   21.6860 H   0  0  0  0  0  0
  -26.0171  -38.2845   24.1396 H   0  0  0  0  0  0
  -31.0171  -20.1776   19.4465 H   0  0  0  0  0  0
  -31.4023  -17.7474   19.5268 H   0  0  0  0  0  0
  -27.5371  -19.6972   21.8789 H   0  0  0  0  0  0
  -27.1021  -25.1664   21.4035 H   0  0  0  0  0  0
  -30.5540  -23.0043   20.2088 H   0  0  0  0  0  0
  -29.4314  -22.7135   18.8421 H   0  0  0  0  0  0
  -28.8870  -15.4125   21.2766 H   0  0  0  0  0  0
  1 25  1  0  0  0
  1 30  2  0  0  0
  1 82  1  0  0  0
  2  3  1  0  0  0
  2 25  1  0  0  0
  2 85  1  0  0  0
  2 86  1  0  0  0
  3  4  1  0  0  0
  3 87  1  0  0  0
  3 88  1  0  0  0
  4  5  1  0  0  0
  4 89  1  0  0  0
  4 90  1  0  0  0
  5  6  1  0  0  0
  5 26  1  0  0  0
  5 91  1  0  0  0
  6 25  1  0  0  0
  6 92  1  0  0  0
  6 93  1  0  0  0
  7  8  2  0  0  0
  7 26  1  0  0  0
  7 29  1  0  0  0
  8  9  1  0  0  0
  8 22  1  0  0  0
  9 10  1  0  0  0
  9 27  2  0  0  0
 10 11  2  0  0  0
 10 15  1  0  0  0
 11 12  1  0  0  0
 11 94  1  0  0  0
 12 13  2  0  0  0
 12 95  1  0  0  0
 13 14  1  0  0  0
 13 31  1  0  0  0
 14 15  2  0  0  0
 14 96  1  0  0  0
 15 97  1  0  0  0
 16 17  2  0  0  0
 16 21  1  0  0  0
 16 31  1  0  0  0
 17 18  1  0  0  0
 17 98  1  0  0  0
 18 19  2  0  0  0
 18 99  1  0  0  0
 19 20  1  0  0  0
 19 24  1  0  0  0
 20 21  2  0  0  0
 20100  1  0  0  0
 21 23  1  0  0  0
 22 28  1  0  0  0
 22 32  2  0  0  0
 26 27  1  0  0  0
 28101  1  0  0  0
 28102  1  0  0  0
 29103  1  0  0  0
 29104  1  0  0  0
 33 34  1  0  0  0
 33 66  1  0  0  0
 33 70  2  0  0  0
 34 36  1  0  0  0
 34 59  1  0  0  0
 34105  1  0  0  0
 35 44  2  0  0  0
 35 45  1  0  0  0
 35 68  1  0  0  0
 36 56  1  0  0  0
 36106  1  0  0  0
 37 39  1  0  0  0
 37 47  1  0  0  0
 37 66  1  0  0  0
 37107  1  0  0  0
 38 43  2  0  0  0
 38 46  1  0  0  0
 38 47  1  0  0  0
 39 64  1  0  0  0
 39 67  2  0  0  0
 40 52  1  0  0  0
 40 53  2  0  0  0
 40 58  1  0  0  0
 41108  1  0  0  0
 41109  1  0  0  0
 41110  1  0  0  0
 41 48  1  0  0  0
 42 43  1  0  0  0
 42 66  1  0  0  0
 42111  1  0  0  0
 42112  1  0  0  0
 43 44  1  0  0  0
 44113  1  0  0  0
 45 46  2  0  0  0
 45114  1  0  0  0
 46115  1  0  0  0
 47116  1  0  0  0
 47117  1  0  0  0
 48 56  1  0  0  0
 48 65  1  0  0  0
 48118  1  0  0  0
 49 50  1  0  0  0
 49 53  1  0  0  0
 49 64  1  0  0  0
 49119  1  0  0  0
 50 51  1  0  0  0
 50120  1  0  0  0
 50121  1  0  0  0
 51 52  1  0  0  0
 51122  1  0  0  0
 51123  1  0  0  0
 52124  1  0  0  0
 52125  1  0  0  0
 53 54  1  0  0  0
 54 55  2  0  0  0
 54126  1  0  0  0
 55 57  1  0  0  0
 55127  1  0  0  0
 56 69  2  0  0  0
 57 58  2  0  0  0
 57128  1  0  0  0
 58129  1  0  0  0
 59 60  1  0  0  0
 59 61  1  0  0  0
 59 62  1  0  0  0
 60130  1  0  0  0
 60131  1  0  0  0
 60132  1  0  0  0
 61133  1  0  0  0
 61134  1  0  0  0
 61135  1  0  0  0
 62136  1  0  0  0
 62137  1  0  0  0
 62138  1  0  0  0
 63 65  1  0  0  0
 63139  1  0  0  0
 63140  1  0  0  0
 63141  1  0  0  0
 64142  1  0  0  0
 65143  1  0  0  0
 68 79  1  0  0  0
 71 72  2  0  0  0
 71 74  1  0  0  0
 71144  1  0  0  0
 72 75  1  0  0  0
 72145  1  0  0  0
 73 74  2  0  0  0
 73 76  1  0  0  0
 73146  1  0  0  0
 74 81  1  0  0  0
 75 76  2  0  0  0
 75 82  1  0  0  0
 76 84  1  0  0  0
 77 78  1  0  0  0
 77 79  2  0  0  0
 77 80  1  0  0  0
 78 81  1  0  0  0
 78 83  2  0  0  0
 79147  1  0  0  0
 80 81  1  0  0  0
 80148  1  0  0  0
 80149  1  0  0  0
 82150  1  0  0  0
M  ISO  4   1 100  68 101  79 101  82 100
M  END
> <chiral flag>
0

> <version>
0

> <s_m_source_file>
/data/baiqing/PycharmProjects/Reinvent-master-3.2/result/LINK_invent/BTK/process_docking_weight1_custom_product_contain_oxygen_bond_distance_aromatic_linkinvent_7_9_3/rearranged_h_0083.sdf

> <i_m_source_file_index>
76

> <r_mmod_Potential_Energy-OPLS-2005>
198.142578125

> <r_mmod_Stretch_Energy-OPLS-2005>
106.317687988281

> <r_mmod_Bend_Energy-OPLS-2005>
271.832885742188

> <r_mmod_Torsional_Energy-OPLS-2005>
219.378356933594

> <r_mmod_Improper_Torsional_Energy-OPLS-2005>
3.23730540275574

> <r_mmod_Van_der_Waal_Energy-OPLS-2005>
133.984222412109

> <r_mmod_Electrostatic_Energy-OPLS-2005>
-415.522491455078

> <r_mmod_Solvation_Energy-OPLS-2005>
-209.682037353516

> <b_mmod_Minimization_Converged-OPLS-2005>
0

> <r_mmod_RMS_Derivative-OPLS-2005>
0.625052928924561

$$$$
76
                    3D
 Structure written by MMmdl.
161170  0  0  1  0            999 V2000
  -30.5818  -14.8423   20.3879 C   0  0  0  0  0  0
  -30.4419  -12.5093   19.4949 C   0  0  0  0  0  0
  -29.5290  -12.5208   18.2465 C   0  0  0  0  0  0
  -28.0511  -12.3364   18.6446 C   0  0  0  0  0  0
  -27.6370  -13.2443   19.8340 C   0  0  2  0  0  0
  -28.6817  -13.2287   20.9734 C   0  0  0  0  0  0
  -25.2452  -13.8212   20.5648 C   0  0  0  0  0  0
  -24.1744  -13.0435   20.9125 C   0  0  0  0  0  0
  -24.6366  -11.6911   20.8657 C   0  0  0  0  0  0
  -23.9055  -10.4272   21.0350 C   0  0  0  0  0  0
  -24.3583   -9.4182   21.9139 C   0  0  0  0  0  0
  -23.6224   -8.2240   22.0760 C   0  0  0  0  0  0
  -22.4200   -8.0278   21.3564 C   0  0  0  0  0  0
  -21.9849   -9.0238   20.4643 C   0  0  0  0  0  0
  -22.7212  -10.2100   20.3022 C   0  0  0  0  0  0
  -21.6835   -6.0698   22.5246 C   0  0  0  0  0  0
  -21.4024   -6.5597   23.8185 C   0  0  0  0  0  0
  -21.3669   -5.6743   24.9145 C   0  0  0  0  0  0
  -21.6061   -4.3010   24.7178 C   0  0  0  0  0  0
  -21.8813   -3.8114   23.4289 C   0  0  0  0  0  0
  -21.9196   -4.6945   22.3359 C   0  0  0  0  0  0
  -22.7783  -13.5237   21.1797 C   0  0  0  0  0  0
  -22.1657   -4.2152   21.0920 F   0  0  0  0  0  0
  -21.5619   -3.4486   25.7682 F   0  0  0  0  0  0
  -29.9816  -13.5950   20.3978 N   0  0  0  0  0  0
  -26.2898  -12.9450   20.3166 N   0  0  0  0  0  0
  -25.9299  -11.6591   20.5639 N   0  0  0  0  0  0
  -22.0363  -12.8295   22.0354 N   0  0  0  0  0  0
  -25.4052  -15.1927   20.4088 N   0  0  0  0  0  0
  -31.7682  -14.9207   20.0551 O   0  0  0  0  0  0
  -21.6579   -6.8852   21.4234 O   0  0  0  0  0  0
  -22.3501  -14.5589   20.6686 O   0  0  0  0  0  0
  -24.6404  -31.8513   23.1900 C   0  0  0  0  0  0
  -25.9212  -32.4725   23.8274 C   0  0  1  0  0  0
  -27.2283  -27.2138   20.1278 C   0  0  0  0  0  0
  -25.5987  -33.8512   24.2203 N   0  0  0  0  0  0
  -23.4394  -30.4746   21.5327 C   0  0  2  0  0  0
  -24.8927  -28.9098   20.1099 C   0  0  0  0  0  0
  -22.7541  -29.4628   22.4854 C   0  0  0  0  0  0
  -18.0319  -28.1431   22.8476 C   0  0  0  0  0  0
  -24.1501  -36.7250   23.2634 C   0  0  0  0  0  0
  -25.9896  -30.7486   21.3795 C   0  0  0  0  0  0
  -26.0690  -29.3655   20.7222 C   0  0  0  0  0  0
  -27.2419  -28.5305   20.7222 C   0  0  0  0  0  0
  -26.0294  -26.8348   19.4960 C   0  0  0  0  0  0
  -24.8822  -27.6550   19.4807 C   0  0  0  0  0  0
  -23.6619  -29.8015   20.1527 C   0  0  0  0  0  0
  -25.4135  -36.3035   24.0315 C   0  0  1  0  0  0
  -20.5927  -28.3756   23.1230 C   0  0  2  0  0  0
  -20.6819  -26.9465   22.5398 C   0  0  0  0  0  0
  -19.5792  -26.6415   21.5216 C   0  0  0  0  0  0
  -18.1966  -26.7983   22.1614 C   0  0  0  0  0  0
  -19.1569  -28.8912   23.2857 C   0  0  0  0  0  0
  -18.9497  -30.1506   23.8892 C   0  0  0  0  0  0
  -17.6494  -30.6617   24.0572 C   0  0  0  0  0  0
  -25.9076  -34.9420   23.5053 C   0  0  0  0  0  0
  -16.5384  -29.9109   23.6339 C   0  0  0  0  0  0
  -16.7312  -28.6536   23.0347 C   0  0  0  0  0  0
  -26.4547  -31.6554   25.0681 C   0  0  0  0  0  0
  -25.3729  -31.3767   26.1374 C   0  0  0  0  0  0
  -27.0379  -30.2948   24.6221 C   0  0  0  0  0  0
  -27.6086  -32.4285   25.7467 C   0  0  0  0  0  0
  -27.5587  -37.1784   24.8456 C   0  0  0  0  0  0
  -21.4234  -29.3091   22.3586 N   0  0  0  0  0  0
  -26.4289  -37.3761   23.9413 N   0  0  0  0  0  0
  -24.7081  -31.0433   22.0892 N   0  0  0  0  0  0
  -23.4222  -28.8171   23.2977 O   0  0  0  0  0  0
  -28.2641  -26.2345   20.1072 O   0  0  0  0  0  0
  -26.5651  -34.8900   22.4620 O   0  0  0  0  0  0
  -23.5547  -32.1349   23.7188 O   0  0  0  0  0  0
  -29.9496  -19.9859   18.7310 C   0  0  0  0  0  0
  -30.4954  -17.5771   18.7747 C   0  0  0  0  0  0
  -29.3222  -18.6147   20.6209 C   0  0  0  0  0  0
  -30.4812  -18.8277   18.1070 C   0  0  0  0  0  0
  -29.3526  -19.9682   20.0154 C   0  0  0  0  0  0
  -29.8988  -17.3936   20.0401 C   0  0  0  0  0  0
  -28.4306  -23.7596   21.1409 C   0  0  0  0  0  0
  -28.2457  -23.2529   22.4841 C   0  0  0  0  0  0
  -28.8603  -22.6270   20.1915 C   0  0  0  0  0  0
  -28.8863  -23.7752   23.5470 C   0  0  0  0  0  0
  -28.1902  -25.1531   21.0402 C   0  0  0  0  0  0
  -31.0569  -18.9205   16.7191 C   0  0  0  0  0  0
  -27.3629  -22.0610   22.6175 C   0  0  0  0  0  0
  -28.0373  -20.9160   21.8698 C   0  0  0  0  0  0
  -28.7873  -21.2501   20.6353 N   0  0  0  0  0  0
  -30.4556  -19.7693   15.8936 N   0  0  0  0  0  0
  -29.8112  -15.9985   20.6142 N   0  0  0  0  0  0
  -29.2641  -22.9126   19.0618 O   0  0  0  0  0  0
  -31.9791  -18.1956   16.3472 O   0  0  0  0  0  0
  -31.4861  -12.6296   19.1971 H   0  0  0  0  0  0
  -30.3916  -11.5476   20.0049 H   0  0  0  0  0  0
  -29.8397  -11.7455   17.5462 H   0  0  0  0  0  0
  -29.6409  -13.4705   17.7205 H   0  0  0  0  0  0
  -27.8948  -11.2871   18.8997 H   0  0  0  0  0  0
  -27.4154  -12.5338   17.7800 H   0  0  0  0  0  0
  -27.6130  -14.2541   19.4226 H   0  0  0  0  0  0
  -28.7330  -12.2411   21.4326 H   0  0  0  0  0  0
  -28.3964  -13.9237   21.7658 H   0  0  0  0  0  0
  -25.2705   -9.5656   22.4718 H   0  0  0  0  0  0
  -23.9900   -7.4648   22.7507 H   0  0  0  0  0  0
  -21.0781   -8.8795   19.8930 H   0  0  0  0  0  0
  -22.3674  -10.9645   19.6132 H   0  0  0  0  0  0
  -21.2033   -7.6093   23.9717 H   0  0  0  0  0  0
  -21.1519   -6.0430   25.9058 H   0  0  0  0  0  0
  -22.0610   -2.7585   23.2757 H   0  0  0  0  0  0
  -22.3872  -11.9960   22.4840 H   0  0  0  0  0  0
  -21.1038  -13.1533   22.2544 H   0  0  0  0  0  0
  -24.6278  -15.8334   20.5121 H   0  0  0  0  0  0
  -26.2509  -15.6495   20.0895 H   0  0  0  0  0  0
  -26.7281  -32.5366   23.1012 H   0  0  0  0  0  0
  -25.0169  -33.9622   25.0384 H   0  0  0  0  0  0
  -22.7424  -31.3004   21.3854 H   0  0  0  0  0  0
  -23.3760  -35.9577   23.3270 H   0  0  0  0  0  0
  -24.3607  -36.8897   22.2050 H   0  0  0  0  0  0
  -23.7237  -37.6435   23.6684 H   0  0  0  0  0  0
  -26.1387  -31.5120   20.6149 H   0  0  0  0  0  0
  -26.8624  -30.7983   22.0185 H   0  0  0  0  0  0
  -28.1413  -28.8753   21.2112 H   0  0  0  0  0  0
  -25.9738  -25.8621   19.0274 H   0  0  0  0  0  0
  -23.9855  -27.3003   18.9916 H   0  0  0  0  0  0
  -23.7883  -30.5732   19.3924 H   0  0  0  0  0  0
  -22.7779  -29.2365   19.8463 H   0  0  0  0  0  0
  -25.1315  -36.1863   25.0805 H   0  0  0  0  0  0
  -21.0052  -28.3372   24.1351 H   0  0  0  0  0  0
  -20.5752  -26.2360   23.3613 H   0  0  0  0  0  0
  -21.6689  -26.7515   22.1194 H   0  0  0  0  0  0
  -19.6932  -25.6316   21.1279 H   0  0  0  0  0  0
  -19.6714  -27.3193   20.6724 H   0  0  0  0  0  0
  -17.4238  -26.6750   21.4007 H   0  0  0  0  0  0
  -18.0331  -26.0139   22.9018 H   0  0  0  0  0  0
  -19.7968  -30.7335   24.2249 H   0  0  0  0  0  0
  -17.5049  -31.6298   24.5181 H   0  0  0  0  0  0
  -15.5381  -30.3013   23.7683 H   0  0  0  0  0  0
  -15.8715  -28.0865   22.7062 H   0  0  0  0  0  0
  -24.5903  -30.7123   25.7703 H   0  0  0  0  0  0
  -24.8938  -32.2964   26.4726 H   0  0  0  0  0  0
  -25.8016  -30.8985   27.0186 H   0  0  0  0  0  0
  -26.2977  -29.6670   24.1257 H   0  0  0  0  0  0
  -27.4023  -29.7259   25.4777 H   0  0  0  0  0  0
  -27.8872  -30.4157   23.9496 H   0  0  0  0  0  0
  -27.2715  -33.3604   26.2014 H   0  0  0  0  0  0
  -28.3938  -32.6801   25.0325 H   0  0  0  0  0  0
  -28.0708  -31.8414   26.5409 H   0  0  0  0  0  0
  -28.2589  -38.0096   24.7549 H   0  0  0  0  0  0
  -28.1100  -36.2636   24.6232 H   0  0  0  0  0  0
  -27.2318  -37.1386   25.8859 H   0  0  0  0  0  0
  -20.9439  -29.8765   21.6733 H   0  0  0  0  0  0
  -26.0141  -38.2822   24.1428 H   0  0  0  0  0  0
  -29.9948  -20.9053   18.1709 H   0  0  0  0  0  0
  -30.9209  -16.7289   18.2547 H   0  0  0  0  0  0
  -28.8323  -18.4791   21.5723 H   0  0  0  0  0  0
  -29.5653  -24.6097   23.4425 H   0  0  0  0  0  0
  -28.7658  -23.3528   24.5349 H   0  0  0  0  0  0
  -27.8629  -25.6171   21.9621 H   0  0  0  0  0  0
  -26.3954  -22.2929   22.1695 H   0  0  0  0  0  0
  -27.1849  -21.7999   23.6624 H   0  0  0  0  0  0
  -27.2766  -20.1634   21.6536 H   0  0  0  0  0  0
  -28.7506  -20.4682   22.5638 H   0  0  0  0  0  0
  -29.6604  -20.2983   16.2147 H   0  0  0  0  0  0
  -30.7526  -19.8554   14.9296 H   0  0  0  0  0  0
  -28.9662  -15.8170   21.1329 H   0  0  0  0  0  0
  1 25  1  0  0  0
  1 30  2  0  0  0
  1 87  1  0  0  0
  2  3  1  0  0  0
  2 25  1  0  0  0
  2 90  1  0  0  0
  2 91  1  0  0  0
  3  4  1  0  0  0
  3 92  1  0  0  0
  3 93  1  0  0  0
  4  5  1  0  0  0
  4 94  1  0  0  0
  4 95  1  0  0  0
  5  6  1  0  0  0
  5 26  1  0  0  0
  5 96  1  0  0  0
  6 25  1  0  0  0
  6 97  1  0  0  0
  6 98  1  0  0  0
  7  8  2  0  0  0
  7 26  1  0  0  0
  7 29  1  0  0  0
  8  9  1  0  0  0
  8 22  1  0  0  0
  9 10  1  0  0  0
  9 27  2  0  0  0
 10 11  2  0  0  0
 10 15  1  0  0  0
 11 12  1  0  0  0
 11 99  1  0  0  0
 12 13  2  0  0  0
 12100  1  0  0  0
 13 14  1  0  0  0
 13 31  1  0  0  0
 14 15  2  0  0  0
 14101  1  0  0  0
 15102  1  0  0  0
 16 17  2  0  0  0
 16 21  1  0  0  0
 16 31  1  0  0  0
 17 18  1  0  0  0
 17103  1  0  0  0
 18 19  2  0  0  0
 18104  1  0  0  0
 19 20  1  0  0  0
 19 24  1  0  0  0
 20 21  2  0  0  0
 20105  1  0  0  0
 21 23  1  0  0  0
 22 28  1  0  0  0
 22 32  2  0  0  0
 26 27  1  0  0  0
 28106  1  0  0  0
 28107  1  0  0  0
 29108  1  0  0  0
 29109  1  0  0  0
 33 34  1  0  0  0
 33 66  1  0  0  0
 33 70  2  0  0  0
 34 36  1  0  0  0
 34 59  1  0  0  0
 34110  1  0  0  0
 35 44  2  0  0  0
 35 45  1  0  0  0
 35 68  1  0  0  0
 36 56  1  0  0  0
 36111  1  0  0  0
 37 39  1  0  0  0
 37 47  1  0  0  0
 37 66  1  0  0  0
 37112  1  0  0  0
 38 43  2  0  0  0
 38 46  1  0  0  0
 38 47  1  0  0  0
 39 64  1  0  0  0
 39 67  2  0  0  0
 40 52  1  0  0  0
 40 53  2  0  0  0
 40 58  1  0  0  0
 41113  1  0  0  0
 41114  1  0  0  0
 41115  1  0  0  0
 41 48  1  0  0  0
 42 43  1  0  0  0
 42 66  1  0  0  0
 42116  1  0  0  0
 42117  1  0  0  0
 43 44  1  0  0  0
 44118  1  0  0  0
 45 46  2  0  0  0
 45119  1  0  0  0
 46120  1  0  0  0
 47121  1  0  0  0
 47122  1  0  0  0
 48 56  1  0  0  0
 48 65  1  0  0  0
 48123  1  0  0  0
 49 50  1  0  0  0
 49 53  1  0  0  0
 49 64  1  0  0  0
 49124  1  0  0  0
 50 51  1  0  0  0
 50125  1  0  0  0
 50126  1  0  0  0
 51 52  1  0  0  0
 51127  1  0  0  0
 51128  1  0  0  0
 52129  1  0  0  0
 52130  1  0  0  0
 53 54  1  0  0  0
 54 55  2  0  0  0
 54131  1  0  0  0
 55 57  1  0  0  0
 55132  1  0  0  0
 56 69  2  0  0  0
 57 58  2  0  0  0
 57133  1  0  0  0
 58134  1  0  0  0
 59 60  1  0  0  0
 59 61  1  0  0  0
 59 62  1  0  0  0
 60135  1  0  0  0
 60136  1  0  0  0
 60137  1  0  0  0
 61138  1  0  0  0
 61139  1  0  0  0
 61140  1  0  0  0
 62141  1  0  0  0
 62142  1  0  0  0
 62143  1  0  0  0
 63 65  1  0  0  0
 63144  1  0  0  0
 63145  1  0  0  0
 63146  1  0  0  0
 64147  1  0  0  0
 65148  1  0  0  0
 68 81  1  0  0  0
 71 74  2  0  0  0
 71 75  1  0  0  0
 71149  1  0  0  0
 72 74  1  0  0  0
 72 76  2  0  0  0
 72150  1  0  0  0
 73 75  2  0  0  0
 73 76  1  0  0  0
 73151  1  0  0  0
 74 82  1  0  0  0
 75 85  1  0  0  0
 76 87  1  0  0  0
 77 78  1  0  0  0
 77 79  1  0  0  0
 77 81  2  0  0  0
 78 80  2  0  0  0
 78 83  1  0  0  0
 79 85  1  0  0  0
 79 88  2  0  0  0
 80152  1  0  0  0
 80153  1  0  0  0
 81154  1  0  0  0
 82 86  1  0  0  0
 82 89  2  0  0  0
 83 84  1  0  0  0
 83155  1  0  0  0
 83156  1  0  0  0
 84 85  1  0  0  0
 84157  1  0  0  0
 84158  1  0  0  0
 86159  1  0  0  0
 86160  1  0  0  0
 87161  1  0  0  0
M  ISO  4   1 100  68 101  81 101  87 100
M  END
> <chiral flag>
0

> <version>
0

> <s_m_source_file>
/data/baiqing/PycharmProjects/Reinvent-master-3.2/result/LINK_invent/BTK/process_docking_weight1_custom_product_contain_oxygen_bond_distance_aromatic_linkinvent_7_9_3/rearranged_h_0083.sdf

> <i_m_source_file_index>
77

> <r_mmod_Potential_Energy-OPLS-2005>
376.499237060547

> <r_mmod_Stretch_Energy-OPLS-2005>
195.90348815918

> <r_mmod_Bend_Energy-OPLS-2005>
273.965270996094

> <r_mmod_Torsional_Energy-OPLS-2005>
311.185394287109

> <r_mmod_Improper_Torsional_Energy-OPLS-2005>
4.4584059715271

> <r_mmod_Van_der_Waal_Energy-OPLS-2005>
165.808166503906

> <r_mmod_Electrostatic_Energy-OPLS-2005>
-448.511505126953

> <r_mmod_Solvation_Energy-OPLS-2005>
-258.212615966797

> <b_mmod_Minimization_Converged-OPLS-2005>
0

> <r_mmod_RMS_Derivative-OPLS-2005>
5.22007989883423

$$$$
77
                    3D
 Structure written by MMmdl.
155164  0  0  1  0            999 V2000
  -30.7062  -14.5203   20.5226 C   0  0  0  0  0  0
  -30.4344  -12.3247   19.4379 C   0  0  0  0  0  0
  -29.4983  -12.4774   18.2219 C   0  0  0  0  0  0
  -28.0299  -12.3072   18.6518 C   0  0  0  0  0  0
  -27.6640  -13.1979   19.8702 C   0  0  2  0  0  0
  -28.7103  -13.0330   20.9975 C   0  0  0  0  0  0
  -25.2635  -13.8178   20.5665 C   0  0  0  0  0  0
  -24.1879  -13.0481   20.9217 C   0  0  0  0  0  0
  -24.6387  -11.6944   20.8822 C   0  0  0  0  0  0
  -23.9041  -10.4336   21.0495 C   0  0  0  0  0  0
  -24.3618   -9.4201   21.9209 C   0  0  0  0  0  0
  -23.6291   -8.2238   22.0742 C   0  0  0  0  0  0
  -22.4249   -8.0321   21.3557 C   0  0  0  0  0  0
  -21.9840   -9.0338   20.4742 C   0  0  0  0  0  0
  -22.7175  -10.2214   20.3189 C   0  0  0  0  0  0
  -21.6836   -6.0755   22.5277 C   0  0  0  0  0  0
  -21.3992   -6.5673   23.8218 C   0  0  0  0  0  0
  -21.3646   -5.6840   24.9181 C   0  0  0  0  0  0
  -21.6021   -4.3095   24.7254 C   0  0  0  0  0  0
  -21.8800   -3.8181   23.4374 C   0  0  0  0  0  0
  -21.9179   -4.6987   22.3420 C   0  0  0  0  0  0
  -22.7920  -13.5319   21.1890 C   0  0  0  0  0  0
  -22.1661   -4.2155   21.1003 F   0  0  0  0  0  0
  -21.5595   -3.4578   25.7773 F   0  0  0  0  0  0
  -30.0332  -13.3366   20.4325 N   0  0  0  0  0  0
  -26.3051  -12.9306   20.3381 N   0  0  0  0  0  0
  -25.9312  -11.6483   20.5849 N   0  0  0  0  0  0
  -22.0633  -12.8467   22.0645 N   0  0  0  0  0  0
  -25.4413  -15.1851   20.3914 N   0  0  0  0  0  0
  -31.8706  -14.6136   20.1237 O   0  0  0  0  0  0
  -21.6629   -6.8896   21.4240 O   0  0  0  0  0  0
  -22.3571  -14.5533   20.6554 O   0  0  0  0  0  0
  -24.6183  -31.8667   23.2099 C   0  0  0  0  0  0
  -25.9066  -32.4817   23.8400 C   0  0  1  0  0  0
  -27.2139  -27.3773   20.1179 C   0  0  0  0  0  0
  -25.5893  -33.8611   24.2314 N   0  0  0  0  0  0
  -23.4111  -30.4902   21.5517 C   0  0  2  0  0  0
  -24.8597  -28.9686   20.1012 C   0  0  0  0  0  0
  -22.7452  -29.4630   22.4958 C   0  0  0  0  0  0
  -18.0284  -28.1365   22.8512 C   0  0  0  0  0  0
  -24.1481  -36.7297   23.2635 C   0  0  0  0  0  0
  -25.9463  -30.8138   21.3792 C   0  0  0  0  0  0
  -26.0232  -29.4502   20.7141 C   0  0  0  0  0  0
  -27.2052  -28.6635   20.7227 C   0  0  0  0  0  0
  -26.0427  -26.9483   19.4530 C   0  0  0  0  0  0
  -24.8698  -27.7229   19.4550 C   0  0  0  0  0  0
  -23.6191  -29.8341   20.1634 C   0  0  0  0  0  0
  -25.4106  -36.3114   24.0338 C   0  0  1  0  0  0
  -20.5873  -28.3640   23.1323 C   0  0  2  0  0  0
  -20.6762  -26.9373   22.5441 C   0  0  0  0  0  0
  -19.5752  -26.6380   21.5226 C   0  0  0  0  0  0
  -18.1924  -26.7910   22.1630 C   0  0  0  0  0  0
  -19.1533  -28.8836   23.2907 C   0  0  0  0  0  0
  -18.9448  -30.1437   23.8916 C   0  0  0  0  0  0
  -17.6450  -30.6580   24.0557 C   0  0  0  0  0  0
  -25.9046  -34.9468   23.5131 C   0  0  0  0  0  0
  -16.5346  -29.9076   23.6324 C   0  0  0  0  0  0
  -16.7268  -28.6489   23.0360 C   0  0  0  0  0  0
  -26.4447  -31.6615   25.0752 C   0  0  0  0  0  0
  -25.3673  -31.3816   26.1495 C   0  0  0  0  0  0
  -27.0240  -30.3009   24.6230 C   0  0  0  0  0  0
  -27.6075  -32.4310   25.7459 C   0  0  0  0  0  0
  -27.5574  -37.1802   24.8460 C   0  0  0  0  0  0
  -21.4172  -29.3010   22.3710 N   0  0  0  0  0  0
  -26.4297  -37.3793   23.9399 N   0  0  0  0  0  0
  -24.6754  -31.0713   22.1033 N   0  0  0  0  0  0
  -23.4195  -28.8168   23.3033 O   0  0  0  0  0  0
  -28.2739  -26.4864   20.2352 O   0  0  0  0  0  0
  -26.5635  -34.8934   22.4710 O   0  0  0  0  0  0
  -23.5365  -32.1440   23.7452 O   0  0  0  0  0  0
  -27.3487  -18.6025   22.5856 C   0  0  0  0  0  0
  -28.2342  -17.6109   22.1329 C   0  0  0  0  0  0
  -27.5335  -19.9525   22.2301 C   0  0  0  0  0  0
  -29.4720  -19.3323   20.9236 C   0  0  0  0  0  0
  -29.3172  -17.9570   21.2947 C   0  0  0  0  0  0
  -28.5943  -20.3651   21.3801 C   0  0  0  0  0  0
  -28.5743  -24.0450   20.6992 C   0  0  0  0  0  0
  -27.9337  -22.8126   21.1587 C   0  0  0  0  0  0
  -27.8999  -25.2296   20.7252 C   0  0  0  0  0  0
  -30.3316  -16.9113   20.8508 C   0  0  0  0  0  0
  -29.9613  -23.7523   20.2110 C   0  0  0  0  0  0
  -30.0445  -22.2165   20.3519 C   0  0  0  0  0  0
  -28.7999  -21.7680   21.0020 N   0  0  0  0  0  0
  -29.9697  -15.5995   20.9012 N   0  0  0  0  0  0
  -26.7744  -22.7366   21.5843 O   0  0  0  0  0  0
  -31.4223  -17.3177   20.4303 O   0  0  0  0  0  0
  -31.4713  -12.4262   19.1127 H   0  0  0  0  0  0
  -30.3595  -11.3232   19.8612 H   0  0  0  0  0  0
  -29.7595  -11.7419   17.4603 H   0  0  0  0  0  0
  -29.6318  -13.4588   17.7638 H   0  0  0  0  0  0
  -27.8938  -11.2585   18.9138 H   0  0  0  0  0  0
  -27.3597  -12.5000   17.8147 H   0  0  0  0  0  0
  -27.6973  -14.2320   19.5209 H   0  0  0  0  0  0
  -28.6960  -12.0066   21.3702 H   0  0  0  0  0  0
  -28.4792  -13.6667   21.8567 H   0  0  0  0  0  0
  -25.2769   -9.5648   22.4764 H   0  0  0  0  0  0
  -24.0013   -7.4602   22.7406 H   0  0  0  0  0  0
  -21.0702   -8.8942   19.9137 H   0  0  0  0  0  0
  -22.3588  -10.9824   19.6382 H   0  0  0  0  0  0
  -21.1985   -7.6188   23.9699 H   0  0  0  0  0  0
  -21.1464   -6.0596   25.9074 H   0  0  0  0  0  0
  -22.0564   -2.7633   23.2907 H   0  0  0  0  0  0
  -22.4378  -12.0344   22.5307 H   0  0  0  0  0  0
  -21.1302  -13.1582   22.2932 H   0  0  0  0  0  0
  -24.6650  -15.8365   20.4357 H   0  0  0  0  0  0
  -26.2698  -15.5924   19.9792 H   0  0  0  0  0  0
  -26.7121  -32.5505   23.1153 H   0  0  0  0  0  0
  -24.9949  -33.9754   25.0390 H   0  0  0  0  0  0
  -22.7011  -31.3076   21.4188 H   0  0  0  0  0  0
  -23.3754  -35.9622   23.3342 H   0  0  0  0  0  0
  -24.3565  -36.8862   22.2040 H   0  0  0  0  0  0
  -23.7222  -37.6511   23.6614 H   0  0  0  0  0  0
  -26.0791  -31.5872   20.6213 H   0  0  0  0  0  0
  -26.8257  -30.8546   22.0122 H   0  0  0  0  0  0
  -28.0915  -29.0151   21.2314 H   0  0  0  0  0  0
  -26.0188  -25.9821   18.9705 H   0  0  0  0  0  0
  -23.9787  -27.3573   18.9628 H   0  0  0  0  0  0
  -23.7205  -30.6166   19.4103 H   0  0  0  0  0  0
  -22.7459  -29.2508   19.8649 H   0  0  0  0  0  0
  -25.1269  -36.1993   25.0829 H   0  0  0  0  0  0
  -20.9962  -28.3232   24.1442 H   0  0  0  0  0  0
  -20.5639  -26.2252   23.3626 H   0  0  0  0  0  0
  -21.6624  -26.7401   22.1236 H   0  0  0  0  0  0
  -19.6912  -25.6304   21.1229 H   0  0  0  0  0  0
  -19.6693  -27.3212   20.6774 H   0  0  0  0  0  0
  -17.4181  -26.6681   21.4038 H   0  0  0  0  0  0
  -18.0324  -26.0035   22.9007 H   0  0  0  0  0  0
  -19.7918  -30.7252   24.2298 H   0  0  0  0  0  0
  -17.4995  -31.6257   24.5136 H   0  0  0  0  0  0
  -15.5337  -30.2967   23.7640 H   0  0  0  0  0  0
  -15.8666  -28.0797   22.7073 H   0  0  0  0  0  0
  -24.5903  -30.7067   25.7873 H   0  0  0  0  0  0
  -24.8776  -32.2991   26.4778 H   0  0  0  0  0  0
  -25.7993  -30.9146   27.0357 H   0  0  0  0  0  0
  -26.2793  -29.6800   24.1249 H   0  0  0  0  0  0
  -27.3863  -29.7254   25.4755 H   0  0  0  0  0  0
  -27.8703  -30.4232   23.9479 H   0  0  0  0  0  0
  -27.2780  -33.3648   26.2044 H   0  0  0  0  0  0
  -28.3870  -32.6814   25.0238 H   0  0  0  0  0  0
  -28.0773  -31.8416   26.5358 H   0  0  0  0  0  0
  -28.2633  -38.0057   24.7466 H   0  0  0  0  0  0
  -28.1035  -36.2594   24.6338 H   0  0  0  0  0  0
  -27.2294  -37.1508   25.8866 H   0  0  0  0  0  0
  -20.9354  -29.8695   21.6885 H   0  0  0  0  0  0
  -26.0209  -38.2874   24.1412 H   0  0  0  0  0  0
  -26.5157  -18.3277   23.2206 H   0  0  0  0  0  0
  -28.0716  -16.5922   22.4510 H   0  0  0  0  0  0
  -26.8282  -20.6518   22.6466 H   0  0  0  0  0  0
  -30.2923  -19.5923   20.2687 H   0  0  0  0  0  0
  -26.9004  -25.2461   21.1446 H   0  0  0  0  0  0
  -30.6935  -24.2451   20.8532 H   0  0  0  0  0  0
  -30.1148  -24.0929   19.1865 H   0  0  0  0  0  0
  -30.9132  -21.9199   20.9417 H   0  0  0  0  0  0
  -30.1321  -21.7546   19.3664 H   0  0  0  0  0  0
  -29.0358  -15.4099   21.2190 H   0  0  0  0  0  0
  1 25  1  0  0  0
  1 30  2  0  0  0
  1 84  1  0  0  0
  2  3  1  0  0  0
  2 25  1  0  0  0
  2 87  1  0  0  0
  2 88  1  0  0  0
  3  4  1  0  0  0
  3 89  1  0  0  0
  3 90  1  0  0  0
  4  5  1  0  0  0
  4 91  1  0  0  0
  4 92  1  0  0  0
  5  6  1  0  0  0
  5 26  1  0  0  0
  5 93  1  0  0  0
  6 25  1  0  0  0
  6 94  1  0  0  0
  6 95  1  0  0  0
  7  8  2  0  0  0
  7 26  1  0  0  0
  7 29  1  0  0  0
  8  9  1  0  0  0
  8 22  1  0  0  0
  9 10  1  0  0  0
  9 27  2  0  0  0
 10 11  2  0  0  0
 10 15  1  0  0  0
 11 12  1  0  0  0
 11 96  1  0  0  0
 12 13  2  0  0  0
 12 97  1  0  0  0
 13 14  1  0  0  0
 13 31  1  0  0  0
 14 15  2  0  0  0
 14 98  1  0  0  0
 15 99  1  0  0  0
 16 17  2  0  0  0
 16 21  1  0  0  0
 16 31  1  0  0  0
 17 18  1  0  0  0
 17100  1  0  0  0
 18 19  2  0  0  0
 18101  1  0  0  0
 19 20  1  0  0  0
 19 24  1  0  0  0
 20 21  2  0  0  0
 20102  1  0  0  0
 21 23  1  0  0  0
 22 28  1  0  0  0
 22 32  2  0  0  0
 26 27  1  0  0  0
 28103  1  0  0  0
 28104  1  0  0  0
 29105  1  0  0  0
 29106  1  0  0  0
 33 34  1  0  0  0
 33 66  1  0  0  0
 33 70  2  0  0  0
 34 36  1  0  0  0
 34 59  1  0  0  0
 34107  1  0  0  0
 35 44  2  0  0  0
 35 45  1  0  0  0
 35 68  1  0  0  0
 36 56  1  0  0  0
 36108  1  0  0  0
 37 39  1  0  0  0
 37 47  1  0  0  0
 37 66  1  0  0  0
 37109  1  0  0  0
 38 43  2  0  0  0
 38 46  1  0  0  0
 38 47  1  0  0  0
 39 64  1  0  0  0
 39 67  2  0  0  0
 40 52  1  0  0  0
 40 53  2  0  0  0
 40 58  1  0  0  0
 41110  1  0  0  0
 41111  1  0  0  0
 41112  1  0  0  0
 41 48  1  0  0  0
 42 43  1  0  0  0
 42 66  1  0  0  0
 42113  1  0  0  0
 42114  1  0  0  0
 43 44  1  0  0  0
 44115  1  0  0  0
 45 46  2  0  0  0
 45116  1  0  0  0
 46117  1  0  0  0
 47118  1  0  0  0
 47119  1  0  0  0
 48 56  1  0  0  0
 48 65  1  0  0  0
 48120  1  0  0  0
 49 50  1  0  0  0
 49 53  1  0  0  0
 49 64  1  0  0  0
 49121  1  0  0  0
 50 51  1  0  0  0
 50122  1  0  0  0
 50123  1  0  0  0
 51 52  1  0  0  0
 51124  1  0  0  0
 51125  1  0  0  0
 52126  1  0  0  0
 52127  1  0  0  0
 53 54  1  0  0  0
 54 55  2  0  0  0
 54128  1  0  0  0
 55 57  1  0  0  0
 55129  1  0  0  0
 56 69  2  0  0  0
 57 58  2  0  0  0
 57130  1  0  0  0
 58131  1  0  0  0
 59 60  1  0  0  0
 59 61  1  0  0  0
 59 62  1  0  0  0
 60132  1  0  0  0
 60133  1  0  0  0
 60134  1  0  0  0
 61135  1  0  0  0
 61136  1  0  0  0
 61137  1  0  0  0
 62138  1  0  0  0
 62139  1  0  0  0
 62140  1  0  0  0
 63 65  1  0  0  0
 63141  1  0  0  0
 63142  1  0  0  0
 63143  1  0  0  0
 64144  1  0  0  0
 65145  1  0  0  0
 68 79  1  0  0  0
 71 72  2  0  0  0
 71 73  1  0  0  0
 71146  1  0  0  0
 72 75  1  0  0  0
 72147  1  0  0  0
 73 76  2  0  0  0
 73148  1  0  0  0
 74 75  2  0  0  0
 74 76  1  0  0  0
 74149  1  0  0  0
 75 80  1  0  0  0
 76 83  1  0  0  0
 77 78  1  0  0  0
 77 79  2  0  0  0
 77 81  1  0  0  0
 78 83  1  0  0  0
 78 85  2  0  0  0
 79150  1  0  0  0
 80 84  1  0  0  0
 80 86  2  0  0  0
 81 82  1  0  0  0
 81151  1  0  0  0
 81152  1  0  0  0
 82 83  1  0  0  0
 82153  1  0  0  0
 82154  1  0  0  0
 84155  1  0  0  0
M  ISO  4   1 100  68 101  79 101  84 100
M  END
> <chiral flag>
0

> <version>
0

> <s_m_source_file>
/data/baiqing/PycharmProjects/Reinvent-master-3.2/result/LINK_invent/BTK/process_docking_weight1_custom_product_contain_oxygen_bond_distance_aromatic_linkinvent_7_9_3/rearranged_h_0083.sdf

> <i_m_source_file_index>
78

> <r_mmod_Potential_Energy-OPLS-2005>
38.8839340209961

> <r_mmod_Stretch_Energy-OPLS-2005>
56.2797660827637

> <r_mmod_Bend_Energy-OPLS-2005>
135.297348022461

> <r_mmod_Torsional_Energy-OPLS-2005>
255.21516418457

> <r_mmod_Improper_Torsional_Energy-OPLS-2005>
5.08545303344727

> <r_mmod_Van_der_Waal_Energy-OPLS-2005>
170.98258972168

> <r_mmod_Electrostatic_Energy-OPLS-2005>
-395.785919189453

> <r_mmod_Solvation_Energy-OPLS-2005>
-223.777618408203

> <b_mmod_Minimization_Converged-OPLS-2005>
0

> <r_mmod_RMS_Derivative-OPLS-2005>
5.31065082550049

$$$$
78
                    3D
 Structure written by MMmdl.
153162  0  0  1  0            999 V2000
  -30.5610  -14.7790   20.4633 C   0  0  0  0  0  0
  -30.4471  -12.4740   19.4775 C   0  0  0  0  0  0
  -29.5173  -12.5190   18.2418 C   0  0  0  0  0  0
  -28.0437  -12.3325   18.6538 C   0  0  0  0  0  0
  -27.6478  -13.2267   19.8584 C   0  0  2  0  0  0
  -28.6915  -13.1385   20.9945 C   0  0  0  0  0  0
  -25.2540  -13.8182   20.5691 C   0  0  0  0  0  0
  -24.1821  -13.0437   20.9200 C   0  0  0  0  0  0
  -24.6406  -11.6913   20.8749 C   0  0  0  0  0  0
  -23.9076  -10.4293   21.0407 C   0  0  0  0  0  0
  -24.3625   -9.4204   21.9184 C   0  0  0  0  0  0
  -23.6296   -8.2241   22.0756 C   0  0  0  0  0  0
  -22.4276   -8.0285   21.3544 C   0  0  0  0  0  0
  -21.9916   -9.0261   20.4649 C   0  0  0  0  0  0
  -22.7249  -10.2138   20.3056 C   0  0  0  0  0  0
  -21.6852   -6.0739   22.5278 C   0  0  0  0  0  0
  -21.4015   -6.5643   23.8210 C   0  0  0  0  0  0
  -21.3657   -5.6796   24.9173 C   0  0  0  0  0  0
  -21.6041   -4.3059   24.7222 C   0  0  0  0  0  0
  -21.8820   -3.8151   23.4344 C   0  0  0  0  0  0
  -21.9192   -4.6967   22.3402 C   0  0  0  0  0  0
  -22.7841  -13.5223   21.1855 C   0  0  0  0  0  0
  -22.1660   -4.2153   21.0979 F   0  0  0  0  0  0
  -21.5626   -3.4542   25.7733 F   0  0  0  0  0  0
  -29.9938  -13.5198   20.4261 N   0  0  0  0  0  0
  -26.2969  -12.9379   20.3305 N   0  0  0  0  0  0
  -25.9337  -11.6525   20.5764 N   0  0  0  0  0  0
  -22.0492  -12.8217   22.0420 N   0  0  0  0  0  0
  -25.4242  -15.1905   20.4098 N   0  0  0  0  0  0
  -31.7220  -14.9402   20.0718 O   0  0  0  0  0  0
  -21.6639   -6.8882   21.4239 O   0  0  0  0  0  0
  -22.3523  -14.5526   20.6699 O   0  0  0  0  0  0
  -24.6334  -31.8515   23.1948 C   0  0  0  0  0  0
  -25.9147  -32.4734   23.8304 C   0  0  1  0  0  0
  -27.2319  -27.2453   20.1186 C   0  0  0  0  0  0
  -25.5930  -33.8538   24.2229 N   0  0  0  0  0  0
  -23.4325  -30.4715   21.5381 C   0  0  2  0  0  0
  -24.8821  -28.9154   20.1042 C   0  0  0  0  0  0
  -22.7517  -29.4577   22.4898 C   0  0  0  0  0  0
  -18.0294  -28.1388   22.8484 C   0  0  0  0  0  0
  -24.1488  -36.7274   23.2640 C   0  0  0  0  0  0
  -25.9793  -30.7586   21.3768 C   0  0  0  0  0  0
  -26.0538  -29.3805   20.7144 C   0  0  0  0  0  0
  -27.2275  -28.5566   20.7127 C   0  0  0  0  0  0
  -26.0304  -26.8447   19.4936 C   0  0  0  0  0  0
  -24.8767  -27.6561   19.4827 C   0  0  0  0  0  0
  -23.6517  -29.8028   20.1546 C   0  0  0  0  0  0
  -25.4116  -36.3057   24.0322 C   0  0  1  0  0  0
  -20.5900  -28.3700   23.1265 C   0  0  2  0  0  0
  -20.6780  -26.9413   22.5411 C   0  0  0  0  0  0
  -19.5755  -26.6382   21.5216 C   0  0  0  0  0  0
  -18.1937  -26.7928   22.1628 C   0  0  0  0  0  0
  -19.1548  -28.8863   23.2867 C   0  0  0  0  0  0
  -18.9469  -30.1463   23.8887 C   0  0  0  0  0  0
  -17.6467  -30.6588   24.0563 C   0  0  0  0  0  0
  -25.9061  -34.9430   23.5083 C   0  0  0  0  0  0
  -16.5358  -29.9085   23.6331 C   0  0  0  0  0  0
  -16.7280  -28.6503   23.0352 C   0  0  0  0  0  0
  -26.4511  -31.6574   25.0708 C   0  0  0  0  0  0
  -25.3725  -31.3730   26.1420 C   0  0  0  0  0  0
  -27.0375  -30.2989   24.6218 C   0  0  0  0  0  0
  -27.6049  -32.4333   25.7487 C   0  0  0  0  0  0
  -27.5581  -37.1783   24.8461 C   0  0  0  0  0  0
  -21.4221  -29.3036   22.3646 N   0  0  0  0  0  0
  -26.4285  -37.3763   23.9416 N   0  0  0  0  0  0
  -24.7009  -31.0454   22.0931 N   0  0  0  0  0  0
  -23.4202  -28.8126   23.3018 O   0  0  0  0  0  0
  -28.3079  -26.3242   20.2463 O   0  0  0  0  0  0
  -26.5643  -34.8915   22.4659 O   0  0  0  0  0  0
  -23.5476  -32.1349   23.7226 O   0  0  0  0  0  0
  -28.8299  -19.5561   21.4629 C   0  0  0  0  0  0
  -30.0612  -19.5092   19.4683 C   0  0  0  0  0  0
  -28.9933  -18.1331   21.5971 C   0  0  0  0  0  0
  -30.2642  -18.0828   19.6008 C   0  0  0  0  0  0
  -29.3329  -20.3467   20.3839 C   0  0  0  0  0  0
  -29.7221  -17.3225   20.6782 C   0  0  0  0  0  0
  -28.7106  -23.8209   19.7852 C   0  0  0  0  0  0
  -28.7523  -22.9941   20.9992 C   0  0  0  0  0  0
  -28.4855  -25.1611   19.4322 C   0  0  0  0  0  0
  -29.0351  -22.5422   18.9613 C   0  0  0  0  0  0
  -28.5809  -25.5599   17.9672 C   0  0  0  0  0  0
  -29.1297  -21.8293   20.2528 N   0  0  0  0  0  0
  -29.7394  -15.8347   20.8454 N   0  0  0  0  0  0
  -28.5027  -23.2585   22.1575 O   0  0  0  0  0  0
  -31.4846  -12.6215   19.1730 H   0  0  0  0  0  0
  -30.4131  -11.4916   19.9516 H   0  0  0  0  0  0
  -29.8054  -11.7488   17.5249 H   0  0  0  0  0  0
  -29.6345  -13.4744   17.7284 H   0  0  0  0  0  0
  -27.9068  -11.2827   18.9153 H   0  0  0  0  0  0
  -27.3839  -12.5224   17.8062 H   0  0  0  0  0  0
  -27.6475  -14.2521   19.4879 H   0  0  0  0  0  0
  -28.7342  -12.1275   21.4021 H   0  0  0  0  0  0
  -28.4142  -13.7849   21.8281 H   0  0  0  0  0  0
  -25.2771   -9.5675   22.4759 H   0  0  0  0  0  0
  -24.0000   -7.4633   22.7480 H   0  0  0  0  0  0
  -21.0844   -8.8787   19.8957 H   0  0  0  0  0  0
  -22.3710  -10.9681   19.6169 H   0  0  0  0  0  0
  -21.2011   -7.6152   23.9716 H   0  0  0  0  0  0
  -21.1477   -6.0527   25.9076 H   0  0  0  0  0  0
  -22.0601   -2.7613   23.2843 H   0  0  0  0  0  0
  -22.4115  -11.9878   22.4798 H   0  0  0  0  0  0
  -21.1114  -13.1241   22.2635 H   0  0  0  0  0  0
  -24.6549  -15.8432   20.5125 H   0  0  0  0  0  0
  -26.2695  -15.6289   20.0667 H   0  0  0  0  0  0
  -26.7212  -32.5376   23.1041 H   0  0  0  0  0  0
  -25.0058  -33.9666   25.0361 H   0  0  0  0  0  0
  -22.7302  -31.2945   21.3897 H   0  0  0  0  0  0
  -23.3752  -35.9604   23.3295 H   0  0  0  0  0  0
  -24.3577  -36.8906   22.2056 H   0  0  0  0  0  0
  -23.7240  -37.6471   23.6673 H   0  0  0  0  0  0
  -26.1212  -31.5206   20.6092 H   0  0  0  0  0  0
  -26.8551  -30.8062   22.0125 H   0  0  0  0  0  0
  -28.1200  -28.9010   21.2157 H   0  0  0  0  0  0
  -25.9556  -25.8643   19.0469 H   0  0  0  0  0  0
  -23.9763  -27.2880   19.0101 H   0  0  0  0  0  0
  -23.7747  -30.5790   19.3985 H   0  0  0  0  0  0
  -22.7703  -29.2356   19.8503 H   0  0  0  0  0  0
  -25.1299  -36.1895   25.0813 H   0  0  0  0  0  0
  -20.9993  -28.3282   24.1386 H   0  0  0  0  0  0
  -20.5681  -26.2310   23.3619 H   0  0  0  0  0  0
  -21.6646  -26.7432   22.1205 H   0  0  0  0  0  0
  -19.6917  -25.6292   21.1248 H   0  0  0  0  0  0
  -19.6695  -27.3191   20.6745 H   0  0  0  0  0  0
  -17.4205  -26.6674   21.4031 H   0  0  0  0  0  0
  -18.0338  -26.0073   22.9030 H   0  0  0  0  0  0
  -19.7946  -30.7283   24.2249 H   0  0  0  0  0  0
  -17.5022  -31.6266   24.5171 H   0  0  0  0  0  0
  -15.5359  -30.2985   23.7661 H   0  0  0  0  0  0
  -15.8680  -28.0822   22.7069 H   0  0  0  0  0  0
  -24.5918  -30.7057   25.7751 H   0  0  0  0  0  0
  -24.8895  -32.2898   26.4806 H   0  0  0  0  0  0
  -25.8036  -30.8942   27.0219 H   0  0  0  0  0  0
  -26.2973  -29.6715   24.1235 H   0  0  0  0  0  0
  -27.4045  -29.7272   25.4752 H   0  0  0  0  0  0
  -27.8851  -30.4262   23.9479 H   0  0  0  0  0  0
  -27.2636  -33.3630   26.2050 H   0  0  0  0  0  0
  -28.3863  -32.6899   25.0323 H   0  0  0  0  0  0
  -28.0714  -31.8473   26.5415 H   0  0  0  0  0  0
  -28.2575  -38.0102   24.7539 H   0  0  0  0  0  0
  -28.1100  -36.2635   24.6247 H   0  0  0  0  0  0
  -27.2304  -37.1380   25.8863 H   0  0  0  0  0  0
  -20.9413  -29.8746   21.6835 H   0  0  0  0  0  0
  -26.0159  -38.2829   24.1442 H   0  0  0  0  0  0
  -28.2587  -20.0595   22.2302 H   0  0  0  0  0  0
  -30.5038  -19.9832   18.6039 H   0  0  0  0  0  0
  -28.5248  -17.6564   22.4469 H   0  0  0  0  0  0
  -30.8222  -17.5702   18.8295 H   0  0  0  0  0  0
  -29.9813  -22.5217   18.4185 H   0  0  0  0  0  0
  -28.2359  -22.1393   18.3368 H   0  0  0  0  0  0
  -27.6543  -25.3257   17.4434 H   0  0  0  0  0  0
  -29.3919  -25.0246   17.4728 H   0  0  0  0  0  0
  -28.7787  -26.6262   17.8557 H   0  0  0  0  0  0
  -28.9115  -15.4834   21.3031 H   0  0  0  0  0  0
  1 25  1  0  0  0
  1 30  2  0  0  0
  1 83  1  0  0  0
  2  3  1  0  0  0
  2 25  1  0  0  0
  2 85  1  0  0  0
  2 86  1  0  0  0
  3  4  1  0  0  0
  3 87  1  0  0  0
  3 88  1  0  0  0
  4  5  1  0  0  0
  4 89  1  0  0  0
  4 90  1  0  0  0
  5  6  1  0  0  0
  5 26  1  0  0  0
  5 91  1  0  0  0
  6 25  1  0  0  0
  6 92  1  0  0  0
  6 93  1  0  0  0
  7  8  2  0  0  0
  7 26  1  0  0  0
  7 29  1  0  0  0
  8  9  1  0  0  0
  8 22  1  0  0  0
  9 10  1  0  0  0
  9 27  2  0  0  0
 10 11  2  0  0  0
 10 15  1  0  0  0
 11 12  1  0  0  0
 11 94  1  0  0  0
 12 13  2  0  0  0
 12 95  1  0  0  0
 13 14  1  0  0  0
 13 31  1  0  0  0
 14 15  2  0  0  0
 14 96  1  0  0  0
 15 97  1  0  0  0
 16 17  2  0  0  0
 16 21  1  0  0  0
 16 31  1  0  0  0
 17 18  1  0  0  0
 17 98  1  0  0  0
 18 19  2  0  0  0
 18 99  1  0  0  0
 19 20  1  0  0  0
 19 24  1  0  0  0
 20 21  2  0  0  0
 20100  1  0  0  0
 21 23  1  0  0  0
 22 28  1  0  0  0
 22 32  2  0  0  0
 26 27  1  0  0  0
 28101  1  0  0  0
 28102  1  0  0  0
 29103  1  0  0  0
 29104  1  0  0  0
 33 34  1  0  0  0
 33 66  1  0  0  0
 33 70  2  0  0  0
 34 36  1  0  0  0
 34 59  1  0  0  0
 34105  1  0  0  0
 35 44  2  0  0  0
 35 45  1  0  0  0
 35 68  1  0  0  0
 36 56  1  0  0  0
 36106  1  0  0  0
 37 39  1  0  0  0
 37 47  1  0  0  0
 37 66  1  0  0  0
 37107  1  0  0  0
 38 43  2  0  0  0
 38 46  1  0  0  0
 38 47  1  0  0  0
 39 64  1  0  0  0
 39 67  2  0  0  0
 40 52  1  0  0  0
 40 53  2  0  0  0
 40 58  1  0  0  0
 41108  1  0  0  0
 41109  1  0  0  0
 41110  1  0  0  0
 41 48  1  0  0  0
 42 43  1  0  0  0
 42 66  1  0  0  0
 42111  1  0  0  0
 42112  1  0  0  0
 43 44  1  0  0  0
 44113  1  0  0  0
 45 46  2  0  0  0
 45114  1  0  0  0
 46115  1  0  0  0
 47116  1  0  0  0
 47117  1  0  0  0
 48 56  1  0  0  0
 48 65  1  0  0  0
 48118  1  0  0  0
 49 50  1  0  0  0
 49 53  1  0  0  0
 49 64  1  0  0  0
 49119  1  0  0  0
 50 51  1  0  0  0
 50120  1  0  0  0
 50121  1  0  0  0
 51 52  1  0  0  0
 51122  1  0  0  0
 51123  1  0  0  0
 52124  1  0  0  0
 52125  1  0  0  0
 53 54  1  0  0  0
 54 55  2  0  0  0
 54126  1  0  0  0
 55 57  1  0  0  0
 55127  1  0  0  0
 56 69  2  0  0  0
 57 58  2  0  0  0
 57128  1  0  0  0
 58129  1  0  0  0
 59 60  1  0  0  0
 59 61  1  0  0  0
 59 62  1  0  0  0
 60130  1  0  0  0
 60131  1  0  0  0
 60132  1  0  0  0
 61133  1  0  0  0
 61134  1  0  0  0
 61135  1  0  0  0
 62136  1  0  0  0
 62137  1  0  0  0
 62138  1  0  0  0
 63 65  1  0  0  0
 63139  1  0  0  0
 63140  1  0  0  0
 63141  1  0  0  0
 64142  1  0  0  0
 65143  1  0  0  0
 68 79  1  0  0  0
 71 73  2  0  0  0
 71 75  1  0  0  0
 71144  1  0  0  0
 72 74  1  0  0  0
 72 75  2  0  0  0
 72145  1  0  0  0
 73 76  1  0  0  0
 73146  1  0  0  0
 74 76  2  0  0  0
 74147  1  0  0  0
 75 82  1  0  0  0
 76 83  1  0  0  0
 77 78  1  0  0  0
 77 79  2  0  0  0
 77 80  1  0  0  0
 78 82  1  0  0  0
 78 84  2  0  0  0
 79 81  1  0  0  0
 80 82  1  0  0  0
 80148  1  0  0  0
 80149  1  0  0  0
 81150  1  0  0  0
 81151  1  0  0  0
 81152  1  0  0  0
 83153  1  0  0  0
M  ISO  4   1 100  68 101  79 101  83 100
M  END
> <chiral flag>
0

> <version>
0

> <s_m_source_file>
/data/baiqing/PycharmProjects/Reinvent-master-3.2/result/LINK_invent/BTK/process_docking_weight1_custom_product_contain_oxygen_bond_distance_aromatic_linkinvent_7_9_3/rearranged_h_0083.sdf

> <i_m_source_file_index>
79

> <r_mmod_Potential_Energy-OPLS-2005>
273.821990966797

> <r_mmod_Stretch_Energy-OPLS-2005>
121.812492370605

> <r_mmod_Bend_Energy-OPLS-2005>
259.293365478516

> <r_mmod_Torsional_Energy-OPLS-2005>
237.053619384766

> <r_mmod_Improper_Torsional_Energy-OPLS-2005>
4.42620372772217

> <r_mmod_Van_der_Waal_Energy-OPLS-2005>
130.200256347656

> <r_mmod_Electrostatic_Energy-OPLS-2005>
-357.091491699219

> <r_mmod_Solvation_Energy-OPLS-2005>
-224.281585693359

> <b_mmod_Minimization_Converged-OPLS-2005>
0

> <r_mmod_RMS_Derivative-OPLS-2005>
0.780097603797913

$$$$
79
                    3D
 Structure written by MMmdl.
152160  0  0  1  0            999 V2000
  -30.6260  -14.7284   20.4762 C   0  0  0  0  0  0
  -30.4294  -12.4528   19.4568 C   0  0  0  0  0  0
  -29.5016  -12.5023   18.2241 C   0  0  0  0  0  0
  -28.0296  -12.3295   18.6454 C   0  0  0  0  0  0
  -27.6400  -13.2308   19.8474 C   0  0  2  0  0  0
  -28.6874  -13.1623   20.9788 C   0  0  0  0  0  0
  -25.2500  -13.8196   20.5692 C   0  0  0  0  0  0
  -24.1794  -13.0443   20.9209 C   0  0  0  0  0  0
  -24.6391  -11.6922   20.8754 C   0  0  0  0  0  0
  -23.9073  -10.4301   21.0413 C   0  0  0  0  0  0
  -24.3620   -9.4213   21.9190 C   0  0  0  0  0  0
  -23.6292   -8.2249   22.0761 C   0  0  0  0  0  0
  -22.4276   -8.0286   21.3552 C   0  0  0  0  0  0
  -21.9916   -9.0258   20.4652 C   0  0  0  0  0  0
  -22.7247  -10.2135   20.3059 C   0  0  0  0  0  0
  -21.6850   -6.0739   22.5278 C   0  0  0  0  0  0
  -21.4011   -6.5641   23.8212 C   0  0  0  0  0  0
  -21.3656   -5.6795   24.9174 C   0  0  0  0  0  0
  -21.6044   -4.3059   24.7225 C   0  0  0  0  0  0
  -21.8819   -3.8150   23.4348 C   0  0  0  0  0  0
  -21.9191   -4.6967   22.3401 C   0  0  0  0  0  0
  -22.7817  -13.5218   21.1874 C   0  0  0  0  0  0
  -22.1662   -4.2152   21.0978 F   0  0  0  0  0  0
  -21.5627   -3.4543   25.7738 F   0  0  0  0  0  0
  -29.9867  -13.5131   20.3909 N   0  0  0  0  0  0
  -26.2930  -12.9406   20.3272 N   0  0  0  0  0  0
  -25.9318  -11.6553   20.5757 N   0  0  0  0  0  0
  -22.0462  -12.8201   22.0424 N   0  0  0  0  0  0
  -25.4180  -15.1922   20.4107 N   0  0  0  0  0  0
  -31.8125  -14.8212   20.1511 O   0  0  0  0  0  0
  -21.6640   -6.8881   21.4243 O   0  0  0  0  0  0
  -22.3506  -14.5533   20.6731 O   0  0  0  0  0  0
  -24.6321  -31.8539   23.1963 C   0  0  0  0  0  0
  -25.9141  -32.4744   23.8320 C   0  0  1  0  0  0
  -27.2214  -27.2630   20.1398 C   0  0  0  0  0  0
  -25.5935  -33.8544   24.2249 N   0  0  0  0  0  0
  -23.4296  -30.4749   21.5399 C   0  0  2  0  0  0
  -24.8788  -28.9188   20.1127 C   0  0  0  0  0  0
  -22.7505  -29.4588   22.4904 C   0  0  0  0  0  0
  -18.0289  -28.1389   22.8479 C   0  0  0  0  0  0
  -24.1486  -36.7277   23.2640 C   0  0  0  0  0  0
  -25.9744  -30.7691   21.3752 C   0  0  0  0  0  0
  -26.0504  -29.3892   20.7223 C   0  0  0  0  0  0
  -27.2286  -28.5750   20.7209 C   0  0  0  0  0  0
  -26.0317  -26.8556   19.5037 C   0  0  0  0  0  0
  -24.8747  -27.6601   19.4902 C   0  0  0  0  0  0
  -23.6499  -29.8071   20.1567 C   0  0  0  0  0  0
  -25.4114  -36.3059   24.0326 C   0  0  1  0  0  0
  -20.5892  -28.3703   23.1263 C   0  0  2  0  0  0
  -20.6783  -26.9422   22.5401 C   0  0  0  0  0  0
  -19.5756  -26.6383   21.5208 C   0  0  0  0  0  0
  -18.1933  -26.7926   22.1621 C   0  0  0  0  0  0
  -19.1541  -28.8860   23.2867 C   0  0  0  0  0  0
  -18.9469  -30.1458   23.8891 C   0  0  0  0  0  0
  -17.6472  -30.6591   24.0564 C   0  0  0  0  0  0
  -25.9060  -34.9431   23.5090 C   0  0  0  0  0  0
  -16.5362  -29.9089   23.6338 C   0  0  0  0  0  0
  -16.7277  -28.6506   23.0357 C   0  0  0  0  0  0
  -26.4514  -31.6570   25.0709 C   0  0  0  0  0  0
  -25.3730  -31.3688   26.1416 C   0  0  0  0  0  0
  -27.0402  -30.3003   24.6188 C   0  0  0  0  0  0
  -27.6064  -32.4319   25.7500 C   0  0  0  0  0  0
  -27.5571  -37.1789   24.8463 C   0  0  0  0  0  0
  -21.4210  -29.3048   22.3647 N   0  0  0  0  0  0
  -26.4281  -37.3765   23.9415 N   0  0  0  0  0  0
  -24.6979  -31.0507   22.0939 N   0  0  0  0  0  0
  -23.4198  -28.8125   23.3006 O   0  0  0  0  0  0
  -28.3043  -26.3585   20.1526 O   0  0  0  0  0  0
  -26.5637  -34.8910   22.4663 O   0  0  0  0  0  0
  -23.5474  -32.1358   23.7265 O   0  0  0  0  0  0
  -29.0413  -18.9891   19.6369 C   0  0  0  0  0  0
  -28.6890  -20.4061   19.5466 C   0  0  0  0  0  0
  -29.7640  -18.6121   20.7531 C   0  0  0  0  0  0
  -29.1026  -21.2103   20.5955 C   0  0  0  0  0  0
  -28.5429  -23.6210   20.2381 C   0  0  0  0  0  0
  -30.4578  -17.1698   22.7408 C   0  0  0  0  0  0
  -31.8145  -16.9955   23.4109 C   0  0  0  0  0  0
  -28.1004  -25.0428   20.8527 C   0  0  0  0  0  0
  -30.4236  -17.2281   21.2028 C   0  0  1  0  0  0
  -28.8859  -22.5745   20.9641 N   0  0  0  0  0  0
  -29.8921  -15.8547   20.8073 N   0  0  0  0  0  0
  -29.4369  -17.1953   23.4337 O   0  0  0  0  0  0
  -29.9947  -20.1241   21.6921 S   0  0  0  0  0  0
  -31.4682  -12.5785   19.1465 H   0  0  0  0  0  0
  -30.3781  -11.4754   19.9390 H   0  0  0  0  0  0
  -29.7788  -11.7238   17.5119 H   0  0  0  0  0  0
  -29.6267  -13.4524   17.7019 H   0  0  0  0  0  0
  -27.8885  -11.2812   18.9115 H   0  0  0  0  0  0
  -27.3683  -12.5186   17.7992 H   0  0  0  0  0  0
  -27.6344  -14.2530   19.4678 H   0  0  0  0  0  0
  -28.7218  -12.1640   21.4176 H   0  0  0  0  0  0
  -28.4222  -13.8420   21.7899 H   0  0  0  0  0  0
  -25.2760   -9.5687   22.4775 H   0  0  0  0  0  0
  -23.9999   -7.4639   22.7482 H   0  0  0  0  0  0
  -21.0849   -8.8782   19.8949 H   0  0  0  0  0  0
  -22.3712  -10.9678   19.6172 H   0  0  0  0  0  0
  -21.2004   -7.6149   23.9713 H   0  0  0  0  0  0
  -21.1473   -6.0526   25.9073 H   0  0  0  0  0  0
  -22.0600   -2.7614   23.2846 H   0  0  0  0  0  0
  -22.4076  -11.9859   22.4808 H   0  0  0  0  0  0
  -21.1080  -13.1229   22.2634 H   0  0  0  0  0  0
  -24.6469  -15.8422   20.5213 H   0  0  0  0  0  0
  -26.2603  -15.6365   20.0685 H   0  0  0  0  0  0
  -26.7208  -32.5406   23.1068 H   0  0  0  0  0  0
  -25.0076  -33.9680   25.0389 H   0  0  0  0  0  0
  -22.7278  -31.2972   21.3907 H   0  0  0  0  0  0
  -23.3753  -35.9603   23.3287 H   0  0  0  0  0  0
  -24.3577  -36.8927   22.2058 H   0  0  0  0  0  0
  -23.7240  -37.6468   23.6689 H   0  0  0  0  0  0
  -26.1094  -31.5264   20.6015 H   0  0  0  0  0  0
  -26.8529  -30.8225   22.0064 H   0  0  0  0  0  0
  -28.1278  -28.9298   21.2054 H   0  0  0  0  0  0
  -25.9937  -25.8880   19.0242 H   0  0  0  0  0  0
  -23.9806  -27.2956   19.0040 H   0  0  0  0  0  0
  -23.7766  -30.5822   19.3997 H   0  0  0  0  0  0
  -22.7690  -29.2394   19.8513 H   0  0  0  0  0  0
  -25.1294  -36.1896   25.0817 H   0  0  0  0  0  0
  -20.9992  -28.3288   24.1383 H   0  0  0  0  0  0
  -20.5702  -26.2311   23.3603 H   0  0  0  0  0  0
  -21.6649  -26.7451   22.1182 H   0  0  0  0  0  0
  -19.6926  -25.6293   21.1241 H   0  0  0  0  0  0
  -19.6696  -27.3191   20.6739 H   0  0  0  0  0  0
  -17.4203  -26.6673   21.4021 H   0  0  0  0  0  0
  -18.0336  -26.0068   22.9018 H   0  0  0  0  0  0
  -19.7952  -30.7265   24.2267 H   0  0  0  0  0  0
  -17.5033  -31.6272   24.5162 H   0  0  0  0  0  0
  -15.5363  -30.2995   23.7664 H   0  0  0  0  0  0
  -15.8675  -28.0825   22.7090 H   0  0  0  0  0  0
  -24.5926  -30.7031   25.7707 H   0  0  0  0  0  0
  -24.8897  -32.2838   26.4843 H   0  0  0  0  0  0
  -25.8026  -30.8844   27.0193 H   0  0  0  0  0  0
  -26.2998  -29.6706   24.1233 H   0  0  0  0  0  0
  -27.4144  -29.7296   25.4701 H   0  0  0  0  0  0
  -27.8836  -30.4311   23.9403 H   0  0  0  0  0  0
  -27.2681  -33.3643   26.2032 H   0  0  0  0  0  0
  -28.3902  -32.6832   25.0342 H   0  0  0  0  0  0
  -28.0697  -31.8463   26.5454 H   0  0  0  0  0  0
  -28.2554  -38.0115   24.7546 H   0  0  0  0  0  0
  -28.1100  -36.2647   24.6251 H   0  0  0  0  0  0
  -27.2288  -37.1396   25.8861 H   0  0  0  0  0  0
  -20.9400  -29.8779   21.6857 H   0  0  0  0  0  0
  -26.0148  -38.2828   24.1439 H   0  0  0  0  0  0
  -28.7522  -18.2977   18.8577 H   0  0  0  0  0  0
  -28.1109  -20.7706   18.7087 H   0  0  0  0  0  0
  -28.4840  -23.5683   19.1477 H   0  0  0  0  0  0
  -32.0121  -15.9374   23.5823 H   0  0  0  0  0  0
  -31.8333  -17.5117   24.3700 H   0  0  0  0  0  0
  -32.6122  -17.3998   22.7886 H   0  0  0  0  0  0
  -28.6161  -25.1423   21.8080 H   0  0  0  0  0  0
  -27.0507  -24.9415   21.1278 H   0  0  0  0  0  0
  -31.4543  -17.2702   20.8480 H   0  0  0  0  0  0
  -28.9168  -15.6994   21.0096 H   0  0  0  0  0  0
  1 25  1  0  0  0
  1 30  2  0  0  0
  1 81  1  0  0  0
  2  3  1  0  0  0
  2 25  1  0  0  0
  2 84  1  0  0  0
  2 85  1  0  0  0
  3  4  1  0  0  0
  3 86  1  0  0  0
  3 87  1  0  0  0
  4  5  1  0  0  0
  4 88  1  0  0  0
  4 89  1  0  0  0
  5  6  1  0  0  0
  5 26  1  0  0  0
  5 90  1  0  0  0
  6 25  1  0  0  0
  6 91  1  0  0  0
  6 92  1  0  0  0
  7  8  2  0  0  0
  7 26  1  0  0  0
  7 29  1  0  0  0
  8  9  1  0  0  0
  8 22  1  0  0  0
  9 10  1  0  0  0
  9 27  2  0  0  0
 10 11  2  0  0  0
 10 15  1  0  0  0
 11 12  1  0  0  0
 11 93  1  0  0  0
 12 13  2  0  0  0
 12 94  1  0  0  0
 13 14  1  0  0  0
 13 31  1  0  0  0
 14 15  2  0  0  0
 14 95  1  0  0  0
 15 96  1  0  0  0
 16 17  2  0  0  0
 16 21  1  0  0  0
 16 31  1  0  0  0
 17 18  1  0  0  0
 17 97  1  0  0  0
 18 19  2  0  0  0
 18 98  1  0  0  0
 19 20  1  0  0  0
 19 24  1  0  0  0
 20 21  2  0  0  0
 20 99  1  0  0  0
 21 23  1  0  0  0
 22 28  1  0  0  0
 22 32  2  0  0  0
 26 27  1  0  0  0
 28100  1  0  0  0
 28101  1  0  0  0
 29102  1  0  0  0
 29103  1  0  0  0
 33 34  1  0  0  0
 33 66  1  0  0  0
 33 70  2  0  0  0
 34 36  1  0  0  0
 34 59  1  0  0  0
 34104  1  0  0  0
 35 44  2  0  0  0
 35 45  1  0  0  0
 35 68  1  0  0  0
 36 56  1  0  0  0
 36105  1  0  0  0
 37 39  1  0  0  0
 37 47  1  0  0  0
 37 66  1  0  0  0
 37106  1  0  0  0
 38 43  2  0  0  0
 38 46  1  0  0  0
 38 47  1  0  0  0
 39 64  1  0  0  0
 39 67  2  0  0  0
 40 52  1  0  0  0
 40 53  2  0  0  0
 40 58  1  0  0  0
 41107  1  0  0  0
 41108  1  0  0  0
 41109  1  0  0  0
 41 48  1  0  0  0
 42 43  1  0  0  0
 42 66  1  0  0  0
 42110  1  0  0  0
 42111  1  0  0  0
 43 44  1  0  0  0
 44112  1  0  0  0
 45 46  2  0  0  0
 45113  1  0  0  0
 46114  1  0  0  0
 47115  1  0  0  0
 47116  1  0  0  0
 48 56  1  0  0  0
 48 65  1  0  0  0
 48117  1  0  0  0
 49 50  1  0  0  0
 49 53  1  0  0  0
 49 64  1  0  0  0
 49118  1  0  0  0
 50 51  1  0  0  0
 50119  1  0  0  0
 50120  1  0  0  0
 51 52  1  0  0  0
 51121  1  0  0  0
 51122  1  0  0  0
 52123  1  0  0  0
 52124  1  0  0  0
 53 54  1  0  0  0
 54 55  2  0  0  0
 54125  1  0  0  0
 55 57  1  0  0  0
 55126  1  0  0  0
 56 69  2  0  0  0
 57 58  2  0  0  0
 57127  1  0  0  0
 58128  1  0  0  0
 59 60  1  0  0  0
 59 61  1  0  0  0
 59 62  1  0  0  0
 60129  1  0  0  0
 60130  1  0  0  0
 60131  1  0  0  0
 61132  1  0  0  0
 61133  1  0  0  0
 61134  1  0  0  0
 62135  1  0  0  0
 62136  1  0  0  0
 62137  1  0  0  0
 63 65  1  0  0  0
 63138  1  0  0  0
 63139  1  0  0  0
 63140  1  0  0  0
 64141  1  0  0  0
 65142  1  0  0  0
 68 78  1  0  0  0
 71 72  1  0  0  0
 71 73  2  0  0  0
 71143  1  0  0  0
 72 74  2  0  0  0
 72144  1  0  0  0
 73 79  1  0  0  0
 73 83  1  0  0  0
 74 80  1  0  0  0
 74 83  1  0  0  0
 75 78  1  0  0  0
 75 80  2  0  0  0
 75145  1  0  0  0
 76 77  1  0  0  0
 76 79  1  0  0  0
 76 82  2  0  0  0
 77146  1  0  0  0
 77147  1  0  0  0
 77148  1  0  0  0
 78149  1  0  0  0
 78150  1  0  0  0
 79 81  1  0  0  0
 79151  1  0  0  0
 81152  1  0  0  0
M  ISO  4   1 100  68 101  78 101  81 100
M  END
> <chiral flag>
0

> <version>
0

> <s_m_source_file>
/data/baiqing/PycharmProjects/Reinvent-master-3.2/result/LINK_invent/BTK/process_docking_weight1_custom_product_contain_oxygen_bond_distance_aromatic_linkinvent_7_9_3/rearranged_h_0083.sdf

> <i_m_source_file_index>
80

> <r_mmod_Potential_Energy-OPLS-2005>
51.6246032714844

> <r_mmod_Stretch_Energy-OPLS-2005>
116.06876373291

> <r_mmod_Bend_Energy-OPLS-2005>
189.353775024414

> <r_mmod_Torsional_Energy-OPLS-2005>
221.323303222656

> <r_mmod_Improper_Torsional_Energy-OPLS-2005>
4.09427261352539

> <r_mmod_Van_der_Waal_Energy-OPLS-2005>
115.474884033203

> <r_mmod_Electrostatic_Energy-OPLS-2005>
-452.908355712891

> <r_mmod_Solvation_Energy-OPLS-2005>
-223.51643371582

> <b_mmod_Minimization_Converged-OPLS-2005>
0

> <r_mmod_RMS_Derivative-OPLS-2005>
1.29015278816223

$$$$
80
                    3D
 Structure written by MMmdl.
152161  0  0  1  0            999 V2000
  -30.5840  -14.8835   20.4792 C   0  0  0  0  0  0
  -30.4343  -12.5557   19.4949 C   0  0  0  0  0  0
  -29.5178  -12.5366   18.2499 C   0  0  0  0  0  0
  -28.0470  -12.3308   18.6583 C   0  0  0  0  0  0
  -27.6332  -13.2422   19.8423 C   0  0  2  0  0  0
  -28.6712  -13.2108   20.9793 C   0  0  0  0  0  0
  -25.2481  -13.8211   20.5701 C   0  0  0  0  0  0
  -24.1783  -13.0441   20.9200 C   0  0  0  0  0  0
  -24.6387  -11.6923   20.8734 C   0  0  0  0  0  0
  -23.9072  -10.4294   21.0399 C   0  0  0  0  0  0
  -24.3624   -9.4210   21.9180 C   0  0  0  0  0  0
  -23.6296   -8.2247   22.0754 C   0  0  0  0  0  0
  -22.4278   -8.0282   21.3543 C   0  0  0  0  0  0
  -21.9914   -9.0256   20.4646 C   0  0  0  0  0  0
  -22.7243  -10.2133   20.3051 C   0  0  0  0  0  0
  -21.6858   -6.0737   22.5279 C   0  0  0  0  0  0
  -21.4016   -6.5640   23.8212 C   0  0  0  0  0  0
  -21.3657   -5.6792   24.9174 C   0  0  0  0  0  0
  -21.6048   -4.3056   24.7226 C   0  0  0  0  0  0
  -21.8817   -3.8147   23.4346 C   0  0  0  0  0  0
  -21.9192   -4.6964   22.3402 C   0  0  0  0  0  0
  -22.7808  -13.5216   21.1873 C   0  0  0  0  0  0
  -22.1662   -4.2150   21.0980 F   0  0  0  0  0  0
  -21.5627   -3.4539   25.7738 F   0  0  0  0  0  0
  -29.9568  -13.6384   20.4047 N   0  0  0  0  0  0
  -26.2894  -12.9428   20.3232 N   0  0  0  0  0  0
  -25.9315  -11.6562   20.5711 N   0  0  0  0  0  0
  -22.0463  -12.8201   22.0431 N   0  0  0  0  0  0
  -25.4190  -15.1939   20.4175 N   0  0  0  0  0  0
  -31.7600  -14.9356   20.0995 O   0  0  0  0  0  0
  -21.6642   -6.8880   21.4241 O   0  0  0  0  0  0
  -22.3485  -14.5521   20.6723 O   0  0  0  0  0  0
  -24.6400  -31.8477   23.1914 C   0  0  0  0  0  0
  -25.9186  -32.4714   23.8293 C   0  0  1  0  0  0
  -27.2171  -27.1748   20.1488 C   0  0  0  0  0  0
  -25.5945  -33.8519   24.2208 N   0  0  0  0  0  0
  -23.4423  -30.4673   21.5363 C   0  0  2  0  0  0
  -24.8928  -28.8990   20.1127 C   0  0  0  0  0  0
  -22.7551  -29.4560   22.4874 C   0  0  0  0  0  0
  -18.0303  -28.1394   22.8479 C   0  0  0  0  0  0
  -24.1491  -36.7264   23.2643 C   0  0  0  0  0  0
  -25.9956  -30.7324   21.3860 C   0  0  0  0  0  0
  -26.0689  -29.3457   20.7308 C   0  0  0  0  0  0
  -27.2359  -28.4979   20.7353 C   0  0  0  0  0  0
  -26.0194  -26.8192   19.4948 C   0  0  0  0  0  0
  -24.8774  -27.6464   19.4811 C   0  0  0  0  0  0
  -23.6677  -29.7972   20.1553 C   0  0  0  0  0  0
  -25.4122  -36.3044   24.0319 C   0  0  1  0  0  0
  -20.5911  -28.3715   23.1244 C   0  0  2  0  0  0
  -20.6785  -26.9421   22.5403 C   0  0  0  0  0  0
  -19.5758  -26.6382   21.5212 C   0  0  0  0  0  0
  -18.1941  -26.7934   22.1625 C   0  0  0  0  0  0
  -19.1558  -28.8874   23.2854 C   0  0  0  0  0  0
  -18.9475  -30.1471   23.8878 C   0  0  0  0  0  0
  -17.6471  -30.6591   24.0561 C   0  0  0  0  0  0
  -25.9071  -34.9418   23.5073 C   0  0  0  0  0  0
  -16.5362  -29.9083   23.6334 C   0  0  0  0  0  0
  -16.7287  -28.6501   23.0356 C   0  0  0  0  0  0
  -26.4520  -31.6572   25.0720 C   0  0  0  0  0  0
  -25.3713  -31.3748   26.1419 C   0  0  0  0  0  0
  -27.0387  -30.2975   24.6279 C   0  0  0  0  0  0
  -27.6051  -32.4336   25.7505 C   0  0  0  0  0  0
  -27.5575  -37.1789   24.8466 C   0  0  0  0  0  0
  -21.4247  -29.3049   22.3622 N   0  0  0  0  0  0
  -26.4287  -37.3752   23.9410 N   0  0  0  0  0  0
  -24.7122  -31.0361   22.0934 N   0  0  0  0  0  0
  -23.4208  -28.8110   23.3013 O   0  0  0  0  0  0
  -28.2571  -26.1889   20.1665 O   0  0  0  0  0  0
  -26.5650  -34.8909   22.4648 O   0  0  0  0  0  0
  -23.5526  -32.1334   23.7153 O   0  0  0  0  0  0
  -30.4621  -18.6532   18.0398 C   0  0  0  0  0  0
  -30.0467  -19.8913   18.5697 C   0  0  0  0  0  0
  -30.3942  -17.4593   18.7770 C   0  0  0  0  0  0
  -29.4458  -18.7735   20.5910 C   0  0  0  0  0  0
  -29.5016  -20.0753   19.8667 C   0  0  0  0  0  0
  -29.9053  -17.4395   20.0987 C   0  0  0  0  0  0
  -28.4769  -23.5378   20.4217 C   0  0  0  0  0  0
  -28.1453  -22.2161   20.9878 C   0  0  0  0  0  0
  -29.4734  -22.8257   19.6256 C   0  0  0  0  0  0
  -27.9646  -24.8439   20.6372 C   0  0  0  0  0  0
  -29.4008  -16.1573   22.1998 C   0  0  0  0  0  0
  -29.1166  -21.5268   20.1845 N   0  0  0  0  0  0
  -29.8890  -16.0875   20.8188 N   0  0  0  0  0  0
  -27.3061  -21.9006   21.8091 O   0  0  0  0  0  0
  -30.2545  -23.2403   18.7910 O   0  0  0  0  0  0
  -31.4707  -12.6976   19.1853 H   0  0  0  0  0  0
  -30.4143  -11.5902   20.0030 H   0  0  0  0  0  0
  -29.8287  -11.7502   17.5610 H   0  0  0  0  0  0
  -29.6185  -13.4777   17.7069 H   0  0  0  0  0  0
  -27.9272  -11.2842   18.9409 H   0  0  0  0  0  0
  -27.3880  -12.4930   17.8046 H   0  0  0  0  0  0
  -27.6152  -14.2589   19.4482 H   0  0  0  0  0  0
  -28.7493  -12.2097   21.4061 H   0  0  0  0  0  0
  -28.3426  -13.8495   21.7942 H   0  0  0  0  0  0
  -25.2769   -9.5690   22.4754 H   0  0  0  0  0  0
  -24.0007   -7.4640   22.7474 H   0  0  0  0  0  0
  -21.0846   -8.8773   19.8953 H   0  0  0  0  0  0
  -22.3700  -10.9671   19.6160 H   0  0  0  0  0  0
  -21.2010   -7.6149   23.9716 H   0  0  0  0  0  0
  -21.1483   -6.0523   25.9078 H   0  0  0  0  0  0
  -22.0598   -2.7609   23.2846 H   0  0  0  0  0  0
  -22.4088  -11.9865   22.4813 H   0  0  0  0  0  0
  -21.1079  -13.1218   22.2645 H   0  0  0  0  0  0
  -24.6579  -15.8524   20.5408 H   0  0  0  0  0  0
  -26.2811  -15.6351   20.1224 H   0  0  0  0  0  0
  -26.7252  -32.5337   23.1026 H   0  0  0  0  0  0
  -25.0076  -33.9641   25.0344 H   0  0  0  0  0  0
  -22.7432  -31.2921   21.3832 H   0  0  0  0  0  0
  -23.3756  -35.9591   23.3296 H   0  0  0  0  0  0
  -24.3575  -36.8903   22.2058 H   0  0  0  0  0  0
  -23.7240  -37.6457   23.6683 H   0  0  0  0  0  0
  -26.1463  -31.4875   20.6132 H   0  0  0  0  0  0
  -26.8680  -30.7838   22.0258 H   0  0  0  0  0  0
  -28.1348  -28.8337   21.2330 H   0  0  0  0  0  0
  -25.9533  -25.8554   19.0099 H   0  0  0  0  0  0
  -23.9799  -27.2988   18.9880 H   0  0  0  0  0  0
  -23.8020  -30.5715   19.3992 H   0  0  0  0  0  0
  -22.7837  -29.2368   19.8456 H   0  0  0  0  0  0
  -25.1309  -36.1877   25.0810 H   0  0  0  0  0  0
  -21.0004  -28.3304   24.1366 H   0  0  0  0  0  0
  -20.5682  -26.2330   23.3621 H   0  0  0  0  0  0
  -21.6653  -26.7434   22.1202 H   0  0  0  0  0  0
  -19.6922  -25.6290   21.1255 H   0  0  0  0  0  0
  -19.6696  -27.3182   20.6734 H   0  0  0  0  0  0
  -17.4210  -26.6677   21.4029 H   0  0  0  0  0  0
  -18.0342  -26.0080   22.9025 H   0  0  0  0  0  0
  -19.7950  -30.7292   24.2239 H   0  0  0  0  0  0
  -17.5025  -31.6271   24.5166 H   0  0  0  0  0  0
  -15.5361  -30.2981   23.7672 H   0  0  0  0  0  0
  -15.8687  -28.0816   22.7083 H   0  0  0  0  0  0
  -24.5901  -30.7085   25.7740 H   0  0  0  0  0  0
  -24.8891  -32.2925   26.4796 H   0  0  0  0  0  0
  -25.8004  -30.8956   27.0228 H   0  0  0  0  0  0
  -26.3000  -29.6698   24.1279 H   0  0  0  0  0  0
  -27.4008  -29.7268   25.4842 H   0  0  0  0  0  0
  -27.8903  -30.4222   23.9587 H   0  0  0  0  0  0
  -27.2642  -33.3651   26.2036 H   0  0  0  0  0  0
  -28.3888  -32.6873   25.0354 H   0  0  0  0  0  0
  -28.0691  -31.8494   26.5463 H   0  0  0  0  0  0
  -28.2588  -38.0090   24.7512 H   0  0  0  0  0  0
  -28.1076  -36.2620   24.6296 H   0  0  0  0  0  0
  -27.2292  -37.1439   25.8868 H   0  0  0  0  0  0
  -20.9453  -29.8762   21.6803 H   0  0  0  0  0  0
  -26.0159  -38.2822   24.1409 H   0  0  0  0  0  0
  -30.8483  -18.6210   17.0305 H   0  0  0  0  0  0
  -30.1456  -20.7412   17.9098 H   0  0  0  0  0  0
  -30.7327  -16.5531   18.2956 H   0  0  0  0  0  0
  -29.0375  -18.8160   21.5895 H   0  0  0  0  0  0
  -27.1649  -24.9124   21.3617 H   0  0  0  0  0  0
  -28.3143  -16.2499   22.2143 H   0  0  0  0  0  0
  -29.8233  -17.0187   22.7167 H   0  0  0  0  0  0
  -29.6791  -15.2920   22.8044 H   0  0  0  0  0  0
  1 25  1  0  0  0
  1 30  2  0  0  0
  1 83  1  0  0  0
  2  3  1  0  0  0
  2 25  1  0  0  0
  2 86  1  0  0  0
  2 87  1  0  0  0
  3  4  1  0  0  0
  3 88  1  0  0  0
  3 89  1  0  0  0
  4  5  1  0  0  0
  4 90  1  0  0  0
  4 91  1  0  0  0
  5  6  1  0  0  0
  5 26  1  0  0  0
  5 92  1  0  0  0
  6 25  1  0  0  0
  6 93  1  0  0  0
  6 94  1  0  0  0
  7  8  2  0  0  0
  7 26  1  0  0  0
  7 29  1  0  0  0
  8  9  1  0  0  0
  8 22  1  0  0  0
  9 10  1  0  0  0
  9 27  2  0  0  0
 10 11  2  0  0  0
 10 15  1  0  0  0
 11 12  1  0  0  0
 11 95  1  0  0  0
 12 13  2  0  0  0
 12 96  1  0  0  0
 13 14  1  0  0  0
 13 31  1  0  0  0
 14 15  2  0  0  0
 14 97  1  0  0  0
 15 98  1  0  0  0
 16 17  2  0  0  0
 16 21  1  0  0  0
 16 31  1  0  0  0
 17 18  1  0  0  0
 17 99  1  0  0  0
 18 19  2  0  0  0
 18100  1  0  0  0
 19 20  1  0  0  0
 19 24  1  0  0  0
 20 21  2  0  0  0
 20101  1  0  0  0
 21 23  1  0  0  0
 22 28  1  0  0  0
 22 32  2  0  0  0
 26 27  1  0  0  0
 28102  1  0  0  0
 28103  1  0  0  0
 29104  1  0  0  0
 29105  1  0  0  0
 33 34  1  0  0  0
 33 66  1  0  0  0
 33 70  2  0  0  0
 34 36  1  0  0  0
 34 59  1  0  0  0
 34106  1  0  0  0
 35 44  2  0  0  0
 35 45  1  0  0  0
 35 68  1  0  0  0
 36 56  1  0  0  0
 36107  1  0  0  0
 37 39  1  0  0  0
 37 47  1  0  0  0
 37 66  1  0  0  0
 37108  1  0  0  0
 38 43  2  0  0  0
 38 46  1  0  0  0
 38 47  1  0  0  0
 39 64  1  0  0  0
 39 67  2  0  0  0
 40 52  1  0  0  0
 40 53  2  0  0  0
 40 58  1  0  0  0
 41109  1  0  0  0
 41110  1  0  0  0
 41111  1  0  0  0
 41 48  1  0  0  0
 42 43  1  0  0  0
 42 66  1  0  0  0
 42112  1  0  0  0
 42113  1  0  0  0
 43 44  1  0  0  0
 44114  1  0  0  0
 45 46  2  0  0  0
 45115  1  0  0  0
 46116  1  0  0  0
 47117  1  0  0  0
 47118  1  0  0  0
 48 56  1  0  0  0
 48 65  1  0  0  0
 48119  1  0  0  0
 49 50  1  0  0  0
 49 53  1  0  0  0
 49 64  1  0  0  0
 49120  1  0  0  0
 50 51  1  0  0  0
 50121  1  0  0  0
 50122  1  0  0  0
 51 52  1  0  0  0
 51123  1  0  0  0
 51124  1  0  0  0
 52125  1  0  0  0
 52126  1  0  0  0
 53 54  1  0  0  0
 54 55  2  0  0  0
 54127  1  0  0  0
 55 57  1  0  0  0
 55128  1  0  0  0
 56 69  2  0  0  0
 57 58  2  0  0  0
 57129  1  0  0  0
 58130  1  0  0  0
 59 60  1  0  0  0
 59 61  1  0  0  0
 59 62  1  0  0  0
 60131  1  0  0  0
 60132  1  0  0  0
 60133  1  0  0  0
 61134  1  0  0  0
 61135  1  0  0  0
 61136  1  0  0  0
 62137  1  0  0  0
 62138  1  0  0  0
 62139  1  0  0  0
 63 65  1  0  0  0
 63140  1  0  0  0
 63141  1  0  0  0
 63142  1  0  0  0
 64143  1  0  0  0
 65144  1  0  0  0
 68 80  1  0  0  0
 71 72  2  0  0  0
 71 73  1  0  0  0
 71145  1  0  0  0
 72 75  1  0  0  0
 72146  1  0  0  0
 73 76  2  0  0  0
 73147  1  0  0  0
 74 75  2  0  0  0
 74 76  1  0  0  0
 74148  1  0  0  0
 75 82  1  0  0  0
 76 83  1  0  0  0
 77 78  1  0  0  0
 77 79  1  0  0  0
 77 80  2  0  0  0
 78 82  1  0  0  0
 78 84  2  0  0  0
 79 82  1  0  0  0
 79 85  2  0  0  0
 80149  1  0  0  0
 81 83  1  0  0  0
 81150  1  0  0  0
 81151  1  0  0  0
 81152  1  0  0  0
M  ISO  4   1 100  68 101  80 101  83 100
M  END
> <chiral flag>
0

> <version>
0

> <s_m_source_file>
/data/baiqing/PycharmProjects/Reinvent-master-3.2/result/LINK_invent/BTK/process_docking_weight1_custom_product_contain_oxygen_bond_distance_aromatic_linkinvent_7_9_3/rearranged_h_0083.sdf

> <i_m_source_file_index>
81

> <r_mmod_Potential_Energy-OPLS-2005>
551.8212890625

> <r_mmod_Stretch_Energy-OPLS-2005>
206.69792175293

> <r_mmod_Bend_Energy-OPLS-2005>
302.862213134766

> <r_mmod_Torsional_Energy-OPLS-2005>
270.650817871094

> <r_mmod_Improper_Torsional_Energy-OPLS-2005>
4.17514753341675

> <r_mmod_Van_der_Waal_Energy-OPLS-2005>
137.143035888672

> <r_mmod_Electrostatic_Energy-OPLS-2005>
-308.357940673828

> <r_mmod_Solvation_Energy-OPLS-2005>
-212.197662353516

> <b_mmod_Minimization_Converged-OPLS-2005>
0

> <r_mmod_RMS_Derivative-OPLS-2005>
0.838965356349945

$$$$
81
                    3D
 Structure written by MMmdl.
151159  0  0  1  0            999 V2000
  -30.6998  -14.5291   20.5356 C   0  0  0  0  0  0
  -30.4199  -12.3306   19.4404 C   0  0  0  0  0  0
  -29.4967  -12.4938   18.2154 C   0  0  0  0  0  0
  -28.0192  -12.3503   18.6294 C   0  0  0  0  0  0
  -27.6559  -13.2141   19.8671 C   0  0  2  0  0  0
  -28.7000  -13.0482   20.9953 C   0  0  0  0  0  0
  -25.2567  -13.8175   20.5682 C   0  0  0  0  0  0
  -24.1830  -13.0444   20.9187 C   0  0  0  0  0  0
  -24.6395  -11.6913   20.8744 C   0  0  0  0  0  0
  -23.9064  -10.4294   21.0408 C   0  0  0  0  0  0
  -24.3614   -9.4208   21.9185 C   0  0  0  0  0  0
  -23.6289   -8.2243   22.0756 C   0  0  0  0  0  0
  -22.4272   -8.0281   21.3544 C   0  0  0  0  0  0
  -21.9907   -9.0255   20.4648 C   0  0  0  0  0  0
  -22.7236  -10.2135   20.3058 C   0  0  0  0  0  0
  -21.6854   -6.0734   22.5277 C   0  0  0  0  0  0
  -21.4014   -6.5639   23.8210 C   0  0  0  0  0  0
  -21.3658   -5.6791   24.9172 C   0  0  0  0  0  0
  -21.6044   -4.3054   24.7223 C   0  0  0  0  0  0
  -21.8819   -3.8145   23.4345 C   0  0  0  0  0  0
  -21.9191   -4.6960   22.3402 C   0  0  0  0  0  0
  -22.7851  -13.5235   21.1843 C   0  0  0  0  0  0
  -22.1661   -4.2146   21.0980 F   0  0  0  0  0  0
  -21.5628   -3.4539   25.7738 F   0  0  0  0  0  0
  -30.0244  -13.3484   20.4308 N   0  0  0  0  0  0
  -26.3001  -12.9356   20.3344 N   0  0  0  0  0  0
  -25.9324  -11.6512   20.5774 N   0  0  0  0  0  0
  -22.0494  -12.8228   22.0402 N   0  0  0  0  0  0
  -25.4285  -15.1893   20.4082 N   0  0  0  0  0  0
  -31.8484  -14.6492   20.1036 O   0  0  0  0  0  0
  -21.6639   -6.8877   21.4240 O   0  0  0  0  0  0
  -22.3535  -14.5539   20.6692 O   0  0  0  0  0  0
  -24.6189  -31.8653   23.2094 C   0  0  0  0  0  0
  -25.9062  -32.4814   23.8395 C   0  0  1  0  0  0
  -27.2254  -27.4007   20.1044 C   0  0  0  0  0  0
  -25.5903  -33.8613   24.2321 N   0  0  0  0  0  0
  -23.4094  -30.4905   21.5500 C   0  0  2  0  0  0
  -24.8574  -28.9608   20.1077 C   0  0  0  0  0  0
  -22.7439  -29.4647   22.4967 C   0  0  0  0  0  0
  -18.0277  -28.1387   22.8488 C   0  0  0  0  0  0
  -24.1484  -36.7311   23.2640 C   0  0  0  0  0  0
  -25.9432  -30.8217   21.3694 C   0  0  0  0  0  0
  -26.0215  -29.4567   20.7107 C   0  0  0  0  0  0
  -27.2123  -28.6844   20.7074 C   0  0  0  0  0  0
  -26.0485  -26.9414   19.4719 C   0  0  0  0  0  0
  -24.8676  -27.7041   19.4816 C   0  0  0  0  0  0
  -23.6198  -29.8292   20.1627 C   0  0  0  0  0  0
  -25.4108  -36.3109   24.0338 C   0  0  1  0  0  0
  -20.5870  -28.3680   23.1302 C   0  0  2  0  0  0
  -20.6766  -26.9411   22.5417 C   0  0  0  0  0  0
  -19.5744  -26.6390   21.5215 C   0  0  0  0  0  0
  -18.1922  -26.7930   22.1624 C   0  0  0  0  0  0
  -19.1527  -28.8851   23.2889 C   0  0  0  0  0  0
  -18.9459  -30.1453   23.8905 C   0  0  0  0  0  0
  -17.6460  -30.6590   24.0568 C   0  0  0  0  0  0
  -25.9037  -34.9473   23.5127 C   0  0  0  0  0  0
  -16.5350  -29.9095   23.6327 C   0  0  0  0  0  0
  -16.7265  -28.6511   23.0348 C   0  0  0  0  0  0
  -26.4476  -31.6603   25.0734 C   0  0  0  0  0  0
  -25.3735  -31.3722   26.1481 C   0  0  0  0  0  0
  -27.0310  -30.3037   24.6139 C   0  0  0  0  0  0
  -27.6051  -32.4329   25.7492 C   0  0  0  0  0  0
  -27.5582  -37.1810   24.8466 C   0  0  0  0  0  0
  -21.4163  -29.3038   22.3706 N   0  0  0  0  0  0
  -26.4293  -37.3794   23.9413 N   0  0  0  0  0  0
  -24.6754  -31.0730   22.1011 N   0  0  0  0  0  0
  -23.4189  -28.8181   23.3020 O   0  0  0  0  0  0
  -28.3209  -26.5526   20.1647 O   0  0  0  0  0  0
  -26.5603  -34.8927   22.4691 O   0  0  0  0  0  0
  -23.5371  -32.1419   23.7464 O   0  0  0  0  0  0
  -32.0504  -18.7731   21.2200 C   0  0  0  0  0  0
  -31.0542  -19.7666   21.1725 C   0  0  0  0  0  0
  -31.7109  -17.4083   21.1505 C   0  0  0  0  0  0
  -29.3668  -18.0176   20.9709 C   0  0  0  0  0  0
  -29.6935  -19.4090   21.0479 C   0  0  0  0  0  0
  -30.3624  -16.9976   21.0114 C   0  0  0  0  0  0
  -28.6825  -24.1200   20.4187 C   0  0  0  0  0  0
  -28.0360  -25.2898   20.6760 C   0  0  0  0  0  0
  -28.6024  -20.4684   21.1232 C   0  0  0  0  0  0
  -28.1499  -22.8685   20.9909 C   0  0  0  0  0  0
  -29.9811  -15.6013   20.9640 N   0  0  0  0  0  0
  -28.9146  -21.7570   20.7995 N   0  0  0  0  0  0
  -27.4722  -20.0949   21.4595 O   0  0  0  0  0  0
  -27.0725  -22.8401   21.5993 O   0  0  0  0  0  0
  -31.4652  -12.4170   19.1387 H   0  0  0  0  0  0
  -30.3182  -11.3323   19.8688 H   0  0  0  0  0  0
  -29.7443  -11.7516   17.4554 H   0  0  0  0  0  0
  -29.6582  -13.4699   17.7552 H   0  0  0  0  0  0
  -27.8413  -11.2971   18.8503 H   0  0  0  0  0  0
  -27.3662  -12.5981   17.7917 H   0  0  0  0  0  0
  -27.6841  -14.2531   19.5383 H   0  0  0  0  0  0
  -28.6870  -12.0285   21.3828 H   0  0  0  0  0  0
  -28.4621  -13.6904   21.8445 H   0  0  0  0  0  0
  -25.2762   -9.5680   22.4758 H   0  0  0  0  0  0
  -23.9996   -7.4635   22.7479 H   0  0  0  0  0  0
  -21.0836   -8.8774   19.8956 H   0  0  0  0  0  0
  -22.3695  -10.9672   19.6165 H   0  0  0  0  0  0
  -21.2011   -7.6148   23.9711 H   0  0  0  0  0  0
  -21.1480   -6.0525   25.9074 H   0  0  0  0  0  0
  -22.0601   -2.7608   23.2848 H   0  0  0  0  0  0
  -22.4106  -11.9888   22.4789 H   0  0  0  0  0  0
  -21.1116  -13.1258   22.2619 H   0  0  0  0  0  0
  -24.6613  -15.8443   20.5146 H   0  0  0  0  0  0
  -26.2753  -15.6259   20.0668 H   0  0  0  0  0  0
  -26.7132  -32.5519   23.1158 H   0  0  0  0  0  0
  -25.0049  -33.9767   25.0464 H   0  0  0  0  0  0
  -22.6997  -31.3087   21.4120 H   0  0  0  0  0  0
  -23.3740  -35.9648   23.3310 H   0  0  0  0  0  0
  -24.3576  -36.8921   22.2053 H   0  0  0  0  0  0
  -23.7241  -37.6524   23.6645 H   0  0  0  0  0  0
  -26.0626  -31.5891   20.6036 H   0  0  0  0  0  0
  -26.8278  -30.8715   21.9923 H   0  0  0  0  0  0
  -28.1045  -29.0505   21.1955 H   0  0  0  0  0  0
  -26.0363  -25.9710   18.9951 H   0  0  0  0  0  0
  -23.9751  -27.3175   19.0090 H   0  0  0  0  0  0
  -23.7306  -30.6074   19.4069 H   0  0  0  0  0  0
  -22.7423  -29.2528   19.8638 H   0  0  0  0  0  0
  -25.1281  -36.1976   25.0829 H   0  0  0  0  0  0
  -20.9959  -28.3255   24.1423 H   0  0  0  0  0  0
  -20.5681  -26.2290   23.3615 H   0  0  0  0  0  0
  -21.6638  -26.7457   22.1207 H   0  0  0  0  0  0
  -19.6911  -25.6307   21.1239 H   0  0  0  0  0  0
  -19.6685  -27.3205   20.6751 H   0  0  0  0  0  0
  -17.4196  -26.6682   21.4022 H   0  0  0  0  0  0
  -18.0313  -26.0072   22.9020 H   0  0  0  0  0  0
  -19.7937  -30.7260   24.2281 H   0  0  0  0  0  0
  -17.5018  -31.6268   24.5174 H   0  0  0  0  0  0
  -15.5351  -30.3002   23.7648 H   0  0  0  0  0  0
  -15.8661  -28.0836   22.7057 H   0  0  0  0  0  0
  -24.5912  -30.7061   25.7823 H   0  0  0  0  0  0
  -24.8925  -32.2883   26.4918 H   0  0  0  0  0  0
  -25.8087  -30.8910   27.0248 H   0  0  0  0  0  0
  -26.2867  -29.6797   24.1179 H   0  0  0  0  0  0
  -27.4045  -29.7278   25.4616 H   0  0  0  0  0  0
  -27.8713  -30.4341   23.9317 H   0  0  0  0  0  0
  -27.2666  -33.3617   26.2095 H   0  0  0  0  0  0
  -28.3839  -32.6914   25.0306 H   0  0  0  0  0  0
  -28.0737  -31.8444   26.5391 H   0  0  0  0  0  0
  -28.2611  -38.0095   24.7503 H   0  0  0  0  0  0
  -28.1066  -36.2630   24.6298 H   0  0  0  0  0  0
  -27.2299  -37.1467   25.8869 H   0  0  0  0  0  0
  -20.9332  -29.8774   21.6936 H   0  0  0  0  0  0
  -26.0185  -38.2874   24.1407 H   0  0  0  0  0  0
  -33.0871  -19.0595   21.3337 H   0  0  0  0  0  0
  -31.3511  -20.8017   21.2680 H   0  0  0  0  0  0
  -32.5135  -16.6894   21.2249 H   0  0  0  0  0  0
  -28.3264  -17.7318   20.8967 H   0  0  0  0  0  0
  -29.5545  -24.1133   19.7816 H   0  0  0  0  0  0
  -27.1737  -25.3184   21.3322 H   0  0  0  0  0  0
  -29.0185  -15.3952   21.1827 H   0  0  0  0  0  0
  -29.8253  -21.8975   20.3947 H   0  0  0  0  0  0
  1 25  1  0  0  0
  1 30  2  0  0  0
  1 81  1  0  0  0
  2  3  1  0  0  0
  2 25  1  0  0  0
  2 85  1  0  0  0
  2 86  1  0  0  0
  3  4  1  0  0  0
  3 87  1  0  0  0
  3 88  1  0  0  0
  4  5  1  0  0  0
  4 89  1  0  0  0
  4 90  1  0  0  0
  5  6  1  0  0  0
  5 26  1  0  0  0
  5 91  1  0  0  0
  6 25  1  0  0  0
  6 92  1  0  0  0
  6 93  1  0  0  0
  7  8  2  0  0  0
  7 26  1  0  0  0
  7 29  1  0  0  0
  8  9  1  0  0  0
  8 22  1  0  0  0
  9 10  1  0  0  0
  9 27  2  0  0  0
 10 11  2  0  0  0
 10 15  1  0  0  0
 11 12  1  0  0  0
 11 94  1  0  0  0
 12 13  2  0  0  0
 12 95  1  0  0  0
 13 14  1  0  0  0
 13 31  1  0  0  0
 14 15  2  0  0  0
 14 96  1  0  0  0
 15 97  1  0  0  0
 16 17  2  0  0  0
 16 21  1  0  0  0
 16 31  1  0  0  0
 17 18  1  0  0  0
 17 98  1  0  0  0
 18 19  2  0  0  0
 18 99  1  0  0  0
 19 20  1  0  0  0
 19 24  1  0  0  0
 20 21  2  0  0  0
 20100  1  0  0  0
 21 23  1  0  0  0
 22 28  1  0  0  0
 22 32  2  0  0  0
 26 27  1  0  0  0
 28101  1  0  0  0
 28102  1  0  0  0
 29103  1  0  0  0
 29104  1  0  0  0
 33 34  1  0  0  0
 33 66  1  0  0  0
 33 70  2  0  0  0
 34 36  1  0  0  0
 34 59  1  0  0  0
 34105  1  0  0  0
 35 44  2  0  0  0
 35 45  1  0  0  0
 35 68  1  0  0  0
 36 56  1  0  0  0
 36106  1  0  0  0
 37 39  1  0  0  0
 37 47  1  0  0  0
 37 66  1  0  0  0
 37107  1  0  0  0
 38 43  2  0  0  0
 38 46  1  0  0  0
 38 47  1  0  0  0
 39 64  1  0  0  0
 39 67  2  0  0  0
 40 52  1  0  0  0
 40 53  2  0  0  0
 40 58  1  0  0  0
 41108  1  0  0  0
 41109  1  0  0  0
 41110  1  0  0  0
 41 48  1  0  0  0
 42 43  1  0  0  0
 42 66  1  0  0  0
 42111  1  0  0  0
 42112  1  0  0  0
 43 44  1  0  0  0
 44113  1  0  0  0
 45 46  2  0  0  0
 45114  1  0  0  0
 46115  1  0  0  0
 47116  1  0  0  0
 47117  1  0  0  0
 48 56  1  0  0  0
 48 65  1  0  0  0
 48118  1  0  0  0
 49 50  1  0  0  0
 49 53  1  0  0  0
 49 64  1  0  0  0
 49119  1  0  0  0
 50 51  1  0  0  0
 50120  1  0  0  0
 50121  1  0  0  0
 51 52  1  0  0  0
 51122  1  0  0  0
 51123  1  0  0  0
 52124  1  0  0  0
 52125  1  0  0  0
 53 54  1  0  0  0
 54 55  2  0  0  0
 54126  1  0  0  0
 55 57  1  0  0  0
 55127  1  0  0  0
 56 69  2  0  0  0
 57 58  2  0  0  0
 57128  1  0  0  0
 58129  1  0  0  0
 59 60  1  0  0  0
 59 61  1  0  0  0
 59 62  1  0  0  0
 60130  1  0  0  0
 60131  1  0  0  0
 60132  1  0  0  0
 61133  1  0  0  0
 61134  1  0  0  0
 61135  1  0  0  0
 62136  1  0  0  0
 62137  1  0  0  0
 62138  1  0  0  0
 63 65  1  0  0  0
 63139  1  0  0  0
 63140  1  0  0  0
 63141  1  0  0  0
 64142  1  0  0  0
 65143  1  0  0  0
 68 78  1  0  0  0
 71 72  2  0  0  0
 71 73  1  0  0  0
 71144  1  0  0  0
 72 75  1  0  0  0
 72145  1  0  0  0
 73 76  2  0  0  0
 73146  1  0  0  0
 74 75  2  0  0  0
 74 76  1  0  0  0
 74147  1  0  0  0
 75 79  1  0  0  0
 76 81  1  0  0  0
 77 78  2  0  0  0
 77 80  1  0  0  0
 77148  1  0  0  0
 78149  1  0  0  0
 79 82  1  0  0  0
 79 83  2  0  0  0
 80 82  1  0  0  0
 80 84  2  0  0  0
 81150  1  0  0  0
 82151  1  0  0  0
M  ISO  4   1 100  68 101  78 101  81 100
M  END
> <chiral flag>
0

> <version>
0

> <s_m_source_file>
/data/baiqing/PycharmProjects/Reinvent-master-3.2/result/LINK_invent/BTK/process_docking_weight1_custom_product_contain_oxygen_bond_distance_aromatic_linkinvent_7_9_3/rearranged_h_0083.sdf

> <i_m_source_file_index>
82

> <r_mmod_Potential_Energy-OPLS-2005>
-161.249298095703

> <r_mmod_Stretch_Energy-OPLS-2005>
50.0151405334473

> <r_mmod_Bend_Energy-OPLS-2005>
105.001197814941

> <r_mmod_Torsional_Energy-OPLS-2005>
225.467010498047

> <r_mmod_Improper_Torsional_Energy-OPLS-2005>
4.86862850189209

> <r_mmod_Van_der_Waal_Energy-OPLS-2005>
171.109878540039

> <r_mmod_Electrostatic_Energy-OPLS-2005>
-482.067230224609

> <r_mmod_Solvation_Energy-OPLS-2005>
-260.986633300781

> <b_mmod_Minimization_Converged-OPLS-2005>
0

> <r_mmod_RMS_Derivative-OPLS-2005>
0.669173657894135

$$$$
82
                    3D
 Structure written by MMmdl.
157166  0  0  1  0            999 V2000
  -30.6369  -14.7317   20.4791 C   0  0  0  0  0  0
  -30.4292  -12.4437   19.4913 C   0  0  0  0  0  0
  -29.5132  -12.5119   18.2475 C   0  0  0  0  0  0
  -28.0389  -12.3276   18.6525 C   0  0  0  0  0  0
  -27.6457  -13.2249   19.8560 C   0  0  2  0  0  0
  -28.6832  -13.1313   20.9941 C   0  0  0  0  0  0
  -25.2523  -13.8188   20.5687 C   0  0  0  0  0  0
  -24.1798  -13.0453   20.9175 C   0  0  0  0  0  0
  -24.6371  -11.6919   20.8717 C   0  0  0  0  0  0
  -23.9048  -10.4304   21.0380 C   0  0  0  0  0  0
  -24.3602   -9.4230   21.9167 C   0  0  0  0  0  0
  -23.6288   -8.2262   22.0741 C   0  0  0  0  0  0
  -22.4268   -8.0288   21.3540 C   0  0  0  0  0  0
  -21.9898   -9.0250   20.4634 C   0  0  0  0  0  0
  -22.7215  -10.2138   20.3038 C   0  0  0  0  0  0
  -21.6861   -6.0740   22.5282 C   0  0  0  0  0  0
  -21.4012   -6.5637   23.8216 C   0  0  0  0  0  0
  -21.3653   -5.6787   24.9180 C   0  0  0  0  0  0
  -21.6045   -4.3051   24.7229 C   0  0  0  0  0  0
  -21.8819   -3.8144   23.4347 C   0  0  0  0  0  0
  -21.9195   -4.6966   22.3406 C   0  0  0  0  0  0
  -22.7831  -13.5241   21.1882 C   0  0  0  0  0  0
  -22.1665   -4.2145   21.0989 F   0  0  0  0  0  0
  -21.5622   -3.4535   25.7744 F   0  0  0  0  0  0
  -29.9955  -13.5025   20.4412 N   0  0  0  0  0  0
  -26.2943  -12.9378   20.3277 N   0  0  0  0  0  0
  -25.9300  -11.6526   20.5727 N   0  0  0  0  0  0
  -22.0498  -12.8203   22.0427 N   0  0  0  0  0  0
  -25.4270  -15.1914   20.4148 N   0  0  0  0  0  0
  -31.7916  -14.8203   20.0476 O   0  0  0  0  0  0
  -21.6644   -6.8881   21.4244 O   0  0  0  0  0  0
  -22.3514  -14.5573   20.6776 O   0  0  0  0  0  0
  -24.6330  -31.8584   23.2031 C   0  0  0  0  0  0
  -25.9176  -32.4746   23.8352 C   0  0  1  0  0  0
  -27.2061  -27.2637   20.1113 C   0  0  0  0  0  0
  -25.5985  -33.8548   24.2260 N   0  0  0  0  0  0
  -23.4273  -30.4881   21.5462 C   0  0  2  0  0  0
  -24.8733  -28.9519   20.1028 C   0  0  0  0  0  0
  -22.7526  -29.4612   22.4890 C   0  0  0  0  0  0
  -18.0293  -28.1379   22.8498 C   0  0  0  0  0  0
  -24.1496  -36.7266   23.2640 C   0  0  0  0  0  0
  -25.9776  -30.7694   21.3903 C   0  0  0  0  0  0
  -26.0470  -29.3967   20.7232 C   0  0  0  0  0  0
  -27.2163  -28.5636   20.7254 C   0  0  0  0  0  0
  -26.0066  -26.9069   19.4459 C   0  0  0  0  0  0
  -24.8586  -27.7142   19.4533 C   0  0  0  0  0  0
  -23.6460  -29.8410   20.1570 C   0  0  0  0  0  0
  -25.4118  -36.3047   24.0315 C   0  0  1  0  0  0
  -20.5902  -28.3679   23.1256 C   0  0  2  0  0  0
  -20.6785  -26.9382   22.5405 C   0  0  0  0  0  0
  -19.5755  -26.6379   21.5215 C   0  0  0  0  0  0
  -18.1934  -26.7918   22.1628 C   0  0  0  0  0  0
  -19.1552  -28.8850   23.2859 C   0  0  0  0  0  0
  -18.9469  -30.1455   23.8868 C   0  0  0  0  0  0
  -17.6469  -30.6578   24.0568 C   0  0  0  0  0  0
  -25.9077  -34.9431   23.5085 C   0  0  0  0  0  0
  -16.5363  -29.9074   23.6338 C   0  0  0  0  0  0
  -16.7279  -28.6494   23.0346 C   0  0  0  0  0  0
  -26.4530  -31.6578   25.0744 C   0  0  0  0  0  0
  -25.3734  -31.3731   26.1462 C   0  0  0  0  0  0
  -27.0406  -30.2991   24.6255 C   0  0  0  0  0  0
  -27.6069  -32.4347   25.7516 C   0  0  0  0  0  0
  -27.5576  -37.1768   24.8460 C   0  0  0  0  0  0
  -21.4237  -29.3041   22.3658 N   0  0  0  0  0  0
  -26.4283  -37.3756   23.9411 N   0  0  0  0  0  0
  -24.6971  -31.0569   22.0998 N   0  0  0  0  0  0
  -23.4232  -28.8130   23.2974 O   0  0  0  0  0  0
  -28.2706  -26.3244   20.1790 O   0  0  0  0  0  0
  -26.5642  -34.8930   22.4653 O   0  0  0  0  0  0
  -23.5484  -32.1407   23.7325 O   0  0  0  0  0  0
  -30.3536  -18.4739   17.9519 C   0  0  0  0  0  0
  -30.3126  -17.3317   18.7758 C   0  0  0  0  0  0
  -30.0563  -19.7530   18.4599 C   0  0  0  0  0  0
  -29.6884  -18.7580   20.6470 C   0  0  0  0  0  0
  -30.0778  -23.5153   20.7980 C   0  0  0  0  0  0
  -29.9813  -17.4079   20.1500 C   0  0  0  0  0  0
  -28.7978  -23.6130   20.1745 C   0  0  0  0  0  0
  -29.7194  -19.9538   19.8122 C   0  0  0  0  0  0
  -28.4898  -22.2831   19.8355 C   0  0  0  0  0  0
  -30.4839  -22.1998   20.7761 C   0  0  0  0  0  0
  -29.8898  -16.0754   20.9693 C   0  0  0  0  0  0
  -27.2721  -21.7751   19.1198 C   0  0  0  0  0  0
  -27.9039  -24.8943   19.8915 C   0  0  0  0  0  0
  -29.2415  -16.0953   22.0577 N   0  0  0  0  0  0
  -29.5280  -21.3751   20.1916 N   0  0  0  0  0  0
  -31.6775  -21.6850   21.1724 O   0  0  0  0  0  0
  -31.4727  -12.5467   19.1904 H   0  0  0  0  0  0
  -30.3610  -11.4612   19.9603 H   0  0  0  0  0  0
  -29.8006  -11.7491   17.5226 H   0  0  0  0  0  0
  -29.6399  -13.4742   17.7486 H   0  0  0  0  0  0
  -27.9001  -11.2768   18.9144 H   0  0  0  0  0  0
  -27.3820  -12.5156   17.8020 H   0  0  0  0  0  0
  -27.6517  -14.2515   19.4887 H   0  0  0  0  0  0
  -28.7151  -12.1198   21.4018 H   0  0  0  0  0  0
  -28.3860  -13.7633   21.8290 H   0  0  0  0  0  0
  -25.2745   -9.5729   22.4737 H   0  0  0  0  0  0
  -24.0007   -7.4660   22.7464 H   0  0  0  0  0  0
  -21.0828   -8.8755   19.8938 H   0  0  0  0  0  0
  -22.3655  -10.9670   19.6138 H   0  0  0  0  0  0
  -21.2004   -7.6145   23.9723 H   0  0  0  0  0  0
  -21.1469   -6.0517   25.9086 H   0  0  0  0  0  0
  -22.0601   -2.7600   23.2856 H   0  0  0  0  0  0
  -22.4104  -11.9817   22.4735 H   0  0  0  0  0  0
  -21.1143  -13.1235   22.2725 H   0  0  0  0  0  0
  -24.6699  -15.8548   20.5390 H   0  0  0  0  0  0
  -26.3034  -15.6318   20.1644 H   0  0  0  0  0  0
  -26.7250  -32.5411   23.1090 H   0  0  0  0  0  0
  -25.0106  -33.9638   25.0385 H   0  0  0  0  0  0
  -22.7211  -31.3088   21.4082 H   0  0  0  0  0  0
  -23.3771  -35.9585   23.3266 H   0  0  0  0  0  0
  -24.3588  -36.8939   22.2063 H   0  0  0  0  0  0
  -23.7257  -37.6446   23.6707 H   0  0  0  0  0  0
  -26.1336  -31.5370   20.6292 H   0  0  0  0  0  0
  -26.8468  -30.8034   22.0343 H   0  0  0  0  0  0
  -28.1092  -28.8933   21.2407 H   0  0  0  0  0  0
  -25.8998  -25.9758   18.9133 H   0  0  0  0  0  0
  -23.9642  -27.3698   18.9502 H   0  0  0  0  0  0
  -23.7696  -30.6278   19.4111 H   0  0  0  0  0  0
  -22.7623  -29.2797   19.8499 H   0  0  0  0  0  0
  -25.1287  -36.1875   25.0809 H   0  0  0  0  0  0
  -20.9978  -28.3305   24.1374 H   0  0  0  0  0  0
  -20.5706  -26.2284   23.3609 H   0  0  0  0  0  0
  -21.6649  -26.7412   22.1179 H   0  0  0  0  0  0
  -19.6912  -25.6293   21.1235 H   0  0  0  0  0  0
  -19.6720  -27.3218   20.6762 H   0  0  0  0  0  0
  -17.4200  -26.6688   21.4035 H   0  0  0  0  0  0
  -18.0274  -26.0051   22.8998 H   0  0  0  0  0  0
  -19.7956  -30.7265   24.2226 H   0  0  0  0  0  0
  -17.5031  -31.6245   24.5192 H   0  0  0  0  0  0
  -15.5356  -30.2959   23.7686 H   0  0  0  0  0  0
  -15.8675  -28.0827   22.7029 H   0  0  0  0  0  0
  -24.5948  -30.7031   25.7805 H   0  0  0  0  0  0
  -24.8862  -32.2891   26.4824 H   0  0  0  0  0  0
  -25.8044  -30.8989   27.0286 H   0  0  0  0  0  0
  -26.3014  -29.6691   24.1287 H   0  0  0  0  0  0
  -27.4102  -29.7299   25.4787 H   0  0  0  0  0  0
  -27.8886  -30.4244   23.9507 H   0  0  0  0  0  0
  -27.2687  -33.3714   26.1959 H   0  0  0  0  0  0
  -28.3941  -32.6803   25.0373 H   0  0  0  0  0  0
  -28.0658  -31.8561   26.5534 H   0  0  0  0  0  0
  -28.2543  -38.0106   24.7520 H   0  0  0  0  0  0
  -28.1114  -36.2626   24.6253 H   0  0  0  0  0  0
  -27.2275  -37.1359   25.8857 H   0  0  0  0  0  0
  -20.9394  -29.8816   21.6918 H   0  0  0  0  0  0
  -26.0156  -38.2819   24.1458 H   0  0  0  0  0  0
  -30.6219  -18.3689   16.9094 H   0  0  0  0  0  0
  -30.5359  -16.3794   18.3163 H   0  0  0  0  0  0
  -30.1154  -20.6055   17.7985 H   0  0  0  0  0  0
  -29.4393  -18.8861   21.6897 H   0  0  0  0  0  0
  -30.6566  -24.3451   21.1817 H   0  0  0  0  0  0
  -26.4458  -22.4864   19.1752 H   0  0  0  0  0  0
  -26.9177  -20.8331   19.5425 H   0  0  0  0  0  0
  -27.4877  -21.6037   18.0655 H   0  0  0  0  0  0
  -26.9708  -24.6777   20.4146 H   0  0  0  0  0  0
  -27.6957  -24.8308   18.8231 H   0  0  0  0  0  0
  -28.8499  -17.0110   22.2339 H   0  0  0  0  0  0
  -32.2655  -22.4161   21.3363 H   0  0  0  0  0  0
  1 25  1  0  0  0
  1 30  2  0  0  0
  1 81  1  0  0  0
  2  3  1  0  0  0
  2 25  1  0  0  0
  2 87  1  0  0  0
  2 88  1  0  0  0
  3  4  1  0  0  0
  3 89  1  0  0  0
  3 90  1  0  0  0
  4  5  1  0  0  0
  4 91  1  0  0  0
  4 92  1  0  0  0
  5  6  1  0  0  0
  5 26  1  0  0  0
  5 93  1  0  0  0
  6 25  1  0  0  0
  6 94  1  0  0  0
  6 95  1  0  0  0
  7  8  2  0  0  0
  7 26  1  0  0  0
  7 29  1  0  0  0
  8  9  1  0  0  0
  8 22  1  0  0  0
  9 10  1  0  0  0
  9 27  2  0  0  0
 10 11  2  0  0  0
 10 15  1  0  0  0
 11 12  1  0  0  0
 11 96  1  0  0  0
 12 13  2  0  0  0
 12 97  1  0  0  0
 13 14  1  0  0  0
 13 31  1  0  0  0
 14 15  2  0  0  0
 14 98  1  0  0  0
 15 99  1  0  0  0
 16 17  2  0  0  0
 16 21  1  0  0  0
 16 31  1  0  0  0
 17 18  1  0  0  0
 17100  1  0  0  0
 18 19  2  0  0  0
 18101  1  0  0  0
 19 20  1  0  0  0
 19 24  1  0  0  0
 20 21  2  0  0  0
 20102  1  0  0  0
 21 23  1  0  0  0
 22 28  1  0  0  0
 22 32  2  0  0  0
 26 27  1  0  0  0
 28103  1  0  0  0
 28104  1  0  0  0
 29105  1  0  0  0
 29106  1  0  0  0
 33 34  1  0  0  0
 33 66  1  0  0  0
 33 70  2  0  0  0
 34 36  1  0  0  0
 34 59  1  0  0  0
 34107  1  0  0  0
 35 44  2  0  0  0
 35 45  1  0  0  0
 35 68  1  0  0  0
 36 56  1  0  0  0
 36108  1  0  0  0
 37 39  1  0  0  0
 37 47  1  0  0  0
 37 66  1  0  0  0
 37109  1  0  0  0
 38 43  2  0  0  0
 38 46  1  0  0  0
 38 47  1  0  0  0
 39 64  1  0  0  0
 39 67  2  0  0  0
 40 52  1  0  0  0
 40 53  2  0  0  0
 40 58  1  0  0  0
 41110  1  0  0  0
 41111  1  0  0  0
 41112  1  0  0  0
 41 48  1  0  0  0
 42 43  1  0  0  0
 42 66  1  0  0  0
 42113  1  0  0  0
 42114  1  0  0  0
 43 44  1  0  0  0
 44115  1  0  0  0
 45 46  2  0  0  0
 45116  1  0  0  0
 46117  1  0  0  0
 47118  1  0  0  0
 47119  1  0  0  0
 48 56  1  0  0  0
 48 65  1  0  0  0
 48120  1  0  0  0
 49 50  1  0  0  0
 49 53  1  0  0  0
 49 64  1  0  0  0
 49121  1  0  0  0
 50 51  1  0  0  0
 50122  1  0  0  0
 50123  1  0  0  0
 51 52  1  0  0  0
 51124  1  0  0  0
 51125  1  0  0  0
 52126  1  0  0  0
 52127  1  0  0  0
 53 54  1  0  0  0
 54 55  2  0  0  0
 54128  1  0  0  0
 55 57  1  0  0  0
 55129  1  0  0  0
 56 69  2  0  0  0
 57 58  2  0  0  0
 57130  1  0  0  0
 58131  1  0  0  0
 59 60  1  0  0  0
 59 61  1  0  0  0
 59 62  1  0  0  0
 60132  1  0  0  0
 60133  1  0  0  0
 60134  1  0  0  0
 61135  1  0  0  0
 61136  1  0  0  0
 61137  1  0  0  0
 62138  1  0  0  0
 62139  1  0  0  0
 62140  1  0  0  0
 63 65  1  0  0  0
 63141  1  0  0  0
 63142  1  0  0  0
 63143  1  0  0  0
 64144  1  0  0  0
 65145  1  0  0  0
 68 83  1  0  0  0
 71 72  2  0  0  0
 71 73  1  0  0  0
 71146  1  0  0  0
 72 76  1  0  0  0
 72147  1  0  0  0
 73 78  2  0  0  0
 73148  1  0  0  0
 74 76  2  0  0  0
 74 78  1  0  0  0
 74149  1  0  0  0
 75 77  1  0  0  0
 75 80  2  0  0  0
 75150  1  0  0  0
 76 81  1  0  0  0
 77 79  2  0  0  0
 77 83  1  0  0  0
 78 85  1  0  0  0
 79 82  1  0  0  0
 79 85  1  0  0  0
 80 85  1  0  0  0
 80 86  1  0  0  0
 81 84  2  0  0  0
 82151  1  0  0  0
 82152  1  0  0  0
 82153  1  0  0  0
 83154  1  0  0  0
 83155  1  0  0  0
 84156  1  0  0  0
 86157  1  0  0  0
M  ISO  4   1 100  68 101  81 100  83 101
M  END
> <chiral flag>
0

> <version>
0

> <s_m_source_file>
/data/baiqing/PycharmProjects/Reinvent-master-3.2/result/LINK_invent/BTK/process_docking_weight1_custom_product_contain_oxygen_bond_distance_aromatic_linkinvent_7_9_3/rearranged_h_0083.sdf

> <i_m_source_file_index>
83

> <r_mmod_Potential_Energy-OPLS-2005>
320.998565673828

> <r_mmod_Stretch_Energy-OPLS-2005>
134.15559387207

> <r_mmod_Bend_Energy-OPLS-2005>
175.924407958984

> <r_mmod_Torsional_Energy-OPLS-2005>
222.899047851562

> <r_mmod_Improper_Torsional_Energy-OPLS-2005>
4.25931549072266

> <r_mmod_Van_der_Waal_Energy-OPLS-2005>
144.719451904297

> <r_mmod_Electrostatic_Energy-OPLS-2005>
-230.441360473633

> <r_mmod_Solvation_Energy-OPLS-2005>
-214.199584960938

> <b_mmod_Minimization_Converged-OPLS-2005>
0

> <r_mmod_RMS_Derivative-OPLS-2005>
3.14785003662109

$$$$
