0
                    3D
 Structure written by MMmdl.
156164  0  0  1  0            999 V2000
  -30.6998  -14.5595   20.5863 C   0  0  0  0  0  0
  -30.4341  -12.3652   19.4454 C   0  0  0  0  0  0
  -29.5030  -12.5178   18.2229 C   0  0  0  0  0  0
  -28.0296  -12.3458   18.6354 C   0  0  0  0  0  0
  -27.6596  -13.2077   19.8685 C   0  0  2  0  0  0
  -28.7049  -13.0411   21.0005 C   0  0  0  0  0  0
  -25.2448  -13.8066   20.5530 C   0  0  0  0  0  0
  -24.1792  -13.0359   20.9231 C   0  0  0  0  0  0
  -24.6398  -11.6860   20.8804 C   0  0  0  0  0  0
  -23.9066  -10.4250   21.0442 C   0  0  0  0  0  0
  -24.3606   -9.4172   21.9221 C   0  0  0  0  0  0
  -23.6273   -8.2213   22.0780 C   0  0  0  0  0  0
  -22.4257   -8.0259   21.3556 C   0  0  0  0  0  0
  -21.9898   -9.0240   20.4666 C   0  0  0  0  0  0
  -22.7235  -10.2114   20.3088 C   0  0  0  0  0  0
  -21.6837   -6.0728   22.5282 C   0  0  0  0  0  0
  -21.4002   -6.5642   23.8215 C   0  0  0  0  0  0
  -21.3662   -5.6791   24.9174 C   0  0  0  0  0  0
  -21.6052   -4.3053   24.7224 C   0  0  0  0  0  0
  -21.8814   -3.8142   23.4345 C   0  0  0  0  0  0
  -21.9183   -4.6956   22.3400 C   0  0  0  0  0  0
  -22.7816  -13.5180   21.1854 C   0  0  0  0  0  0
  -22.1656   -4.2161   21.0971 F   0  0  0  0  0  0
  -21.5640   -3.4529   25.7733 F   0  0  0  0  0  0
  -30.0419  -13.3625   20.4626 N   0  0  0  0  0  0
  -26.2988  -12.9318   20.3298 N   0  0  0  0  0  0
  -25.9341  -11.6486   20.5827 N   0  0  0  0  0  0
  -22.0410  -12.8246   22.0420 N   0  0  0  0  0  0
  -25.3782  -15.1735   20.3536 N   0  0  0  0  0  0
  -31.7691  -14.7817   20.0139 O   0  0  0  0  0  0
  -21.6619   -6.8862   21.4237 O   0  0  0  0  0  0
  -22.3544  -14.5475   20.6637 O   0  0  0  0  0  0
  -24.6206  -31.8625   23.2041 C   0  0  0  0  0  0
  -25.9077  -32.4798   23.8352 C   0  0  1  0  0  0
  -27.2493  -27.3951   20.1081 C   0  0  0  0  0  0
  -25.5911  -33.8600   24.2286 N   0  0  0  0  0  0
  -23.4107  -30.4838   21.5456 C   0  0  2  0  0  0
  -24.8599  -28.9370   20.1192 C   0  0  0  0  0  0
  -22.7450  -29.4640   22.4984 C   0  0  0  0  0  0
  -18.0272  -28.1398   22.8498 C   0  0  0  0  0  0
  -24.1489  -36.7311   23.2645 C   0  0  0  0  0  0
  -25.9420  -30.8186   21.3588 C   0  0  0  0  0  0
  -26.0223  -29.4462   20.7125 C   0  0  0  0  0  0
  -27.2202  -28.6869   20.6961 C   0  0  0  0  0  0
  -26.0661  -26.9045   19.5150 C   0  0  0  0  0  0
  -24.8786  -27.6663   19.5155 C   0  0  0  0  0  0
  -23.6214  -29.8086   20.1639 C   0  0  0  0  0  0
  -25.4113  -36.3100   24.0334 C   0  0  1  0  0  0
  -20.5872  -28.3686   23.1324 C   0  0  2  0  0  0
  -20.6774  -26.9417   22.5429 C   0  0  0  0  0  0
  -19.5746  -26.6392   21.5240 C   0  0  0  0  0  0
  -18.1919  -26.7941   22.1638 C   0  0  0  0  0  0
  -19.1526  -28.8857   23.2905 C   0  0  0  0  0  0
  -18.9452  -30.1466   23.8910 C   0  0  0  0  0  0
  -17.6453  -30.6594   24.0577 C   0  0  0  0  0  0
  -25.9042  -34.9468   23.5107 C   0  0  0  0  0  0
  -16.5342  -29.9095   23.6337 C   0  0  0  0  0  0
  -16.7263  -28.6520   23.0343 C   0  0  0  0  0  0
  -26.4477  -31.6596   25.0703 C   0  0  0  0  0  0
  -25.3736  -31.3716   26.1452 C   0  0  0  0  0  0
  -27.0301  -30.3032   24.6092 C   0  0  0  0  0  0
  -27.6039  -32.4327   25.7467 C   0  0  0  0  0  0
  -27.5571  -37.1816   24.8477 C   0  0  0  0  0  0
  -21.4169  -29.3043   22.3727 N   0  0  0  0  0  0
  -26.4295  -37.3784   23.9405 N   0  0  0  0  0  0
  -24.6764  -31.0712   22.0945 N   0  0  0  0  0  0
  -23.4207  -28.8191   23.3045 O   0  0  0  0  0  0
  -28.4158  -26.6447   20.0577 O   0  0  0  0  0  0
  -26.5613  -34.8934   22.4671 O   0  0  0  0  0  0
  -23.5388  -32.1390   23.7426 O   0  0  0  0  0  0
  -27.5478  -18.0198   20.4862 C   0  0  0  0  0  0
  -28.2541  -19.2303   20.4552 C   0  0  0  0  0  0
  -28.2199  -16.8250   20.7849 C   0  0  0  0  0  0
  -29.6446  -19.2708   20.7095 C   0  0  0  0  0  0
  -29.6098  -16.7817   20.9846 C   0  0  0  0  0  0
  -30.3310  -18.0225   20.9508 C   0  0  0  0  0  0
  -30.2598  -20.6339   20.8280 C   0  0  0  0  0  0
  -28.9115  -24.1414   19.9684 C   0  0  0  0  0  0
  -29.9699  -23.2038   20.6019 C   0  0  0  0  0  0
  -28.4338  -25.3797   20.7786 C   0  0  0  0  0  0
  -28.4318  -23.8712   18.8260 N   0  0  0  0  0  0
  -30.1243  -15.4892   21.3839 N   0  0  0  0  0  0
  -29.6597  -21.7586   20.3456 N   0  0  0  0  0  0
  -31.3969  -20.7972   21.5031 N   0  3  0  0  0  0
  -31.6576  -18.0226   21.2346 F   0  0  0  0  0  0
  -31.4761  -12.4721   19.1397 H   0  0  0  0  0  0
  -30.3521  -11.3598   19.8625 H   0  0  0  0  0  0
  -29.7630  -11.7860   17.4561 H   0  0  0  0  0  0
  -29.6455  -13.4998   17.7697 H   0  0  0  0  0  0
  -27.8655  -11.2906   18.8589 H   0  0  0  0  0  0
  -27.3735  -12.5835   17.7983 H   0  0  0  0  0  0
  -27.6850  -14.2395   19.5269 H   0  0  0  0  0  0
  -28.7025  -12.0138   21.3671 H   0  0  0  0  0  0
  -28.4401  -13.6569   21.8602 H   0  0  0  0  0  0
  -25.2733   -9.5642   22.4822 H   0  0  0  0  0  0
  -23.9981   -7.4602   22.7494 H   0  0  0  0  0  0
  -21.0841   -8.8757   19.8960 H   0  0  0  0  0  0
  -22.3694  -10.9667   19.6215 H   0  0  0  0  0  0
  -21.1991   -7.6142   23.9725 H   0  0  0  0  0  0
  -21.1496   -6.0517   25.9088 H   0  0  0  0  0  0
  -22.0591   -2.7607   23.2832 H   0  0  0  0  0  0
  -22.3978  -11.9918   22.4874 H   0  0  0  0  0  0
  -21.1030  -13.1344   22.2577 H   0  0  0  0  0  0
  -24.5227  -15.7192   20.3453 H   0  0  0  0  0  0
  -26.0608  -15.5177   19.6920 H   0  0  0  0  0  0
  -26.7154  -32.5499   23.1117 H   0  0  0  0  0  0
  -25.0067  -33.9735   25.0434 H   0  0  0  0  0  0
  -22.7021  -31.3019   21.4027 H   0  0  0  0  0  0
  -23.3731  -35.9667   23.3348 H   0  0  0  0  0  0
  -24.3570  -36.8889   22.2053 H   0  0  0  0  0  0
  -23.7269  -37.6540   23.6631 H   0  0  0  0  0  0
  -26.0557  -31.5788   20.5847 H   0  0  0  0  0  0
  -26.8301  -30.8772   21.9764 H   0  0  0  0  0  0
  -28.1213  -29.0836   21.1413 H   0  0  0  0  0  0
  -26.0634  -25.9322   19.0426 H   0  0  0  0  0  0
  -23.9869  -27.2696   19.0503 H   0  0  0  0  0  0
  -23.7305  -30.5800   19.4010 H   0  0  0  0  0  0
  -22.7440  -29.2303   19.8704 H   0  0  0  0  0  0
  -25.1293  -36.1954   25.0824 H   0  0  0  0  0  0
  -20.9956  -28.3254   24.1453 H   0  0  0  0  0  0
  -20.5721  -26.2285   23.3618 H   0  0  0  0  0  0
  -21.6634  -26.7475   22.1195 H   0  0  0  0  0  0
  -19.6908  -25.6312   21.1254 H   0  0  0  0  0  0
  -19.6686  -27.3223   20.6794 H   0  0  0  0  0  0
  -17.4193  -26.6711   21.4026 H   0  0  0  0  0  0
  -18.0295  -26.0082   22.9035 H   0  0  0  0  0  0
  -19.7928  -30.7292   24.2271 H   0  0  0  0  0  0
  -17.5001  -31.6278   24.5180 H   0  0  0  0  0  0
  -15.5344  -30.2999   23.7660 H   0  0  0  0  0  0
  -15.8665  -28.0859   22.7026 H   0  0  0  0  0  0
  -24.5900  -30.7067   25.7802 H   0  0  0  0  0  0
  -24.8936  -32.2877   26.4903 H   0  0  0  0  0  0
  -25.8086  -30.8883   27.0210 H   0  0  0  0  0  0
  -26.2834  -29.6800   24.1155 H   0  0  0  0  0  0
  -27.4080  -29.7269   25.4550 H   0  0  0  0  0  0
  -27.8670  -30.4354   23.9231 H   0  0  0  0  0  0
  -27.2639  -33.3627   26.2039 H   0  0  0  0  0  0
  -28.3838  -32.6895   25.0286 H   0  0  0  0  0  0
  -28.0712  -31.8459   26.5387 H   0  0  0  0  0  0
  -28.2626  -38.0075   24.7460 H   0  0  0  0  0  0
  -28.1012  -36.2597   24.6363 H   0  0  0  0  0  0
  -27.2278  -37.1564   25.8880 H   0  0  0  0  0  0
  -20.9345  -29.8746   21.6927 H   0  0  0  0  0  0
  -26.0183  -38.2867   24.1361 H   0  0  0  0  0  0
  -26.4769  -18.0128   20.3335 H   0  0  0  0  0  0
  -27.6905  -20.1370   20.2877 H   0  0  0  0  0  0
  -27.6477  -15.9250   20.9023 H   0  0  0  0  0  0
  -30.0284  -23.3866   21.6749 H   0  0  0  0  0  0
  -30.9457  -23.4533   20.1839 H   0  0  0  0  0  0
  -27.4517  -25.1519   21.1953 H   0  0  0  0  0  0
  -29.0924  -25.5104   21.6383 H   0  0  0  0  0  0
  -27.7624  -24.5781   18.5460 H   0  0  0  0  0  0
  -29.4768  -15.0155   21.9941 H   0  0  0  0  0  0
  -28.9131  -21.6507   19.6668 H   0  0  0  0  0  0
  -31.8526  -21.6878   21.6050 H   0  0  0  0  0  0
  -31.8809  -19.9654   21.8170 H   0  0  0  0  0  0
  1 25  1  0  0  0
  1 30  2  0  0  0
  1 82  1  0  0  0
  2  3  1  0  0  0
  2 25  1  0  0  0
  2 86  1  0  0  0
  2 87  1  0  0  0
  3  4  1  0  0  0
  3 88  1  0  0  0
  3 89  1  0  0  0
  4  5  1  0  0  0
  4 90  1  0  0  0
  4 91  1  0  0  0
  5  6  1  0  0  0
  5 26  1  0  0  0
  5 92  1  0  0  0
  6 25  1  0  0  0
  6 93  1  0  0  0
  6 94  1  0  0  0
  7  8  2  0  0  0
  7 26  1  0  0  0
  7 29  1  0  0  0
  8  9  1  0  0  0
  8 22  1  0  0  0
  9 10  1  0  0  0
  9 27  2  0  0  0
 10 11  2  0  0  0
 10 15  1  0  0  0
 11 12  1  0  0  0
 11 95  1  0  0  0
 12 13  2  0  0  0
 12 96  1  0  0  0
 13 14  1  0  0  0
 13 31  1  0  0  0
 14 15  2  0  0  0
 14 97  1  0  0  0
 15 98  1  0  0  0
 16 17  2  0  0  0
 16 21  1  0  0  0
 16 31  1  0  0  0
 17 18  1  0  0  0
 17 99  1  0  0  0
 18 19  2  0  0  0
 18100  1  0  0  0
 19 20  1  0  0  0
 19 24  1  0  0  0
 20 21  2  0  0  0
 20101  1  0  0  0
 21 23  1  0  0  0
 22 28  1  0  0  0
 22 32  2  0  0  0
 26 27  1  0  0  0
 28102  1  0  0  0
 28103  1  0  0  0
 29104  1  0  0  0
 29105  1  0  0  0
 33 34  1  0  0  0
 33 66  1  0  0  0
 33 70  2  0  0  0
 34 36  1  0  0  0
 34 59  1  0  0  0
 34106  1  0  0  0
 35 44  2  0  0  0
 35 45  1  0  0  0
 35 68  1  0  0  0
 36 56  1  0  0  0
 36107  1  0  0  0
 37 39  1  0  0  0
 37 47  1  0  0  0
 37 66  1  0  0  0
 37108  1  0  0  0
 38 43  2  0  0  0
 38 46  1  0  0  0
 38 47  1  0  0  0
 39 64  1  0  0  0
 39 67  2  0  0  0
 40 52  1  0  0  0
 40 53  2  0  0  0
 40 58  1  0  0  0
 41109  1  0  0  0
 41110  1  0  0  0
 41111  1  0  0  0
 41 48  1  0  0  0
 42 43  1  0  0  0
 42 66  1  0  0  0
 42112  1  0  0  0
 42113  1  0  0  0
 43 44  1  0  0  0
 44114  1  0  0  0
 45 46  2  0  0  0
 45115  1  0  0  0
 46116  1  0  0  0
 47117  1  0  0  0
 47118  1  0  0  0
 48 56  1  0  0  0
 48 65  1  0  0  0
 48119  1  0  0  0
 49 50  1  0  0  0
 49 53  1  0  0  0
 49 64  1  0  0  0
 49120  1  0  0  0
 50 51  1  0  0  0
 50121  1  0  0  0
 50122  1  0  0  0
 51 52  1  0  0  0
 51123  1  0  0  0
 51124  1  0  0  0
 52125  1  0  0  0
 52126  1  0  0  0
 53 54  1  0  0  0
 54 55  2  0  0  0
 54127  1  0  0  0
 55 57  1  0  0  0
 55128  1  0  0  0
 56 69  2  0  0  0
 57 58  2  0  0  0
 57129  1  0  0  0
 58130  1  0  0  0
 59 60  1  0  0  0
 59 61  1  0  0  0
 59 62  1  0  0  0
 60131  1  0  0  0
 60132  1  0  0  0
 60133  1  0  0  0
 61134  1  0  0  0
 61135  1  0  0  0
 61136  1  0  0  0
 62137  1  0  0  0
 62138  1  0  0  0
 62139  1  0  0  0
 63 65  1  0  0  0
 63140  1  0  0  0
 63141  1  0  0  0
 63142  1  0  0  0
 64143  1  0  0  0
 65144  1  0  0  0
 68 80  1  0  0  0
 71 72  2  0  0  0
 71 73  1  0  0  0
 71145  1  0  0  0
 72 74  1  0  0  0
 72146  1  0  0  0
 73 75  2  0  0  0
 73147  1  0  0  0
 74 76  2  0  0  0
 74 77  1  0  0  0
 75 76  1  0  0  0
 75 82  1  0  0  0
 76 85  1  0  0  0
 77 83  1  0  0  0
 77 84  2  0  0  0
 78 79  1  0  0  0
 78 80  1  0  0  0
 78 81  2  0  0  0
 79 83  1  0  0  0
 79148  1  0  0  0
 79149  1  0  0  0
 80150  1  0  0  0
 80151  1  0  0  0
 81152  1  0  0  0
 82153  1  0  0  0
 83154  1  0  0  0
 84155  1  0  0  0
 84156  1  0  0  0
M  CHG  1  84   1
M  ISO  4   1 100  68 101  80 101  82 100
M  END
> <chiral flag>
0

> <version>
0

> <s_m_source_file>
/data/baiqing/PycharmProjects/Reinvent-master-3.2/result/LINK_invent/BTK/process_docking_weight1_custom_product_contain_oxygen_bond_distance_aromatic_linkinvent_7_9_3/rearranged_h_0159.sdf

> <i_m_source_file_index>
1

> <r_mmod_Potential_Energy-OPLS-2005>
-257.844543457031

> <r_mmod_Stretch_Energy-OPLS-2005>
58.1474342346191

> <r_mmod_Bend_Energy-OPLS-2005>
115.731185913086

> <r_mmod_Torsional_Energy-OPLS-2005>
271.061950683594

> <r_mmod_Improper_Torsional_Energy-OPLS-2005>
11.7863750457764

> <r_mmod_Van_der_Waal_Energy-OPLS-2005>
147.169906616211

> <r_mmod_Electrostatic_Energy-OPLS-2005>
-457.20556640625

> <r_mmod_Solvation_Energy-OPLS-2005>
-427.195953369141

> <b_mmod_Minimization_Converged-OPLS-2005>
0

> <r_mmod_RMS_Derivative-OPLS-2005>
2.03592085838318

$$$$
1
                    3D
 Structure written by MMmdl.
152160  0  0  1  0            999 V2000
  -30.6051  -14.7142   20.4784 C   0  0  0  0  0  0
  -30.4350  -12.4353   19.4714 C   0  0  0  0  0  0
  -29.5100  -12.5143   18.2357 C   0  0  0  0  0  0
  -28.0342  -12.3444   18.6453 C   0  0  0  0  0  0
  -27.6472  -13.2274   19.8614 C   0  0  2  0  0  0
  -28.6912  -13.1256   20.9961 C   0  0  0  0  0  0
  -25.2525  -13.8194   20.5702 C   0  0  0  0  0  0
  -24.1809  -13.0442   20.9210 C   0  0  0  0  0  0
  -24.6398  -11.6918   20.8754 C   0  0  0  0  0  0
  -23.9073  -10.4295   21.0412 C   0  0  0  0  0  0
  -24.3622   -9.4208   21.9190 C   0  0  0  0  0  0
  -23.6294   -8.2246   22.0757 C   0  0  0  0  0  0
  -22.4276   -8.0286   21.3547 C   0  0  0  0  0  0
  -21.9916   -9.0257   20.4647 C   0  0  0  0  0  0
  -22.7246  -10.2137   20.3060 C   0  0  0  0  0  0
  -21.6853   -6.0740   22.5279 C   0  0  0  0  0  0
  -21.4016   -6.5643   23.8213 C   0  0  0  0  0  0
  -21.3658   -5.6793   24.9174 C   0  0  0  0  0  0
  -21.6045   -4.3056   24.7224 C   0  0  0  0  0  0
  -21.8817   -3.8152   23.4344 C   0  0  0  0  0  0
  -21.9192   -4.6969   22.3402 C   0  0  0  0  0  0
  -22.7830  -13.5226   21.1864 C   0  0  0  0  0  0
  -22.1658   -4.2157   21.0976 F   0  0  0  0  0  0
  -21.5630   -3.4537   25.7734 F   0  0  0  0  0  0
  -29.9990  -13.4794   20.4264 N   0  0  0  0  0  0
  -26.2956  -12.9393   20.3320 N   0  0  0  0  0  0
  -25.9328  -11.6540   20.5773 N   0  0  0  0  0  0
  -22.0473  -12.8214   22.0416 N   0  0  0  0  0  0
  -25.4216  -15.1919   20.4115 N   0  0  0  0  0  0
  -31.7631  -14.8431   20.0766 O   0  0  0  0  0  0
  -21.6641   -6.8883   21.4243 O   0  0  0  0  0  0
  -22.3514  -14.5531   20.6705 O   0  0  0  0  0  0
  -24.6305  -31.8548   23.1987 C   0  0  0  0  0  0
  -25.9141  -32.4748   23.8326 C   0  0  1  0  0  0
  -27.2300  -27.2805   20.1179 C   0  0  0  0  0  0
  -25.5952  -33.8555   24.2255 N   0  0  0  0  0  0
  -23.4251  -30.4768   21.5412 C   0  0  2  0  0  0
  -24.8723  -28.9217   20.1082 C   0  0  0  0  0  0
  -22.7487  -29.4603   22.4920 C   0  0  0  0  0  0
  -18.0286  -28.1389   22.8484 C   0  0  0  0  0  0
  -24.1487  -36.7272   23.2639 C   0  0  0  0  0  0
  -25.9678  -30.7728   21.3742 C   0  0  0  0  0  0
  -26.0402  -29.3960   20.7164 C   0  0  0  0  0  0
  -27.2166  -28.5851   20.7132 C   0  0  0  0  0  0
  -26.0349  -26.8606   19.4919 C   0  0  0  0  0  0
  -24.8738  -27.6613   19.4882 C   0  0  0  0  0  0
  -23.6418  -29.8073   20.1575 C   0  0  0  0  0  0
  -25.4118  -36.3065   24.0324 C   0  0  1  0  0  0
  -20.5886  -28.3697   23.1275 C   0  0  2  0  0  0
  -20.6774  -26.9415   22.5414 C   0  0  0  0  0  0
  -19.5750  -26.6384   21.5216 C   0  0  0  0  0  0
  -18.1927  -26.7931   22.1621 C   0  0  0  0  0  0
  -19.1538  -28.8863   23.2870 C   0  0  0  0  0  0
  -18.9464  -30.1465   23.8883 C   0  0  0  0  0  0
  -17.6463  -30.6589   24.0566 C   0  0  0  0  0  0
  -25.9060  -34.9439   23.5086 C   0  0  0  0  0  0
  -16.5353  -29.9088   23.6339 C   0  0  0  0  0  0
  -16.7272  -28.6509   23.0351 C   0  0  0  0  0  0
  -26.4516  -31.6575   25.0715 C   0  0  0  0  0  0
  -25.3748  -31.3718   26.1443 C   0  0  0  0  0  0
  -27.0375  -30.2999   24.6196 C   0  0  0  0  0  0
  -27.6068  -32.4320   25.7485 C   0  0  0  0  0  0
  -27.5570  -37.1793   24.8468 C   0  0  0  0  0  0
  -21.4196  -29.3039   22.3662 N   0  0  0  0  0  0
  -26.4286  -37.3770   23.9410 N   0  0  0  0  0  0
  -24.6933  -31.0528   22.0949 N   0  0  0  0  0  0
  -23.4192  -28.8158   23.3027 O   0  0  0  0  0  0
  -28.3578  -26.4387   20.2062 O   0  0  0  0  0  0
  -26.5621  -34.8920   22.4648 O   0  0  0  0  0  0
  -23.5462  -32.1364   23.7301 O   0  0  0  0  0  0
  -31.0193  -18.0883   20.6444 C   0  0  0  0  0  0
  -29.9333  -17.1997   20.6741 C   0  0  0  0  0  0
  -29.3841  -19.7574   20.4471 C   0  0  0  0  0  0
  -32.4218  -17.7517   20.9062 C   0  0  0  0  0  0
  -28.4309  -23.7692   20.3836 C   0  0  0  0  0  0
  -33.4484  -18.5550   20.1153 C   0  0  0  0  0  0
  -29.2448  -22.4673   19.9261 C   0  0  0  0  0  0
  -28.4822  -25.1143   19.5184 C   0  0  0  0  0  0
  -30.6862  -19.4680   20.4497 N   0  0  0  0  0  0
  -29.8072  -15.7989   20.8087 N   0  0  0  0  0  0
  -28.8113  -21.0779   20.3526 N   0  0  0  0  0  0
  -32.8264  -16.9394   21.7443 O   0  0  0  0  0  0
  -27.7392  -23.7143   21.4057 O   0  0  0  0  0  0
  -28.4617  -18.2240   20.5860 S   0  0  0  0  0  0
  -31.4765  -12.5591   19.1695 H   0  0  0  0  0  0
  -30.3767  -11.4496   19.9352 H   0  0  0  0  0  0
  -29.7864  -11.7509   17.5072 H   0  0  0  0  0  0
  -29.6425  -13.4760   17.7368 H   0  0  0  0  0  0
  -27.8797  -11.2928   18.8894 H   0  0  0  0  0  0
  -27.3791  -12.5587   17.8001 H   0  0  0  0  0  0
  -27.6507  -14.2565   19.5018 H   0  0  0  0  0  0
  -28.7173  -12.1154   21.4076 H   0  0  0  0  0  0
  -28.4271  -13.7799   21.8286 H   0  0  0  0  0  0
  -25.2766   -9.5682   22.4768 H   0  0  0  0  0  0
  -24.0004   -7.4638   22.7475 H   0  0  0  0  0  0
  -21.0851   -8.8775   19.8950 H   0  0  0  0  0  0
  -22.3707  -10.9676   19.6170 H   0  0  0  0  0  0
  -21.2006   -7.6151   23.9719 H   0  0  0  0  0  0
  -21.1482   -6.0524   25.9077 H   0  0  0  0  0  0
  -22.0598   -2.7616   23.2843 H   0  0  0  0  0  0
  -22.4082  -11.9869   22.4796 H   0  0  0  0  0  0
  -21.1094  -13.1243   22.2620 H   0  0  0  0  0  0
  -24.6510  -15.8425   20.5199 H   0  0  0  0  0  0
  -26.2615  -15.6319   20.0583 H   0  0  0  0  0  0
  -26.7205  -32.5397   23.1066 H   0  0  0  0  0  0
  -25.0143  -33.9695   25.0431 H   0  0  0  0  0  0
  -22.7211  -31.2987   21.3949 H   0  0  0  0  0  0
  -23.3757  -35.9594   23.3304 H   0  0  0  0  0  0
  -24.3572  -36.8896   22.2052 H   0  0  0  0  0  0
  -23.7236  -37.6471   23.6669 H   0  0  0  0  0  0
  -26.1050  -31.5344   20.6053 H   0  0  0  0  0  0
  -26.8463  -30.8218   22.0062 H   0  0  0  0  0  0
  -28.1116  -28.9442   21.2015 H   0  0  0  0  0  0
  -25.9575  -25.8891   19.0295 H   0  0  0  0  0  0
  -23.9750  -27.2887   19.0163 H   0  0  0  0  0  0
  -23.7648  -30.5826   19.4003 H   0  0  0  0  0  0
  -22.7601  -29.2400   19.8540 H   0  0  0  0  0  0
  -25.1302  -36.1903   25.0817 H   0  0  0  0  0  0
  -20.9974  -28.3278   24.1397 H   0  0  0  0  0  0
  -20.5681  -26.2304   23.3617 H   0  0  0  0  0  0
  -21.6644  -26.7444   22.1203 H   0  0  0  0  0  0
  -19.6914  -25.6295   21.1248 H   0  0  0  0  0  0
  -19.6693  -27.3194   20.6746 H   0  0  0  0  0  0
  -17.4198  -26.6688   21.4019 H   0  0  0  0  0  0
  -18.0320  -26.0067   22.9011 H   0  0  0  0  0  0
  -19.7938  -30.7292   24.2235 H   0  0  0  0  0  0
  -17.5016  -31.6267   24.5172 H   0  0  0  0  0  0
  -15.5355  -30.2987   23.7672 H   0  0  0  0  0  0
  -15.8669  -28.0837   22.7063 H   0  0  0  0  0  0
  -24.5945  -30.7037   25.7778 H   0  0  0  0  0  0
  -24.8921  -32.2883   26.4841 H   0  0  0  0  0  0
  -25.8086  -30.8927   27.0230 H   0  0  0  0  0  0
  -26.2962  -29.6726   24.1233 H   0  0  0  0  0  0
  -27.4080  -29.7282   25.4713 H   0  0  0  0  0  0
  -27.8823  -30.4282   23.9428 H   0  0  0  0  0  0
  -27.2686  -33.3640   26.2024 H   0  0  0  0  0  0
  -28.3900  -32.6840   25.0322 H   0  0  0  0  0  0
  -28.0711  -31.8466   26.5432 H   0  0  0  0  0  0
  -28.2590  -38.0084   24.7513 H   0  0  0  0  0  0
  -28.1065  -36.2619   24.6303 H   0  0  0  0  0  0
  -27.2288  -37.1448   25.8870 H   0  0  0  0  0  0
  -20.9384  -29.8751   21.6857 H   0  0  0  0  0  0
  -26.0159  -38.2838   24.1426 H   0  0  0  0  0  0
  -33.1945  -18.5465   19.0558 H   0  0  0  0  0  0
  -34.4445  -18.1304   20.2342 H   0  0  0  0  0  0
  -33.4669  -19.5878   20.4614 H   0  0  0  0  0  0
  -30.2741  -22.6080   20.2571 H   0  0  0  0  0  0
  -29.2847  -22.4819   18.8363 H   0  0  0  0  0  0
  -27.7758  -25.0249   18.6962 H   0  0  0  0  0  0
  -29.4599  -25.1198   19.0373 H   0  0  0  0  0  0
  -28.8793  -15.4989   21.0679 H   0  0  0  0  0  0
  -27.8034  -21.0515   20.4810 H   0  0  0  0  0  0
  1 25  1  0  0  0
  1 30  2  0  0  0
  1 80  1  0  0  0
  2  3  1  0  0  0
  2 25  1  0  0  0
  2 85  1  0  0  0
  2 86  1  0  0  0
  3  4  1  0  0  0
  3 87  1  0  0  0
  3 88  1  0  0  0
  4  5  1  0  0  0
  4 89  1  0  0  0
  4 90  1  0  0  0
  5  6  1  0  0  0
  5 26  1  0  0  0
  5 91  1  0  0  0
  6 25  1  0  0  0
  6 92  1  0  0  0
  6 93  1  0  0  0
  7  8  2  0  0  0
  7 26  1  0  0  0
  7 29  1  0  0  0
  8  9  1  0  0  0
  8 22  1  0  0  0
  9 10  1  0  0  0
  9 27  2  0  0  0
 10 11  2  0  0  0
 10 15  1  0  0  0
 11 12  1  0  0  0
 11 94  1  0  0  0
 12 13  2  0  0  0
 12 95  1  0  0  0
 13 14  1  0  0  0
 13 31  1  0  0  0
 14 15  2  0  0  0
 14 96  1  0  0  0
 15 97  1  0  0  0
 16 17  2  0  0  0
 16 21  1  0  0  0
 16 31  1  0  0  0
 17 18  1  0  0  0
 17 98  1  0  0  0
 18 19  2  0  0  0
 18 99  1  0  0  0
 19 20  1  0  0  0
 19 24  1  0  0  0
 20 21  2  0  0  0
 20100  1  0  0  0
 21 23  1  0  0  0
 22 28  1  0  0  0
 22 32  2  0  0  0
 26 27  1  0  0  0
 28101  1  0  0  0
 28102  1  0  0  0
 29103  1  0  0  0
 29104  1  0  0  0
 33 34  1  0  0  0
 33 66  1  0  0  0
 33 70  2  0  0  0
 34 36  1  0  0  0
 34 59  1  0  0  0
 34105  1  0  0  0
 35 44  2  0  0  0
 35 45  1  0  0  0
 35 68  1  0  0  0
 36 56  1  0  0  0
 36106  1  0  0  0
 37 39  1  0  0  0
 37 47  1  0  0  0
 37 66  1  0  0  0
 37107  1  0  0  0
 38 43  2  0  0  0
 38 46  1  0  0  0
 38 47  1  0  0  0
 39 64  1  0  0  0
 39 67  2  0  0  0
 40 52  1  0  0  0
 40 53  2  0  0  0
 40 58  1  0  0  0
 41108  1  0  0  0
 41109  1  0  0  0
 41110  1  0  0  0
 41 48  1  0  0  0
 42 43  1  0  0  0
 42 66  1  0  0  0
 42111  1  0  0  0
 42112  1  0  0  0
 43 44  1  0  0  0
 44113  1  0  0  0
 45 46  2  0  0  0
 45114  1  0  0  0
 46115  1  0  0  0
 47116  1  0  0  0
 47117  1  0  0  0
 48 56  1  0  0  0
 48 65  1  0  0  0
 48118  1  0  0  0
 49 50  1  0  0  0
 49 53  1  0  0  0
 49 64  1  0  0  0
 49119  1  0  0  0
 50 51  1  0  0  0
 50120  1  0  0  0
 50121  1  0  0  0
 51 52  1  0  0  0
 51122  1  0  0  0
 51123  1  0  0  0
 52124  1  0  0  0
 52125  1  0  0  0
 53 54  1  0  0  0
 54 55  2  0  0  0
 54126  1  0  0  0
 55 57  1  0  0  0
 55127  1  0  0  0
 56 69  2  0  0  0
 57 58  2  0  0  0
 57128  1  0  0  0
 58129  1  0  0  0
 59 60  1  0  0  0
 59 61  1  0  0  0
 59 62  1  0  0  0
 60130  1  0  0  0
 60131  1  0  0  0
 60132  1  0  0  0
 61133  1  0  0  0
 61134  1  0  0  0
 61135  1  0  0  0
 62136  1  0  0  0
 62137  1  0  0  0
 62138  1  0  0  0
 63 65  1  0  0  0
 63139  1  0  0  0
 63140  1  0  0  0
 63141  1  0  0  0
 64142  1  0  0  0
 65143  1  0  0  0
 68 78  1  0  0  0
 71 72  2  0  0  0
 71 74  1  0  0  0
 71 79  1  0  0  0
 72 80  1  0  0  0
 72 84  1  0  0  0
 73 79  2  0  0  0
 73 81  1  0  0  0
 73 84  1  0  0  0
 74 76  1  0  0  0
 74 82  2  0  0  0
 75 77  1  0  0  0
 75 78  1  0  0  0
 75 83  2  0  0  0
 76144  1  0  0  0
 76145  1  0  0  0
 76146  1  0  0  0
 77 81  1  0  0  0
 77147  1  0  0  0
 77148  1  0  0  0
 78149  1  0  0  0
 78150  1  0  0  0
 80151  1  0  0  0
 81152  1  0  0  0
M  ISO  4   1 100  68 101  78 101  80 100
M  END
> <chiral flag>
0

> <version>
0

> <s_m_source_file>
/data/baiqing/PycharmProjects/Reinvent-master-3.2/result/LINK_invent/BTK/process_docking_weight1_custom_product_contain_oxygen_bond_distance_aromatic_linkinvent_7_9_3/rearranged_h_0159.sdf

> <i_m_source_file_index>
2

> <r_mmod_Potential_Energy-OPLS-2005>
91.4974670410156

> <r_mmod_Stretch_Energy-OPLS-2005>
105.343032836914

> <r_mmod_Bend_Energy-OPLS-2005>
174.269607543945

> <r_mmod_Torsional_Energy-OPLS-2005>
217.455871582031

> <r_mmod_Improper_Torsional_Energy-OPLS-2005>
5.72830533981323

> <r_mmod_Van_der_Waal_Energy-OPLS-2005>
115.148529052734

> <r_mmod_Electrostatic_Energy-OPLS-2005>
-333.779327392578

> <r_mmod_Solvation_Energy-OPLS-2005>
-262.753326416016

> <b_mmod_Minimization_Converged-OPLS-2005>
0

> <r_mmod_RMS_Derivative-OPLS-2005>
0.86096054315567

$$$$
2
                    3D
 Structure written by MMmdl.
155163  0  0  1  0            999 V2000
  -30.7093  -14.5032   20.5456 C   0  0  0  0  0  0
  -30.4159  -12.3155   19.4372 C   0  0  0  0  0  0
  -29.4946  -12.4950   18.2133 C   0  0  0  0  0  0
  -28.0164  -12.3559   18.6248 C   0  0  0  0  0  0
  -27.6562  -13.2125   19.8685 C   0  0  2  0  0  0
  -28.6989  -13.0322   20.9961 C   0  0  0  0  0  0
  -25.2564  -13.8173   20.5682 C   0  0  0  0  0  0
  -24.1828  -13.0444   20.9194 C   0  0  0  0  0  0
  -24.6391  -11.6913   20.8745 C   0  0  0  0  0  0
  -23.9062  -10.4294   21.0410 C   0  0  0  0  0  0
  -24.3615   -9.4209   21.9185 C   0  0  0  0  0  0
  -23.6290   -8.2244   22.0753 C   0  0  0  0  0  0
  -22.4272   -8.0282   21.3544 C   0  0  0  0  0  0
  -21.9910   -9.0256   20.4647 C   0  0  0  0  0  0
  -22.7237  -10.2136   20.3058 C   0  0  0  0  0  0
  -21.6852   -6.0738   22.5279 C   0  0  0  0  0  0
  -21.4012   -6.5641   23.8213 C   0  0  0  0  0  0
  -21.3656   -5.6792   24.9173 C   0  0  0  0  0  0
  -21.6045   -4.3056   24.7224 C   0  0  0  0  0  0
  -21.8820   -3.8149   23.4345 C   0  0  0  0  0  0
  -21.9193   -4.6966   22.3402 C   0  0  0  0  0  0
  -22.7851  -13.5238   21.1852 C   0  0  0  0  0  0
  -22.1661   -4.2153   21.0979 F   0  0  0  0  0  0
  -21.5629   -3.4539   25.7736 F   0  0  0  0  0  0
  -30.0275  -13.3264   20.4366 N   0  0  0  0  0  0
  -26.2997  -12.9352   20.3341 N   0  0  0  0  0  0
  -25.9319  -11.6511   20.5772 N   0  0  0  0  0  0
  -22.0491  -12.8230   22.0407 N   0  0  0  0  0  0
  -25.4283  -15.1891   20.4066 N   0  0  0  0  0  0
  -31.8584  -14.6140   20.1061 O   0  0  0  0  0  0
  -21.6637   -6.8879   21.4240 O   0  0  0  0  0  0
  -22.3539  -14.5547   20.6701 O   0  0  0  0  0  0
  -24.6161  -31.8672   23.2095 C   0  0  0  0  0  0
  -25.9048  -32.4818   23.8398 C   0  0  1  0  0  0
  -27.2296  -27.4249   20.1033 C   0  0  0  0  0  0
  -25.5902  -33.8615   24.2329 N   0  0  0  0  0  0
  -23.4051  -30.4904   21.5495 C   0  0  2  0  0  0
  -24.8535  -28.9581   20.1110 C   0  0  0  0  0  0
  -22.7422  -29.4652   22.4978 C   0  0  0  0  0  0
  -18.0273  -28.1378   22.8495 C   0  0  0  0  0  0
  -24.1483  -36.7305   23.2640 C   0  0  0  0  0  0
  -25.9351  -30.8317   21.3637 C   0  0  0  0  0  0
  -26.0146  -29.4664   20.7086 C   0  0  0  0  0  0
  -27.2103  -28.7082   20.6996 C   0  0  0  0  0  0
  -26.0568  -26.9366   19.4913 C   0  0  0  0  0  0
  -24.8703  -27.6939   19.4965 C   0  0  0  0  0  0
  -23.6145  -29.8240   20.1632 C   0  0  0  0  0  0
  -25.4105  -36.3106   24.0341 C   0  0  1  0  0  0
  -20.5867  -28.3664   23.1311 C   0  0  2  0  0  0
  -20.6766  -26.9398   22.5418 C   0  0  0  0  0  0
  -19.5741  -26.6382   21.5217 C   0  0  0  0  0  0
  -18.1918  -26.7924   22.1625 C   0  0  0  0  0  0
  -19.1524  -28.8836   23.2901 C   0  0  0  0  0  0
  -18.9454  -30.1443   23.8912 C   0  0  0  0  0  0
  -17.6457  -30.6585   24.0565 C   0  0  0  0  0  0
  -25.9036  -34.9473   23.5131 C   0  0  0  0  0  0
  -16.5346  -29.9087   23.6331 C   0  0  0  0  0  0
  -16.7264  -28.6502   23.0355 C   0  0  0  0  0  0
  -26.4476  -31.6597   25.0724 C   0  0  0  0  0  0
  -25.3741  -31.3698   26.1470 C   0  0  0  0  0  0
  -27.0308  -30.3042   24.6097 C   0  0  0  0  0  0
  -27.6057  -32.4312   25.7484 C   0  0  0  0  0  0
  -27.5578  -37.1801   24.8466 C   0  0  0  0  0  0
  -21.4148  -29.3029   22.3716 N   0  0  0  0  0  0
  -26.4287  -37.3793   23.9416 N   0  0  0  0  0  0
  -24.6704  -31.0770   22.0995 N   0  0  0  0  0  0
  -23.4189  -28.8194   23.3025 O   0  0  0  0  0  0
  -28.3515  -26.6248   20.1367 O   0  0  0  0  0  0
  -26.5597  -34.8925   22.4692 O   0  0  0  0  0  0
  -23.5351  -32.1420   23.7487 O   0  0  0  0  0  0
  -29.3205  -17.9207   21.1394 C   0  0  0  0  0  0
  -29.6996  -19.2848   21.1373 C   0  0  0  0  0  0
  -30.3492  -16.9589   21.0108 C   0  0  0  0  0  0
  -31.8564  -18.7051   20.9267 C   0  0  0  0  0  0
  -28.7509  -20.3940   21.3581 C   0  0  0  0  0  0
  -28.7434  -24.1613   20.4672 C   0  0  0  0  0  0
  -28.1898  -22.8667   21.1027 C   0  0  0  0  0  0
  -28.1883  -25.4942   21.0245 C   0  0  0  0  0  0
  -30.9810  -19.6772   21.0294 N   0  0  0  0  0  0
  -31.6253  -17.4059   20.9224 N   0  0  0  0  0  0
  -33.1552  -19.0843   20.8424 N   0  0  0  0  0  0
  -29.9938  -15.5644   20.9978 N   0  0  0  0  0  0
  -28.9930  -21.6377   20.8771 N   0  0  0  0  0  0
  -27.6550  -20.1391   22.0827 N   0  3  0  0  0  0
  -29.5974  -24.1251   19.5725 O   0  0  0  0  0  0
  -31.4623  -12.3950   19.1370 H   0  0  0  0  0  0
  -30.3062  -11.3138   19.8560 H   0  0  0  0  0  0
  -29.7388  -11.7583   17.4467 H   0  0  0  0  0  0
  -29.6622  -13.4743   17.7617 H   0  0  0  0  0  0
  -27.8325  -11.3017   18.8362 H   0  0  0  0  0  0
  -27.3658  -12.6139   17.7884 H   0  0  0  0  0  0
  -27.6882  -14.2541   19.5481 H   0  0  0  0  0  0
  -28.6778  -12.0090   21.3736 H   0  0  0  0  0  0
  -28.4613  -13.6659   21.8520 H   0  0  0  0  0  0
  -25.2760   -9.5686   22.4758 H   0  0  0  0  0  0
  -24.0002   -7.4636   22.7473 H   0  0  0  0  0  0
  -21.0842   -8.8775   19.8952 H   0  0  0  0  0  0
  -22.3697  -10.9675   19.6167 H   0  0  0  0  0  0
  -21.2000   -7.6148   23.9717 H   0  0  0  0  0  0
  -21.1476   -6.0522   25.9076 H   0  0  0  0  0  0
  -22.0601   -2.7613   23.2844 H   0  0  0  0  0  0
  -22.4095  -11.9885   22.4794 H   0  0  0  0  0  0
  -21.1109  -13.1259   22.2611 H   0  0  0  0  0  0
  -24.6542  -15.8384   20.4965 H   0  0  0  0  0  0
  -26.2638  -15.6214   20.0339 H   0  0  0  0  0  0
  -26.7121  -32.5533   23.1165 H   0  0  0  0  0  0
  -25.0063  -33.9778   25.0481 H   0  0  0  0  0  0
  -22.6938  -31.3073   21.4103 H   0  0  0  0  0  0
  -23.3747  -35.9636   23.3309 H   0  0  0  0  0  0
  -24.3578  -36.8914   22.2054 H   0  0  0  0  0  0
  -23.7227  -37.6509   23.6650 H   0  0  0  0  0  0
  -26.0484  -31.5993   20.5969 H   0  0  0  0  0  0
  -26.8223  -30.8845   21.9831 H   0  0  0  0  0  0
  -28.1051  -29.0914   21.1697 H   0  0  0  0  0  0
  -26.0567  -25.9626   19.0222 H   0  0  0  0  0  0
  -23.9780  -27.2983   19.0312 H   0  0  0  0  0  0
  -23.7217  -30.6002   19.4044 H   0  0  0  0  0  0
  -22.7388  -29.2434   19.8670 H   0  0  0  0  0  0
  -25.1281  -36.1968   25.0832 H   0  0  0  0  0  0
  -20.9959  -28.3234   24.1432 H   0  0  0  0  0  0
  -20.5672  -26.2274   23.3609 H   0  0  0  0  0  0
  -21.6634  -26.7439   22.1201 H   0  0  0  0  0  0
  -19.6901  -25.6297   21.1235 H   0  0  0  0  0  0
  -19.6684  -27.3205   20.6758 H   0  0  0  0  0  0
  -17.4190  -26.6683   21.4022 H   0  0  0  0  0  0
  -18.0312  -26.0059   22.9012 H   0  0  0  0  0  0
  -19.7930  -30.7255   24.2288 H   0  0  0  0  0  0
  -17.5012  -31.6268   24.5160 H   0  0  0  0  0  0
  -15.5348  -30.2995   23.7650 H   0  0  0  0  0  0
  -15.8662  -28.0826   22.7070 H   0  0  0  0  0  0
  -24.5914  -30.7049   25.7799 H   0  0  0  0  0  0
  -24.8931  -32.2851   26.4930 H   0  0  0  0  0  0
  -25.8090  -30.8853   27.0220 H   0  0  0  0  0  0
  -26.2848  -29.6799   24.1164 H   0  0  0  0  0  0
  -27.4100  -29.7284   25.4550 H   0  0  0  0  0  0
  -27.8676  -30.4371   23.9234 H   0  0  0  0  0  0
  -27.2682  -33.3605   26.2087 H   0  0  0  0  0  0
  -28.3852  -32.6882   25.0298 H   0  0  0  0  0  0
  -28.0740  -31.8418   26.5377 H   0  0  0  0  0  0
  -28.2594  -38.0100   24.7520 H   0  0  0  0  0  0
  -28.1075  -36.2631   24.6281 H   0  0  0  0  0  0
  -27.2295  -37.1431   25.8868 H   0  0  0  0  0  0
  -20.9310  -29.8751   21.6938 H   0  0  0  0  0  0
  -26.0178  -38.2870   24.1431 H   0  0  0  0  0  0
  -28.2820  -17.6341   21.2226 H   0  0  0  0  0  0
  -27.1833  -22.7074   20.7166 H   0  0  0  0  0  0
  -28.0965  -23.0311   22.1762 H   0  0  0  0  0  0
  -28.7088  -25.7155   21.9561 H   0  0  0  0  0  0
  -27.1411  -25.3404   21.2892 H   0  0  0  0  0  0
  -33.3279  -20.0384   20.5572 H   0  0  0  0  0  0
  -33.7986  -18.3975   20.4731 H   0  0  0  0  0  0
  -29.0491  -15.3487   21.2681 H   0  0  0  0  0  0
  -29.8717  -21.7442   20.3859 H   0  0  0  0  0  0
  -27.5609  -19.2073   22.4558 H   0  0  0  0  0  0
  -26.9401  -20.8143   22.2825 H   0  0  0  0  0  0
  1 25  1  0  0  0
  1 30  2  0  0  0
  1 82  1  0  0  0
  2  3  1  0  0  0
  2 25  1  0  0  0
  2 86  1  0  0  0
  2 87  1  0  0  0
  3  4  1  0  0  0
  3 88  1  0  0  0
  3 89  1  0  0  0
  4  5  1  0  0  0
  4 90  1  0  0  0
  4 91  1  0  0  0
  5  6  1  0  0  0
  5 26  1  0  0  0
  5 92  1  0  0  0
  6 25  1  0  0  0
  6 93  1  0  0  0
  6 94  1  0  0  0
  7  8  2  0  0  0
  7 26  1  0  0  0
  7 29  1  0  0  0
  8  9  1  0  0  0
  8 22  1  0  0  0
  9 10  1  0  0  0
  9 27  2  0  0  0
 10 11  2  0  0  0
 10 15  1  0  0  0
 11 12  1  0  0  0
 11 95  1  0  0  0
 12 13  2  0  0  0
 12 96  1  0  0  0
 13 14  1  0  0  0
 13 31  1  0  0  0
 14 15  2  0  0  0
 14 97  1  0  0  0
 15 98  1  0  0  0
 16 17  2  0  0  0
 16 21  1  0  0  0
 16 31  1  0  0  0
 17 18  1  0  0  0
 17 99  1  0  0  0
 18 19  2  0  0  0
 18100  1  0  0  0
 19 20  1  0  0  0
 19 24  1  0  0  0
 20 21  2  0  0  0
 20101  1  0  0  0
 21 23  1  0  0  0
 22 28  1  0  0  0
 22 32  2  0  0  0
 26 27  1  0  0  0
 28102  1  0  0  0
 28103  1  0  0  0
 29104  1  0  0  0
 29105  1  0  0  0
 33 34  1  0  0  0
 33 66  1  0  0  0
 33 70  2  0  0  0
 34 36  1  0  0  0
 34 59  1  0  0  0
 34106  1  0  0  0
 35 44  2  0  0  0
 35 45  1  0  0  0
 35 68  1  0  0  0
 36 56  1  0  0  0
 36107  1  0  0  0
 37 39  1  0  0  0
 37 47  1  0  0  0
 37 66  1  0  0  0
 37108  1  0  0  0
 38 43  2  0  0  0
 38 46  1  0  0  0
 38 47  1  0  0  0
 39 64  1  0  0  0
 39 67  2  0  0  0
 40 52  1  0  0  0
 40 53  2  0  0  0
 40 58  1  0  0  0
 41109  1  0  0  0
 41110  1  0  0  0
 41111  1  0  0  0
 41 48  1  0  0  0
 42 43  1  0  0  0
 42 66  1  0  0  0
 42112  1  0  0  0
 42113  1  0  0  0
 43 44  1  0  0  0
 44114  1  0  0  0
 45 46  2  0  0  0
 45115  1  0  0  0
 46116  1  0  0  0
 47117  1  0  0  0
 47118  1  0  0  0
 48 56  1  0  0  0
 48 65  1  0  0  0
 48119  1  0  0  0
 49 50  1  0  0  0
 49 53  1  0  0  0
 49 64  1  0  0  0
 49120  1  0  0  0
 50 51  1  0  0  0
 50121  1  0  0  0
 50122  1  0  0  0
 51 52  1  0  0  0
 51123  1  0  0  0
 51124  1  0  0  0
 52125  1  0  0  0
 52126  1  0  0  0
 53 54  1  0  0  0
 54 55  2  0  0  0
 54127  1  0  0  0
 55 57  1  0  0  0
 55128  1  0  0  0
 56 69  2  0  0  0
 57 58  2  0  0  0
 57129  1  0  0  0
 58130  1  0  0  0
 59 60  1  0  0  0
 59 61  1  0  0  0
 59 62  1  0  0  0
 60131  1  0  0  0
 60132  1  0  0  0
 60133  1  0  0  0
 61134  1  0  0  0
 61135  1  0  0  0
 61136  1  0  0  0
 62137  1  0  0  0
 62138  1  0  0  0
 62139  1  0  0  0
 63 65  1  0  0  0
 63140  1  0  0  0
 63141  1  0  0  0
 63142  1  0  0  0
 64143  1  0  0  0
 65144  1  0  0  0
 68 78  1  0  0  0
 71 72  2  0  0  0
 71 73  1  0  0  0
 71145  1  0  0  0
 72 75  1  0  0  0
 72 79  1  0  0  0
 73 80  2  0  0  0
 73 82  1  0  0  0
 74 79  2  0  0  0
 74 80  1  0  0  0
 74 81  1  0  0  0
 75 83  1  0  0  0
 75 84  2  0  0  0
 76 77  1  0  0  0
 76 78  1  0  0  0
 76 85  2  0  0  0
 77 83  1  0  0  0
 77146  1  0  0  0
 77147  1  0  0  0
 78148  1  0  0  0
 78149  1  0  0  0
 81150  1  0  0  0
 81151  1  0  0  0
 82152  1  0  0  0
 83153  1  0  0  0
 84154  1  0  0  0
 84155  1  0  0  0
M  CHG  1  84   1
M  ISO  4   1 100  68 101  78 101  82 100
M  END
> <chiral flag>
0

> <version>
0

> <s_m_source_file>
/data/baiqing/PycharmProjects/Reinvent-master-3.2/result/LINK_invent/BTK/process_docking_weight1_custom_product_contain_oxygen_bond_distance_aromatic_linkinvent_7_9_3/rearranged_h_0159.sdf

> <i_m_source_file_index>
3

> <r_mmod_Potential_Energy-OPLS-2005>
-1015.88256835938

> <r_mmod_Stretch_Energy-OPLS-2005>
41.2015686035156

> <r_mmod_Bend_Energy-OPLS-2005>
105.168167114258

> <r_mmod_Torsional_Energy-OPLS-2005>
239.752914428711

> <r_mmod_Improper_Torsional_Energy-OPLS-2005>
7.80879592895508

> <r_mmod_Van_der_Waal_Energy-OPLS-2005>
164.583633422852

> <r_mmod_Electrostatic_Energy-OPLS-2005>
-1046.943359375

> <r_mmod_Solvation_Energy-OPLS-2005>
-545.977233886719

> <b_mmod_Minimization_Converged-OPLS-2005>
0

> <r_mmod_RMS_Derivative-OPLS-2005>
0.538332998752594

$$$$
3
                    3D
 Structure written by MMmdl.
158166  0  0  1  0            999 V2000
  -30.6858  -14.5631   20.5980 C   0  0  0  0  0  0
  -30.4256  -12.3727   19.4317 C   0  0  0  0  0  0
  -29.4964  -12.5496   18.2164 C   0  0  0  0  0  0
  -28.0208  -12.3919   18.6339 C   0  0  0  0  0  0
  -27.6632  -13.2192   19.8958 C   0  0  2  0  0  0
  -28.7170  -13.0194   21.0079 C   0  0  0  0  0  0
  -25.2558  -13.8153   20.5777 C   0  0  0  0  0  0
  -24.1833  -13.0402   20.9259 C   0  0  0  0  0  0
  -24.6424  -11.6883   20.8805 C   0  0  0  0  0  0
  -23.9079  -10.4259   21.0444 C   0  0  0  0  0  0
  -24.3612   -9.4175   21.9225 C   0  0  0  0  0  0
  -23.6266   -8.2215   22.0752 C   0  0  0  0  0  0
  -22.4249   -8.0273   21.3540 C   0  0  0  0  0  0
  -21.9945   -9.0275   20.4641 C   0  0  0  0  0  0
  -22.7281  -10.2137   20.3088 C   0  0  0  0  0  0
  -21.6827   -6.0726   22.5306 C   0  0  0  0  0  0
  -21.4001   -6.5635   23.8248 C   0  0  0  0  0  0
  -21.3673   -5.6800   24.9211 C   0  0  0  0  0  0
  -21.6031   -4.3054   24.7263 C   0  0  0  0  0  0
  -21.8795   -3.8150   23.4384 C   0  0  0  0  0  0
  -21.9172   -4.6955   22.3431 C   0  0  0  0  0  0
  -22.7835  -13.5178   21.1830 C   0  0  0  0  0  0
  -22.1627   -4.2133   21.1002 F   0  0  0  0  0  0
  -21.5654   -3.4547   25.7772 F   0  0  0  0  0  0
  -30.0264  -13.3731   20.4416 N   0  0  0  0  0  0
  -26.3033  -12.9380   20.3570 N   0  0  0  0  0  0
  -25.9388  -11.6495   20.5945 N   0  0  0  0  0  0
  -22.0405  -12.8238   22.0389 N   0  0  0  0  0  0
  -25.4115  -15.1874   20.4054 N   0  0  0  0  0  0
  -31.8429  -14.7136   20.1941 O   0  0  0  0  0  0
  -21.6618   -6.8871   21.4245 O   0  0  0  0  0  0
  -22.3574  -14.5491   20.6611 O   0  0  0  0  0  0
  -24.6243  -31.8632   23.2007 C   0  0  0  0  0  0
  -25.9106  -32.4776   23.8335 C   0  0  1  0  0  0
  -27.2786  -27.4212   20.1076 C   0  0  0  0  0  0
  -25.6000  -33.8563   24.2321 N   0  0  0  0  0  0
  -23.4160  -30.4878   21.5358 C   0  0  2  0  0  0
  -24.8768  -28.9293   20.1281 C   0  0  0  0  0  0
  -22.7421  -29.4746   22.4902 C   0  0  0  0  0  0
  -18.0363  -28.1510   22.8210 C   0  0  0  0  0  0
  -24.1506  -36.7297   23.2638 C   0  0  0  0  0  0
  -25.9453  -30.8170   21.3561 C   0  0  0  0  0  0
  -26.0328  -29.4414   20.7284 C   0  0  0  0  0  0
  -27.2366  -28.6937   20.7248 C   0  0  0  0  0  0
  -26.1048  -26.9202   19.5049 C   0  0  0  0  0  0
  -24.9109  -27.6620   19.5154 C   0  0  0  0  0  0
  -23.6321  -29.7919   20.1643 C   0  0  0  0  0  0
  -25.4110  -36.3075   24.0337 C   0  0  1  0  0  0
  -20.5896  -28.3824   23.1290 C   0  0  2  0  0  0
  -20.6837  -26.9510   22.5532 C   0  0  0  0  0  0
  -19.6094  -26.6643   21.5000 C   0  0  0  0  0  0
  -18.2102  -26.8260   22.0997 C   0  0  0  0  0  0
  -19.1550  -28.8937   23.2836 C   0  0  0  0  0  0
  -18.9375  -30.1404   23.9094 C   0  0  0  0  0  0
  -17.6338  -30.6467   24.0797 C   0  0  0  0  0  0
  -25.8984  -34.9437   23.5071 C   0  0  0  0  0  0
  -16.5315  -29.8997   23.6295 C   0  0  0  0  0  0
  -16.7355  -28.6582   23.0019 C   0  0  0  0  0  0
  -26.4533  -31.6535   25.0643 C   0  0  0  0  0  0
  -25.3782  -31.3565   26.1366 C   0  0  0  0  0  0
  -27.0376  -30.2998   24.5993 C   0  0  0  0  0  0
  -27.6105  -32.4276   25.7388 C   0  0  0  0  0  0
  -27.5592  -37.1805   24.8476 C   0  0  0  0  0  0
  -21.4175  -29.3055   22.3540 N   0  0  0  0  0  0
  -26.4320  -37.3786   23.9364 N   0  0  0  0  0  0
  -24.6794  -31.0672   22.0912 N   0  0  0  0  0  0
  -23.4072  -28.8378   23.3101 O   0  0  0  0  0  0
  -28.4466  -26.6849   20.0089 O   0  0  0  0  0  0
  -26.5580  -34.8944   22.4639 O   0  0  0  0  0  0
  -23.5434  -32.1411   23.7392 O   0  0  0  0  0  0
  -31.2334  -17.0373   22.5987 C   0  0  0  0  0  0
  -31.5517  -18.2918   23.1489 C   0  0  0  0  0  0
  -30.0845  -19.4402   21.5380 C   0  0  0  0  0  0
  -30.3734  -16.9382   21.4824 C   0  0  0  0  0  0
  -30.9817  -19.4707   22.6363 C   0  0  0  0  0  0
  -29.8128  -18.1454   20.9558 C   0  0  0  0  0  0
  -29.3666  -20.7548   21.1666 C   0  0  0  0  0  0
  -29.3238  -23.1747   21.5099 C   0  0  0  0  0  0
  -28.6633  -25.6578   20.9992 C   0  0  0  0  0  0
  -29.2995  -24.3245   20.4334 C   0  0  1  0  0  0
  -30.0128  -21.8968   21.1558 N   0  0  0  0  0  0
  -27.9960  -20.6429   21.0576 N   0  0  0  0  0  0
  -29.9452  -15.6241   21.0217 N   0  0  0  0  0  0
  -30.6489  -24.5640   19.8583 N   0  3  0  0  0  0
  -31.2543  -20.6257   23.2900 F   0  0  0  0  0  0
  -28.9697  -18.0464   19.8983 F   0  0  0  0  0  0
  -31.4697  -12.4722   19.1366 H   0  0  0  0  0  0
  -30.3307  -11.3591   19.8375 H   0  0  0  0  0  0
  -29.7433  -11.8344   17.4316 H   0  0  0  0  0  0
  -29.6510  -13.5403   17.7857 H   0  0  0  0  0  0
  -27.8363  -11.3330   18.8264 H   0  0  0  0  0  0
  -27.3577  -12.6634   17.8110 H   0  0  0  0  0  0
  -27.6949  -14.2710   19.6036 H   0  0  0  0  0  0
  -28.7300  -11.9764   21.3271 H   0  0  0  0  0  0
  -28.4948  -13.5937   21.9065 H   0  0  0  0  0  0
  -25.2725   -9.5638   22.4868 H   0  0  0  0  0  0
  -23.9944   -7.4586   22.7496 H   0  0  0  0  0  0
  -21.0862   -8.8801   19.8952 H   0  0  0  0  0  0
  -22.3724  -10.9687   19.6235 H   0  0  0  0  0  0
  -21.1972   -7.6138   23.9749 H   0  0  0  0  0  0
  -21.1531   -6.0528   25.9114 H   0  0  0  0  0  0
  -22.0545   -2.7601   23.2904 H   0  0  0  0  0  0
  -22.3972  -11.9944   22.4910 H   0  0  0  0  0  0
  -21.1013  -13.1317   22.2489 H   0  0  0  0  0  0
  -24.6188  -15.8138   20.4900 H   0  0  0  0  0  0
  -26.2441  -15.6465   20.0554 H   0  0  0  0  0  0
  -26.7202  -32.5506   23.1130 H   0  0  0  0  0  0
  -25.0276  -33.9681   25.0553 H   0  0  0  0  0  0
  -22.7162  -31.3083   21.3794 H   0  0  0  0  0  0
  -23.3765  -35.9644   23.3287 H   0  0  0  0  0  0
  -24.3603  -36.8901   22.2055 H   0  0  0  0  0  0
  -23.7262  -37.6510   23.6620 H   0  0  0  0  0  0
  -26.0503  -31.5571   20.5620 H   0  0  0  0  0  0
  -26.8357  -30.8904   21.9656 H   0  0  0  0  0  0
  -28.1320  -29.0963   21.1855 H   0  0  0  0  0  0
  -26.1286  -25.9491   19.0250 H   0  0  0  0  0  0
  -24.0295  -27.2471   19.0536 H   0  0  0  0  0  0
  -23.7311  -30.5483   19.3877 H   0  0  0  0  0  0
  -22.7575  -29.1976   19.8837 H   0  0  0  0  0  0
  -25.1302  -36.1959   25.0859 H   0  0  0  0  0  0
  -21.0079  -28.3627   24.1421 H   0  0  0  0  0  0
  -21.6819  -26.7538   22.1495 H   0  0  0  0  0  0
  -20.5552  -26.2443   23.3746 H   0  0  0  0  0  0
  -19.7267  -25.6706   21.0767 H   0  0  0  0  0  0
  -19.7384  -27.3674   20.6725 H   0  0  0  0  0  0
  -17.4728  -26.7589   21.3004 H   0  0  0  0  0  0
  -18.0003  -26.0160   22.7979 H   0  0  0  0  0  0
  -19.7746  -30.7216   24.2652 H   0  0  0  0  0  0
  -17.4768  -31.5897   24.5807 H   0  0  0  0  0  0
  -15.5248  -30.2783   23.7582 H   0  0  0  0  0  0
  -15.8846  -28.0991   22.6381 H   0  0  0  0  0  0
  -24.5989  -30.6957   25.7605 H   0  0  0  0  0  0
  -24.8962  -32.2670   26.4921 H   0  0  0  0  0  0
  -25.8129  -30.8606   27.0047 H   0  0  0  0  0  0
  -26.2890  -29.6697   24.1233 H   0  0  0  0  0  0
  -27.4377  -29.7339   25.4410 H   0  0  0  0  0  0
  -27.8611  -30.4347   23.8985 H   0  0  0  0  0  0
  -27.2759  -33.3595   26.1998 H   0  0  0  0  0  0
  -28.3884  -32.6846   25.0155 H   0  0  0  0  0  0
  -28.0853  -31.8381   26.5263 H   0  0  0  0  0  0
  -28.2659  -38.0085   24.7507 H   0  0  0  0  0  0
  -28.1064  -36.2587   24.6325 H   0  0  0  0  0  0
  -27.2275  -37.1492   25.8899 H   0  0  0  0  0  0
  -20.9387  -29.8324   21.6348 H   0  0  0  0  0  0
  -26.0201  -38.2895   24.1314 H   0  0  0  0  0  0
  -31.6330  -16.1540   23.0802 H   0  0  0  0  0  0
  -32.1996  -18.3682   24.0140 H   0  0  0  0  0  0
  -28.3152  -23.0143   21.8979 H   0  0  0  0  0  0
  -29.8530  -23.5747   22.3781 H   0  0  0  0  0  0
  -29.3025  -26.0838   21.7752 H   0  0  0  0  0  0
  -27.7241  -25.4235   21.4940 H   0  0  0  0  0  0
  -28.6708  -23.9780   19.6149 H   0  0  0  0  0  0
  -27.4841  -19.7769   21.1673 H   0  0  0  0  0  0
  -27.3655  -21.3808   20.7857 H   0  0  0  0  0  0
  -28.9526  -15.4655   21.0467 H   0  0  0  0  0  0
  -31.0005  -23.7098   19.4528 H   0  0  0  0  0  0
  -31.3253  -24.8561   20.5463 H   0  0  0  0  0  0
  -30.6266  -25.2743   19.1475 H   0  0  0  0  0  0
  1 25  1  0  0  0
  1 30  2  0  0  0
  1 83  1  0  0  0
  2  3  1  0  0  0
  2 25  1  0  0  0
  2 87  1  0  0  0
  2 88  1  0  0  0
  3  4  1  0  0  0
  3 89  1  0  0  0
  3 90  1  0  0  0
  4  5  1  0  0  0
  4 91  1  0  0  0
  4 92  1  0  0  0
  5  6  1  0  0  0
  5 26  1  0  0  0
  5 93  1  0  0  0
  6 25  1  0  0  0
  6 94  1  0  0  0
  6 95  1  0  0  0
  7  8  2  0  0  0
  7 26  1  0  0  0
  7 29  1  0  0  0
  8  9  1  0  0  0
  8 22  1  0  0  0
  9 10  1  0  0  0
  9 27  2  0  0  0
 10 11  2  0  0  0
 10 15  1  0  0  0
 11 12  1  0  0  0
 11 96  1  0  0  0
 12 13  2  0  0  0
 12 97  1  0  0  0
 13 14  1  0  0  0
 13 31  1  0  0  0
 14 15  2  0  0  0
 14 98  1  0  0  0
 15 99  1  0  0  0
 16 17  2  0  0  0
 16 21  1  0  0  0
 16 31  1  0  0  0
 17 18  1  0  0  0
 17100  1  0  0  0
 18 19  2  0  0  0
 18101  1  0  0  0
 19 20  1  0  0  0
 19 24  1  0  0  0
 20 21  2  0  0  0
 20102  1  0  0  0
 21 23  1  0  0  0
 22 28  1  0  0  0
 22 32  2  0  0  0
 26 27  1  0  0  0
 28103  1  0  0  0
 28104  1  0  0  0
 29105  1  0  0  0
 29106  1  0  0  0
 33 34  1  0  0  0
 33 66  1  0  0  0
 33 70  2  0  0  0
 34 36  1  0  0  0
 34 59  1  0  0  0
 34107  1  0  0  0
 35 44  2  0  0  0
 35 45  1  0  0  0
 35 68  1  0  0  0
 36 56  1  0  0  0
 36108  1  0  0  0
 37 39  1  0  0  0
 37 47  1  0  0  0
 37 66  1  0  0  0
 37109  1  0  0  0
 38 43  2  0  0  0
 38 46  1  0  0  0
 38 47  1  0  0  0
 39 64  1  0  0  0
 39 67  2  0  0  0
 40 52  1  0  0  0
 40 53  2  0  0  0
 40 58  1  0  0  0
 41110  1  0  0  0
 41111  1  0  0  0
 41112  1  0  0  0
 41 48  1  0  0  0
 42 43  1  0  0  0
 42 66  1  0  0  0
 42113  1  0  0  0
 42114  1  0  0  0
 43 44  1  0  0  0
 44115  1  0  0  0
 45 46  2  0  0  0
 45116  1  0  0  0
 46117  1  0  0  0
 47118  1  0  0  0
 47119  1  0  0  0
 48 56  1  0  0  0
 48 65  1  0  0  0
 48120  1  0  0  0
 49 50  1  0  0  0
 49 53  1  0  0  0
 49 64  1  0  0  0
 49121  1  0  0  0
 50 51  1  0  0  0
 50122  1  0  0  0
 50123  1  0  0  0
 51 52  1  0  0  0
 51124  1  0  0  0
 51125  1  0  0  0
 52126  1  0  0  0
 52127  1  0  0  0
 53 54  1  0  0  0
 54 55  2  0  0  0
 54128  1  0  0  0
 55 57  1  0  0  0
 55129  1  0  0  0
 56 69  2  0  0  0
 57 58  2  0  0  0
 57130  1  0  0  0
 58131  1  0  0  0
 59 60  1  0  0  0
 59 61  1  0  0  0
 59 62  1  0  0  0
 60132  1  0  0  0
 60133  1  0  0  0
 60134  1  0  0  0
 61135  1  0  0  0
 61136  1  0  0  0
 61137  1  0  0  0
 62138  1  0  0  0
 62139  1  0  0  0
 62140  1  0  0  0
 63 65  1  0  0  0
 63141  1  0  0  0
 63142  1  0  0  0
 63143  1  0  0  0
 64144  1  0  0  0
 65145  1  0  0  0
 68 79  1  0  0  0
 71 72  2  0  0  0
 71 74  1  0  0  0
 71146  1  0  0  0
 72 75  1  0  0  0
 72147  1  0  0  0
 73 75  2  0  0  0
 73 76  1  0  0  0
 73 77  1  0  0  0
 74 76  2  0  0  0
 74 83  1  0  0  0
 75 85  1  0  0  0
 76 86  1  0  0  0
 77 81  2  0  0  0
 77 82  1  0  0  0
 78 80  1  0  0  0
 78 81  1  0  0  0
 78148  1  0  0  0
 78149  1  0  0  0
 79 80  1  0  0  0
 79150  1  0  0  0
 79151  1  0  0  0
 80 84  1  0  0  0
 80152  1  0  0  0
 82153  1  0  0  0
 82154  1  0  0  0
 83155  1  0  0  0
 84156  1  0  0  0
 84157  1  0  0  0
 84158  1  0  0  0
M  CHG  1  84   1
M  ISO  4   1 100  68 101  79 101  83 100
M  END
> <chiral flag>
0

> <version>
0

> <s_m_source_file>
/data/baiqing/PycharmProjects/Reinvent-master-3.2/result/LINK_invent/BTK/process_docking_weight1_custom_product_contain_oxygen_bond_distance_aromatic_linkinvent_7_9_3/rearranged_h_0159.sdf

> <i_m_source_file_index>
4

> <r_mmod_Potential_Energy-OPLS-2005>
-209.489654541016

> <r_mmod_Stretch_Energy-OPLS-2005>
64.6972961425781

> <r_mmod_Bend_Energy-OPLS-2005>
123.642143249512

> <r_mmod_Torsional_Energy-OPLS-2005>
298.604614257812

> <r_mmod_Improper_Torsional_Energy-OPLS-2005>
8.70088291168213

> <r_mmod_Van_der_Waal_Energy-OPLS-2005>
147.771499633789

> <r_mmod_Electrostatic_Energy-OPLS-2005>
-415.313385009766

> <r_mmod_Solvation_Energy-OPLS-2005>
-461.349517822266

> <b_mmod_Minimization_Converged-OPLS-2005>
0

> <r_mmod_RMS_Derivative-OPLS-2005>
9.80118656158447

$$$$
4
                    3D
 Structure written by MMmdl.
152160  0  0  1  0            999 V2000
  -30.6737  -14.5437   20.5157 C   0  0  0  0  0  0
  -30.4266  -12.3339   19.4420 C   0  0  0  0  0  0
  -29.4998  -12.4943   18.2174 C   0  0  0  0  0  0
  -28.0216  -12.3504   18.6299 C   0  0  0  0  0  0
  -27.6583  -13.2123   19.8682 C   0  0  2  0  0  0
  -28.7013  -13.0377   20.9965 C   0  0  0  0  0  0
  -25.2583  -13.8172   20.5683 C   0  0  0  0  0  0
  -24.1839  -13.0443   20.9180 C   0  0  0  0  0  0
  -24.6402  -11.6911   20.8743 C   0  0  0  0  0  0
  -23.9071  -10.4292   21.0410 C   0  0  0  0  0  0
  -24.3623   -9.4203   21.9184 C   0  0  0  0  0  0
  -23.6296   -8.2240   22.0752 C   0  0  0  0  0  0
  -22.4275   -8.0284   21.3545 C   0  0  0  0  0  0
  -21.9914   -9.0258   20.4648 C   0  0  0  0  0  0
  -22.7247  -10.2135   20.3059 C   0  0  0  0  0  0
  -21.6851   -6.0737   22.5281 C   0  0  0  0  0  0
  -21.4008   -6.5641   23.8212 C   0  0  0  0  0  0
  -21.3654   -5.6794   24.9174 C   0  0  0  0  0  0
  -21.6044   -4.3059   24.7226 C   0  0  0  0  0  0
  -21.8820   -3.8150   23.4348 C   0  0  0  0  0  0
  -21.9190   -4.6964   22.3404 C   0  0  0  0  0  0
  -22.7861  -13.5234   21.1847 C   0  0  0  0  0  0
  -22.1662   -4.2153   21.0981 F   0  0  0  0  0  0
  -21.5628   -3.4546   25.7737 F   0  0  0  0  0  0
  -30.0272  -13.3444   20.4385 N   0  0  0  0  0  0
  -26.3014  -12.9348   20.3342 N   0  0  0  0  0  0
  -25.9329  -11.6505   20.5774 N   0  0  0  0  0  0
  -22.0508  -12.8219   22.0406 N   0  0  0  0  0  0
  -25.4326  -15.1886   20.4079 N   0  0  0  0  0  0
  -31.8289  -14.6830   20.1016 O   0  0  0  0  0  0
  -21.6638   -6.8881   21.4242 O   0  0  0  0  0  0
  -22.3544  -14.5538   20.6697 O   0  0  0  0  0  0
  -24.6182  -31.8655   23.2072 C   0  0  0  0  0  0
  -25.9058  -32.4817   23.8380 C   0  0  1  0  0  0
  -27.2322  -27.4030   20.1111 C   0  0  0  0  0  0
  -25.5900  -33.8613   24.2318 N   0  0  0  0  0  0
  -23.4085  -30.4871   21.5477 C   0  0  2  0  0  0
  -24.8582  -28.9499   20.1129 C   0  0  0  0  0  0
  -22.7434  -29.4643   22.4975 C   0  0  0  0  0  0
  -18.0267  -28.1379   22.8487 C   0  0  0  0  0  0
  -24.1483  -36.7309   23.2638 C   0  0  0  0  0  0
  -25.9393  -30.8249   21.3610 C   0  0  0  0  0  0
  -26.0202  -29.4553   20.7110 C   0  0  0  0  0  0
  -27.2146  -28.6911   20.7027 C   0  0  0  0  0  0
  -26.0566  -26.9209   19.5006 C   0  0  0  0  0  0
  -24.8734  -27.6844   19.5005 C   0  0  0  0  0  0
  -23.6201  -29.8190   20.1628 C   0  0  0  0  0  0
  -25.4105  -36.3109   24.0343 C   0  0  1  0  0  0
  -20.5863  -28.3675   23.1317 C   0  0  2  0  0  0
  -20.6761  -26.9408   22.5423 C   0  0  0  0  0  0
  -19.5743  -26.6389   21.5212 C   0  0  0  0  0  0
  -18.1917  -26.7924   22.1615 C   0  0  0  0  0  0
  -19.1520  -28.8839   23.2892 C   0  0  0  0  0  0
  -18.9451  -30.1438   23.8914 C   0  0  0  0  0  0
  -17.6458  -30.6585   24.0567 C   0  0  0  0  0  0
  -25.9038  -34.9474   23.5131 C   0  0  0  0  0  0
  -16.5345  -29.9094   23.6326 C   0  0  0  0  0  0
  -16.7259  -28.6505   23.0354 C   0  0  0  0  0  0
  -26.4479  -31.6594   25.0708 C   0  0  0  0  0  0
  -25.3742  -31.3708   26.1459 C   0  0  0  0  0  0
  -27.0312  -30.3041   24.6074 C   0  0  0  0  0  0
  -27.6073  -32.4303   25.7457 C   0  0  0  0  0  0
  -27.5578  -37.1802   24.8466 C   0  0  0  0  0  0
  -21.4157  -29.3038   22.3723 N   0  0  0  0  0  0
  -26.4291  -37.3797   23.9415 N   0  0  0  0  0  0
  -24.6740  -31.0735   22.0977 N   0  0  0  0  0  0
  -23.4189  -28.8186   23.3033 O   0  0  0  0  0  0
  -28.3579  -26.6005   20.1214 O   0  0  0  0  0  0
  -26.5606  -34.8929   22.4694 O   0  0  0  0  0  0
  -23.5365  -32.1416   23.7451 O   0  0  0  0  0  0
  -30.6565  -18.9049   19.7424 C   0  0  0  0  0  0
  -30.8770  -17.4949   19.6781 C   0  0  0  0  0  0
  -29.7435  -19.1403   20.7355 C   0  0  0  0  0  0
  -30.0855  -16.9384   20.6497 C   0  0  0  0  0  0
  -29.1644  -20.3422   21.3448 C   0  0  0  0  0  0
  -28.6594  -24.0872   20.3643 C   0  0  0  0  0  0
  -28.5723  -22.8307   21.2724 C   0  0  0  0  0  0
  -28.2472  -25.4479   21.0006 C   0  0  0  0  0  0
  -29.9296  -15.6012   20.9368 N   0  0  0  0  0  0
  -29.0876  -21.5446   20.7063 N   0  0  0  0  0  0
  -28.7224  -20.2302   22.6048 N   0  3  0  0  0  0
  -29.0370  -24.0003   19.1894 O   0  0  0  0  0  0
  -29.3719  -17.9249   21.2927 O   0  0  0  0  0  0
  -31.4708  -12.4327   19.1395 H   0  0  0  0  0  0
  -30.3346  -11.3331   19.8665 H   0  0  0  0  0  0
  -29.7481  -11.7514   17.4578 H   0  0  0  0  0  0
  -29.6606  -13.4698   17.7556 H   0  0  0  0  0  0
  -27.8428  -11.2973   18.8503 H   0  0  0  0  0  0
  -27.3695  -12.5989   17.7919 H   0  0  0  0  0  0
  -27.6883  -14.2523   19.5423 H   0  0  0  0  0  0
  -28.6895  -12.0136   21.3723 H   0  0  0  0  0  0
  -28.4609  -13.6686   21.8535 H   0  0  0  0  0  0
  -25.2770   -9.5668   22.4759 H   0  0  0  0  0  0
  -24.0001   -7.4626   22.7466 H   0  0  0  0  0  0
  -21.0844   -8.8781   19.8956 H   0  0  0  0  0  0
  -22.3711  -10.9674   19.6169 H   0  0  0  0  0  0
  -21.2002   -7.6151   23.9714 H   0  0  0  0  0  0
  -21.1473   -6.0527   25.9072 H   0  0  0  0  0  0
  -22.0605   -2.7615   23.2849 H   0  0  0  0  0  0
  -22.4124  -11.9876   22.4781 H   0  0  0  0  0  0
  -21.1130  -13.1241   22.2619 H   0  0  0  0  0  0
  -24.6700  -15.8484   20.5139 H   0  0  0  0  0  0
  -26.2849  -15.6219   20.0752 H   0  0  0  0  0  0
  -26.7130  -32.5534   23.1146 H   0  0  0  0  0  0
  -25.0057  -33.9768   25.0469 H   0  0  0  0  0  0
  -22.6985  -31.3041   21.4063 H   0  0  0  0  0  0
  -23.3744  -35.9643   23.3320 H   0  0  0  0  0  0
  -24.3570  -36.8912   22.2047 H   0  0  0  0  0  0
  -23.7234  -37.6517   23.6645 H   0  0  0  0  0  0
  -26.0452  -31.5877   20.5878 H   0  0  0  0  0  0
  -26.8291  -30.8883   21.9755 H   0  0  0  0  0  0
  -28.1110  -29.0757   21.1678 H   0  0  0  0  0  0
  -26.0558  -25.9479   19.0296 H   0  0  0  0  0  0
  -23.9824  -27.2918   19.0303 H   0  0  0  0  0  0
  -23.7282  -30.5943   19.4037 H   0  0  0  0  0  0
  -22.7440  -29.2398   19.8665 H   0  0  0  0  0  0
  -25.1276  -36.1981   25.0839 H   0  0  0  0  0  0
  -20.9942  -28.3243   24.1443 H   0  0  0  0  0  0
  -20.5668  -26.2282   23.3610 H   0  0  0  0  0  0
  -21.6633  -26.7453   22.1210 H   0  0  0  0  0  0
  -19.6919  -25.6308   21.1222 H   0  0  0  0  0  0
  -19.6686  -27.3214   20.6754 H   0  0  0  0  0  0
  -17.4192  -26.6676   21.4010 H   0  0  0  0  0  0
  -18.0309  -26.0055   22.9000 H   0  0  0  0  0  0
  -19.7935  -30.7235   24.2304 H   0  0  0  0  0  0
  -17.5021  -31.6270   24.5164 H   0  0  0  0  0  0
  -15.5351  -30.3009   23.7644 H   0  0  0  0  0  0
  -15.8651  -28.0832   22.7081 H   0  0  0  0  0  0
  -24.5925  -30.7042   25.7799 H   0  0  0  0  0  0
  -24.8912  -32.2861   26.4893 H   0  0  0  0  0  0
  -25.8085  -30.8890   27.0227 H   0  0  0  0  0  0
  -26.2847  -29.6791   24.1160 H   0  0  0  0  0  0
  -27.4135  -29.7292   25.4518 H   0  0  0  0  0  0
  -27.8655  -30.4371   23.9183 H   0  0  0  0  0  0
  -27.2722  -33.3612   26.2040 H   0  0  0  0  0  0
  -28.3868  -32.6844   25.0264 H   0  0  0  0  0  0
  -28.0746  -31.8414   26.5358 H   0  0  0  0  0  0
  -28.2610  -38.0084   24.7513 H   0  0  0  0  0  0
  -28.1057  -36.2622   24.6290 H   0  0  0  0  0  0
  -27.2294  -37.1461   25.8868 H   0  0  0  0  0  0
  -20.9328  -29.8760   21.6940 H   0  0  0  0  0  0
  -26.0186  -38.2878   24.1420 H   0  0  0  0  0  0
  -31.1267  -19.6676   19.1389 H   0  0  0  0  0  0
  -31.5369  -16.9720   18.9991 H   0  0  0  0  0  0
  -27.5287  -22.6949   21.5543 H   0  0  0  0  0  0
  -29.1184  -23.0518   22.1890 H   0  0  0  0  0  0
  -28.8928  -25.6229   21.8610 H   0  0  0  0  0  0
  -27.2337  -25.3497   21.3933 H   0  0  0  0  0  0
  -29.0696  -15.3557   21.4022 H   0  0  0  0  0  0
  -29.4158  -21.6020   19.7515 H   0  0  0  0  0  0
  -28.7979  -19.3270   23.0498 H   0  0  0  0  0  0
  -28.3238  -20.9857   23.1346 H   0  0  0  0  0  0
  1 25  1  0  0  0
  1 30  2  0  0  0
  1 79  1  0  0  0
  2  3  1  0  0  0
  2 25  1  0  0  0
  2 84  1  0  0  0
  2 85  1  0  0  0
  3  4  1  0  0  0
  3 86  1  0  0  0
  3 87  1  0  0  0
  4  5  1  0  0  0
  4 88  1  0  0  0
  4 89  1  0  0  0
  5  6  1  0  0  0
  5 26  1  0  0  0
  5 90  1  0  0  0
  6 25  1  0  0  0
  6 91  1  0  0  0
  6 92  1  0  0  0
  7  8  2  0  0  0
  7 26  1  0  0  0
  7 29  1  0  0  0
  8  9  1  0  0  0
  8 22  1  0  0  0
  9 10  1  0  0  0
  9 27  2  0  0  0
 10 11  2  0  0  0
 10 15  1  0  0  0
 11 12  1  0  0  0
 11 93  1  0  0  0
 12 13  2  0  0  0
 12 94  1  0  0  0
 13 14  1  0  0  0
 13 31  1  0  0  0
 14 15  2  0  0  0
 14 95  1  0  0  0
 15 96  1  0  0  0
 16 17  2  0  0  0
 16 21  1  0  0  0
 16 31  1  0  0  0
 17 18  1  0  0  0
 17 97  1  0  0  0
 18 19  2  0  0  0
 18 98  1  0  0  0
 19 20  1  0  0  0
 19 24  1  0  0  0
 20 21  2  0  0  0
 20 99  1  0  0  0
 21 23  1  0  0  0
 22 28  1  0  0  0
 22 32  2  0  0  0
 26 27  1  0  0  0
 28100  1  0  0  0
 28101  1  0  0  0
 29102  1  0  0  0
 29103  1  0  0  0
 33 34  1  0  0  0
 33 66  1  0  0  0
 33 70  2  0  0  0
 34 36  1  0  0  0
 34 59  1  0  0  0
 34104  1  0  0  0
 35 44  2  0  0  0
 35 45  1  0  0  0
 35 68  1  0  0  0
 36 56  1  0  0  0
 36105  1  0  0  0
 37 39  1  0  0  0
 37 47  1  0  0  0
 37 66  1  0  0  0
 37106  1  0  0  0
 38 43  2  0  0  0
 38 46  1  0  0  0
 38 47  1  0  0  0
 39 64  1  0  0  0
 39 67  2  0  0  0
 40 52  1  0  0  0
 40 53  2  0  0  0
 40 58  1  0  0  0
 41107  1  0  0  0
 41108  1  0  0  0
 41109  1  0  0  0
 41 48  1  0  0  0
 42 43  1  0  0  0
 42 66  1  0  0  0
 42110  1  0  0  0
 42111  1  0  0  0
 43 44  1  0  0  0
 44112  1  0  0  0
 45 46  2  0  0  0
 45113  1  0  0  0
 46114  1  0  0  0
 47115  1  0  0  0
 47116  1  0  0  0
 48 56  1  0  0  0
 48 65  1  0  0  0
 48117  1  0  0  0
 49 50  1  0  0  0
 49 53  1  0  0  0
 49 64  1  0  0  0
 49118  1  0  0  0
 50 51  1  0  0  0
 50119  1  0  0  0
 50120  1  0  0  0
 51 52  1  0  0  0
 51121  1  0  0  0
 51122  1  0  0  0
 52123  1  0  0  0
 52124  1  0  0  0
 53 54  1  0  0  0
 54 55  2  0  0  0
 54125  1  0  0  0
 55 57  1  0  0  0
 55126  1  0  0  0
 56 69  2  0  0  0
 57 58  2  0  0  0
 57127  1  0  0  0
 58128  1  0  0  0
 59 60  1  0  0  0
 59 61  1  0  0  0
 59 62  1  0  0  0
 60129  1  0  0  0
 60130  1  0  0  0
 60131  1  0  0  0
 61132  1  0  0  0
 61133  1  0  0  0
 61134  1  0  0  0
 62135  1  0  0  0
 62136  1  0  0  0
 62137  1  0  0  0
 63 65  1  0  0  0
 63138  1  0  0  0
 63139  1  0  0  0
 63140  1  0  0  0
 64141  1  0  0  0
 65142  1  0  0  0
 68 78  1  0  0  0
 71 72  1  0  0  0
 71 73  2  0  0  0
 71143  1  0  0  0
 72 74  2  0  0  0
 72144  1  0  0  0
 73 75  1  0  0  0
 73 83  1  0  0  0
 74 79  1  0  0  0
 74 83  1  0  0  0
 75 80  1  0  0  0
 75 81  2  0  0  0
 76 77  1  0  0  0
 76 78  1  0  0  0
 76 82  2  0  0  0
 77 80  1  0  0  0
 77145  1  0  0  0
 77146  1  0  0  0
 78147  1  0  0  0
 78148  1  0  0  0
 79149  1  0  0  0
 80150  1  0  0  0
 81151  1  0  0  0
 81152  1  0  0  0
M  CHG  1  81   1
M  ISO  4   1 100  68 101  78 101  79 100
M  END
> <chiral flag>
0

> <version>
0

> <s_m_source_file>
/data/baiqing/PycharmProjects/Reinvent-master-3.2/result/LINK_invent/BTK/process_docking_weight1_custom_product_contain_oxygen_bond_distance_aromatic_linkinvent_7_9_3/rearranged_h_0159.sdf

> <i_m_source_file_index>
5

> <r_mmod_Potential_Energy-OPLS-2005>
-308.711700439453

> <r_mmod_Stretch_Energy-OPLS-2005>
46.0594139099121

> <r_mmod_Bend_Energy-OPLS-2005>
107.644950866699

> <r_mmod_Torsional_Energy-OPLS-2005>
234.720596313477

> <r_mmod_Improper_Torsional_Energy-OPLS-2005>
3.82332563400269

> <r_mmod_Van_der_Waal_Energy-OPLS-2005>
129.52766418457

> <r_mmod_Electrostatic_Energy-OPLS-2005>
-362.808380126953

> <r_mmod_Solvation_Energy-OPLS-2005>
-490.285400390625

> <b_mmod_Minimization_Converged-OPLS-2005>
0

> <r_mmod_RMS_Derivative-OPLS-2005>
1.2277125120163

$$$$
5
                    3D
 Structure written by MMmdl.
159167  0  0  1  0            999 V2000
  -30.6014  -14.7482   20.4407 C   0  0  0  0  0  0
  -30.4313  -12.4511   19.4852 C   0  0  0  0  0  0
  -29.5148  -12.5107   18.2425 C   0  0  0  0  0  0
  -28.0387  -12.3368   18.6504 C   0  0  0  0  0  0
  -27.6432  -13.2332   19.8546 C   0  0  2  0  0  0
  -28.6846  -13.1636   20.9936 C   0  0  0  0  0  0
  -25.2512  -13.8207   20.5704 C   0  0  0  0  0  0
  -24.1801  -13.0444   20.9207 C   0  0  0  0  0  0
  -24.6393  -11.6924   20.8735 C   0  0  0  0  0  0
  -23.9070  -10.4295   21.0400 C   0  0  0  0  0  0
  -24.3621   -9.4213   21.9182 C   0  0  0  0  0  0
  -23.6296   -8.2249   22.0760 C   0  0  0  0  0  0
  -22.4279   -8.0282   21.3548 C   0  0  0  0  0  0
  -21.9909   -9.0257   20.4655 C   0  0  0  0  0  0
  -22.7238  -10.2136   20.3058 C   0  0  0  0  0  0
  -21.6857   -6.0733   22.5279 C   0  0  0  0  0  0
  -21.4014   -6.5637   23.8212 C   0  0  0  0  0  0
  -21.3658   -5.6790   24.9175 C   0  0  0  0  0  0
  -21.6046   -4.3054   24.7225 C   0  0  0  0  0  0
  -21.8817   -3.8145   23.4345 C   0  0  0  0  0  0
  -21.9193   -4.6960   22.3401 C   0  0  0  0  0  0
  -22.7822  -13.5230   21.1859 C   0  0  0  0  0  0
  -22.1663   -4.2146   21.0980 F   0  0  0  0  0  0
  -21.5627   -3.4539   25.7738 F   0  0  0  0  0  0
  -29.9888  -13.5141   20.4191 N   0  0  0  0  0  0
  -26.2939  -12.9415   20.3290 N   0  0  0  0  0  0
  -25.9326  -11.6554   20.5748 N   0  0  0  0  0  0
  -22.0462  -12.8225   22.0414 N   0  0  0  0  0  0
  -25.4196  -15.1932   20.4134 N   0  0  0  0  0  0
  -31.7859  -14.8387   20.1012 O   0  0  0  0  0  0
  -21.6645   -6.8877   21.4243 O   0  0  0  0  0  0
  -22.3507  -14.5531   20.6697 O   0  0  0  0  0  0
  -24.6320  -31.8544   23.1971 C   0  0  0  0  0  0
  -25.9144  -32.4751   23.8318 C   0  0  1  0  0  0
  -27.2180  -27.2506   20.1197 C   0  0  0  0  0  0
  -25.5934  -33.8553   24.2245 N   0  0  0  0  0  0
  -23.4279  -30.4772   21.5417 C   0  0  2  0  0  0
  -24.8717  -28.9206   20.1095 C   0  0  0  0  0  0
  -22.7501  -29.4600   22.4915 C   0  0  0  0  0  0
  -18.0295  -28.1380   22.8493 C   0  0  0  0  0  0
  -24.1487  -36.7281   23.2640 C   0  0  0  0  0  0
  -25.9749  -30.7625   21.3782 C   0  0  0  0  0  0
  -26.0438  -29.3849   20.7177 C   0  0  0  0  0  0
  -27.2153  -28.5612   20.7125 C   0  0  0  0  0  0
  -26.0155  -26.8520   19.4929 C   0  0  0  0  0  0
  -24.8630  -27.6629   19.4883 C   0  0  0  0  0  0
  -23.6443  -29.8101   20.1579 C   0  0  0  0  0  0
  -25.4116  -36.3069   24.0325 C   0  0  1  0  0  0
  -20.5900  -28.3692   23.1271 C   0  0  2  0  0  0
  -20.6780  -26.9409   22.5406 C   0  0  0  0  0  0
  -19.5750  -26.6377   21.5215 C   0  0  0  0  0  0
  -18.1934  -26.7924   22.1630 C   0  0  0  0  0  0
  -19.1549  -28.8856   23.2877 C   0  0  0  0  0  0
  -18.9469  -30.1460   23.8891 C   0  0  0  0  0  0
  -17.6466  -30.6584   24.0562 C   0  0  0  0  0  0
  -25.9058  -34.9440   23.5090 C   0  0  0  0  0  0
  -16.5358  -29.9077   23.6334 C   0  0  0  0  0  0
  -16.7282  -28.6493   23.0361 C   0  0  0  0  0  0
  -26.4496  -31.6590   25.0727 C   0  0  0  0  0  0
  -25.3706  -31.3765   26.1445 C   0  0  0  0  0  0
  -27.0349  -30.3000   24.6242 C   0  0  0  0  0  0
  -27.6036  -32.4342   25.7508 C   0  0  0  0  0  0
  -27.5577  -37.1799   24.8466 C   0  0  0  0  0  0
  -21.4210  -29.3039   22.3662 N   0  0  0  0  0  0
  -26.4289  -37.3768   23.9409 N   0  0  0  0  0  0
  -24.6977  -31.0500   22.0950 N   0  0  0  0  0  0
  -23.4202  -28.8144   23.3016 O   0  0  0  0  0  0
  -28.3402  -26.3889   20.1937 O   0  0  0  0  0  0
  -26.5631  -34.8917   22.4661 O   0  0  0  0  0  0
  -23.5471  -32.1370   23.7267 O   0  0  0  0  0  0
  -30.1521  -19.8115   18.7514 C   0  0  0  0  0  0
  -30.5719  -17.3870   18.8308 C   0  0  0  0  0  0
  -29.4228  -18.4982   20.6602 C   0  0  0  0  0  0
  -30.6649  -18.6300   18.1708 C   0  0  0  0  0  0
  -29.5104  -19.8110   20.0149 C   0  0  0  0  0  0
  -29.9572  -17.2584   20.0955 C   0  0  0  0  0  0
  -28.9359  -22.2482   20.0094 C   0  0  0  0  0  0
  -31.3013  -18.6899   16.8570 C   0  0  0  0  0  0
  -29.6801  -24.0230   21.7019 C   0  0  0  0  0  0
  -28.3922  -24.9669   19.6821 C   0  0  0  0  0  0
  -28.5990  -23.6853   20.6619 C   0  0  1  0  0  0
  -29.0425  -21.0693   20.6089 N   0  0  0  0  0  0
  -32.4536  -18.0637   16.6334 N   0  0  0  0  0  0
  -29.8361  -15.8875   20.6781 N   0  0  0  0  0  0
  -30.7320  -19.3671   15.8630 N   0  3  0  0  0  0
  -31.4748  -12.5674   19.1869 H   0  0  0  0  0  0
  -30.3675  -11.4735   19.9650 H   0  0  0  0  0  0
  -29.7991  -11.7379   17.5268 H   0  0  0  0  0  0
  -29.6473  -13.4659   17.7312 H   0  0  0  0  0  0
  -27.8908  -11.2877   18.9080 H   0  0  0  0  0  0
  -27.3854  -12.5353   17.8000 H   0  0  0  0  0  0
  -27.6395  -14.2567   19.4788 H   0  0  0  0  0  0
  -28.7167  -12.1647   21.4313 H   0  0  0  0  0  0
  -28.4179  -13.8436   21.8039 H   0  0  0  0  0  0
  -25.2766   -9.5688   22.4759 H   0  0  0  0  0  0
  -24.0003   -7.4638   22.7482 H   0  0  0  0  0  0
  -21.0840   -8.8777   19.8963 H   0  0  0  0  0  0
  -22.3697  -10.9675   19.6166 H   0  0  0  0  0  0
  -21.2011   -7.6147   23.9712 H   0  0  0  0  0  0
  -21.1483   -6.0525   25.9078 H   0  0  0  0  0  0
  -22.0598   -2.7607   23.2850 H   0  0  0  0  0  0
  -22.4082  -11.9900   22.4817 H   0  0  0  0  0  0
  -21.1078  -13.1257   22.2611 H   0  0  0  0  0  0
  -24.6482  -15.8429   20.5228 H   0  0  0  0  0  0
  -26.2628  -15.6347   20.0690 H   0  0  0  0  0  0
  -26.7215  -32.5390   23.1061 H   0  0  0  0  0  0
  -25.0083  -33.9683   25.0392 H   0  0  0  0  0  0
  -22.7247  -31.2998   21.3959 H   0  0  0  0  0  0
  -23.3750  -35.9612   23.3302 H   0  0  0  0  0  0
  -24.3575  -36.8902   22.2054 H   0  0  0  0  0  0
  -23.7235  -37.6478   23.6667 H   0  0  0  0  0  0
  -26.1180  -31.5231   20.6091 H   0  0  0  0  0  0
  -26.8511  -30.8079   22.0138 H   0  0  0  0  0  0
  -28.1133  -28.9130   21.2013 H   0  0  0  0  0  0
  -25.9115  -25.8915   19.0170 H   0  0  0  0  0  0
  -23.9624  -27.2996   19.0117 H   0  0  0  0  0  0
  -23.7683  -30.5854   19.4013 H   0  0  0  0  0  0
  -22.7618  -29.2435   19.8548 H   0  0  0  0  0  0
  -25.1298  -36.1911   25.0815 H   0  0  0  0  0  0
  -20.9998  -28.3267   24.1390 H   0  0  0  0  0  0
  -20.5681  -26.2300   23.3611 H   0  0  0  0  0  0
  -21.6648  -26.7427   22.1199 H   0  0  0  0  0  0
  -19.6904  -25.6285   21.1248 H   0  0  0  0  0  0
  -19.6685  -27.3188   20.6746 H   0  0  0  0  0  0
  -17.4202  -26.6685   21.4031 H   0  0  0  0  0  0
  -18.0328  -26.0062   22.9022 H   0  0  0  0  0  0
  -19.7944  -30.7284   24.2248 H   0  0  0  0  0  0
  -17.5018  -31.6265   24.5160 H   0  0  0  0  0  0
  -15.5356  -30.2973   23.7659 H   0  0  0  0  0  0
  -15.8685  -28.0803   22.7080 H   0  0  0  0  0  0
  -24.5879  -30.7112   25.7785 H   0  0  0  0  0  0
  -24.8902  -32.2948   26.4834 H   0  0  0  0  0  0
  -25.8011  -30.8972   27.0248 H   0  0  0  0  0  0
  -26.2954  -29.6745   24.1233 H   0  0  0  0  0  0
  -27.3978  -29.7268   25.4784 H   0  0  0  0  0  0
  -27.8851  -30.4260   23.9534 H   0  0  0  0  0  0
  -27.2629  -33.3647   26.2062 H   0  0  0  0  0  0
  -28.3864  -32.6897   25.0354 H   0  0  0  0  0  0
  -28.0689  -31.8488   26.5448 H   0  0  0  0  0  0
  -28.2597  -38.0094   24.7509 H   0  0  0  0  0  0
  -28.1069  -36.2623   24.6300 H   0  0  0  0  0  0
  -27.2298  -37.1460   25.8871 H   0  0  0  0  0  0
  -20.9394  -29.8759   21.6867 H   0  0  0  0  0  0
  -26.0166  -38.2843   24.1399 H   0  0  0  0  0  0
  -30.2922  -20.7306   18.2023 H   0  0  0  0  0  0
  -30.9558  -16.5134   18.3239 H   0  0  0  0  0  0
  -28.9391  -18.4473   21.6242 H   0  0  0  0  0  0
  -29.1073  -22.3423   18.9348 H   0  0  0  0  0  0
  -30.6524  -24.1588   21.2274 H   0  0  0  0  0  0
  -29.7786  -23.2329   22.4466 H   0  0  0  0  0  0
  -29.4399  -24.9436   22.2337 H   0  0  0  0  0  0
  -27.5739  -24.7399   19.0055 H   0  0  0  0  0  0
  -29.2572  -24.9738   19.0182 H   0  0  0  0  0  0
  -27.6637  -23.5579   21.2073 H   0  0  0  0  0  0
  -32.9251  -18.0851   15.7429 H   0  0  0  0  0  0
  -32.9100  -17.5894   17.3997 H   0  0  0  0  0  0
  -28.9724  -15.7094   21.1682 H   0  0  0  0  0  0
  -29.8282  -19.7897   16.0137 H   0  0  0  0  0  0
  -31.1322  -19.4178   14.9397 H   0  0  0  0  0  0
  1 25  1  0  0  0
  1 30  2  0  0  0
  1 84  1  0  0  0
  2  3  1  0  0  0
  2 25  1  0  0  0
  2 86  1  0  0  0
  2 87  1  0  0  0
  3  4  1  0  0  0
  3 88  1  0  0  0
  3 89  1  0  0  0
  4  5  1  0  0  0
  4 90  1  0  0  0
  4 91  1  0  0  0
  5  6  1  0  0  0
  5 26  1  0  0  0
  5 92  1  0  0  0
  6 25  1  0  0  0
  6 93  1  0  0  0
  6 94  1  0  0  0
  7  8  2  0  0  0
  7 26  1  0  0  0
  7 29  1  0  0  0
  8  9  1  0  0  0
  8 22  1  0  0  0
  9 10  1  0  0  0
  9 27  2  0  0  0
 10 11  2  0  0  0
 10 15  1  0  0  0
 11 12  1  0  0  0
 11 95  1  0  0  0
 12 13  2  0  0  0
 12 96  1  0  0  0
 13 14  1  0  0  0
 13 31  1  0  0  0
 14 15  2  0  0  0
 14 97  1  0  0  0
 15 98  1  0  0  0
 16 17  2  0  0  0
 16 21  1  0  0  0
 16 31  1  0  0  0
 17 18  1  0  0  0
 17 99  1  0  0  0
 18 19  2  0  0  0
 18100  1  0  0  0
 19 20  1  0  0  0
 19 24  1  0  0  0
 20 21  2  0  0  0
 20101  1  0  0  0
 21 23  1  0  0  0
 22 28  1  0  0  0
 22 32  2  0  0  0
 26 27  1  0  0  0
 28102  1  0  0  0
 28103  1  0  0  0
 29104  1  0  0  0
 29105  1  0  0  0
 33 34  1  0  0  0
 33 66  1  0  0  0
 33 70  2  0  0  0
 34 36  1  0  0  0
 34 59  1  0  0  0
 34106  1  0  0  0
 35 44  2  0  0  0
 35 45  1  0  0  0
 35 68  1  0  0  0
 36 56  1  0  0  0
 36107  1  0  0  0
 37 39  1  0  0  0
 37 47  1  0  0  0
 37 66  1  0  0  0
 37108  1  0  0  0
 38 43  2  0  0  0
 38 46  1  0  0  0
 38 47  1  0  0  0
 39 64  1  0  0  0
 39 67  2  0  0  0
 40 52  1  0  0  0
 40 53  2  0  0  0
 40 58  1  0  0  0
 41109  1  0  0  0
 41110  1  0  0  0
 41111  1  0  0  0
 41 48  1  0  0  0
 42 43  1  0  0  0
 42 66  1  0  0  0
 42112  1  0  0  0
 42113  1  0  0  0
 43 44  1  0  0  0
 44114  1  0  0  0
 45 46  2  0  0  0
 45115  1  0  0  0
 46116  1  0  0  0
 47117  1  0  0  0
 47118  1  0  0  0
 48 56  1  0  0  0
 48 65  1  0  0  0
 48119  1  0  0  0
 49 50  1  0  0  0
 49 53  1  0  0  0
 49 64  1  0  0  0
 49120  1  0  0  0
 50 51  1  0  0  0
 50121  1  0  0  0
 50122  1  0  0  0
 51 52  1  0  0  0
 51123  1  0  0  0
 51124  1  0  0  0
 52125  1  0  0  0
 52126  1  0  0  0
 53 54  1  0  0  0
 54 55  2  0  0  0
 54127  1  0  0  0
 55 57  1  0  0  0
 55128  1  0  0  0
 56 69  2  0  0  0
 57 58  2  0  0  0
 57129  1  0  0  0
 58130  1  0  0  0
 59 60  1  0  0  0
 59 61  1  0  0  0
 59 62  1  0  0  0
 60131  1  0  0  0
 60132  1  0  0  0
 60133  1  0  0  0
 61134  1  0  0  0
 61135  1  0  0  0
 61136  1  0  0  0
 62137  1  0  0  0
 62138  1  0  0  0
 62139  1  0  0  0
 63 65  1  0  0  0
 63140  1  0  0  0
 63141  1  0  0  0
 63142  1  0  0  0
 64143  1  0  0  0
 65144  1  0  0  0
 68 80  1  0  0  0
 71 74  2  0  0  0
 71 75  1  0  0  0
 71145  1  0  0  0
 72 74  1  0  0  0
 72 76  2  0  0  0
 72146  1  0  0  0
 73 75  2  0  0  0
 73 76  1  0  0  0
 73147  1  0  0  0
 74 78  1  0  0  0
 75 82  1  0  0  0
 76 84  1  0  0  0
 77 81  1  0  0  0
 77 82  2  0  0  0
 77148  1  0  0  0
 78 83  1  0  0  0
 78 85  2  0  0  0
 79149  1  0  0  0
 79150  1  0  0  0
 79151  1  0  0  0
 79 81  1  0  0  0
 80 81  1  0  0  0
 80152  1  0  0  0
 80153  1  0  0  0
 81154  1  0  0  0
 83155  1  0  0  0
 83156  1  0  0  0
 84157  1  0  0  0
 85158  1  0  0  0
 85159  1  0  0  0
M  CHG  1  85   1
M  ISO  4   1 100  68 101  80 101  84 100
M  END
> <chiral flag>
0

> <version>
0

> <s_m_source_file>
/data/baiqing/PycharmProjects/Reinvent-master-3.2/result/LINK_invent/BTK/process_docking_weight1_custom_product_contain_oxygen_bond_distance_aromatic_linkinvent_7_9_3/rearranged_h_0159.sdf

> <i_m_source_file_index>
6

> <r_mmod_Potential_Energy-OPLS-2005>
-100.161079406738

> <r_mmod_Stretch_Energy-OPLS-2005>
139.35661315918

> <r_mmod_Bend_Energy-OPLS-2005>
176.631240844727

> <r_mmod_Torsional_Energy-OPLS-2005>
227.518203735352

> <r_mmod_Improper_Torsional_Energy-OPLS-2005>
4.71191549301147

> <r_mmod_Van_der_Waal_Energy-OPLS-2005>
148.051651000977

> <r_mmod_Electrostatic_Energy-OPLS-2005>
-447.095489501953

> <r_mmod_Solvation_Energy-OPLS-2005>
-435.191131591797

> <b_mmod_Minimization_Converged-OPLS-2005>
0

> <r_mmod_RMS_Derivative-OPLS-2005>
0.946868479251862

$$$$
6
                    3D
 Structure written by MMmdl.
160168  0  0  1  0            999 V2000
  -30.6853  -14.4986   20.5747 C   0  0  0  0  0  0
  -30.4312  -12.3269   19.4221 C   0  0  0  0  0  0
  -29.4989  -12.5092   18.2057 C   0  0  0  0  0  0
  -28.0211  -12.3572   18.6192 C   0  0  0  0  0  0
  -27.6593  -13.2036   19.8692 C   0  0  2  0  0  0
  -28.7018  -12.9964   20.9913 C   0  0  0  0  0  0
  -25.2588  -13.8149   20.5666 C   0  0  0  0  0  0
  -24.1837  -13.0440   20.9183 C   0  0  0  0  0  0
  -24.6377  -11.6904   20.8731 C   0  0  0  0  0  0
  -23.9042  -10.4297   21.0409 C   0  0  0  0  0  0
  -24.3600   -9.4209   21.9178 C   0  0  0  0  0  0
  -23.6279   -8.2242   22.0753 C   0  0  0  0  0  0
  -22.4258   -8.0280   21.3542 C   0  0  0  0  0  0
  -21.9890   -9.0256   20.4648 C   0  0  0  0  0  0
  -22.7218  -10.2136   20.3053 C   0  0  0  0  0  0
  -21.6849   -6.0731   22.5277 C   0  0  0  0  0  0
  -21.4016   -6.5634   23.8209 C   0  0  0  0  0  0
  -21.3661   -5.6786   24.9172 C   0  0  0  0  0  0
  -21.6038   -4.3047   24.7220 C   0  0  0  0  0  0
  -21.8820   -3.8140   23.4342 C   0  0  0  0  0  0
  -21.9193   -4.6962   22.3402 C   0  0  0  0  0  0
  -22.7860  -13.5253   21.1835 C   0  0  0  0  0  0
  -22.1660   -4.2148   21.0978 F   0  0  0  0  0  0
  -21.5631   -3.4530   25.7733 F   0  0  0  0  0  0
  -30.0295  -13.3127   20.4371 N   0  0  0  0  0  0
  -26.3006  -12.9308   20.3313 N   0  0  0  0  0  0
  -25.9298  -11.6474   20.5722 N   0  0  0  0  0  0
  -22.0479  -12.8271   22.0391 N   0  0  0  0  0  0
  -25.4321  -15.1860   20.4055 N   0  0  0  0  0  0
  -31.8298  -14.6797   20.1490 O   0  0  0  0  0  0
  -21.6627   -6.8875   21.4239 O   0  0  0  0  0  0
  -22.3565  -14.5561   20.6676 O   0  0  0  0  0  0
  -24.6176  -31.8668   23.2085 C   0  0  0  0  0  0
  -25.9061  -32.4811   23.8382 C   0  0  1  0  0  0
  -27.2322  -27.4006   20.0891 C   0  0  0  0  0  0
  -25.5910  -33.8611   24.2311 N   0  0  0  0  0  0
  -23.4050  -30.4913   21.5516 C   0  0  2  0  0  0
  -24.8479  -28.9548   20.1169 C   0  0  0  0  0  0
  -22.7417  -29.4655   22.4993 C   0  0  0  0  0  0
  -18.0274  -28.1377   22.8488 C   0  0  0  0  0  0
  -24.1490  -36.7310   23.2636 C   0  0  0  0  0  0
  -25.9383  -30.8209   21.3663 C   0  0  0  0  0  0
  -26.0116  -29.4540   20.7114 C   0  0  0  0  0  0
  -27.2015  -28.6852   20.6924 C   0  0  0  0  0  0
  -26.0338  -26.9210   19.5039 C   0  0  0  0  0  0
  -24.8557  -27.6888   19.5132 C   0  0  0  0  0  0
  -23.6132  -29.8261   20.1661 C   0  0  0  0  0  0
  -25.4111  -36.3104   24.0333 C   0  0  1  0  0  0
  -20.5863  -28.3667   23.1318 C   0  0  2  0  0  0
  -20.6770  -26.9403   22.5422 C   0  0  0  0  0  0
  -19.5749  -26.6387   21.5214 C   0  0  0  0  0  0
  -18.1924  -26.7926   22.1617 C   0  0  0  0  0  0
  -19.1522  -28.8839   23.2899 C   0  0  0  0  0  0
  -18.9451  -30.1446   23.8909 C   0  0  0  0  0  0
  -17.6453  -30.6584   24.0564 C   0  0  0  0  0  0
  -25.9040  -34.9470   23.5116 C   0  0  0  0  0  0
  -16.5344  -29.9084   23.6326 C   0  0  0  0  0  0
  -16.7262  -28.6501   23.0345 C   0  0  0  0  0  0
  -26.4483  -31.6594   25.0716 C   0  0  0  0  0  0
  -25.3746  -31.3715   26.1467 C   0  0  0  0  0  0
  -27.0307  -30.3029   24.6107 C   0  0  0  0  0  0
  -27.6059  -32.4317   25.7472 C   0  0  0  0  0  0
  -27.5583  -37.1808   24.8464 C   0  0  0  0  0  0
  -21.4143  -29.3034   22.3727 N   0  0  0  0  0  0
  -26.4299  -37.3788   23.9403 N   0  0  0  0  0  0
  -24.6722  -31.0746   22.0998 N   0  0  0  0  0  0
  -23.4182  -28.8192   23.3037 O   0  0  0  0  0  0
  -28.4272  -26.6885   20.1081 O   0  0  0  0  0  0
  -26.5598  -34.8923   22.4676 O   0  0  0  0  0  0
  -23.5364  -32.1436   23.7467 O   0  0  0  0  0  0
  -30.9019  -19.6217   21.7454 C   0  0  0  0  0  0
  -29.3927  -17.9254   20.8600 C   0  0  0  0  0  0
  -31.5146  -17.2511   21.8490 C   0  0  0  0  0  0
  -29.6837  -19.3025   21.1019 C   0  0  0  0  0  0
  -31.8097  -18.6069   22.1164 C   0  0  0  0  0  0
  -30.2974  -16.8930   21.2247 C   0  0  0  0  0  0
  -28.7270  -20.3789   20.7113 C   0  0  0  0  0  0
  -28.2277  -22.8411   20.3505 C   0  0  0  0  0  0
  -29.7457  -25.3760   18.6193 C   0  0  0  0  0  0
  -28.7360  -24.2662   20.7001 C   0  0  0  0  0  0
  -28.5474  -25.3425   19.5781 C   0  0  1  0  0  0
  -32.9980  -18.9541   22.7611 N   0  0  0  0  0  0
  -29.9271  -15.5199   21.0323 N   0  0  0  0  0  0
  -29.0553  -21.7060   20.7401 N   0  0  0  0  0  0
  -27.4966  -20.0067   20.3382 N   0  3  0  0  0  0
  -27.1293  -22.6796   19.8042 O   0  0  0  0  0  0
  -31.4740  -12.4410   19.1202 H   0  0  0  0  0  0
  -30.3473  -11.3166   19.8249 H   0  0  0  0  0  0
  -29.7464  -11.7848   17.4285 H   0  0  0  0  0  0
  -29.6579  -13.4948   17.7647 H   0  0  0  0  0  0
  -27.8427  -11.3010   18.8260 H   0  0  0  0  0  0
  -27.3681  -12.6158   17.7842 H   0  0  0  0  0  0
  -27.6984  -14.2478   19.5599 H   0  0  0  0  0  0
  -28.6859  -11.9619   21.3363 H   0  0  0  0  0  0
  -28.4595  -13.5980   21.8685 H   0  0  0  0  0  0
  -25.2751   -9.5680   22.4748 H   0  0  0  0  0  0
  -23.9991   -7.4630   22.7464 H   0  0  0  0  0  0
  -21.0820   -8.8777   19.8950 H   0  0  0  0  0  0
  -22.3679  -10.9677   19.6159 H   0  0  0  0  0  0
  -21.2006   -7.6141   23.9715 H   0  0  0  0  0  0
  -21.1480   -6.0511   25.9074 H   0  0  0  0  0  0
  -22.0596   -2.7606   23.2833 H   0  0  0  0  0  0
  -22.4072  -11.9951   22.4832 H   0  0  0  0  0  0
  -21.1093  -13.1319   22.2559 H   0  0  0  0  0  0
  -24.6576  -15.8348   20.4936 H   0  0  0  0  0  0
  -26.2685  -15.6147   20.0335 H   0  0  0  0  0  0
  -26.7127  -32.5506   23.1135 H   0  0  0  0  0  0
  -25.0066  -33.9776   25.0461 H   0  0  0  0  0  0
  -22.6941  -31.3086   21.4134 H   0  0  0  0  0  0
  -23.3748  -35.9649   23.3317 H   0  0  0  0  0  0
  -24.3584  -36.8908   22.2047 H   0  0  0  0  0  0
  -23.7257  -37.6524   23.6645 H   0  0  0  0  0  0
  -26.0574  -31.5875   20.5995 H   0  0  0  0  0  0
  -26.8242  -30.8712   21.9874 H   0  0  0  0  0  0
  -28.1010  -29.0722   21.1497 H   0  0  0  0  0  0
  -25.9493  -25.9567   19.0329 H   0  0  0  0  0  0
  -23.9576  -27.2949   19.0583 H   0  0  0  0  0  0
  -23.7243  -30.6017   19.4074 H   0  0  0  0  0  0
  -22.7356  -29.2491   19.8690 H   0  0  0  0  0  0
  -25.1292  -36.1963   25.0828 H   0  0  0  0  0  0
  -20.9946  -28.3236   24.1440 H   0  0  0  0  0  0
  -20.5676  -26.2269   23.3605 H   0  0  0  0  0  0
  -21.6641  -26.7453   22.1214 H   0  0  0  0  0  0
  -19.6911  -25.6301   21.1236 H   0  0  0  0  0  0
  -19.6691  -27.3203   20.6747 H   0  0  0  0  0  0
  -17.4196  -26.6678   21.4015 H   0  0  0  0  0  0
  -18.0315  -26.0066   22.9009 H   0  0  0  0  0  0
  -19.7929  -30.7261   24.2278 H   0  0  0  0  0  0
  -17.5010  -31.6265   24.5163 H   0  0  0  0  0  0
  -15.5346  -30.2989   23.7651 H   0  0  0  0  0  0
  -15.8661  -28.0830   22.7050 H   0  0  0  0  0  0
  -24.5909  -30.7068   25.7810 H   0  0  0  0  0  0
  -24.8948  -32.2877   26.4920 H   0  0  0  0  0  0
  -25.8100  -30.8881   27.0223 H   0  0  0  0  0  0
  -26.2845  -29.6788   24.1171 H   0  0  0  0  0  0
  -27.4077  -29.7270   25.4569 H   0  0  0  0  0  0
  -27.8687  -30.4335   23.9255 H   0  0  0  0  0  0
  -27.2675  -33.3602   26.2085 H   0  0  0  0  0  0
  -28.3842  -32.6906   25.0281 H   0  0  0  0  0  0
  -28.0759  -31.8422   26.5355 H   0  0  0  0  0  0
  -28.2615  -38.0090   24.7498 H   0  0  0  0  0  0
  -28.1063  -36.2623   24.6305 H   0  0  0  0  0  0
  -27.2302  -37.1481   25.8868 H   0  0  0  0  0  0
  -20.9299  -29.8750   21.6950 H   0  0  0  0  0  0
  -26.0187  -38.2868   24.1394 H   0  0  0  0  0  0
  -31.1531  -20.6495   21.9654 H   0  0  0  0  0  0
  -28.4651  -17.6419   20.3859 H   0  0  0  0  0  0
  -32.2108  -16.4823   22.1521 H   0  0  0  0  0  0
  -29.9135  -24.4016   18.1595 H   0  0  0  0  0  0
  -30.6615  -25.6660   19.1352 H   0  0  0  0  0  0
  -29.5786  -26.0944   17.8158 H   0  0  0  0  0  0
  -29.7748  -24.2325   21.0268 H   0  0  0  0  0  0
  -28.1625  -24.5780   21.5729 H   0  0  0  0  0  0
  -27.7113  -25.0546   18.9519 H   0  0  0  0  0  0
  -33.0406  -19.8481   23.2413 H   0  0  0  0  0  0
  -33.4977  -18.2251   23.2621 H   0  0  0  0  0  0
  -28.9587  -15.2886   21.1916 H   0  0  0  0  0  0
  -29.9715  -21.8496   21.1327 H   0  0  0  0  0  0
  -27.2086  -19.0433   20.3657 H   0  0  0  0  0  0
  -26.8514  -20.7225   20.0237 H   0  0  0  0  0  0
  1 25  1  0  0  0
  1 30  2  0  0  0
  1 83  1  0  0  0
  2  3  1  0  0  0
  2 25  1  0  0  0
  2 87  1  0  0  0
  2 88  1  0  0  0
  3  4  1  0  0  0
  3 89  1  0  0  0
  3 90  1  0  0  0
  4  5  1  0  0  0
  4 91  1  0  0  0
  4 92  1  0  0  0
  5  6  1  0  0  0
  5 26  1  0  0  0
  5 93  1  0  0  0
  6 25  1  0  0  0
  6 94  1  0  0  0
  6 95  1  0  0  0
  7  8  2  0  0  0
  7 26  1  0  0  0
  7 29  1  0  0  0
  8  9  1  0  0  0
  8 22  1  0  0  0
  9 10  1  0  0  0
  9 27  2  0  0  0
 10 11  2  0  0  0
 10 15  1  0  0  0
 11 12  1  0  0  0
 11 96  1  0  0  0
 12 13  2  0  0  0
 12 97  1  0  0  0
 13 14  1  0  0  0
 13 31  1  0  0  0
 14 15  2  0  0  0
 14 98  1  0  0  0
 15 99  1  0  0  0
 16 17  2  0  0  0
 16 21  1  0  0  0
 16 31  1  0  0  0
 17 18  1  0  0  0
 17100  1  0  0  0
 18 19  2  0  0  0
 18101  1  0  0  0
 19 20  1  0  0  0
 19 24  1  0  0  0
 20 21  2  0  0  0
 20102  1  0  0  0
 21 23  1  0  0  0
 22 28  1  0  0  0
 22 32  2  0  0  0
 26 27  1  0  0  0
 28103  1  0  0  0
 28104  1  0  0  0
 29105  1  0  0  0
 29106  1  0  0  0
 33 34  1  0  0  0
 33 66  1  0  0  0
 33 70  2  0  0  0
 34 36  1  0  0  0
 34 59  1  0  0  0
 34107  1  0  0  0
 35 44  2  0  0  0
 35 45  1  0  0  0
 35 68  1  0  0  0
 36 56  1  0  0  0
 36108  1  0  0  0
 37 39  1  0  0  0
 37 47  1  0  0  0
 37 66  1  0  0  0
 37109  1  0  0  0
 38 43  2  0  0  0
 38 46  1  0  0  0
 38 47  1  0  0  0
 39 64  1  0  0  0
 39 67  2  0  0  0
 40 52  1  0  0  0
 40 53  2  0  0  0
 40 58  1  0  0  0
 41110  1  0  0  0
 41111  1  0  0  0
 41112  1  0  0  0
 41 48  1  0  0  0
 42 43  1  0  0  0
 42 66  1  0  0  0
 42113  1  0  0  0
 42114  1  0  0  0
 43 44  1  0  0  0
 44115  1  0  0  0
 45 46  2  0  0  0
 45116  1  0  0  0
 46117  1  0  0  0
 47118  1  0  0  0
 47119  1  0  0  0
 48 56  1  0  0  0
 48 65  1  0  0  0
 48120  1  0  0  0
 49 50  1  0  0  0
 49 53  1  0  0  0
 49 64  1  0  0  0
 49121  1  0  0  0
 50 51  1  0  0  0
 50122  1  0  0  0
 50123  1  0  0  0
 51 52  1  0  0  0
 51124  1  0  0  0
 51125  1  0  0  0
 52126  1  0  0  0
 52127  1  0  0  0
 53 54  1  0  0  0
 54 55  2  0  0  0
 54128  1  0  0  0
 55 57  1  0  0  0
 55129  1  0  0  0
 56 69  2  0  0  0
 57 58  2  0  0  0
 57130  1  0  0  0
 58131  1  0  0  0
 59 60  1  0  0  0
 59 61  1  0  0  0
 59 62  1  0  0  0
 60132  1  0  0  0
 60133  1  0  0  0
 60134  1  0  0  0
 61135  1  0  0  0
 61136  1  0  0  0
 61137  1  0  0  0
 62138  1  0  0  0
 62139  1  0  0  0
 62140  1  0  0  0
 63 65  1  0  0  0
 63141  1  0  0  0
 63142  1  0  0  0
 63143  1  0  0  0
 64144  1  0  0  0
 65145  1  0  0  0
 68 81  1  0  0  0
 71 74  2  0  0  0
 71 75  1  0  0  0
 71146  1  0  0  0
 72 74  1  0  0  0
 72 76  2  0  0  0
 72147  1  0  0  0
 73 75  2  0  0  0
 73 76  1  0  0  0
 73148  1  0  0  0
 74 77  1  0  0  0
 75 82  1  0  0  0
 76 83  1  0  0  0
 77 84  1  0  0  0
 77 85  2  0  0  0
 78 80  1  0  0  0
 78 84  1  0  0  0
 78 86  2  0  0  0
 79149  1  0  0  0
 79150  1  0  0  0
 79151  1  0  0  0
 79 81  1  0  0  0
 80 81  1  0  0  0
 80152  1  0  0  0
 80153  1  0  0  0
 81154  1  0  0  0
 82155  1  0  0  0
 82156  1  0  0  0
 83157  1  0  0  0
 84158  1  0  0  0
 85159  1  0  0  0
 85160  1  0  0  0
M  CHG  1  85   1
M  ISO  4   1 100  68 101  81 101  83 100
M  END
> <chiral flag>
0

> <version>
0

> <s_m_source_file>
/data/baiqing/PycharmProjects/Reinvent-master-3.2/result/LINK_invent/BTK/process_docking_weight1_custom_product_contain_oxygen_bond_distance_aromatic_linkinvent_7_9_3/rearranged_h_0159.sdf

> <i_m_source_file_index>
7

> <r_mmod_Potential_Energy-OPLS-2005>
-311.662536621094

> <r_mmod_Stretch_Energy-OPLS-2005>
48.6568031311035

> <r_mmod_Bend_Energy-OPLS-2005>
124.938331604004

> <r_mmod_Torsional_Energy-OPLS-2005>
212.774749755859

> <r_mmod_Improper_Torsional_Energy-OPLS-2005>
8.2575044631958

> <r_mmod_Van_der_Waal_Energy-OPLS-2005>
169.939178466797

> <r_mmod_Electrostatic_Energy-OPLS-2005>
-422.666137695312

> <r_mmod_Solvation_Energy-OPLS-2005>
-470.608489990234

> <b_mmod_Minimization_Converged-OPLS-2005>
0

> <r_mmod_RMS_Derivative-OPLS-2005>
1.15980076789856

$$$$
7
                    3D
 Structure written by MMmdl.
163171  0  0  1  0            999 V2000
  -30.6055  -14.7411   20.4957 C   0  0  0  0  0  0
  -30.4271  -12.4567   19.4712 C   0  0  0  0  0  0
  -29.5115  -12.5034   18.2291 C   0  0  0  0  0  0
  -28.0322  -12.3432   18.6328 C   0  0  0  0  0  0
  -27.6381  -13.2315   19.8456 C   0  0  2  0  0  0
  -28.6788  -13.1584   20.9815 C   0  0  0  0  0  0
  -25.2480  -13.8154   20.5681 C   0  0  0  0  0  0
  -24.1811  -13.0401   20.9325 C   0  0  0  0  0  0
  -24.6403  -11.6888   20.8810 C   0  0  0  0  0  0
  -23.9065  -10.4270   21.0436 C   0  0  0  0  0  0
  -24.3633   -9.4182   21.9202 C   0  0  0  0  0  0
  -23.6290   -8.2238   22.0769 C   0  0  0  0  0  0
  -22.4273   -8.0259   21.3560 C   0  0  0  0  0  0
  -21.9923   -9.0237   20.4666 C   0  0  0  0  0  0
  -22.7255  -10.2115   20.3064 C   0  0  0  0  0  0
  -21.6870   -6.0696   22.5269 C   0  0  0  0  0  0
  -21.4030   -6.5616   23.8195 C   0  0  0  0  0  0
  -21.3684   -5.6780   24.9161 C   0  0  0  0  0  0
  -21.6050   -4.3041   24.7257 C   0  0  0  0  0  0
  -21.8811   -3.8120   23.4383 C   0  0  0  0  0  0
  -21.9192   -4.6918   22.3424 C   0  0  0  0  0  0
  -22.7844  -13.5194   21.1959 C   0  0  0  0  0  0
  -22.1629   -4.2073   21.1005 F   0  0  0  0  0  0
  -21.5630   -3.4549   25.7787 F   0  0  0  0  0  0
  -29.9774  -13.5177   20.4015 N   0  0  0  0  0  0
  -26.2907  -12.9373   20.3237 N   0  0  0  0  0  0
  -25.9329  -11.6518   20.5759 N   0  0  0  0  0  0
  -22.0501  -12.8158   22.0504 N   0  0  0  0  0  0
  -25.4114  -15.1843   20.3903 N   0  0  0  0  0  0
  -31.8004  -14.8353   20.2038 O   0  0  0  0  0  0
  -21.6673   -6.8839   21.4225 O   0  0  0  0  0  0
  -22.3525  -14.5507   20.6795 O   0  0  0  0  0  0
  -24.6300  -31.8554   23.2005 C   0  0  0  0  0  0
  -25.9135  -32.4756   23.8339 C   0  0  1  0  0  0
  -27.2111  -27.2608   20.1522 C   0  0  0  0  0  0
  -25.5947  -33.8569   24.2254 N   0  0  0  0  0  0
  -23.4262  -30.4788   21.5435 C   0  0  2  0  0  0
  -24.8732  -28.9222   20.1154 C   0  0  0  0  0  0
  -22.7509  -29.4607   22.4930 C   0  0  0  0  0  0
  -18.0293  -28.1389   22.8485 C   0  0  0  0  0  0
  -24.1495  -36.7270   23.2631 C   0  0  0  0  0  0
  -25.9705  -30.7684   21.3813 C   0  0  0  0  0  0
  -26.0438  -29.3906   20.7265 C   0  0  0  0  0  0
  -27.2201  -28.5746   20.7306 C   0  0  0  0  0  0
  -26.0223  -26.8583   19.5076 C   0  0  0  0  0  0
  -24.8674  -27.6651   19.4912 C   0  0  0  0  0  0
  -23.6448  -29.8123   20.1603 C   0  0  0  0  0  0
  -25.4121  -36.3064   24.0316 C   0  0  1  0  0  0
  -20.5894  -28.3696   23.1271 C   0  0  2  0  0  0
  -20.6788  -26.9419   22.5408 C   0  0  0  0  0  0
  -19.5770  -26.6376   21.5212 C   0  0  0  0  0  0
  -18.1944  -26.7928   22.1621 C   0  0  0  0  0  0
  -19.1546  -28.8858   23.2867 C   0  0  0  0  0  0
  -18.9466  -30.1455   23.8893 C   0  0  0  0  0  0
  -17.6467  -30.6592   24.0555 C   0  0  0  0  0  0
  -25.9069  -34.9438   23.5084 C   0  0  0  0  0  0
  -16.5358  -29.9083   23.6338 C   0  0  0  0  0  0
  -16.7278  -28.6498   23.0364 C   0  0  0  0  0  0
  -26.4507  -31.6588   25.0726 C   0  0  0  0  0  0
  -25.3723  -31.3747   26.1440 C   0  0  0  0  0  0
  -27.0345  -30.2996   24.6223 C   0  0  0  0  0  0
  -27.6074  -32.4311   25.7494 C   0  0  0  0  0  0
  -27.5590  -37.1790   24.8457 C   0  0  0  0  0  0
  -21.4219  -29.3041   22.3671 N   0  0  0  0  0  0
  -26.4286  -37.3769   23.9413 N   0  0  0  0  0  0
  -24.6936  -31.0528   22.0981 N   0  0  0  0  0  0
  -23.4208  -28.8154   23.3039 O   0  0  0  0  0  0
  -28.2911  -26.3521   20.1805 O   0  0  0  0  0  0
  -26.5628  -34.8907   22.4645 O   0  0  0  0  0  0
  -23.5453  -32.1391   23.7303 O   0  0  0  0  0  0
  -29.3644  -19.8814   20.7577 C   0  0  0  0  0  0
  -28.6738  -20.8724   18.6632 C   0  0  0  0  0  0
  -29.4623  -18.5253   18.7154 C   0  0  0  0  0  0
  -29.6391  -18.5881   20.1317 C   0  0  0  0  0  0
  -28.9289  -21.0692   20.0354 C   0  0  0  0  0  0
  -28.9367  -19.6521   18.0062 C   0  0  0  0  0  0
  -29.9793  -17.3414   17.9641 C   0  0  0  0  0  0
  -28.5778  -25.0533   22.2638 C   0  0  0  0  0  0
  -28.6638  -23.6932   20.0661 C   0  0  0  0  0  0
  -28.9895  -16.5357   17.1341 C   0  0  0  0  0  0
  -27.8220  -24.2635   23.3293 C   0  0  0  0  0  0
  -30.2496  -17.3376   20.9398 C   0  0  0  0  0  0
  -28.0616  -24.9960   20.8135 C   0  0  2  0  0  0
  -28.6997  -19.6480   16.6241 N   0  0  0  0  0  0
  -28.6726  -22.4113   20.6357 N   0  0  0  0  0  0
  -29.8341  -15.8728   20.7315 N   0  0  0  0  0  0
  -31.1625  -16.9910   17.9909 O   0  0  0  0  0  0
  -29.5608  -25.7302   22.5841 O   0  0  0  0  0  0
  -29.1272  -23.8673   18.9346 O   0  0  0  0  0  0
  -31.4665  -12.5891   19.1705 H   0  0  0  0  0  0
  -30.3721  -11.4769   19.9464 H   0  0  0  0  0  0
  -29.7869  -11.7197   17.5235 H   0  0  0  0  0  0
  -29.6588  -13.4467   17.7035 H   0  0  0  0  0  0
  -27.8767  -11.2917   18.8779 H   0  0  0  0  0  0
  -27.3817  -12.5541   17.7822 H   0  0  0  0  0  0
  -27.6344  -14.2586   19.4806 H   0  0  0  0  0  0
  -28.7104  -12.1562   21.4080 H   0  0  0  0  0  0
  -28.4161  -13.8283   21.8030 H   0  0  0  0  0  0
  -25.2809   -9.5645   22.4736 H   0  0  0  0  0  0
  -24.0007   -7.4634   22.7494 H   0  0  0  0  0  0
  -21.0859   -8.8745   19.8996 H   0  0  0  0  0  0
  -22.3731  -10.9634   19.6141 H   0  0  0  0  0  0
  -21.2027   -7.6123   23.9668 H   0  0  0  0  0  0
  -21.1527   -6.0540   25.9050 H   0  0  0  0  0  0
  -22.0598   -2.7584   23.2934 H   0  0  0  0  0  0
  -22.4129  -11.9814   22.4852 H   0  0  0  0  0  0
  -21.1056  -13.1047   22.2610 H   0  0  0  0  0  0
  -24.6062  -15.8019   20.4336 H   0  0  0  0  0  0
  -26.1600  -15.5559   19.8192 H   0  0  0  0  0  0
  -26.7201  -32.5396   23.1077 H   0  0  0  0  0  0
  -25.0135  -33.9733   25.0426 H   0  0  0  0  0  0
  -22.7209  -31.2990   21.3988 H   0  0  0  0  0  0
  -23.3781  -35.9583   23.3271 H   0  0  0  0  0  0
  -24.3587  -36.8922   22.2054 H   0  0  0  0  0  0
  -23.7234  -37.6448   23.6682 H   0  0  0  0  0  0
  -26.1098  -31.5300   20.6126 H   0  0  0  0  0  0
  -26.8466  -30.8152   22.0163 H   0  0  0  0  0  0
  -28.1162  -28.9291   21.2191 H   0  0  0  0  0  0
  -25.9721  -25.8928   19.0244 H   0  0  0  0  0  0
  -23.9707  -27.3076   19.0015 H   0  0  0  0  0  0
  -23.7716  -30.5857   19.4022 H   0  0  0  0  0  0
  -22.7632  -29.2464   19.8548 H   0  0  0  0  0  0
  -25.1316  -36.1899   25.0810 H   0  0  0  0  0  0
  -20.9976  -28.3270   24.1395 H   0  0  0  0  0  0
  -20.5698  -26.2319   23.3617 H   0  0  0  0  0  0
  -21.6658  -26.7457   22.1196 H   0  0  0  0  0  0
  -19.6938  -25.6279   21.1269 H   0  0  0  0  0  0
  -19.6708  -27.3170   20.6729 H   0  0  0  0  0  0
  -17.4222  -26.6670   21.4012 H   0  0  0  0  0  0
  -18.0338  -26.0066   22.9010 H   0  0  0  0  0  0
  -19.7941  -30.7269   24.2275 H   0  0  0  0  0  0
  -17.5022  -31.6283   24.5138 H   0  0  0  0  0  0
  -15.5360  -30.2986   23.7667 H   0  0  0  0  0  0
  -15.8675  -28.0808   22.7103 H   0  0  0  0  0  0
  -24.5872  -30.7137   25.7745 H   0  0  0  0  0  0
  -24.8946  -32.2927   26.4875 H   0  0  0  0  0  0
  -25.8004  -30.8886   27.0216 H   0  0  0  0  0  0
  -26.2928  -29.6744   24.1230 H   0  0  0  0  0  0
  -27.4008  -29.7257   25.4748 H   0  0  0  0  0  0
  -27.8826  -30.4263   23.9483 H   0  0  0  0  0  0
  -27.2711  -33.3629   26.2051 H   0  0  0  0  0  0
  -28.3896  -32.6836   25.0322 H   0  0  0  0  0  0
  -28.0730  -31.8444   26.5423 H   0  0  0  0  0  0
  -28.2577  -38.0123   24.7552 H   0  0  0  0  0  0
  -28.1127  -36.2654   24.6226 H   0  0  0  0  0  0
  -27.2315  -37.1360   25.8862 H   0  0  0  0  0  0
  -20.9426  -29.8749   21.6850 H   0  0  0  0  0  0
  -26.0161  -38.2832   24.1460 H   0  0  0  0  0  0
  -29.5220  -19.9739   21.8242 H   0  0  0  0  0  0
  -28.2820  -21.6920   18.0802 H   0  0  0  0  0  0
  -29.3339  -16.4926   16.1015 H   0  0  0  0  0  0
  -27.9921  -16.9749   17.1576 H   0  0  0  0  0  0
  -28.9226  -15.5185   17.5166 H   0  0  0  0  0  0
  -26.9462  -23.7640   22.9145 H   0  0  0  0  0  0
  -27.4832  -24.9390   24.1145 H   0  0  0  0  0  0
  -28.4724  -23.5145   23.7797 H   0  0  0  0  0  0
  -30.1267  -17.5456   22.0047 H   0  0  0  0  0  0
  -31.3274  -17.3932   20.7897 H   0  0  0  0  0  0
  -26.9880  -24.8139   20.8761 H   0  0  0  0  0  0
  -28.2911  -20.4532   16.1593 H   0  0  0  0  0  0
  -28.7119  -18.8064   16.0577 H   0  0  0  0  0  0
  -28.4267  -22.3802   21.6150 H   0  0  0  0  0  0
  -28.8565  -15.6858   20.8991 H   0  0  0  0  0  0
  1 25  1  0  0  0
  1 30  2  0  0  0
  1 86  1  0  0  0
  2  3  1  0  0  0
  2 25  1  0  0  0
  2 90  1  0  0  0
  2 91  1  0  0  0
  3  4  1  0  0  0
  3 92  1  0  0  0
  3 93  1  0  0  0
  4  5  1  0  0  0
  4 94  1  0  0  0
  4 95  1  0  0  0
  5  6  1  0  0  0
  5 26  1  0  0  0
  5 96  1  0  0  0
  6 25  1  0  0  0
  6 97  1  0  0  0
  6 98  1  0  0  0
  7  8  2  0  0  0
  7 26  1  0  0  0
  7 29  1  0  0  0
  8  9  1  0  0  0
  8 22  1  0  0  0
  9 10  1  0  0  0
  9 27  2  0  0  0
 10 11  2  0  0  0
 10 15  1  0  0  0
 11 12  1  0  0  0
 11 99  1  0  0  0
 12 13  2  0  0  0
 12100  1  0  0  0
 13 14  1  0  0  0
 13 31  1  0  0  0
 14 15  2  0  0  0
 14101  1  0  0  0
 15102  1  0  0  0
 16 17  2  0  0  0
 16 21  1  0  0  0
 16 31  1  0  0  0
 17 18  1  0  0  0
 17103  1  0  0  0
 18 19  2  0  0  0
 18104  1  0  0  0
 19 20  1  0  0  0
 19 24  1  0  0  0
 20 21  2  0  0  0
 20105  1  0  0  0
 21 23  1  0  0  0
 22 28  1  0  0  0
 22 32  2  0  0  0
 26 27  1  0  0  0
 28106  1  0  0  0
 28107  1  0  0  0
 29108  1  0  0  0
 29109  1  0  0  0
 33 34  1  0  0  0
 33 66  1  0  0  0
 33 70  2  0  0  0
 34 36  1  0  0  0
 34 59  1  0  0  0
 34110  1  0  0  0
 35 44  2  0  0  0
 35 45  1  0  0  0
 35 68  1  0  0  0
 36 56  1  0  0  0
 36111  1  0  0  0
 37 39  1  0  0  0
 37 47  1  0  0  0
 37 66  1  0  0  0
 37112  1  0  0  0
 38 43  2  0  0  0
 38 46  1  0  0  0
 38 47  1  0  0  0
 39 64  1  0  0  0
 39 67  2  0  0  0
 40 52  1  0  0  0
 40 53  2  0  0  0
 40 58  1  0  0  0
 41113  1  0  0  0
 41114  1  0  0  0
 41115  1  0  0  0
 41 48  1  0  0  0
 42 43  1  0  0  0
 42 66  1  0  0  0
 42116  1  0  0  0
 42117  1  0  0  0
 43 44  1  0  0  0
 44118  1  0  0  0
 45 46  2  0  0  0
 45119  1  0  0  0
 46120  1  0  0  0
 47121  1  0  0  0
 47122  1  0  0  0
 48 56  1  0  0  0
 48 65  1  0  0  0
 48123  1  0  0  0
 49 50  1  0  0  0
 49 53  1  0  0  0
 49 64  1  0  0  0
 49124  1  0  0  0
 50 51  1  0  0  0
 50125  1  0  0  0
 50126  1  0  0  0
 51 52  1  0  0  0
 51127  1  0  0  0
 51128  1  0  0  0
 52129  1  0  0  0
 52130  1  0  0  0
 53 54  1  0  0  0
 54 55  2  0  0  0
 54131  1  0  0  0
 55 57  1  0  0  0
 55132  1  0  0  0
 56 69  2  0  0  0
 57 58  2  0  0  0
 57133  1  0  0  0
 58134  1  0  0  0
 59 60  1  0  0  0
 59 61  1  0  0  0
 59 62  1  0  0  0
 60135  1  0  0  0
 60136  1  0  0  0
 60137  1  0  0  0
 61138  1  0  0  0
 61139  1  0  0  0
 61140  1  0  0  0
 62141  1  0  0  0
 62142  1  0  0  0
 62143  1  0  0  0
 63 65  1  0  0  0
 63144  1  0  0  0
 63145  1  0  0  0
 63146  1  0  0  0
 64147  1  0  0  0
 65148  1  0  0  0
 68 83  1  0  0  0
 71 74  2  0  0  0
 71 75  1  0  0  0
 71149  1  0  0  0
 72 75  2  0  0  0
 72 76  1  0  0  0
 72150  1  0  0  0
 73 74  1  0  0  0
 73 76  2  0  0  0
 73 77  1  0  0  0
 74 82  1  0  0  0
 75 85  1  0  0  0
 76 84  1  0  0  0
 77 80  1  0  0  0
 77 87  2  0  0  0
 78 81  1  0  0  0
 78 83  1  0  0  0
 78 88  2  0  0  0
 79 83  1  0  0  0
 79 85  1  0  0  0
 79 89  2  0  0  0
 80151  1  0  0  0
 80152  1  0  0  0
 80153  1  0  0  0
 81154  1  0  0  0
 81155  1  0  0  0
 81156  1  0  0  0
 82 86  1  0  0  0
 82157  1  0  0  0
 82158  1  0  0  0
 83159  1  0  0  0
 84160  1  0  0  0
 84161  1  0  0  0
 85162  1  0  0  0
 86163  1  0  0  0
M  ISO  4   1 100  68 101  83 101  86 100
M  END
> <chiral flag>
0

> <version>
0

> <s_m_source_file>
/data/baiqing/PycharmProjects/Reinvent-master-3.2/result/LINK_invent/BTK/process_docking_weight1_custom_product_contain_oxygen_bond_distance_aromatic_linkinvent_7_9_3/rearranged_h_0159.sdf

> <i_m_source_file_index>
8

> <r_mmod_Potential_Energy-OPLS-2005>
254.753662109375

> <r_mmod_Stretch_Energy-OPLS-2005>
139.281860351562

> <r_mmod_Bend_Energy-OPLS-2005>
166.049911499023

> <r_mmod_Torsional_Energy-OPLS-2005>
295.914520263672

> <r_mmod_Improper_Torsional_Energy-OPLS-2005>
7.77137041091919

> <r_mmod_Van_der_Waal_Energy-OPLS-2005>
135.159729003906

> <r_mmod_Electrostatic_Energy-OPLS-2005>
-279.767456054688

> <r_mmod_Solvation_Energy-OPLS-2005>
-296.0869140625

> <b_mmod_Minimization_Converged-OPLS-2005>
0

> <r_mmod_RMS_Derivative-OPLS-2005>
3.89857006072998

$$$$
8
                    3D
 Structure written by MMmdl.
159167  0  0  1  0            999 V2000
  -30.6225  -14.7447   20.4582 C   0  0  0  0  0  0
  -30.4253  -12.4537   19.4760 C   0  0  0  0  0  0
  -29.5075  -12.5055   18.2361 C   0  0  0  0  0  0
  -28.0340  -12.3293   18.6495 C   0  0  0  0  0  0
  -27.6390  -13.2332   19.8481 C   0  0  2  0  0  0
  -28.6824  -13.1776   20.9850 C   0  0  0  0  0  0
  -25.2495  -13.8205   20.5693 C   0  0  0  0  0  0
  -24.1797  -13.0443   20.9214 C   0  0  0  0  0  0
  -24.6397  -11.6921   20.8757 C   0  0  0  0  0  0
  -23.9078  -10.4293   21.0414 C   0  0  0  0  0  0
  -24.3624   -9.4203   21.9190 C   0  0  0  0  0  0
  -23.6295   -8.2242   22.0760 C   0  0  0  0  0  0
  -22.4279   -8.0285   21.3546 C   0  0  0  0  0  0
  -21.9923   -9.0257   20.4644 C   0  0  0  0  0  0
  -22.7253  -10.2134   20.3056 C   0  0  0  0  0  0
  -21.6852   -6.0738   22.5281 C   0  0  0  0  0  0
  -21.4014   -6.5643   23.8212 C   0  0  0  0  0  0
  -21.3655   -5.6795   24.9176 C   0  0  0  0  0  0
  -21.6044   -4.3059   24.7227 C   0  0  0  0  0  0
  -21.8819   -3.8152   23.4347 C   0  0  0  0  0  0
  -21.9193   -4.6967   22.3404 C   0  0  0  0  0  0
  -22.7818  -13.5217   21.1869 C   0  0  0  0  0  0
  -22.1660   -4.2151   21.0984 F   0  0  0  0  0  0
  -21.5628   -3.4542   25.7741 F   0  0  0  0  0  0
  -29.9828  -13.5254   20.3999 N   0  0  0  0  0  0
  -26.2922  -12.9412   20.3269 N   0  0  0  0  0  0
  -25.9325  -11.6555   20.5755 N   0  0  0  0  0  0
  -22.0467  -12.8201   22.0421 N   0  0  0  0  0  0
  -25.4182  -15.1932   20.4099 N   0  0  0  0  0  0
  -31.8166  -14.7945   20.1481 O   0  0  0  0  0  0
  -21.6641   -6.8884   21.4247 O   0  0  0  0  0  0
  -22.3503  -14.5521   20.6715 O   0  0  0  0  0  0
  -24.6309  -31.8550   23.1967 C   0  0  0  0  0  0
  -25.9141  -32.4755   23.8314 C   0  0  1  0  0  0
  -27.2244  -27.2642   20.1219 C   0  0  0  0  0  0
  -25.5940  -33.8556   24.2238 N   0  0  0  0  0  0
  -23.4263  -30.4775   21.5394 C   0  0  2  0  0  0
  -24.8732  -28.9200   20.1085 C   0  0  0  0  0  0
  -22.7485  -29.4615   22.4903 C   0  0  0  0  0  0
  -18.0291  -28.1386   22.8503 C   0  0  0  0  0  0
  -24.1479  -36.7267   23.2644 C   0  0  0  0  0  0
  -25.9707  -30.7687   21.3747 C   0  0  0  0  0  0
  -26.0427  -29.3901   20.7173 C   0  0  0  0  0  0
  -27.2162  -28.5719   20.7156 C   0  0  0  0  0  0
  -26.0282  -26.8547   19.4923 C   0  0  0  0  0  0
  -24.8708  -27.6603   19.4883 C   0  0  0  0  0  0
  -23.6427  -29.8059   20.1568 C   0  0  0  0  0  0
  -25.4111  -36.3062   24.0324 C   0  0  1  0  0  0
  -20.5893  -28.3710   23.1268 C   0  0  2  0  0  0
  -20.6773  -26.9423   22.5414 C   0  0  0  0  0  0
  -19.5744  -26.6383   21.5219 C   0  0  0  0  0  0
  -18.1923  -26.7937   22.1625 C   0  0  0  0  0  0
  -19.1543  -28.8862   23.2883 C   0  0  0  0  0  0
  -18.9470  -30.1461   23.8902 C   0  0  0  0  0  0
  -17.6472  -30.6599   24.0564 C   0  0  0  0  0  0
  -25.9061  -34.9441   23.5083 C   0  0  0  0  0  0
  -16.5361  -29.9095   23.6335 C   0  0  0  0  0  0
  -16.7278  -28.6502   23.0377 C   0  0  0  0  0  0
  -26.4510  -31.6599   25.0719 C   0  0  0  0  0  0
  -25.3728  -31.3740   26.1435 C   0  0  0  0  0  0
  -27.0390  -30.3028   24.6219 C   0  0  0  0  0  0
  -27.6053  -32.4357   25.7498 C   0  0  0  0  0  0
  -27.5573  -37.1776   24.8462 C   0  0  0  0  0  0
  -21.4195  -29.3061   22.3649 N   0  0  0  0  0  0
  -26.4273  -37.3774   23.9428 N   0  0  0  0  0  0
  -24.6949  -31.0517   22.0936 N   0  0  0  0  0  0
  -23.4186  -28.8158   23.3006 O   0  0  0  0  0  0
  -28.3424  -26.4045   20.2138 O   0  0  0  0  0  0
  -26.5635  -34.8922   22.4652 O   0  0  0  0  0  0
  -23.5464  -32.1373   23.7275 O   0  0  0  0  0  0
  -31.5528  -17.7836   20.5767 C   0  0  0  0  0  0
  -29.2523  -18.4587   20.5417 C   0  0  0  0  0  0
  -30.2069  -17.3557   20.5803 C   0  0  0  0  0  0
  -31.8829  -19.1514   20.5025 C   0  0  0  0  0  0
  -29.6592  -19.8543   20.4674 C   0  0  0  0  0  0
  -28.4178  -23.7210   20.4340 C   0  0  0  0  0  0
  -33.8332  -19.9176   19.0950 C   0  0  0  0  0  0
  -29.1736  -22.3919   19.9439 C   0  0  0  0  0  0
  -28.4419  -25.0594   19.5478 C   0  0  0  0  0  0
  -33.3363  -19.5967   20.5151 C   0  0  1  0  0  0
  -30.9701  -20.1531   20.4430 N   0  0  0  0  0  0
  -29.8611  -15.9002   20.6496 N   0  0  0  0  0  0
  -28.7887  -21.0088   20.4594 N   0  0  0  0  0  0
  -33.4382  -20.7574   21.4031 N   0  3  0  0  0  0
  -27.7984  -23.7014   21.5030 O   0  0  0  0  0  0
  -31.4678  -12.5645   19.1727 H   0  0  0  0  0  0
  -30.3598  -11.4806   19.9651 H   0  0  0  0  0  0
  -29.7904  -11.7317   17.5206 H   0  0  0  0  0  0
  -29.6350  -13.4599   17.7232 H   0  0  0  0  0  0
  -27.8923  -11.2815   18.9160 H   0  0  0  0  0  0
  -27.3768  -12.5175   17.7997 H   0  0  0  0  0  0
  -27.6297  -14.2525   19.4618 H   0  0  0  0  0  0
  -28.7174  -12.1830   21.4318 H   0  0  0  0  0  0
  -28.4170  -13.8661   21.7891 H   0  0  0  0  0  0
  -25.2768   -9.5677   22.4769 H   0  0  0  0  0  0
  -23.9997   -7.4637   22.7487 H   0  0  0  0  0  0
  -21.0856   -8.8779   19.8947 H   0  0  0  0  0  0
  -22.3717  -10.9676   19.6164 H   0  0  0  0  0  0
  -21.2005   -7.6150   23.9716 H   0  0  0  0  0  0
  -21.1475   -6.0530   25.9080 H   0  0  0  0  0  0
  -22.0599   -2.7615   23.2855 H   0  0  0  0  0  0
  -22.4085  -11.9855   22.4793 H   0  0  0  0  0  0
  -21.1086  -13.1225   22.2632 H   0  0  0  0  0  0
  -24.6480  -15.8448   20.5149 H   0  0  0  0  0  0
  -26.2577  -15.6316   20.0549 H   0  0  0  0  0  0
  -26.7211  -32.5403   23.1056 H   0  0  0  0  0  0
  -25.0105  -33.9690   25.0395 H   0  0  0  0  0  0
  -22.7238  -31.2998   21.3910 H   0  0  0  0  0  0
  -23.3768  -35.9568   23.3276 H   0  0  0  0  0  0
  -24.3561  -36.8932   22.2063 H   0  0  0  0  0  0
  -23.7197  -37.6439   23.6698 H   0  0  0  0  0  0
  -26.1100  -31.5291   20.6048 H   0  0  0  0  0  0
  -26.8478  -30.8181   22.0085 H   0  0  0  0  0  0
  -28.1115  -28.9258   21.2074 H   0  0  0  0  0  0
  -25.9430  -25.8849   19.0286 H   0  0  0  0  0  0
  -23.9704  -27.2913   19.0162 H   0  0  0  0  0  0
  -23.7646  -30.5785   19.3971 H   0  0  0  0  0  0
  -22.7607  -29.2376   19.8551 H   0  0  0  0  0  0
  -25.1285  -36.1897   25.0813 H   0  0  0  0  0  0
  -20.9996  -28.3313   24.1383 H   0  0  0  0  0  0
  -20.5682  -26.2325   23.3625 H   0  0  0  0  0  0
  -21.6643  -26.7443   22.1213 H   0  0  0  0  0  0
  -19.6909  -25.6293   21.1253 H   0  0  0  0  0  0
  -19.6674  -27.3183   20.6740 H   0  0  0  0  0  0
  -17.4192  -26.6720   21.4017 H   0  0  0  0  0  0
  -18.0300  -26.0062   22.8999 H   0  0  0  0  0  0
  -19.7947  -30.7273   24.2279 H   0  0  0  0  0  0
  -17.5029  -31.6278   24.5167 H   0  0  0  0  0  0
  -15.5367  -30.3001   23.7651 H   0  0  0  0  0  0
  -15.8679  -28.0807   22.7116 H   0  0  0  0  0  0
  -24.5903  -30.7096   25.7745 H   0  0  0  0  0  0
  -24.8919  -32.2908   26.4854 H   0  0  0  0  0  0
  -25.8041  -30.8913   27.0216 H   0  0  0  0  0  0
  -26.2989  -29.6744   24.1254 H   0  0  0  0  0  0
  -27.4098  -29.7323   25.4745 H   0  0  0  0  0  0
  -27.8838  -30.4321   23.9451 H   0  0  0  0  0  0
  -27.2663  -33.3683   26.2020 H   0  0  0  0  0  0
  -28.3892  -32.6888   25.0348 H   0  0  0  0  0  0
  -28.0691  -31.8525   26.5464 H   0  0  0  0  0  0
  -28.2562  -38.0105   24.7578 H   0  0  0  0  0  0
  -28.1098  -36.2640   24.6209 H   0  0  0  0  0  0
  -27.2296  -37.1336   25.8864 H   0  0  0  0  0  0
  -20.9372  -29.8787   21.6859 H   0  0  0  0  0  0
  -26.0145  -38.2832   24.1487 H   0  0  0  0  0  0
  -32.3636  -17.0727   20.6308 H   0  0  0  0  0  0
  -28.1955  -18.2304   20.5664 H   0  0  0  0  0  0
  -33.7572  -19.0382   18.4554 H   0  0  0  0  0  0
  -34.8788  -20.2254   19.0999 H   0  0  0  0  0  0
  -33.2480  -20.7127   18.6332 H   0  0  0  0  0  0
  -30.2294  -22.5583   20.1572 H   0  0  0  0  0  0
  -29.0984  -22.3673   18.8565 H   0  0  0  0  0  0
  -27.7117  -24.9539   18.7488 H   0  0  0  0  0  0
  -29.4034  -25.0563   19.0343 H   0  0  0  0  0  0
  -33.9564  -18.8012   20.9319 H   0  0  0  0  0  0
  -28.8854  -15.7054   20.8091 H   0  0  0  0  0  0
  -27.7906  -20.8319   20.4979 H   0  0  0  0  0  0
  -32.6593  -21.3478   21.1628 H   0  0  0  0  0  0
  -34.3113  -21.2372   21.3011 H   0  0  0  0  0  0
  -33.3142  -20.4603   22.3528 H   0  0  0  0  0  0
  1 25  1  0  0  0
  1 30  2  0  0  0
  1 82  1  0  0  0
  2  3  1  0  0  0
  2 25  1  0  0  0
  2 86  1  0  0  0
  2 87  1  0  0  0
  3  4  1  0  0  0
  3 88  1  0  0  0
  3 89  1  0  0  0
  4  5  1  0  0  0
  4 90  1  0  0  0
  4 91  1  0  0  0
  5  6  1  0  0  0
  5 26  1  0  0  0
  5 92  1  0  0  0
  6 25  1  0  0  0
  6 93  1  0  0  0
  6 94  1  0  0  0
  7  8  2  0  0  0
  7 26  1  0  0  0
  7 29  1  0  0  0
  8  9  1  0  0  0
  8 22  1  0  0  0
  9 10  1  0  0  0
  9 27  2  0  0  0
 10 11  2  0  0  0
 10 15  1  0  0  0
 11 12  1  0  0  0
 11 95  1  0  0  0
 12 13  2  0  0  0
 12 96  1  0  0  0
 13 14  1  0  0  0
 13 31  1  0  0  0
 14 15  2  0  0  0
 14 97  1  0  0  0
 15 98  1  0  0  0
 16 17  2  0  0  0
 16 21  1  0  0  0
 16 31  1  0  0  0
 17 18  1  0  0  0
 17 99  1  0  0  0
 18 19  2  0  0  0
 18100  1  0  0  0
 19 20  1  0  0  0
 19 24  1  0  0  0
 20 21  2  0  0  0
 20101  1  0  0  0
 21 23  1  0  0  0
 22 28  1  0  0  0
 22 32  2  0  0  0
 26 27  1  0  0  0
 28102  1  0  0  0
 28103  1  0  0  0
 29104  1  0  0  0
 29105  1  0  0  0
 33 34  1  0  0  0
 33 66  1  0  0  0
 33 70  2  0  0  0
 34 36  1  0  0  0
 34 59  1  0  0  0
 34106  1  0  0  0
 35 44  2  0  0  0
 35 45  1  0  0  0
 35 68  1  0  0  0
 36 56  1  0  0  0
 36107  1  0  0  0
 37 39  1  0  0  0
 37 47  1  0  0  0
 37 66  1  0  0  0
 37108  1  0  0  0
 38 43  2  0  0  0
 38 46  1  0  0  0
 38 47  1  0  0  0
 39 64  1  0  0  0
 39 67  2  0  0  0
 40 52  1  0  0  0
 40 53  2  0  0  0
 40 58  1  0  0  0
 41109  1  0  0  0
 41110  1  0  0  0
 41111  1  0  0  0
 41 48  1  0  0  0
 42 43  1  0  0  0
 42 66  1  0  0  0
 42112  1  0  0  0
 42113  1  0  0  0
 43 44  1  0  0  0
 44114  1  0  0  0
 45 46  2  0  0  0
 45115  1  0  0  0
 46116  1  0  0  0
 47117  1  0  0  0
 47118  1  0  0  0
 48 56  1  0  0  0
 48 65  1  0  0  0
 48119  1  0  0  0
 49 50  1  0  0  0
 49 53  1  0  0  0
 49 64  1  0  0  0
 49120  1  0  0  0
 50 51  1  0  0  0
 50121  1  0  0  0
 50122  1  0  0  0
 51 52  1  0  0  0
 51123  1  0  0  0
 51124  1  0  0  0
 52125  1  0  0  0
 52126  1  0  0  0
 53 54  1  0  0  0
 54 55  2  0  0  0
 54127  1  0  0  0
 55 57  1  0  0  0
 55128  1  0  0  0
 56 69  2  0  0  0
 57 58  2  0  0  0
 57129  1  0  0  0
 58130  1  0  0  0
 59 60  1  0  0  0
 59 61  1  0  0  0
 59 62  1  0  0  0
 60131  1  0  0  0
 60132  1  0  0  0
 60133  1  0  0  0
 61134  1  0  0  0
 61135  1  0  0  0
 61136  1  0  0  0
 62137  1  0  0  0
 62138  1  0  0  0
 62139  1  0  0  0
 63 65  1  0  0  0
 63140  1  0  0  0
 63141  1  0  0  0
 63142  1  0  0  0
 64143  1  0  0  0
 65144  1  0  0  0
 68 79  1  0  0  0
 71 73  2  0  0  0
 71 74  1  0  0  0
 71145  1  0  0  0
 72 73  1  0  0  0
 72 75  2  0  0  0
 72146  1  0  0  0
 73 82  1  0  0  0
 74 80  1  0  0  0
 74 81  2  0  0  0
 75 81  1  0  0  0
 75 83  1  0  0  0
 76 78  1  0  0  0
 76 79  1  0  0  0
 76 85  2  0  0  0
 77147  1  0  0  0
 77148  1  0  0  0
 77149  1  0  0  0
 77 80  1  0  0  0
 78 83  1  0  0  0
 78150  1  0  0  0
 78151  1  0  0  0
 79152  1  0  0  0
 79153  1  0  0  0
 80 84  1  0  0  0
 80154  1  0  0  0
 82155  1  0  0  0
 83156  1  0  0  0
 84157  1  0  0  0
 84158  1  0  0  0
 84159  1  0  0  0
M  CHG  1  84   1
M  ISO  4   1 100  68 101  79 101  82 100
M  END
> <chiral flag>
0

> <version>
0

> <s_m_source_file>
/data/baiqing/PycharmProjects/Reinvent-master-3.2/result/LINK_invent/BTK/process_docking_weight1_custom_product_contain_oxygen_bond_distance_aromatic_linkinvent_7_9_3/rearranged_h_0159.sdf

> <i_m_source_file_index>
9

> <r_mmod_Potential_Energy-OPLS-2005>
-465.944305419922

> <r_mmod_Stretch_Energy-OPLS-2005>
123.93620300293

> <r_mmod_Bend_Energy-OPLS-2005>
183.198638916016

> <r_mmod_Torsional_Energy-OPLS-2005>
192.686798095703

> <r_mmod_Improper_Torsional_Energy-OPLS-2005>
6.14822769165039

> <r_mmod_Van_der_Waal_Energy-OPLS-2005>
149.846054077148

> <r_mmod_Electrostatic_Energy-OPLS-2005>
-685.172302246094

> <r_mmod_Solvation_Energy-OPLS-2005>
-519.625732421875

> <b_mmod_Minimization_Converged-OPLS-2005>
0

> <r_mmod_RMS_Derivative-OPLS-2005>
1.04643821716309

$$$$
9
                    3D
 Structure written by MMmdl.
157165  0  0  1  0            999 V2000
  -30.6202  -14.6426   20.4919 C   0  0  0  0  0  0
  -30.4346  -12.3922   19.4553 C   0  0  0  0  0  0
  -29.5063  -12.5060   18.2252 C   0  0  0  0  0  0
  -28.0288  -12.3435   18.6361 C   0  0  0  0  0  0
  -27.6509  -13.2164   19.8621 C   0  0  2  0  0  0
  -28.6941  -13.0773   20.9933 C   0  0  0  0  0  0
  -25.2549  -13.8166   20.5669 C   0  0  0  0  0  0
  -24.1821  -13.0435   20.9194 C   0  0  0  0  0  0
  -24.6383  -11.6903   20.8734 C   0  0  0  0  0  0
  -23.9047  -10.4289   21.0402 C   0  0  0  0  0  0
  -24.3605   -9.4205   21.9177 C   0  0  0  0  0  0
  -23.6287   -8.2235   22.0742 C   0  0  0  0  0  0
  -22.4268   -8.0272   21.3537 C   0  0  0  0  0  0
  -21.9898   -9.0241   20.4634 C   0  0  0  0  0  0
  -22.7221  -10.2122   20.3049 C   0  0  0  0  0  0
  -21.6850   -6.0730   22.5278 C   0  0  0  0  0  0
  -21.4013   -6.5630   23.8215 C   0  0  0  0  0  0
  -21.3662   -5.6780   24.9171 C   0  0  0  0  0  0
  -21.6051   -4.3044   24.7220 C   0  0  0  0  0  0
  -21.8827   -3.8140   23.4338 C   0  0  0  0  0  0
  -21.9191   -4.6959   22.3397 C   0  0  0  0  0  0
  -22.7844  -13.5229   21.1862 C   0  0  0  0  0  0
  -22.1658   -4.2148   21.0975 F   0  0  0  0  0  0
  -21.5633   -3.4524   25.7729 F   0  0  0  0  0  0
  -30.0087  -13.4179   20.4287 N   0  0  0  0  0  0
  -26.2968  -12.9343   20.3298 N   0  0  0  0  0  0
  -25.9312  -11.6498   20.5752 N   0  0  0  0  0  0
  -22.0485  -12.8210   22.0413 N   0  0  0  0  0  0
  -25.4258  -15.1882   20.4050 N   0  0  0  0  0  0
  -31.7935  -14.7787   20.1441 O   0  0  0  0  0  0
  -21.6633   -6.8868   21.4238 O   0  0  0  0  0  0
  -22.3530  -14.5537   20.6717 O   0  0  0  0  0  0
  -24.6264  -31.8599   23.2036 C   0  0  0  0  0  0
  -25.9113  -32.4780   23.8361 C   0  0  1  0  0  0
  -27.2213  -27.3203   20.1192 C   0  0  0  0  0  0
  -25.5934  -33.8581   24.2290 N   0  0  0  0  0  0
  -23.4204  -30.4849   21.5454 C   0  0  2  0  0  0
  -24.8675  -28.9417   20.1110 C   0  0  0  0  0  0
  -22.7476  -29.4628   22.4931 C   0  0  0  0  0  0
  -18.0286  -28.1388   22.8486 C   0  0  0  0  0  0
  -24.1488  -36.7290   23.2635 C   0  0  0  0  0  0
  -25.9619  -30.7914   21.3750 C   0  0  0  0  0  0
  -26.0366  -29.4192   20.7176 C   0  0  0  0  0  0
  -27.2195  -28.6206   20.7118 C   0  0  0  0  0  0
  -26.0351  -26.9034   19.4750 C   0  0  0  0  0  0
  -24.8687  -27.6891   19.4800 C   0  0  0  0  0  0
  -23.6360  -29.8218   20.1602 C   0  0  0  0  0  0
  -25.4109  -36.3082   24.0333 C   0  0  1  0  0  0
  -20.5888  -28.3691   23.1280 C   0  0  2  0  0  0
  -20.6774  -26.9415   22.5408 C   0  0  0  0  0  0
  -19.5749  -26.6387   21.5210 C   0  0  0  0  0  0
  -18.1931  -26.7928   22.1624 C   0  0  0  0  0  0
  -19.1541  -28.8855   23.2878 C   0  0  0  0  0  0
  -18.9462  -30.1456   23.8898 C   0  0  0  0  0  0
  -17.6461  -30.6586   24.0564 C   0  0  0  0  0  0
  -25.9051  -34.9453   23.5108 C   0  0  0  0  0  0
  -16.5352  -29.9089   23.6330 C   0  0  0  0  0  0
  -16.7272  -28.6508   23.0348 C   0  0  0  0  0  0
  -26.4500  -31.6583   25.0727 C   0  0  0  0  0  0
  -25.3743  -31.3714   26.1462 C   0  0  0  0  0  0
  -27.0334  -30.3004   24.6173 C   0  0  0  0  0  0
  -27.6066  -32.4312   25.7496 C   0  0  0  0  0  0
  -27.5583  -37.1790   24.8458 C   0  0  0  0  0  0
  -21.4189  -29.3050   22.3675 N   0  0  0  0  0  0
  -26.4281  -37.3783   23.9422 N   0  0  0  0  0  0
  -24.6883  -31.0616   22.0985 N   0  0  0  0  0  0
  -23.4198  -28.8161   23.3006 O   0  0  0  0  0  0
  -28.3208  -26.4514   20.1535 O   0  0  0  0  0  0
  -26.5615  -34.8920   22.4673 O   0  0  0  0  0  0
  -23.5427  -32.1399   23.7365 O   0  0  0  0  0  0
  -28.9704  -18.0333   21.2000 C   0  0  0  0  0  0
  -29.9152  -17.1554   20.5978 C   0  0  0  0  0  0
  -30.8142  -19.2321   19.6005 C   0  0  0  0  0  0
  -30.8488  -17.8114   19.7537 C   0  0  0  0  0  0
  -29.8166  -20.0088   20.2420 C   0  0  0  0  0  0
  -29.0566  -23.9317   20.1568 C   0  0  0  0  0  0
  -33.0864  -19.8498   18.9930 C   0  0  0  0  0  0
  -33.9776  -20.5090   17.9522 C   0  0  0  0  0  0
  -28.7828  -22.4213   20.5493 C   0  0  0  0  0  0
  -28.0247  -25.0536   20.5677 C   0  0  0  0  0  0
  -28.9071  -19.3939   21.0312 N   0  0  0  0  0  0
  -31.7671  -19.8709   18.7667 N   0  0  0  0  0  0
  -29.8144  -15.7022   20.8240 N   0  0  0  0  0  0
  -29.7855  -21.4285   20.0596 N   0  0  0  0  0  0
  -30.0793  -24.2163   19.5223 O   0  0  0  0  0  0
  -33.5868  -19.3432   19.9992 O   0  0  0  0  0  0
  -31.7425  -17.1031   19.0232 F   0  0  0  0  0  0
  -31.4765  -12.5137   19.1543 H   0  0  0  0  0  0
  -30.3663  -11.3975   19.8986 H   0  0  0  0  0  0
  -29.7724  -11.7539   17.4813 H   0  0  0  0  0  0
  -29.6482  -13.4750   17.7436 H   0  0  0  0  0  0
  -27.8658  -11.2899   18.8678 H   0  0  0  0  0  0
  -27.3750  -12.5722   17.7937 H   0  0  0  0  0  0
  -27.6684  -14.2510   19.5185 H   0  0  0  0  0  0
  -28.7061  -12.0578   21.3825 H   0  0  0  0  0  0
  -28.4386  -13.7152   21.8410 H   0  0  0  0  0  0
  -25.2749   -9.5682   22.4749 H   0  0  0  0  0  0
  -24.0004   -7.4621   22.7448 H   0  0  0  0  0  0
  -21.0836   -8.8752   19.8932 H   0  0  0  0  0  0
  -22.3681  -10.9657   19.6156 H   0  0  0  0  0  0
  -21.2008   -7.6140   23.9723 H   0  0  0  0  0  0
  -21.1479   -6.0500   25.9077 H   0  0  0  0  0  0
  -22.0611   -2.7601   23.2832 H   0  0  0  0  0  0
  -22.4089  -11.9864   22.4797 H   0  0  0  0  0  0
  -21.1110  -13.1242   22.2641 H   0  0  0  0  0  0
  -24.6491  -15.8341   20.4970 H   0  0  0  0  0  0
  -26.2538  -15.6190   20.0152 H   0  0  0  0  0  0
  -26.7184  -32.5454   23.1113 H   0  0  0  0  0  0
  -25.0095  -33.9724   25.0445 H   0  0  0  0  0  0
  -22.7151  -31.3061   21.4032 H   0  0  0  0  0  0
  -23.3760  -35.9611   23.3275 H   0  0  0  0  0  0
  -24.3587  -36.8929   22.2055 H   0  0  0  0  0  0
  -23.7224  -37.6479   23.6668 H   0  0  0  0  0  0
  -26.0922  -31.5551   20.6066 H   0  0  0  0  0  0
  -26.8428  -30.8408   22.0032 H   0  0  0  0  0  0
  -28.1162  -28.9814   21.1960 H   0  0  0  0  0  0
  -25.9916  -25.9559   18.9587 H   0  0  0  0  0  0
  -23.9765  -27.3228   18.9909 H   0  0  0  0  0  0
  -23.7572  -30.5996   19.4056 H   0  0  0  0  0  0
  -22.7562  -29.2523   19.8551 H   0  0  0  0  0  0
  -25.1283  -36.1929   25.0823 H   0  0  0  0  0  0
  -20.9982  -28.3265   24.1397 H   0  0  0  0  0  0
  -20.5673  -26.2302   23.3607 H   0  0  0  0  0  0
  -21.6641  -26.7442   22.1197 H   0  0  0  0  0  0
  -19.6908  -25.6298   21.1237 H   0  0  0  0  0  0
  -19.6684  -27.3202   20.6743 H   0  0  0  0  0  0
  -17.4198  -26.6675   21.4031 H   0  0  0  0  0  0
  -18.0336  -26.0073   22.9024 H   0  0  0  0  0  0
  -19.7937  -30.7273   24.2265 H   0  0  0  0  0  0
  -17.5016  -31.6269   24.5167 H   0  0  0  0  0  0
  -15.5353  -30.2993   23.7649 H   0  0  0  0  0  0
  -15.8674  -28.0831   22.7058 H   0  0  0  0  0  0
  -24.5918  -30.7063   25.7794 H   0  0  0  0  0  0
  -24.8941  -32.2879   26.4903 H   0  0  0  0  0  0
  -25.8081  -30.8884   27.0227 H   0  0  0  0  0  0
  -26.2898  -29.6762   24.1206 H   0  0  0  0  0  0
  -27.4037  -29.7254   25.4669 H   0  0  0  0  0  0
  -27.8771  -30.4284   23.9389 H   0  0  0  0  0  0
  -27.2681  -33.3616   26.2069 H   0  0  0  0  0  0
  -28.3880  -32.6860   25.0325 H   0  0  0  0  0  0
  -28.0730  -31.8438   26.5416 H   0  0  0  0  0  0
  -28.2564  -38.0122   24.7558 H   0  0  0  0  0  0
  -28.1112  -36.2657   24.6211 H   0  0  0  0  0  0
  -27.2312  -37.1347   25.8861 H   0  0  0  0  0  0
  -20.9365  -29.8783   21.6896 H   0  0  0  0  0  0
  -26.0159  -38.2847   24.1463 H   0  0  0  0  0  0
  -28.2052  -17.6221   21.8429 H   0  0  0  0  0  0
  -33.5452  -21.4452   17.6004 H   0  0  0  0  0  0
  -34.1116  -19.8439   17.0985 H   0  0  0  0  0  0
  -34.9603  -20.7254   18.3709 H   0  0  0  0  0  0
  -27.7989  -22.1441   20.1699 H   0  0  0  0  0  0
  -28.7247  -22.3561   21.6361 H   0  0  0  0  0  0
  -27.9433  -25.0409   21.6546 H   0  0  0  0  0  0
  -27.0587  -24.7177   20.1984 H   0  0  0  0  0  0
  -31.4227  -20.3851   17.9667 H   0  0  0  0  0  0
  -28.9319  -15.4052   21.2123 H   0  0  0  0  0  0
  -30.5341  -21.8411   19.5134 H   0  0  0  0  0  0
  1 25  1  0  0  0
  1 30  2  0  0  0
  1 83  1  0  0  0
  2  3  1  0  0  0
  2 25  1  0  0  0
  2 88  1  0  0  0
  2 89  1  0  0  0
  3  4  1  0  0  0
  3 90  1  0  0  0
  3 91  1  0  0  0
  4  5  1  0  0  0
  4 92  1  0  0  0
  4 93  1  0  0  0
  5  6  1  0  0  0
  5 26  1  0  0  0
  5 94  1  0  0  0
  6 25  1  0  0  0
  6 95  1  0  0  0
  6 96  1  0  0  0
  7  8  2  0  0  0
  7 26  1  0  0  0
  7 29  1  0  0  0
  8  9  1  0  0  0
  8 22  1  0  0  0
  9 10  1  0  0  0
  9 27  2  0  0  0
 10 11  2  0  0  0
 10 15  1  0  0  0
 11 12  1  0  0  0
 11 97  1  0  0  0
 12 13  2  0  0  0
 12 98  1  0  0  0
 13 14  1  0  0  0
 13 31  1  0  0  0
 14 15  2  0  0  0
 14 99  1  0  0  0
 15100  1  0  0  0
 16 17  2  0  0  0
 16 21  1  0  0  0
 16 31  1  0  0  0
 17 18  1  0  0  0
 17101  1  0  0  0
 18 19  2  0  0  0
 18102  1  0  0  0
 19 20  1  0  0  0
 19 24  1  0  0  0
 20 21  2  0  0  0
 20103  1  0  0  0
 21 23  1  0  0  0
 22 28  1  0  0  0
 22 32  2  0  0  0
 26 27  1  0  0  0
 28104  1  0  0  0
 28105  1  0  0  0
 29106  1  0  0  0
 29107  1  0  0  0
 33 34  1  0  0  0
 33 66  1  0  0  0
 33 70  2  0  0  0
 34 36  1  0  0  0
 34 59  1  0  0  0
 34108  1  0  0  0
 35 44  2  0  0  0
 35 45  1  0  0  0
 35 68  1  0  0  0
 36 56  1  0  0  0
 36109  1  0  0  0
 37 39  1  0  0  0
 37 47  1  0  0  0
 37 66  1  0  0  0
 37110  1  0  0  0
 38 43  2  0  0  0
 38 46  1  0  0  0
 38 47  1  0  0  0
 39 64  1  0  0  0
 39 67  2  0  0  0
 40 52  1  0  0  0
 40 53  2  0  0  0
 40 58  1  0  0  0
 41111  1  0  0  0
 41112  1  0  0  0
 41113  1  0  0  0
 41 48  1  0  0  0
 42 43  1  0  0  0
 42 66  1  0  0  0
 42114  1  0  0  0
 42115  1  0  0  0
 43 44  1  0  0  0
 44116  1  0  0  0
 45 46  2  0  0  0
 45117  1  0  0  0
 46118  1  0  0  0
 47119  1  0  0  0
 47120  1  0  0  0
 48 56  1  0  0  0
 48 65  1  0  0  0
 48121  1  0  0  0
 49 50  1  0  0  0
 49 53  1  0  0  0
 49 64  1  0  0  0
 49122  1  0  0  0
 50 51  1  0  0  0
 50123  1  0  0  0
 50124  1  0  0  0
 51 52  1  0  0  0
 51125  1  0  0  0
 51126  1  0  0  0
 52127  1  0  0  0
 52128  1  0  0  0
 53 54  1  0  0  0
 54 55  2  0  0  0
 54129  1  0  0  0
 55 57  1  0  0  0
 55130  1  0  0  0
 56 69  2  0  0  0
 57 58  2  0  0  0
 57131  1  0  0  0
 58132  1  0  0  0
 59 60  1  0  0  0
 59 61  1  0  0  0
 59 62  1  0  0  0
 60133  1  0  0  0
 60134  1  0  0  0
 60135  1  0  0  0
 61136  1  0  0  0
 61137  1  0  0  0
 61138  1  0  0  0
 62139  1  0  0  0
 62140  1  0  0  0
 62141  1  0  0  0
 63 65  1  0  0  0
 63142  1  0  0  0
 63143  1  0  0  0
 63144  1  0  0  0
 64145  1  0  0  0
 65146  1  0  0  0
 68 80  1  0  0  0
 71 72  2  0  0  0
 71 81  1  0  0  0
 71147  1  0  0  0
 72 74  1  0  0  0
 72 83  1  0  0  0
 73 74  2  0  0  0
 73 75  1  0  0  0
 73 82  1  0  0  0
 74 87  1  0  0  0
 75 81  2  0  0  0
 75 84  1  0  0  0
 76 79  1  0  0  0
 76 80  1  0  0  0
 76 85  2  0  0  0
 77 78  1  0  0  0
 77 82  1  0  0  0
 77 86  2  0  0  0
 78148  1  0  0  0
 78149  1  0  0  0
 78150  1  0  0  0
 79 84  1  0  0  0
 79151  1  0  0  0
 79152  1  0  0  0
 80153  1  0  0  0
 80154  1  0  0  0
 82155  1  0  0  0
 83156  1  0  0  0
 84157  1  0  0  0
M  ISO  4   1 100  68 101  80 101  83 100
M  END
> <chiral flag>
0

> <version>
0

> <s_m_source_file>
/data/baiqing/PycharmProjects/Reinvent-master-3.2/result/LINK_invent/BTK/process_docking_weight1_custom_product_contain_oxygen_bond_distance_aromatic_linkinvent_7_9_3/rearranged_h_0159.sdf

> <i_m_source_file_index>
10

> <r_mmod_Potential_Energy-OPLS-2005>
-353.983245849609

> <r_mmod_Stretch_Energy-OPLS-2005>
78.1399841308594

> <r_mmod_Bend_Energy-OPLS-2005>
147.236297607422

> <r_mmod_Torsional_Energy-OPLS-2005>
249.095520019531

> <r_mmod_Improper_Torsional_Energy-OPLS-2005>
3.94424390792847

> <r_mmod_Van_der_Waal_Energy-OPLS-2005>
154.013793945312

> <r_mmod_Electrostatic_Energy-OPLS-2005>
-751.794250488281

> <r_mmod_Solvation_Energy-OPLS-2005>
-284.837860107422

> <b_mmod_Minimization_Converged-OPLS-2005>
0

> <r_mmod_RMS_Derivative-OPLS-2005>
0.974606394767761

$$$$
10
                    3D
 Structure written by MMmdl.
164172  0  0  1  0            999 V2000
  -30.6355  -14.5581   20.4444 C   0  0  0  0  0  0
  -30.4288  -12.3212   19.4433 C   0  0  0  0  0  0
  -29.5058  -12.4881   18.2153 C   0  0  0  0  0  0
  -28.0244  -12.3437   18.6202 C   0  0  0  0  0  0
  -27.6555  -13.2031   19.8598 C   0  0  2  0  0  0
  -28.6981  -13.0445   20.9857 C   0  0  0  0  0  0
  -25.2665  -13.8148   20.5828 C   0  0  0  0  0  0
  -24.1832  -13.0428   20.9086 C   0  0  0  0  0  0
  -24.6377  -11.6889   20.8632 C   0  0  0  0  0  0
  -23.9042  -10.4290   21.0348 C   0  0  0  0  0  0
  -24.3600   -9.4221   21.9138 C   0  0  0  0  0  0
  -23.6273   -8.2256   22.0729 C   0  0  0  0  0  0
  -22.4252   -8.0287   21.3525 C   0  0  0  0  0  0
  -21.9882   -9.0251   20.4619 C   0  0  0  0  0  0
  -22.7214  -10.2128   20.3009 C   0  0  0  0  0  0
  -21.6846   -6.0735   22.5267 C   0  0  0  0  0  0
  -21.4009   -6.5630   23.8204 C   0  0  0  0  0  0
  -21.3668   -5.6776   24.9162 C   0  0  0  0  0  0
  -21.6059   -4.3045   24.7206 C   0  0  0  0  0  0
  -21.8813   -3.8142   23.4320 C   0  0  0  0  0  0
  -21.9183   -4.6965   22.3384 C   0  0  0  0  0  0
  -22.7881  -13.5259   21.1798 C   0  0  0  0  0  0
  -22.1638   -4.2153   21.0961 F   0  0  0  0  0  0
  -21.5654   -3.4525   25.7719 F   0  0  0  0  0  0
  -30.0265  -13.3385   20.4287 N   0  0  0  0  0  0
  -26.3017  -12.9282   20.3324 N   0  0  0  0  0  0
  -25.9297  -11.6445   20.5658 N   0  0  0  0  0  0
  -22.0490  -12.8220   22.0315 N   0  0  0  0  0  0
  -25.4704  -15.1882   20.4841 N   0  0  0  0  0  0
  -31.8309  -14.6562   20.1523 O   0  0  0  0  0  0
  -21.6623   -6.8876   21.4227 O   0  0  0  0  0  0
  -22.3635  -14.5627   20.6740 O   0  0  0  0  0  0
  -24.6188  -31.8660   23.2085 C   0  0  0  0  0  0
  -25.9075  -32.4809   23.8387 C   0  0  1  0  0  0
  -27.2288  -27.4054   20.0992 C   0  0  0  0  0  0
  -25.5912  -33.8609   24.2315 N   0  0  0  0  0  0
  -23.4083  -30.4904   21.5494 C   0  0  2  0  0  0
  -24.8545  -28.9574   20.1124 C   0  0  0  0  0  0
  -22.7427  -29.4662   22.4973 C   0  0  0  0  0  0
  -18.0279  -28.1395   22.8492 C   0  0  0  0  0  0
  -24.1487  -36.7308   23.2634 C   0  0  0  0  0  0
  -25.9413  -30.8242   21.3656 C   0  0  0  0  0  0
  -26.0194  -29.4581   20.7090 C   0  0  0  0  0  0
  -27.2132  -28.6919   20.6951 C   0  0  0  0  0  0
  -26.0502  -26.9393   19.4756 C   0  0  0  0  0  0
  -24.8670  -27.6992   19.4892 C   0  0  0  0  0  0
  -23.6165  -29.8248   20.1642 C   0  0  0  0  0  0
  -25.4110  -36.3102   24.0332 C   0  0  1  0  0  0
  -20.5868  -28.3685   23.1303 C   0  0  2  0  0  0
  -20.6770  -26.9417   22.5412 C   0  0  0  0  0  0
  -19.5747  -26.6398   21.5209 C   0  0  0  0  0  0
  -18.1921  -26.7944   22.1615 C   0  0  0  0  0  0
  -19.1529  -28.8859   23.2892 C   0  0  0  0  0  0
  -18.9455  -30.1462   23.8908 C   0  0  0  0  0  0
  -17.6455  -30.6594   24.0574 C   0  0  0  0  0  0
  -25.9042  -34.9468   23.5120 C   0  0  0  0  0  0
  -16.5348  -29.9097   23.6332 C   0  0  0  0  0  0
  -16.7268  -28.6515   23.0352 C   0  0  0  0  0  0
  -26.4490  -31.6594   25.0724 C   0  0  0  0  0  0
  -25.3756  -31.3716   26.1473 C   0  0  0  0  0  0
  -27.0301  -30.3019   24.6127 C   0  0  0  0  0  0
  -27.6066  -32.4309   25.7486 C   0  0  0  0  0  0
  -27.5585  -37.1806   24.8461 C   0  0  0  0  0  0
  -21.4151  -29.3050   22.3708 N   0  0  0  0  0  0
  -26.4291  -37.3789   23.9416 N   0  0  0  0  0  0
  -24.6748  -31.0740   22.0999 N   0  0  0  0  0  0
  -23.4181  -28.8201   23.3027 O   0  0  0  0  0  0
  -28.3530  -26.5972   20.1274 O   0  0  0  0  0  0
  -26.5600  -34.8926   22.4680 O   0  0  0  0  0  0
  -23.5368  -32.1422   23.7456 O   0  0  0  0  0  0
  -28.0380  -19.8446   19.6529 C   0  0  0  0  0  0
  -28.2122  -18.4336   19.5632 C   0  0  0  0  0  0
  -29.4045  -18.0694   20.1483 C   0  0  0  0  0  0
  -29.1933  -20.2892   20.2265 C   0  0  0  0  0  0
  -30.1879  -16.8332   20.3538 C   0  0  0  0  0  0
  -29.0643  -24.1651   20.2912 C   0  0  0  0  0  0
  -26.8563  -17.8595   17.6098 C   0  0  0  0  0  0
  -24.4506  -17.2942   17.6784 C   0  0  0  0  0  0
  -26.1820  -15.5559   16.9290 C   0  0  0  0  0  0
  -28.5593  -22.7091   20.4960 C   0  0  0  0  0  0
  -28.1038  -25.2991   20.7350 C   0  0  0  0  0  0
  -25.7780  -17.0346   16.9588 C   0  0  0  0  0  0
  -29.7397  -15.6405   20.5623 N   0  0  0  0  0  0
  -27.2758  -17.5746   18.8704 N   0  0  0  0  0  0
  -29.5711  -21.6309   20.4288 N   0  0  0  0  0  0
  -27.3755  -18.8661   16.8814 N   0  3  0  0  0  0
  -30.1839  -24.3951   19.8198 O   0  0  0  0  0  0
  -30.0328  -19.2440   20.5382 O   0  0  0  0  0  0
  -31.4754  -12.4113   19.1472 H   0  0  0  0  0  0
  -30.3247  -11.3213   19.8687 H   0  0  0  0  0  0
  -29.7587  -11.7488   17.4549 H   0  0  0  0  0  0
  -29.6677  -13.4652   17.7567 H   0  0  0  0  0  0
  -27.8445  -11.2895   18.8347 H   0  0  0  0  0  0
  -27.3766  -12.5959   17.7795 H   0  0  0  0  0  0
  -27.6800  -14.2397   19.5283 H   0  0  0  0  0  0
  -28.6808  -12.0306   21.3872 H   0  0  0  0  0  0
  -28.4650  -13.7060   21.8223 H   0  0  0  0  0  0
  -25.2767   -9.5700   22.4677 H   0  0  0  0  0  0
  -23.9983   -7.4648   22.7445 H   0  0  0  0  0  0
  -21.0817   -8.8780   19.8915 H   0  0  0  0  0  0
  -22.3687  -10.9643   19.6080 H   0  0  0  0  0  0
  -21.1972   -7.6133   23.9710 H   0  0  0  0  0  0
  -21.1506   -6.0496   25.9071 H   0  0  0  0  0  0
  -22.0577   -2.7608   23.2808 H   0  0  0  0  0  0
  -22.4044  -11.9797   22.4599 H   0  0  0  0  0  0
  -21.1130  -13.1280   22.2566 H   0  0  0  0  0  0
  -24.6958  -15.7409   20.8338 H   0  0  0  0  0  0
  -26.3345  -15.4653   20.9319 H   0  0  0  0  0  0
  -26.7153  -32.5509   23.1149 H   0  0  0  0  0  0
  -25.0085  -33.9772   25.0477 H   0  0  0  0  0  0
  -22.6998  -31.3092   21.4100 H   0  0  0  0  0  0
  -23.3757  -35.9629   23.3273 H   0  0  0  0  0  0
  -24.3583  -36.8949   22.2053 H   0  0  0  0  0  0
  -23.7223  -37.6495   23.6673 H   0  0  0  0  0  0
  -26.0584  -31.5920   20.5992 H   0  0  0  0  0  0
  -26.8268  -30.8750   21.9875 H   0  0  0  0  0  0
  -28.1107  -29.0706   21.1637 H   0  0  0  0  0  0
  -26.0362  -25.9791   18.9794 H   0  0  0  0  0  0
  -23.9754  -27.3119   19.0156 H   0  0  0  0  0  0
  -23.7239  -30.6002   19.4047 H   0  0  0  0  0  0
  -22.7392  -29.2453   19.8683 H   0  0  0  0  0  0
  -25.1285  -36.1960   25.0823 H   0  0  0  0  0  0
  -20.9964  -28.3267   24.1423 H   0  0  0  0  0  0
  -20.5679  -26.2300   23.3610 H   0  0  0  0  0  0
  -21.6645  -26.7463   22.1209 H   0  0  0  0  0  0
  -19.6910  -25.6305   21.1249 H   0  0  0  0  0  0
  -19.6686  -27.3213   20.6743 H   0  0  0  0  0  0
  -17.4189  -26.6704   21.4010 H   0  0  0  0  0  0
  -18.0312  -26.0080   22.9008 H   0  0  0  0  0  0
  -19.7925  -30.7287   24.2279 H   0  0  0  0  0  0
  -17.5004  -31.6274   24.5177 H   0  0  0  0  0  0
  -15.5349  -30.3002   23.7657 H   0  0  0  0  0  0
  -15.8665  -28.0843   22.7060 H   0  0  0  0  0  0
  -24.5902  -30.7095   25.7811 H   0  0  0  0  0  0
  -24.8986  -32.2880   26.4957 H   0  0  0  0  0  0
  -25.8104  -30.8848   27.0211 H   0  0  0  0  0  0
  -26.2833  -29.6789   24.1188 H   0  0  0  0  0  0
  -27.4044  -29.7256   25.4599 H   0  0  0  0  0  0
  -27.8692  -30.4302   23.9285 H   0  0  0  0  0  0
  -27.2701  -33.3622   26.2053 H   0  0  0  0  0  0
  -28.3886  -32.6843   25.0316 H   0  0  0  0  0  0
  -28.0723  -31.8437   26.5411 H   0  0  0  0  0  0
  -28.2595  -38.0114   24.7523 H   0  0  0  0  0  0
  -28.1090  -36.2642   24.6265 H   0  0  0  0  0  0
  -27.2306  -37.1435   25.8865 H   0  0  0  0  0  0
  -20.9321  -29.8764   21.6915 H   0  0  0  0  0  0
  -26.0176  -38.2863   24.1427 H   0  0  0  0  0  0
  -27.2094  -20.4362   19.2916 H   0  0  0  0  0  0
  -31.2654  -17.0134   20.2758 H   0  0  0  0  0  0
  -23.6320  -16.7666   17.1899 H   0  0  0  0  0  0
  -24.2140  -18.3581   17.6668 H   0  0  0  0  0  0
  -24.4834  -16.9751   18.7186 H   0  0  0  0  0  0
  -27.1943  -15.4406   16.5428 H   0  0  0  0  0  0
  -25.5098  -14.9894   16.2846 H   0  0  0  0  0  0
  -26.1420  -15.1022   17.9146 H   0  0  0  0  0  0
  -27.7835  -22.5389   19.7506 H   0  0  0  0  0  0
  -28.0676  -22.6603   21.4683 H   0  0  0  0  0  0
  -28.1983  -25.4078   21.8154 H   0  0  0  0  0  0
  -27.0900  -24.9452   20.5541 H   0  0  0  0  0  0
  -25.6615  -17.3644   15.9248 H   0  0  0  0  0  0
  -27.0699  -16.6428   19.2091 H   0  0  0  0  0  0
  -30.4803  -21.8678   20.8185 H   0  0  0  0  0  0
  -27.0423  -19.0474   15.9435 H   0  0  0  0  0  0
  -28.1261  -19.4488   17.2182 H   0  0  0  0  0  0
  1 25  1  0  0  0
  1 30  2  0  0  0
  1 83  1  0  0  0
  2  3  1  0  0  0
  2 25  1  0  0  0
  2 89  1  0  0  0
  2 90  1  0  0  0
  3  4  1  0  0  0
  3 91  1  0  0  0
  3 92  1  0  0  0
  4  5  1  0  0  0
  4 93  1  0  0  0
  4 94  1  0  0  0
  5  6  1  0  0  0
  5 26  1  0  0  0
  5 95  1  0  0  0
  6 25  1  0  0  0
  6 96  1  0  0  0
  6 97  1  0  0  0
  7  8  2  0  0  0
  7 26  1  0  0  0
  7 29  1  0  0  0
  8  9  1  0  0  0
  8 22  1  0  0  0
  9 10  1  0  0  0
  9 27  2  0  0  0
 10 11  2  0  0  0
 10 15  1  0  0  0
 11 12  1  0  0  0
 11 98  1  0  0  0
 12 13  2  0  0  0
 12 99  1  0  0  0
 13 14  1  0  0  0
 13 31  1  0  0  0
 14 15  2  0  0  0
 14100  1  0  0  0
 15101  1  0  0  0
 16 17  2  0  0  0
 16 21  1  0  0  0
 16 31  1  0  0  0
 17 18  1  0  0  0
 17102  1  0  0  0
 18 19  2  0  0  0
 18103  1  0  0  0
 19 20  1  0  0  0
 19 24  1  0  0  0
 20 21  2  0  0  0
 20104  1  0  0  0
 21 23  1  0  0  0
 22 28  1  0  0  0
 22 32  2  0  0  0
 26 27  1  0  0  0
 28105  1  0  0  0
 28106  1  0  0  0
 29107  1  0  0  0
 29108  1  0  0  0
 33 34  1  0  0  0
 33 66  1  0  0  0
 33 70  2  0  0  0
 34 36  1  0  0  0
 34 59  1  0  0  0
 34109  1  0  0  0
 35 44  2  0  0  0
 35 45  1  0  0  0
 35 68  1  0  0  0
 36 56  1  0  0  0
 36110  1  0  0  0
 37 39  1  0  0  0
 37 47  1  0  0  0
 37 66  1  0  0  0
 37111  1  0  0  0
 38 43  2  0  0  0
 38 46  1  0  0  0
 38 47  1  0  0  0
 39 64  1  0  0  0
 39 67  2  0  0  0
 40 52  1  0  0  0
 40 53  2  0  0  0
 40 58  1  0  0  0
 41112  1  0  0  0
 41113  1  0  0  0
 41114  1  0  0  0
 41 48  1  0  0  0
 42 43  1  0  0  0
 42 66  1  0  0  0
 42115  1  0  0  0
 42116  1  0  0  0
 43 44  1  0  0  0
 44117  1  0  0  0
 45 46  2  0  0  0
 45118  1  0  0  0
 46119  1  0  0  0
 47120  1  0  0  0
 47121  1  0  0  0
 48 56  1  0  0  0
 48 65  1  0  0  0
 48122  1  0  0  0
 49 50  1  0  0  0
 49 53  1  0  0  0
 49 64  1  0  0  0
 49123  1  0  0  0
 50 51  1  0  0  0
 50124  1  0  0  0
 50125  1  0  0  0
 51 52  1  0  0  0
 51126  1  0  0  0
 51127  1  0  0  0
 52128  1  0  0  0
 52129  1  0  0  0
 53 54  1  0  0  0
 54 55  2  0  0  0
 54130  1  0  0  0
 55 57  1  0  0  0
 55131  1  0  0  0
 56 69  2  0  0  0
 57 58  2  0  0  0
 57132  1  0  0  0
 58133  1  0  0  0
 59 60  1  0  0  0
 59 61  1  0  0  0
 59 62  1  0  0  0
 60134  1  0  0  0
 60135  1  0  0  0
 60136  1  0  0  0
 61137  1  0  0  0
 61138  1  0  0  0
 61139  1  0  0  0
 62140  1  0  0  0
 62141  1  0  0  0
 62142  1  0  0  0
 63 65  1  0  0  0
 63143  1  0  0  0
 63144  1  0  0  0
 63145  1  0  0  0
 64146  1  0  0  0
 65147  1  0  0  0
 68 81  1  0  0  0
 71 72  1  0  0  0
 71 74  2  0  0  0
 71148  1  0  0  0
 72 73  2  0  0  0
 72 84  1  0  0  0
 73 75  1  0  0  0
 73 88  1  0  0  0
 74 85  1  0  0  0
 74 88  1  0  0  0
 75 83  2  0  0  0
 75149  1  0  0  0
 76 80  1  0  0  0
 76 81  1  0  0  0
 76 87  2  0  0  0
 77 82  1  0  0  0
 77 84  1  0  0  0
 77 86  2  0  0  0
 78150  1  0  0  0
 78151  1  0  0  0
 78152  1  0  0  0
 78 82  1  0  0  0
 79 82  1  0  0  0
 79153  1  0  0  0
 79154  1  0  0  0
 79155  1  0  0  0
 80 85  1  0  0  0
 80156  1  0  0  0
 80157  1  0  0  0
 81158  1  0  0  0
 81159  1  0  0  0
 82160  1  0  0  0
 84161  1  0  0  0
 85162  1  0  0  0
 86163  1  0  0  0
 86164  1  0  0  0
M  CHG  1  86   1
M  ISO  4   1 100  68 101  81 101  83 100
M  END
> <chiral flag>
0

> <version>
0

> <s_m_source_file>
/data/baiqing/PycharmProjects/Reinvent-master-3.2/result/LINK_invent/BTK/process_docking_weight1_custom_product_contain_oxygen_bond_distance_aromatic_linkinvent_7_9_3/rearranged_h_0159.sdf

> <i_m_source_file_index>
11

> <r_mmod_Potential_Energy-OPLS-2005>
-108.839477539062

> <r_mmod_Stretch_Energy-OPLS-2005>
48.6345863342285

> <r_mmod_Bend_Energy-OPLS-2005>
121.606941223145

> <r_mmod_Torsional_Energy-OPLS-2005>
217.577056884766

> <r_mmod_Improper_Torsional_Energy-OPLS-2005>
13.5040855407715

> <r_mmod_Van_der_Waal_Energy-OPLS-2005>
131.303024291992

> <r_mmod_Electrostatic_Energy-OPLS-2005>
-226.795104980469

> <r_mmod_Solvation_Energy-OPLS-2005>
-443.473388671875

> <b_mmod_Minimization_Converged-OPLS-2005>
0

> <r_mmod_RMS_Derivative-OPLS-2005>
1.81382918357849

$$$$
11
                    3D
 Structure written by MMmdl.
149157  0  0  1  0            999 V2000
  -30.5833  -14.8225   20.4132 C   0  0  0  0  0  0
  -30.4317  -12.4916   19.4981 C   0  0  0  0  0  0
  -29.5183  -12.5155   18.2504 C   0  0  0  0  0  0
  -28.0413  -12.3425   18.6524 C   0  0  0  0  0  0
  -27.6394  -13.2466   19.8488 C   0  0  2  0  0  0
  -28.6805  -13.2099   20.9888 C   0  0  0  0  0  0
  -25.2478  -13.8255   20.5680 C   0  0  0  0  0  0
  -24.1768  -13.0482   20.9186 C   0  0  0  0  0  0
  -24.6388  -11.6968   20.8743 C   0  0  0  0  0  0
  -23.9077  -10.4328   21.0412 C   0  0  0  0  0  0
  -24.3636   -9.4237   21.9185 C   0  0  0  0  0  0
  -23.6308   -8.2270   22.0766 C   0  0  0  0  0  0
  -22.4286   -8.0295   21.3556 C   0  0  0  0  0  0
  -21.9922   -9.0271   20.4657 C   0  0  0  0  0  0
  -22.7254  -10.2152   20.3057 C   0  0  0  0  0  0
  -21.6865   -6.0735   22.5270 C   0  0  0  0  0  0
  -21.4025   -6.5635   23.8206 C   0  0  0  0  0  0
  -21.3658   -5.6786   24.9167 C   0  0  0  0  0  0
  -21.6047   -4.3053   24.7216 C   0  0  0  0  0  0
  -21.8823   -3.8140   23.4339 C   0  0  0  0  0  0
  -21.9197   -4.6961   22.3394 C   0  0  0  0  0  0
  -22.7780  -13.5255   21.1816 C   0  0  0  0  0  0
  -22.1670   -4.2149   21.0974 F   0  0  0  0  0  0
  -21.5623   -3.4535   25.7731 F   0  0  0  0  0  0
  -29.9826  -13.5728   20.4127 N   0  0  0  0  0  0
  -26.2924  -12.9488   20.3273 N   0  0  0  0  0  0
  -25.9331  -11.6618   20.5751 N   0  0  0  0  0  0
  -22.0411  -12.8274   22.0384 N   0  0  0  0  0  0
  -25.4159  -15.1997   20.4142 N   0  0  0  0  0  0
  -31.7549  -14.9153   20.0341 O   0  0  0  0  0  0
  -21.6650   -6.8887   21.4245 O   0  0  0  0  0  0
  -22.3458  -14.5520   20.6604 O   0  0  0  0  0  0
  -24.6364  -31.8485   23.1962 C   0  0  0  0  0  0
  -25.9173  -32.4708   23.8316 C   0  0  1  0  0  0
  -27.2143  -27.2097   20.1354 C   0  0  0  0  0  0
  -25.5959  -33.8521   24.2225 N   0  0  0  0  0  0
  -23.4362  -30.4761   21.5380 C   0  0  2  0  0  0
  -24.8831  -28.9193   20.1068 C   0  0  0  0  0  0
  -22.7542  -29.4587   22.4861 C   0  0  0  0  0  0
  -18.0305  -28.1401   22.8481 C   0  0  0  0  0  0
  -24.1486  -36.7277   23.2641 C   0  0  0  0  0  0
  -25.9874  -30.7471   21.3860 C   0  0  0  0  0  0
  -26.0573  -29.3668   20.7258 C   0  0  0  0  0  0
  -27.2229  -28.5247   20.7296 C   0  0  0  0  0  0
  -26.0176  -26.8510   19.4708 C   0  0  0  0  0  0
  -24.8719  -27.6722   19.4673 C   0  0  0  0  0  0
  -23.6587  -29.8144   20.1528 C   0  0  0  0  0  0
  -25.4111  -36.3044   24.0316 C   0  0  1  0  0  0
  -20.5910  -28.3716   23.1247 C   0  0  2  0  0  0
  -20.6797  -26.9428   22.5410 C   0  0  0  0  0  0
  -19.5771  -26.6381   21.5224 C   0  0  0  0  0  0
  -18.1947  -26.7939   22.1621 C   0  0  0  0  0  0
  -19.1563  -28.8879   23.2853 C   0  0  0  0  0  0
  -18.9480  -30.1470   23.8885 C   0  0  0  0  0  0
  -17.6480  -30.6596   24.0577 C   0  0  0  0  0  0
  -25.9053  -34.9418   23.5061 C   0  0  0  0  0  0
  -16.5370  -29.9099   23.6338 C   0  0  0  0  0  0
  -16.7290  -28.6519   23.0355 C   0  0  0  0  0  0
  -26.4531  -31.6568   25.0735 C   0  0  0  0  0  0
  -25.3738  -31.3778   26.1454 C   0  0  0  0  0  0
  -27.0403  -30.2970   24.6283 C   0  0  0  0  0  0
  -27.6036  -32.4353   25.7540 C   0  0  0  0  0  0
  -27.5575  -37.1796   24.8459 C   0  0  0  0  0  0
  -21.4244  -29.3053   22.3627 N   0  0  0  0  0  0
  -26.4276  -37.3755   23.9409 N   0  0  0  0  0  0
  -24.7061  -31.0427   22.0956 N   0  0  0  0  0  0
  -23.4222  -28.8109   23.2961 O   0  0  0  0  0  0
  -28.2863  -26.2696   20.2225 O   0  0  0  0  0  0
  -26.5618  -34.8906   22.4622 O   0  0  0  0  0  0
  -23.5501  -32.1336   23.7220 O   0  0  0  0  0  0
  -29.7359  -19.1021   18.8651 C   0  0  0  0  0  0
  -29.9168  -17.6707   18.9377 C   0  0  0  0  0  0
  -29.5812  -19.6240   20.1286 C   0  0  0  0  0  0
  -29.8667  -17.2972   20.2569 C   0  0  0  0  0  0
  -29.5245  -21.0415   20.6997 C   0  0  0  0  0  0
  -28.9844  -23.6431   20.5818 C   0  0  0  0  0  0
  -28.0507  -24.7876   19.9121 C   0  0  0  0  0  0
  -29.8295  -15.9603   20.7324 N   0  0  0  0  0  0
  -28.9225  -22.1896   20.1324 N   0  0  0  0  0  0
  -30.1844  -21.1578   21.8628 N   0  3  0  0  0  0
  -29.7430  -23.9461   21.5138 O   0  0  0  0  0  0
  -29.6382  -18.4897   20.9995 O   0  0  0  0  0  0
  -31.4764  -12.6080   19.2036 H   0  0  0  0  0  0
  -30.3718  -11.5247   19.9995 H   0  0  0  0  0  0
  -29.8077  -11.7288   17.5512 H   0  0  0  0  0  0
  -29.6467  -13.4597   17.7202 H   0  0  0  0  0  0
  -27.8947  -11.2941   18.9122 H   0  0  0  0  0  0
  -27.3913  -12.5391   17.7988 H   0  0  0  0  0  0
  -27.6264  -14.2650   19.4609 H   0  0  0  0  0  0
  -28.7203  -12.2231   21.4527 H   0  0  0  0  0  0
  -28.3993  -13.9086   21.7782 H   0  0  0  0  0  0
  -25.2794   -9.5709   22.4739 H   0  0  0  0  0  0
  -24.0024   -7.4675   22.7496 H   0  0  0  0  0  0
  -21.0850   -8.8798   19.8970 H   0  0  0  0  0  0
  -22.3731  -10.9684   19.6148 H   0  0  0  0  0  0
  -21.2026   -7.6148   23.9724 H   0  0  0  0  0  0
  -21.1473   -6.0504   25.9074 H   0  0  0  0  0  0
  -22.0602   -2.7600   23.2833 H   0  0  0  0  0  0
  -22.4029  -11.9989   22.4855 H   0  0  0  0  0  0
  -21.1013  -13.1287   22.2511 H   0  0  0  0  0  0
  -24.6442  -15.8519   20.5063 H   0  0  0  0  0  0
  -26.2697  -15.6457   20.1027 H   0  0  0  0  0  0
  -26.7236  -32.5330   23.1056 H   0  0  0  0  0  0
  -25.0188  -33.9642   25.0427 H   0  0  0  0  0  0
  -22.7366  -31.3016   21.3917 H   0  0  0  0  0  0
  -23.3736  -35.9624   23.3281 H   0  0  0  0  0  0
  -24.3595  -36.8920   22.2066 H   0  0  0  0  0  0
  -23.7254  -37.6474   23.6683 H   0  0  0  0  0  0
  -26.1358  -31.5073   20.6174 H   0  0  0  0  0  0
  -26.8607  -30.7946   22.0245 H   0  0  0  0  0  0
  -28.1162  -28.8582   21.2392 H   0  0  0  0  0  0
  -25.9263  -25.9065   18.9555 H   0  0  0  0  0  0
  -23.9748  -27.3295   18.9703 H   0  0  0  0  0  0
  -23.7981  -30.5941   19.4035 H   0  0  0  0  0  0
  -22.7725  -29.2616   19.8366 H   0  0  0  0  0  0
  -25.1297  -36.1890   25.0811 H   0  0  0  0  0  0
  -21.0004  -28.3310   24.1364 H   0  0  0  0  0  0
  -20.5723  -26.2331   23.3623 H   0  0  0  0  0  0
  -21.6661  -26.7473   22.1189 H   0  0  0  0  0  0
  -19.6936  -25.6288   21.1266 H   0  0  0  0  0  0
  -19.6697  -27.3186   20.6747 H   0  0  0  0  0  0
  -17.4220  -26.6691   21.4014 H   0  0  0  0  0  0
  -18.0332  -26.0091   22.9021 H   0  0  0  0  0  0
  -19.7959  -30.7294   24.2237 H   0  0  0  0  0  0
  -17.5036  -31.6271   24.5189 H   0  0  0  0  0  0
  -15.5369  -30.3001   23.7662 H   0  0  0  0  0  0
  -15.8689  -28.0838   22.7062 H   0  0  0  0  0  0
  -24.5876  -30.7154   25.7811 H   0  0  0  0  0  0
  -24.8978  -32.2982   26.4849 H   0  0  0  0  0  0
  -25.8036  -30.8985   27.0255 H   0  0  0  0  0  0
  -26.3016  -29.6678   24.1295 H   0  0  0  0  0  0
  -27.4050  -29.7288   25.4850 H   0  0  0  0  0  0
  -27.8911  -30.4218   23.9576 H   0  0  0  0  0  0
  -27.2578  -33.3646   26.2093 H   0  0  0  0  0  0
  -28.3886  -32.6928   25.0418 H   0  0  0  0  0  0
  -28.0668  -31.8508   26.5504 H   0  0  0  0  0  0
  -28.2563  -38.0117   24.7511 H   0  0  0  0  0  0
  -28.1089  -36.2640   24.6263 H   0  0  0  0  0  0
  -27.2293  -37.1436   25.8860 H   0  0  0  0  0  0
  -20.9432  -29.8795   21.6847 H   0  0  0  0  0  0
  -26.0137  -38.2812   24.1428 H   0  0  0  0  0  0
  -29.7588  -19.7010   17.9658 H   0  0  0  0  0  0
  -30.0491  -16.9990   18.1011 H   0  0  0  0  0  0
  -28.0791  -24.6583   18.8304 H   0  0  0  0  0  0
  -27.0448  -24.5184   20.2319 H   0  0  0  0  0  0
  -29.0055  -15.7441   21.2713 H   0  0  0  0  0  0
  -28.3632  -21.9473   19.3317 H   0  0  0  0  0  0
  -30.3092  -22.0586   22.3053 H   0  0  0  0  0  0
  -30.6320  -20.3409   22.2537 H   0  0  0  0  0  0
  1 25  1  0  0  0
  1 30  2  0  0  0
  1 78  1  0  0  0
  2  3  1  0  0  0
  2 25  1  0  0  0
  2 83  1  0  0  0
  2 84  1  0  0  0
  3  4  1  0  0  0
  3 85  1  0  0  0
  3 86  1  0  0  0
  4  5  1  0  0  0
  4 87  1  0  0  0
  4 88  1  0  0  0
  5  6  1  0  0  0
  5 26  1  0  0  0
  5 89  1  0  0  0
  6 25  1  0  0  0
  6 90  1  0  0  0
  6 91  1  0  0  0
  7  8  2  0  0  0
  7 26  1  0  0  0
  7 29  1  0  0  0
  8  9  1  0  0  0
  8 22  1  0  0  0
  9 10  1  0  0  0
  9 27  2  0  0  0
 10 11  2  0  0  0
 10 15  1  0  0  0
 11 12  1  0  0  0
 11 92  1  0  0  0
 12 13  2  0  0  0
 12 93  1  0  0  0
 13 14  1  0  0  0
 13 31  1  0  0  0
 14 15  2  0  0  0
 14 94  1  0  0  0
 15 95  1  0  0  0
 16 17  2  0  0  0
 16 21  1  0  0  0
 16 31  1  0  0  0
 17 18  1  0  0  0
 17 96  1  0  0  0
 18 19  2  0  0  0
 18 97  1  0  0  0
 19 20  1  0  0  0
 19 24  1  0  0  0
 20 21  2  0  0  0
 20 98  1  0  0  0
 21 23  1  0  0  0
 22 28  1  0  0  0
 22 32  2  0  0  0
 26 27  1  0  0  0
 28 99  1  0  0  0
 28100  1  0  0  0
 29101  1  0  0  0
 29102  1  0  0  0
 33 34  1  0  0  0
 33 66  1  0  0  0
 33 70  2  0  0  0
 34 36  1  0  0  0
 34 59  1  0  0  0
 34103  1  0  0  0
 35 44  2  0  0  0
 35 45  1  0  0  0
 35 68  1  0  0  0
 36 56  1  0  0  0
 36104  1  0  0  0
 37 39  1  0  0  0
 37 47  1  0  0  0
 37 66  1  0  0  0
 37105  1  0  0  0
 38 43  2  0  0  0
 38 46  1  0  0  0
 38 47  1  0  0  0
 39 64  1  0  0  0
 39 67  2  0  0  0
 40 52  1  0  0  0
 40 53  2  0  0  0
 40 58  1  0  0  0
 41106  1  0  0  0
 41107  1  0  0  0
 41108  1  0  0  0
 41 48  1  0  0  0
 42 43  1  0  0  0
 42 66  1  0  0  0
 42109  1  0  0  0
 42110  1  0  0  0
 43 44  1  0  0  0
 44111  1  0  0  0
 45 46  2  0  0  0
 45112  1  0  0  0
 46113  1  0  0  0
 47114  1  0  0  0
 47115  1  0  0  0
 48 56  1  0  0  0
 48 65  1  0  0  0
 48116  1  0  0  0
 49 50  1  0  0  0
 49 53  1  0  0  0
 49 64  1  0  0  0
 49117  1  0  0  0
 50 51  1  0  0  0
 50118  1  0  0  0
 50119  1  0  0  0
 51 52  1  0  0  0
 51120  1  0  0  0
 51121  1  0  0  0
 52122  1  0  0  0
 52123  1  0  0  0
 53 54  1  0  0  0
 54 55  2  0  0  0
 54124  1  0  0  0
 55 57  1  0  0  0
 55125  1  0  0  0
 56 69  2  0  0  0
 57 58  2  0  0  0
 57126  1  0  0  0
 58127  1  0  0  0
 59 60  1  0  0  0
 59 61  1  0  0  0
 59 62  1  0  0  0
 60128  1  0  0  0
 60129  1  0  0  0
 60130  1  0  0  0
 61131  1  0  0  0
 61132  1  0  0  0
 61133  1  0  0  0
 62134  1  0  0  0
 62135  1  0  0  0
 62136  1  0  0  0
 63 65  1  0  0  0
 63137  1  0  0  0
 63138  1  0  0  0
 63139  1  0  0  0
 64140  1  0  0  0
 65141  1  0  0  0
 68 77  1  0  0  0
 71 72  1  0  0  0
 71 73  2  0  0  0
 71142  1  0  0  0
 72 74  2  0  0  0
 72143  1  0  0  0
 73 75  1  0  0  0
 73 82  1  0  0  0
 74 78  1  0  0  0
 74 82  1  0  0  0
 75 79  1  0  0  0
 75 80  2  0  0  0
 76 77  1  0  0  0
 76 79  1  0  0  0
 76 81  2  0  0  0
 77144  1  0  0  0
 77145  1  0  0  0
 78146  1  0  0  0
 79147  1  0  0  0
 80148  1  0  0  0
 80149  1  0  0  0
M  CHG  1  80   1
M  ISO  4   1 100  68 101  77 101  78 100
M  END
> <chiral flag>
0

> <version>
0

> <s_m_source_file>
/data/baiqing/PycharmProjects/Reinvent-master-3.2/result/LINK_invent/BTK/process_docking_weight1_custom_product_contain_oxygen_bond_distance_aromatic_linkinvent_7_9_3/rearranged_h_0159.sdf

> <i_m_source_file_index>
12

> <r_mmod_Potential_Energy-OPLS-2005>
-38.0198020935059

> <r_mmod_Stretch_Energy-OPLS-2005>
158.038558959961

> <r_mmod_Bend_Energy-OPLS-2005>
193.015731811523

> <r_mmod_Torsional_Energy-OPLS-2005>
234.554885864258

> <r_mmod_Improper_Torsional_Energy-OPLS-2005>
4.89811611175537

> <r_mmod_Van_der_Waal_Energy-OPLS-2005>
123.02001953125

> <r_mmod_Electrostatic_Energy-OPLS-2005>
-365.39453125

> <r_mmod_Solvation_Energy-OPLS-2005>
-509.990173339844

> <b_mmod_Minimization_Converged-OPLS-2005>
0

> <r_mmod_RMS_Derivative-OPLS-2005>
2.54613161087036

$$$$
12
                    3D
 Structure written by MMmdl.
168177  0  0  1  0            999 V2000
  -30.6061  -14.5827   20.5234 C   0  0  0  0  0  0
  -30.4269  -12.3669   19.4396 C   0  0  0  0  0  0
  -29.4910  -12.5186   18.2156 C   0  0  0  0  0  0
  -28.0130  -12.3664   18.6223 C   0  0  0  0  0  0
  -27.6513  -13.2115   19.8718 C   0  0  2  0  0  0
  -28.6901  -13.0110   20.9953 C   0  0  0  0  0  0
  -25.2543  -13.8176   20.5708 C   0  0  0  0  0  0
  -24.1794  -13.0438   20.9188 C   0  0  0  0  0  0
  -24.6348  -11.6910   20.8738 C   0  0  0  0  0  0
  -23.9033  -10.4295   21.0401 C   0  0  0  0  0  0
  -24.3600   -9.4205   21.9166 C   0  0  0  0  0  0
  -23.6287   -8.2231   22.0740 C   0  0  0  0  0  0
  -22.4259   -8.0273   21.3535 C   0  0  0  0  0  0
  -21.9891   -9.0235   20.4620 C   0  0  0  0  0  0
  -22.7216  -10.2124   20.3032 C   0  0  0  0  0  0
  -21.6860   -6.0733   22.5270 C   0  0  0  0  0  0
  -21.4023   -6.5639   23.8204 C   0  0  0  0  0  0
  -21.3657   -5.6798   24.9170 C   0  0  0  0  0  0
  -21.6044   -4.3056   24.7225 C   0  0  0  0  0  0
  -21.8816   -3.8139   23.4345 C   0  0  0  0  0  0
  -21.9199   -4.6959   22.3402 C   0  0  0  0  0  0
  -22.7833  -13.5235   21.1900 C   0  0  0  0  0  0
  -22.1661   -4.2153   21.0977 F   0  0  0  0  0  0
  -21.5633   -3.4523   25.7732 F   0  0  0  0  0  0
  -30.0071  -13.3582   20.4513 N   0  0  0  0  0  0
  -26.2969  -12.9331   20.3349 N   0  0  0  0  0  0
  -25.9274  -11.6493   20.5754 N   0  0  0  0  0  0
  -22.0481  -12.8178   22.0422 N   0  0  0  0  0  0
  -25.4265  -15.1917   20.4149 N   0  0  0  0  0  0
  -31.7467  -14.7665   20.0835 O   0  0  0  0  0  0
  -21.6638   -6.8865   21.4225 O   0  0  0  0  0  0
  -22.3492  -14.5540   20.6781 O   0  0  0  0  0  0
  -24.6225  -31.8671   23.2088 C   0  0  0  0  0  0
  -25.9126  -32.4824   23.8417 C   0  0  1  0  0  0
  -27.2221  -27.4038   20.1348 C   0  0  0  0  0  0
  -25.5991  -33.8640   24.2342 N   0  0  0  0  0  0
  -23.4128  -30.4883   21.5485 C   0  0  2  0  0  0
  -24.8544  -28.9584   20.1064 C   0  0  0  0  0  0
  -22.7414  -29.4675   22.4932 C   0  0  0  0  0  0
  -18.0272  -28.1408   22.8447 C   0  0  0  0  0  0
  -24.1505  -36.7441   23.2632 C   0  0  0  0  0  0
  -25.9361  -30.8358   21.3500 C   0  0  0  0  0  0
  -26.0148  -29.4614   20.7116 C   0  0  0  0  0  0
  -27.2039  -28.6949   20.7151 C   0  0  0  0  0  0
  -26.0552  -26.9168   19.5154 C   0  0  0  0  0  0
  -24.8768  -27.6891   19.4986 C   0  0  0  0  0  0
  -23.6251  -29.8381   20.1550 C   0  0  0  0  0  0
  -25.4104  -36.3138   24.0329 C   0  0  1  0  0  0
  -20.5832  -28.3765   23.1256 C   0  0  2  0  0  0
  -20.6797  -26.9510   22.5388 C   0  0  0  0  0  0
  -19.5817  -26.6384   21.5184 C   0  0  0  0  0  0
  -18.1963  -26.7954   22.1553 C   0  0  0  0  0  0
  -19.1494  -28.8895   23.2851 C   0  0  0  0  0  0
  -18.9436  -30.1473   23.8903 C   0  0  0  0  0  0
  -17.6443  -30.6594   24.0576 C   0  0  0  0  0  0
  -25.9040  -34.9498   23.5103 C   0  0  0  0  0  0
  -16.5343  -29.9101   23.6316 C   0  0  0  0  0  0
  -16.7255  -28.6500   23.0358 C   0  0  0  0  0  0
  -26.4525  -31.6601   25.0733 C   0  0  0  0  0  0
  -25.3766  -31.3838   26.1482 C   0  0  0  0  0  0
  -27.0338  -30.3014   24.6101 C   0  0  0  0  0  0
  -27.6047  -32.4351   25.7586 C   0  0  0  0  0  0
  -27.5570  -37.1855   24.8417 C   0  0  0  0  0  0
  -21.4117  -29.3137   22.3653 N   0  0  0  0  0  0
  -26.4271  -37.3808   23.9375 N   0  0  0  0  0  0
  -24.6776  -31.0795   22.0993 N   0  0  0  0  0  0
  -23.4172  -28.8180   23.2939 O   0  0  0  0  0  0
  -28.3355  -26.5887   20.1689 O   0  0  0  0  0  0
  -26.5534  -34.8926   22.4630 O   0  0  0  0  0  0
  -23.5391  -32.1401   23.7439 O   0  0  0  0  0  0
  -29.6480  -18.3209   18.3921 C   0  0  0  0  0  0
  -29.8076  -17.0801   19.0086 C   0  0  0  0  0  0
  -29.4842  -18.1580   21.1673 C   0  0  0  0  0  0
  -29.4302  -19.5036   19.1339 C   0  0  0  0  0  0
  -29.7423  -16.9563   20.4135 C   0  0  0  0  0  0
  -29.3395  -19.4633   20.5663 C   0  0  0  0  0  0
  -29.2254  -20.6868   18.2656 C   0  0  0  0  0  0
  -28.9684  -24.3524   21.2022 C   0  0  0  0  0  0
  -27.9017  -20.9294   17.5984 C   0  0  0  0  0  0
  -27.9742  -22.3954   17.2132 C   0  0  0  0  0  0
  -29.4795  -22.6771   17.2667 C   0  0  0  0  0  0
  -28.4730  -25.8211   21.3912 C   0  0  0  0  0  0
  -28.2254  -21.7573   21.0110 C   0  0  0  0  0  0
  -28.1567  -23.1331   21.8115 C   0  0  2  0  0  0
  -30.0734  -21.6147   18.0608 N   0  0  0  0  0  0
  -30.0718  -24.1949   20.5981 N   0  0  0  0  0  0
  -29.8391  -15.6245   20.9845 N   0  0  0  0  0  0
  -29.1244  -20.6247   21.4140 N   0  0  0  0  0  0
  -26.7279  -23.5081   21.8779 N   0  3  0  0  0  0
  -31.4626  -12.4985   19.1353 H   0  0  0  0  0  0
  -30.3685  -11.3566   19.8515 H   0  0  0  0  0  0
  -29.7478  -11.7852   17.4493 H   0  0  0  0  0  0
  -29.6371  -13.4998   17.7641 H   0  0  0  0  0  0
  -27.8350  -11.3105   18.8278 H   0  0  0  0  0  0
  -27.3638  -12.6366   17.7877 H   0  0  0  0  0  0
  -27.6845  -14.2570   19.5616 H   0  0  0  0  0  0
  -28.6871  -11.9723   21.3334 H   0  0  0  0  0  0
  -28.4416  -13.6095   21.8707 H   0  0  0  0  0  0
  -25.2740   -9.5718   22.4735 H   0  0  0  0  0  0
  -24.0019   -7.4631   22.7450 H   0  0  0  0  0  0
  -21.0832   -8.8728   19.8915 H   0  0  0  0  0  0
  -22.3649  -10.9658   19.6137 H   0  0  0  0  0  0
  -21.2013   -7.6140   23.9721 H   0  0  0  0  0  0
  -21.1486   -6.0511   25.9082 H   0  0  0  0  0  0
  -22.0602   -2.7596   23.2836 H   0  0  0  0  0  0
  -22.4113  -11.9810   22.4757 H   0  0  0  0  0  0
  -21.1099  -13.1165   22.2699 H   0  0  0  0  0  0
  -24.6653  -15.8516   20.5299 H   0  0  0  0  0  0
  -26.2814  -15.6222   20.0871 H   0  0  0  0  0  0
  -26.7237  -32.5477   23.1210 H   0  0  0  0  0  0
  -25.0252  -33.9923   25.0529 H   0  0  0  0  0  0
  -22.6998  -31.3034   21.4098 H   0  0  0  0  0  0
  -23.3665  -35.9864   23.3234 H   0  0  0  0  0  0
  -24.3591  -36.9124   22.2047 H   0  0  0  0  0  0
  -23.7386  -37.6708   23.6671 H   0  0  0  0  0  0
  -26.0118  -31.5860   20.5595 H   0  0  0  0  0  0
  -26.8425  -30.9249   21.9298 H   0  0  0  0  0  0
  -28.1090  -29.1078   21.1459 H   0  0  0  0  0  0
  -26.0608  -25.9444   19.0451 H   0  0  0  0  0  0
  -23.9919  -27.3000   19.0153 H   0  0  0  0  0  0
  -23.7543  -30.6328   19.4161 H   0  0  0  0  0  0
  -22.7380  -29.2904   19.8380 H   0  0  0  0  0  0
  -25.1209  -36.1989   25.0808 H   0  0  0  0  0  0
  -20.9924  -28.3405   24.1379 H   0  0  0  0  0  0
  -20.5673  -26.2439   23.3608 H   0  0  0  0  0  0
  -21.6695  -26.7581   22.1235 H   0  0  0  0  0  0
  -19.7014  -25.6256   21.1329 H   0  0  0  0  0  0
  -19.6785  -27.3067   20.6610 H   0  0  0  0  0  0
  -17.4273  -26.6681   21.3928 H   0  0  0  0  0  0
  -18.0373  -26.0107   22.8946 H   0  0  0  0  0  0
  -19.7923  -30.7263   24.2279 H   0  0  0  0  0  0
  -17.5031  -31.6262   24.5230 H   0  0  0  0  0  0
  -15.5367  -30.3057   23.7624 H   0  0  0  0  0  0
  -15.8625  -28.0829   22.7128 H   0  0  0  0  0  0
  -24.5927  -30.7172   25.7907 H   0  0  0  0  0  0
  -24.8989  -32.3077   26.4764 H   0  0  0  0  0  0
  -25.8100  -30.9175   27.0330 H   0  0  0  0  0  0
  -26.2965  -29.6887   24.0906 H   0  0  0  0  0  0
  -27.3896  -29.7098   25.4559 H   0  0  0  0  0  0
  -27.8844  -30.4347   23.9427 H   0  0  0  0  0  0
  -27.2615  -33.3637   26.2189 H   0  0  0  0  0  0
  -28.3908  -32.6988   25.0509 H   0  0  0  0  0  0
  -28.0687  -31.8474   26.5529 H   0  0  0  0  0  0
  -28.2482  -38.0230   24.7357 H   0  0  0  0  0  0
  -28.1149  -36.2699   24.6260 H   0  0  0  0  0  0
  -27.2274  -37.1532   25.8830 H   0  0  0  0  0  0
  -20.9282  -29.8991   21.6961 H   0  0  0  0  0  0
  -26.0129  -38.2877   24.1359 H   0  0  0  0  0  0
  -29.6941  -18.3608   17.3139 H   0  0  0  0  0  0
  -29.9382  -16.2122   18.3830 H   0  0  0  0  0  0
  -29.3834  -18.0499   22.2352 H   0  0  0  0  0  0
  -27.0775  -20.7084   18.2817 H   0  0  0  0  0  0
  -27.8127  -20.2874   16.7193 H   0  0  0  0  0  0
  -27.4544  -23.0139   17.9502 H   0  0  0  0  0  0
  -27.5212  -22.5973   16.2406 H   0  0  0  0  0  0
  -29.6686  -23.6501   17.7298 H   0  0  0  0  0  0
  -29.9172  -22.6865   16.2660 H   0  0  0  0  0  0
  -29.2289  -26.3507   21.9718 H   0  0  0  0  0  0
  -27.5771  -25.8754   22.0130 H   0  0  0  0  0  0
  -28.3999  -22.1070   20.0105 H   0  0  0  0  0  0
  -27.2302  -21.3154   20.9783 H   0  0  0  0  0  0
  -28.4860  -22.9913   22.8386 H   0  0  0  0  0  0
  -30.3820  -23.2346   20.5393 H   0  0  0  0  0  0
  -29.0465  -15.3393   21.5382 H   0  0  0  0  0  0
  -29.1264  -20.4287   22.4146 H   0  0  0  0  0  0
  -26.5826  -24.2743   22.5119 H   0  0  0  0  0  0
  -26.1984  -22.7323   22.2289 H   0  0  0  0  0  0
  -26.3589  -23.7608   20.9762 H   0  0  0  0  0  0
  1 25  1  0  0  0
  1 30  2  0  0  0
  1 87  1  0  0  0
  2  3  1  0  0  0
  2 25  1  0  0  0
  2 90  1  0  0  0
  2 91  1  0  0  0
  3  4  1  0  0  0
  3 92  1  0  0  0
  3 93  1  0  0  0
  4  5  1  0  0  0
  4 94  1  0  0  0
  4 95  1  0  0  0
  5  6  1  0  0  0
  5 26  1  0  0  0
  5 96  1  0  0  0
  6 25  1  0  0  0
  6 97  1  0  0  0
  6 98  1  0  0  0
  7  8  2  0  0  0
  7 26  1  0  0  0
  7 29  1  0  0  0
  8  9  1  0  0  0
  8 22  1  0  0  0
  9 10  1  0  0  0
  9 27  2  0  0  0
 10 11  2  0  0  0
 10 15  1  0  0  0
 11 12  1  0  0  0
 11 99  1  0  0  0
 12 13  2  0  0  0
 12100  1  0  0  0
 13 14  1  0  0  0
 13 31  1  0  0  0
 14 15  2  0  0  0
 14101  1  0  0  0
 15102  1  0  0  0
 16 17  2  0  0  0
 16 21  1  0  0  0
 16 31  1  0  0  0
 17 18  1  0  0  0
 17103  1  0  0  0
 18 19  2  0  0  0
 18104  1  0  0  0
 19 20  1  0  0  0
 19 24  1  0  0  0
 20 21  2  0  0  0
 20105  1  0  0  0
 21 23  1  0  0  0
 22 28  1  0  0  0
 22 32  2  0  0  0
 26 27  1  0  0  0
 28106  1  0  0  0
 28107  1  0  0  0
 29108  1  0  0  0
 29109  1  0  0  0
 33 34  1  0  0  0
 33 66  1  0  0  0
 33 70  2  0  0  0
 34 36  1  0  0  0
 34 59  1  0  0  0
 34110  1  0  0  0
 35 44  2  0  0  0
 35 45  1  0  0  0
 35 68  1  0  0  0
 36 56  1  0  0  0
 36111  1  0  0  0
 37 39  1  0  0  0
 37 47  1  0  0  0
 37 66  1  0  0  0
 37112  1  0  0  0
 38 43  2  0  0  0
 38 46  1  0  0  0
 38 47  1  0  0  0
 39 64  1  0  0  0
 39 67  2  0  0  0
 40 52  1  0  0  0
 40 53  2  0  0  0
 40 58  1  0  0  0
 41113  1  0  0  0
 41114  1  0  0  0
 41115  1  0  0  0
 41 48  1  0  0  0
 42 43  1  0  0  0
 42 66  1  0  0  0
 42116  1  0  0  0
 42117  1  0  0  0
 43 44  1  0  0  0
 44118  1  0  0  0
 45 46  2  0  0  0
 45119  1  0  0  0
 46120  1  0  0  0
 47121  1  0  0  0
 47122  1  0  0  0
 48 56  1  0  0  0
 48 65  1  0  0  0
 48123  1  0  0  0
 49 50  1  0  0  0
 49 53  1  0  0  0
 49 64  1  0  0  0
 49124  1  0  0  0
 50 51  1  0  0  0
 50125  1  0  0  0
 50126  1  0  0  0
 51 52  1  0  0  0
 51127  1  0  0  0
 51128  1  0  0  0
 52129  1  0  0  0
 52130  1  0  0  0
 53 54  1  0  0  0
 54 55  2  0  0  0
 54131  1  0  0  0
 55 57  1  0  0  0
 55132  1  0  0  0
 56 69  2  0  0  0
 57 58  2  0  0  0
 57133  1  0  0  0
 58134  1  0  0  0
 59 60  1  0  0  0
 59 61  1  0  0  0
 59 62  1  0  0  0
 60135  1  0  0  0
 60136  1  0  0  0
 60137  1  0  0  0
 61138  1  0  0  0
 61139  1  0  0  0
 61140  1  0  0  0
 62141  1  0  0  0
 62142  1  0  0  0
 62143  1  0  0  0
 63 65  1  0  0  0
 63144  1  0  0  0
 63145  1  0  0  0
 63146  1  0  0  0
 64147  1  0  0  0
 65148  1  0  0  0
 68 82  1  0  0  0
 71 72  2  0  0  0
 71 74  1  0  0  0
 71149  1  0  0  0
 72 75  1  0  0  0
 72150  1  0  0  0
 73 75  2  0  0  0
 73 76  1  0  0  0
 73151  1  0  0  0
 74 76  2  0  0  0
 74 77  1  0  0  0
 75 87  1  0  0  0
 76 88  1  0  0  0
 77 79  1  0  0  0
 77 85  2  0  0  0
 78 82  1  0  0  0
 78 84  1  0  0  0
 78 86  2  0  0  0
 79 80  1  0  0  0
 79152  1  0  0  0
 79153  1  0  0  0
 80 81  1  0  0  0
 80154  1  0  0  0
 80155  1  0  0  0
 81 85  1  0  0  0
 81156  1  0  0  0
 81157  1  0  0  0
 82158  1  0  0  0
 82159  1  0  0  0
 83 84  1  0  0  0
 83 88  1  0  0  0
 83160  1  0  0  0
 83161  1  0  0  0
 84 89  1  0  0  0
 84162  1  0  0  0
 86163  1  0  0  0
 87164  1  0  0  0
 88165  1  0  0  0
 89166  1  0  0  0
 89167  1  0  0  0
 89168  1  0  0  0
M  CHG  1  89   1
M  ISO  4   1 100  68 101  82 101  87 100
M  END
> <chiral flag>
0

> <version>
0

> <s_m_source_file>
/data/baiqing/PycharmProjects/Reinvent-master-3.2/result/LINK_invent/BTK/process_docking_weight1_custom_product_contain_oxygen_bond_distance_aromatic_linkinvent_7_9_3/rearranged_h_0159.sdf

> <i_m_source_file_index>
13

> <r_mmod_Potential_Energy-OPLS-2005>
-11.0923509597778

> <r_mmod_Stretch_Energy-OPLS-2005>
78.9568710327148

> <r_mmod_Bend_Energy-OPLS-2005>
173.786834716797

> <r_mmod_Torsional_Energy-OPLS-2005>
324.465087890625

> <r_mmod_Improper_Torsional_Energy-OPLS-2005>
8.25955772399902

> <r_mmod_Van_der_Waal_Energy-OPLS-2005>
144.142028808594

> <r_mmod_Electrostatic_Energy-OPLS-2005>
-202.81852722168

> <r_mmod_Solvation_Energy-OPLS-2005>
-566.688049316406

> <b_mmod_Minimization_Converged-OPLS-2005>
0

> <r_mmod_RMS_Derivative-OPLS-2005>
10.9086484909058

$$$$
13
                    3D
 Structure written by MMmdl.
163171  0  0  1  0            999 V2000
  -30.7295  -14.4464   20.5794 C   0  0  0  0  0  0
  -30.4150  -12.2998   19.4168 C   0  0  0  0  0  0
  -29.4836  -12.4824   18.2010 C   0  0  0  0  0  0
  -28.0083  -12.3401   18.6195 C   0  0  0  0  0  0
  -27.6524  -13.2009   19.8605 C   0  0  2  0  0  0
  -28.6950  -13.0093   20.9875 C   0  0  0  0  0  0
  -25.2551  -13.8150   20.5646 C   0  0  0  0  0  0
  -24.1814  -13.0446   20.9199 C   0  0  0  0  0  0
  -24.6352  -11.6906   20.8749 C   0  0  0  0  0  0
  -23.9023  -10.4296   21.0420 C   0  0  0  0  0  0
  -24.3589   -9.4210   21.9187 C   0  0  0  0  0  0
  -23.6280   -8.2239   22.0751 C   0  0  0  0  0  0
  -22.4262   -8.0272   21.3542 C   0  0  0  0  0  0
  -21.9892   -9.0240   20.4640 C   0  0  0  0  0  0
  -22.7205  -10.2128   20.3059 C   0  0  0  0  0  0
  -21.6848   -6.0729   22.5279 C   0  0  0  0  0  0
  -21.4008   -6.5634   23.8214 C   0  0  0  0  0  0
  -21.3660   -5.6787   24.9176 C   0  0  0  0  0  0
  -21.6049   -4.3052   24.7225 C   0  0  0  0  0  0
  -21.8818   -3.8140   23.4348 C   0  0  0  0  0  0
  -21.9190   -4.6956   22.3403 C   0  0  0  0  0  0
  -22.7839  -13.5253   21.1856 C   0  0  0  0  0  0
  -22.1661   -4.2147   21.0981 F   0  0  0  0  0  0
  -21.5633   -3.4534   25.7740 F   0  0  0  0  0  0
  -30.0275  -13.2916   20.4301 N   0  0  0  0  0  0
  -26.2959  -12.9305   20.3285 N   0  0  0  0  0  0
  -25.9271  -11.6480   20.5752 N   0  0  0  0  0  0
  -22.0463  -12.8261   22.0407 N   0  0  0  0  0  0
  -25.4267  -15.1861   20.3991 N   0  0  0  0  0  0
  -31.8605  -14.6105   20.1142 O   0  0  0  0  0  0
  -21.6632   -6.8866   21.4240 O   0  0  0  0  0  0
  -22.3544  -14.5561   20.6692 O   0  0  0  0  0  0
  -24.6131  -31.8685   23.2086 C   0  0  0  0  0  0
  -25.9042  -32.4810   23.8370 C   0  0  1  0  0  0
  -27.2325  -27.4500   20.0983 C   0  0  0  0  0  0
  -25.5916  -33.8606   24.2310 N   0  0  0  0  0  0
  -23.3993  -30.4933   21.5473 C   0  0  2  0  0  0
  -24.8458  -28.9565   20.1161 C   0  0  0  0  0  0
  -22.7395  -29.4681   22.4969 C   0  0  0  0  0  0
  -18.0287  -28.1384   22.8498 C   0  0  0  0  0  0
  -24.1504  -36.7309   23.2636 C   0  0  0  0  0  0
  -25.9256  -30.8415   21.3552 C   0  0  0  0  0  0
  -26.0046  -29.4760   20.7065 C   0  0  0  0  0  0
  -27.2038  -28.7302   20.6916 C   0  0  0  0  0  0
  -26.0587  -26.9403   19.5024 C   0  0  0  0  0  0
  -24.8659  -27.6868   19.5135 C   0  0  0  0  0  0
  -23.6075  -29.8215   20.1637 C   0  0  0  0  0  0
  -25.4119  -36.3092   24.0328 C   0  0  1  0  0  0
  -20.5875  -28.3676   23.1319 C   0  0  2  0  0  0
  -20.6780  -26.9414   22.5413 C   0  0  0  0  0  0
  -19.5758  -26.6403   21.5212 C   0  0  0  0  0  0
  -18.1938  -26.7938   22.1624 C   0  0  0  0  0  0
  -19.1534  -28.8843   23.2913 C   0  0  0  0  0  0
  -18.9457  -30.1446   23.8929 C   0  0  0  0  0  0
  -17.6458  -30.6587   24.0573 C   0  0  0  0  0  0
  -25.9037  -34.9464   23.5105 C   0  0  0  0  0  0
  -16.5351  -29.9092   23.6322 C   0  0  0  0  0  0
  -16.7276  -28.6509   23.0346 C   0  0  0  0  0  0
  -26.4485  -31.6573   25.0679 C   0  0  0  0  0  0
  -25.3764  -31.3671   26.1431 C   0  0  0  0  0  0
  -27.0296  -30.3023   24.6006 C   0  0  0  0  0  0
  -27.6069  -32.4273   25.7452 C   0  0  0  0  0  0
  -27.5581  -37.1806   24.8465 C   0  0  0  0  0  0
  -21.4124  -29.3040   22.3710 N   0  0  0  0  0  0
  -26.4303  -37.3775   23.9399 N   0  0  0  0  0  0
  -24.6643  -31.0813   22.0961 N   0  0  0  0  0  0
  -23.4185  -28.8229   23.3011 O   0  0  0  0  0  0
  -28.4018  -26.7276   20.0948 O   0  0  0  0  0  0
  -26.5592  -34.8914   22.4659 O   0  0  0  0  0  0
  -23.5334  -32.1419   23.7505 O   0  0  0  0  0  0
  -29.7119  -19.2112   20.7487 C   0  0  0  0  0  0
  -27.4726  -19.4002   21.3461 C   0  0  0  0  0  0
  -28.5588  -20.0543   20.8195 C   0  0  0  0  0  0
  -29.4967  -17.9359   21.2196 C   0  0  0  0  0  0
  -30.4525  -16.8455   21.3019 C   0  0  0  0  0  0
  -27.7188  -22.0238   19.6108 C   0  0  0  0  0  0
  -26.5455  -21.2796   19.0328 C   0  0  0  0  0  0
  -29.5692  -24.8698   18.4142 C   0  0  0  0  0  0
  -32.9263  -16.4638   21.9616 C   0  0  0  0  0  0
  -28.3178  -25.3934   20.6199 C   0  0  0  0  0  0
  -28.8749  -24.3072   19.6644 C   0  0  1  0  0  0
  -28.6232  -21.4076   20.4145 N   0  0  0  0  0  0
  -30.0011  -15.5784   21.0794 N   0  0  0  0  0  0
  -31.7148  -17.2271   21.6259 N   0  3  0  0  0  0
  -27.8341  -23.3320   19.2762 N   0  3  0  0  0  0
  -27.8423  -17.7425   21.7486 S   0  0  0  0  0  0
  -31.4581  -12.3952   19.1079 H   0  0  0  0  0  0
  -30.3208  -11.2932   19.8274 H   0  0  0  0  0  0
  -29.7242  -11.7469   17.4317 H   0  0  0  0  0  0
  -29.6445  -13.4610   17.7465 H   0  0  0  0  0  0
  -27.8267  -11.2860   18.8341 H   0  0  0  0  0  0
  -27.3526  -12.5894   17.7849 H   0  0  0  0  0  0
  -27.6863  -14.2411   19.5357 H   0  0  0  0  0  0
  -28.6641  -11.9828   21.3560 H   0  0  0  0  0  0
  -28.4533  -13.6333   21.8498 H   0  0  0  0  0  0
  -25.2731   -9.5698   22.4764 H   0  0  0  0  0  0
  -23.9997   -7.4628   22.7468 H   0  0  0  0  0  0
  -21.0827   -8.8742   19.8936 H   0  0  0  0  0  0
  -22.3653  -10.9664   19.6170 H   0  0  0  0  0  0
  -21.1994   -7.6142   23.9717 H   0  0  0  0  0  0
  -21.1486   -6.0517   25.9081 H   0  0  0  0  0  0
  -22.0596   -2.7604   23.2847 H   0  0  0  0  0  0
  -22.4064  -11.9922   22.4804 H   0  0  0  0  0  0
  -21.1073  -13.1287   22.2584 H   0  0  0  0  0  0
  -24.6436  -15.8259   20.4786 H   0  0  0  0  0  0
  -26.2418  -15.6131   19.9811 H   0  0  0  0  0  0
  -26.7114  -32.5537   23.1141 H   0  0  0  0  0  0
  -25.0111  -33.9763   25.0489 H   0  0  0  0  0  0
  -22.6880  -31.3096   21.4055 H   0  0  0  0  0  0
  -23.3743  -35.9662   23.3308 H   0  0  0  0  0  0
  -24.3622  -36.8912   22.2051 H   0  0  0  0  0  0
  -23.7272  -37.6527   23.6642 H   0  0  0  0  0  0
  -26.0300  -31.6062   20.5844 H   0  0  0  0  0  0
  -26.8183  -30.9026   21.9662 H   0  0  0  0  0  0
  -28.1007  -29.1267   21.1469 H   0  0  0  0  0  0
  -26.0628  -25.9698   19.0285 H   0  0  0  0  0  0
  -23.9717  -27.2809   19.0606 H   0  0  0  0  0  0
  -23.7153  -30.5924   19.4003 H   0  0  0  0  0  0
  -22.7320  -29.2390   19.8683 H   0  0  0  0  0  0
  -25.1298  -36.1949   25.0818 H   0  0  0  0  0  0
  -20.9986  -28.3253   24.1434 H   0  0  0  0  0  0
  -20.5706  -26.2276   23.3594 H   0  0  0  0  0  0
  -21.6649  -26.7470   22.1189 H   0  0  0  0  0  0
  -19.6917  -25.6323   21.1222 H   0  0  0  0  0  0
  -19.6700  -27.3234   20.6758 H   0  0  0  0  0  0
  -17.4205  -26.6703   21.4023 H   0  0  0  0  0  0
  -18.0330  -26.0072   22.9009 H   0  0  0  0  0  0
  -19.7931  -30.7256   24.2314 H   0  0  0  0  0  0
  -17.5012  -31.6277   24.5166 H   0  0  0  0  0  0
  -15.5351  -30.3003   23.7619 H   0  0  0  0  0  0
  -15.8683  -28.0835   22.7034 H   0  0  0  0  0  0
  -24.5955  -30.6990   25.7779 H   0  0  0  0  0  0
  -24.8938  -32.2821   26.4868 H   0  0  0  0  0  0
  -25.8144  -30.8862   27.0184 H   0  0  0  0  0  0
  -26.2806  -29.6793   24.1092 H   0  0  0  0  0  0
  -27.4132  -29.7238   25.4421 H   0  0  0  0  0  0
  -27.8620  -30.4361   23.9091 H   0  0  0  0  0  0
  -27.2698  -33.3558   26.2072 H   0  0  0  0  0  0
  -28.3877  -32.6841   25.0281 H   0  0  0  0  0  0
  -28.0733  -31.8350   26.5337 H   0  0  0  0  0  0
  -28.2596  -38.0104   24.7497 H   0  0  0  0  0  0
  -28.1076  -36.2627   24.6310 H   0  0  0  0  0  0
  -27.2298  -37.1479   25.8871 H   0  0  0  0  0  0
  -20.9267  -29.8727   21.6914 H   0  0  0  0  0  0
  -26.0182  -38.2851   24.1393 H   0  0  0  0  0  0
  -30.6533  -19.5675   20.3565 H   0  0  0  0  0  0
  -26.4810  -19.7842   21.5453 H   0  0  0  0  0  0
  -25.7497  -21.1814   19.7703 H   0  0  0  0  0  0
  -26.8357  -20.2846   18.6963 H   0  0  0  0  0  0
  -26.1400  -21.8013   18.1659 H   0  0  0  0  0  0
  -29.8983  -24.0711   17.7492 H   0  0  0  0  0  0
  -30.4496  -25.4496   18.6914 H   0  0  0  0  0  0
  -28.9063  -25.5236   17.8465 H   0  0  0  0  0  0
  -32.6909  -15.5371   22.4842 H   0  0  0  0  0  0
  -33.5704  -17.0579   22.6099 H   0  0  0  0  0  0
  -33.4997  -16.2343   21.0635 H   0  0  0  0  0  0
  -28.9108  -25.3807   21.5347 H   0  0  0  0  0  0
  -27.3102  -25.1319   20.9488 H   0  0  0  0  0  0
  -29.6352  -23.7615   20.2208 H   0  0  0  0  0  0
  -29.5518  -21.7945   20.5130 H   0  0  0  0  0  0
  -29.0160  -15.4950   21.2515 H   0  0  0  0  0  0
  -31.8368  -18.2231   21.7444 H   0  0  0  0  0  0
  -27.1027  -23.7181   18.6934 H   0  0  0  0  0  0
  1 25  1  0  0  0
  1 30  2  0  0  0
  1 83  1  0  0  0
  2  3  1  0  0  0
  2 25  1  0  0  0
  2 87  1  0  0  0
  2 88  1  0  0  0
  3  4  1  0  0  0
  3 89  1  0  0  0
  3 90  1  0  0  0
  4  5  1  0  0  0
  4 91  1  0  0  0
  4 92  1  0  0  0
  5  6  1  0  0  0
  5 26  1  0  0  0
  5 93  1  0  0  0
  6 25  1  0  0  0
  6 94  1  0  0  0
  6 95  1  0  0  0
  7  8  2  0  0  0
  7 26  1  0  0  0
  7 29  1  0  0  0
  8  9  1  0  0  0
  8 22  1  0  0  0
  9 10  1  0  0  0
  9 27  2  0  0  0
 10 11  2  0  0  0
 10 15  1  0  0  0
 11 12  1  0  0  0
 11 96  1  0  0  0
 12 13  2  0  0  0
 12 97  1  0  0  0
 13 14  1  0  0  0
 13 31  1  0  0  0
 14 15  2  0  0  0
 14 98  1  0  0  0
 15 99  1  0  0  0
 16 17  2  0  0  0
 16 21  1  0  0  0
 16 31  1  0  0  0
 17 18  1  0  0  0
 17100  1  0  0  0
 18 19  2  0  0  0
 18101  1  0  0  0
 19 20  1  0  0  0
 19 24  1  0  0  0
 20 21  2  0  0  0
 20102  1  0  0  0
 21 23  1  0  0  0
 22 28  1  0  0  0
 22 32  2  0  0  0
 26 27  1  0  0  0
 28103  1  0  0  0
 28104  1  0  0  0
 29105  1  0  0  0
 29106  1  0  0  0
 33 34  1  0  0  0
 33 66  1  0  0  0
 33 70  2  0  0  0
 34 36  1  0  0  0
 34 59  1  0  0  0
 34107  1  0  0  0
 35 44  2  0  0  0
 35 45  1  0  0  0
 35 68  1  0  0  0
 36 56  1  0  0  0
 36108  1  0  0  0
 37 39  1  0  0  0
 37 47  1  0  0  0
 37 66  1  0  0  0
 37109  1  0  0  0
 38 43  2  0  0  0
 38 46  1  0  0  0
 38 47  1  0  0  0
 39 64  1  0  0  0
 39 67  2  0  0  0
 40 52  1  0  0  0
 40 53  2  0  0  0
 40 58  1  0  0  0
 41110  1  0  0  0
 41111  1  0  0  0
 41112  1  0  0  0
 41 48  1  0  0  0
 42 43  1  0  0  0
 42 66  1  0  0  0
 42113  1  0  0  0
 42114  1  0  0  0
 43 44  1  0  0  0
 44115  1  0  0  0
 45 46  2  0  0  0
 45116  1  0  0  0
 46117  1  0  0  0
 47118  1  0  0  0
 47119  1  0  0  0
 48 56  1  0  0  0
 48 65  1  0  0  0
 48120  1  0  0  0
 49 50  1  0  0  0
 49 53  1  0  0  0
 49 64  1  0  0  0
 49121  1  0  0  0
 50 51  1  0  0  0
 50122  1  0  0  0
 50123  1  0  0  0
 51 52  1  0  0  0
 51124  1  0  0  0
 51125  1  0  0  0
 52126  1  0  0  0
 52127  1  0  0  0
 53 54  1  0  0  0
 54 55  2  0  0  0
 54128  1  0  0  0
 55 57  1  0  0  0
 55129  1  0  0  0
 56 69  2  0  0  0
 57 58  2  0  0  0
 57130  1  0  0  0
 58131  1  0  0  0
 59 60  1  0  0  0
 59 61  1  0  0  0
 59 62  1  0  0  0
 60132  1  0  0  0
 60133  1  0  0  0
 60134  1  0  0  0
 61135  1  0  0  0
 61136  1  0  0  0
 61137  1  0  0  0
 62138  1  0  0  0
 62139  1  0  0  0
 62140  1  0  0  0
 63 65  1  0  0  0
 63141  1  0  0  0
 63142  1  0  0  0
 63143  1  0  0  0
 64144  1  0  0  0
 65145  1  0  0  0
 68 80  1  0  0  0
 71 73  1  0  0  0
 71 74  2  0  0  0
 71146  1  0  0  0
 72 73  2  0  0  0
 72 86  1  0  0  0
 72147  1  0  0  0
 73 82  1  0  0  0
 74 75  1  0  0  0
 74 86  1  0  0  0
 75 83  1  0  0  0
 75 84  2  0  0  0
 76 77  1  0  0  0
 76 82  1  0  0  0
 76 85  2  0  0  0
 77148  1  0  0  0
 77149  1  0  0  0
 77150  1  0  0  0
 78151  1  0  0  0
 78152  1  0  0  0
 78153  1  0  0  0
 78 81  1  0  0  0
 79 84  1  0  0  0
 79154  1  0  0  0
 79155  1  0  0  0
 79156  1  0  0  0
 80 81  1  0  0  0
 80157  1  0  0  0
 80158  1  0  0  0
 81 85  1  0  0  0
 81159  1  0  0  0
 82160  1  0  0  0
 83161  1  0  0  0
 84162  1  0  0  0
 85163  1  0  0  0
M  CHG  2  84   1  85   1
M  ISO  4   1 100  68 101  80 101  83 100
M  END
> <chiral flag>
0

> <version>
0

> <s_m_source_file>
/data/baiqing/PycharmProjects/Reinvent-master-3.2/result/LINK_invent/BTK/process_docking_weight1_custom_product_contain_oxygen_bond_distance_aromatic_linkinvent_7_9_3/rearranged_h_0159.sdf

> <i_m_source_file_index>
14

> <r_mmod_Potential_Energy-OPLS-2005>
-186.678039550781

> <r_mmod_Stretch_Energy-OPLS-2005>
34.9434776306152

> <r_mmod_Bend_Energy-OPLS-2005>
125.672760009766

> <r_mmod_Torsional_Energy-OPLS-2005>
243.843643188477

> <r_mmod_Improper_Torsional_Energy-OPLS-2005>
7.03031158447266

> <r_mmod_Van_der_Waal_Energy-OPLS-2005>
135.780090332031

> <r_mmod_Electrostatic_Energy-OPLS-2005>
101.540176391602

> <r_mmod_Solvation_Energy-OPLS-2005>
-847.582092285156

> <b_mmod_Minimization_Converged-OPLS-2005>
0

> <r_mmod_RMS_Derivative-OPLS-2005>
1.7256920337677

$$$$
14
                    3D
 Structure written by MMmdl.
165173  0  0  1  0            999 V2000
  -30.6129  -14.7470   20.4550 C   0  0  0  0  0  0
  -30.4342  -12.4588   19.4627 C   0  0  0  0  0  0
  -29.5084  -12.4972   18.2276 C   0  0  0  0  0  0
  -28.0340  -12.3214   18.6444 C   0  0  0  0  0  0
  -27.6379  -13.2275   19.8412 C   0  0  2  0  0  0
  -28.6854  -13.1728   20.9739 C   0  0  0  0  0  0
  -25.2499  -13.8186   20.5669 C   0  0  0  0  0  0
  -24.1792  -13.0435   20.9199 C   0  0  0  0  0  0
  -24.6382  -11.6913   20.8753 C   0  0  0  0  0  0
  -23.9061  -10.4287   21.0397 C   0  0  0  0  0  0
  -24.3617   -9.4199   21.9168 C   0  0  0  0  0  0
  -23.6293   -8.2237   22.0747 C   0  0  0  0  0  0
  -22.4278   -8.0269   21.3538 C   0  0  0  0  0  0
  -21.9909   -9.0237   20.4642 C   0  0  0  0  0  0
  -22.7230  -10.2120   20.3045 C   0  0  0  0  0  0
  -21.6852   -6.0725   22.5267 C   0  0  0  0  0  0
  -21.4008   -6.5636   23.8196 C   0  0  0  0  0  0
  -21.3665   -5.6793   24.9166 C   0  0  0  0  0  0
  -21.6045   -4.3053   24.7219 C   0  0  0  0  0  0
  -21.8821   -3.8140   23.4346 C   0  0  0  0  0  0
  -21.9191   -4.6954   22.3401 C   0  0  0  0  0  0
  -22.7817  -13.5213   21.1861 C   0  0  0  0  0  0
  -22.1657   -4.2138   21.0978 F   0  0  0  0  0  0
  -21.5642   -3.4540   25.7738 F   0  0  0  0  0  0
  -29.9809  -13.5255   20.3821 N   0  0  0  0  0  0
  -26.2912  -12.9379   20.3232 N   0  0  0  0  0  0
  -25.9302  -11.6527   20.5738 N   0  0  0  0  0  0
  -22.0468  -12.8203   22.0431 N   0  0  0  0  0  0
  -25.4193  -15.1913   20.4085 N   0  0  0  0  0  0
  -31.8151  -14.8274   20.1886 O   0  0  0  0  0  0
  -21.6644   -6.8865   21.4232 O   0  0  0  0  0  0
  -22.3494  -14.5508   20.6687 O   0  0  0  0  0  0
  -24.6369  -31.8507   23.1974 C   0  0  0  0  0  0
  -25.9188  -32.4733   23.8303 C   0  0  1  0  0  0
  -27.2190  -27.2433   20.1206 C   0  0  0  0  0  0
  -25.5970  -33.8537   24.2233 N   0  0  0  0  0  0
  -23.4315  -30.4768   21.5417 C   0  0  2  0  0  0
  -24.8743  -28.9233   20.1098 C   0  0  0  0  0  0
  -22.7518  -29.4583   22.4891 C   0  0  0  0  0  0
  -18.0289  -28.1392   22.8478 C   0  0  0  0  0  0
  -24.1493  -36.7284   23.2633 C   0  0  0  0  0  0
  -25.9791  -30.7644   21.3721 C   0  0  0  0  0  0
  -26.0507  -29.3847   20.7125 C   0  0  0  0  0  0
  -27.2252  -28.5604   20.7024 C   0  0  0  0  0  0
  -26.0017  -26.8472   19.5179 C   0  0  0  0  0  0
  -24.8557  -27.6614   19.5014 C   0  0  0  0  0  0
  -23.6471  -29.8126   20.1559 C   0  0  0  0  0  0
  -25.4119  -36.3061   24.0323 C   0  0  1  0  0  0
  -20.5900  -28.3709   23.1245 C   0  0  2  0  0  0
  -20.6786  -26.9420   22.5404 C   0  0  0  0  0  0
  -19.5759  -26.6379   21.5213 C   0  0  0  0  0  0
  -18.1932  -26.7934   22.1620 C   0  0  0  0  0  0
  -19.1549  -28.8865   23.2850 C   0  0  0  0  0  0
  -18.9475  -30.1469   23.8864 C   0  0  0  0  0  0
  -17.6473  -30.6585   24.0570 C   0  0  0  0  0  0
  -25.9078  -34.9432   23.5081 C   0  0  0  0  0  0
  -16.5364  -29.9091   23.6321 C   0  0  0  0  0  0
  -16.7279  -28.6511   23.0337 C   0  0  0  0  0  0
  -26.4523  -31.6565   25.0707 C   0  0  0  0  0  0
  -25.3744  -31.3744   26.1430 C   0  0  0  0  0  0
  -27.0354  -30.2976   24.6207 C   0  0  0  0  0  0
  -27.6061  -32.4311   25.7503 C   0  0  0  0  0  0
  -27.5578  -37.1782   24.8458 C   0  0  0  0  0  0
  -21.4224  -29.3050   22.3631 N   0  0  0  0  0  0
  -26.4278  -37.3773   23.9430 N   0  0  0  0  0  0
  -24.7023  -31.0476   22.0944 N   0  0  0  0  0  0
  -23.4208  -28.8096   23.2976 O   0  0  0  0  0  0
  -28.3322  -26.3571   20.1632 O   0  0  0  0  0  0
  -26.5631  -34.8914   22.4642 O   0  0  0  0  0  0
  -23.5525  -32.1305   23.7288 O   0  0  0  0  0  0
  -29.4999  -18.4967   20.3106 C   0  0  0  0  0  0
  -31.0698  -20.0008   21.4165 C   0  0  0  0  0  0
  -31.3776  -17.5707   21.5528 C   0  0  0  0  0  0
  -29.9210  -19.8618   20.6093 C   0  0  0  0  0  0
  -30.2247  -17.3162   20.7759 C   0  0  0  0  0  0
  -31.8061  -18.8792   21.8695 C   0  0  0  0  0  0
  -29.3661  -21.1716   20.0290 C   0  0  0  0  0  0
  -28.0964  -24.6832   18.3543 C   0  0  0  0  0  0
  -33.7874  -20.2213   22.6004 C   0  0  0  0  0  0
  -29.3988  -23.8755   20.3665 C   0  0  0  0  0  0
  -28.2023  -24.8670   19.8851 C   0  0  1  0  0  0
  -34.6661  -20.3387   21.3381 C   0  0  0  0  0  0
  -29.0896  -21.2041   18.7321 N   0  0  0  0  0  0
  -27.1915  -23.8302   17.8801 N   0  0  0  0  0  0
  -29.8308  -15.8952   20.5564 N   0  0  0  0  0  0
  -32.9776  -18.9988   22.6379 N   0  0  0  0  0  0
  -29.2338  -22.3656   20.7237 N   0  3  0  0  0  0
  -28.8188  -25.3209   17.5882 O   0  0  0  0  0  0
  -35.4277  -21.4282   21.4293 F   0  0  0  0  0  0
  -35.4569  -19.2704   21.2312 F   0  0  0  0  0  0
  -33.9134  -20.4356   20.2418 F   0  0  0  0  0  0
  -31.4728  -12.5918   19.1546 H   0  0  0  0  0  0
  -30.3887  -11.4852   19.9530 H   0  0  0  0  0  0
  -29.7916  -11.7179   17.5191 H   0  0  0  0  0  0
  -29.6319  -13.4468   17.7048 H   0  0  0  0  0  0
  -27.8910  -11.2744   18.9141 H   0  0  0  0  0  0
  -27.3751  -12.5041   17.7944 H   0  0  0  0  0  0
  -27.6267  -14.2447   19.4500 H   0  0  0  0  0  0
  -28.7254  -12.1782   21.4206 H   0  0  0  0  0  0
  -28.4243  -13.8644   21.7765 H   0  0  0  0  0  0
  -25.2750   -9.5689   22.4747 H   0  0  0  0  0  0
  -24.0001   -7.4635   22.7474 H   0  0  0  0  0  0
  -21.0827   -8.8733   19.8967 H   0  0  0  0  0  0
  -22.3645  -10.9651   19.6166 H   0  0  0  0  0  0
  -21.1989   -7.6137   23.9695 H   0  0  0  0  0  0
  -21.1492   -6.0524   25.9069 H   0  0  0  0  0  0
  -22.0602   -2.7598   23.2844 H   0  0  0  0  0  0
  -22.4083  -11.9874   22.4836 H   0  0  0  0  0  0
  -21.1076  -13.1218   22.2626 H   0  0  0  0  0  0
  -24.6508  -15.8443   20.5200 H   0  0  0  0  0  0
  -26.2567  -15.6305   20.0519 H   0  0  0  0  0  0
  -26.7247  -32.5356   23.1033 H   0  0  0  0  0  0
  -25.0149  -33.9655   25.0402 H   0  0  0  0  0  0
  -22.7279  -31.2997   21.3987 H   0  0  0  0  0  0
  -23.3764  -35.9606   23.3282 H   0  0  0  0  0  0
  -24.3571  -36.8921   22.2044 H   0  0  0  0  0  0
  -23.7225  -37.6477   23.6661 H   0  0  0  0  0  0
  -26.1099  -31.5266   20.6021 H   0  0  0  0  0  0
  -26.8609  -30.8157   21.9996 H   0  0  0  0  0  0
  -28.1254  -28.9150   21.1838 H   0  0  0  0  0  0
  -25.8840  -25.8767   19.0682 H   0  0  0  0  0  0
  -23.9525  -27.2948   19.0320 H   0  0  0  0  0  0
  -23.7724  -30.5902   19.4012 H   0  0  0  0  0  0
  -22.7652  -29.2470   19.8488 H   0  0  0  0  0  0
  -25.1298  -36.1898   25.0813 H   0  0  0  0  0  0
  -20.9993  -28.3306   24.1365 H   0  0  0  0  0  0
  -20.5686  -26.2320   23.3612 H   0  0  0  0  0  0
  -21.6644  -26.7434   22.1188 H   0  0  0  0  0  0
  -19.6935  -25.6290   21.1228 H   0  0  0  0  0  0
  -19.6703  -27.3195   20.6747 H   0  0  0  0  0  0
  -17.4201  -26.6669   21.4026 H   0  0  0  0  0  0
  -18.0348  -26.0084   22.9023 H   0  0  0  0  0  0
  -19.7962  -30.7297   24.2199 H   0  0  0  0  0  0
  -17.5035  -31.6254   24.5210 H   0  0  0  0  0  0
  -15.5368  -30.2999   23.7657 H   0  0  0  0  0  0
  -15.8676  -28.0840   22.7051 H   0  0  0  0  0  0
  -24.5932  -30.7074   25.7780 H   0  0  0  0  0  0
  -24.8917  -32.2921   26.4806 H   0  0  0  0  0  0
  -25.8054  -30.8957   27.0235 H   0  0  0  0  0  0
  -26.2930  -29.6738   24.1216 H   0  0  0  0  0  0
  -27.4009  -29.7238   25.4734 H   0  0  0  0  0  0
  -27.8829  -30.4252   23.9468 H   0  0  0  0  0  0
  -27.2668  -33.3644   26.2025 H   0  0  0  0  0  0
  -28.3908  -32.6822   25.0356 H   0  0  0  0  0  0
  -28.0691  -31.8462   26.5461 H   0  0  0  0  0  0
  -28.2567  -38.0107   24.7518 H   0  0  0  0  0  0
  -28.1086  -36.2624   24.6254 H   0  0  0  0  0  0
  -27.2277  -37.1394   25.8852 H   0  0  0  0  0  0
  -20.9415  -29.8808   21.6859 H   0  0  0  0  0  0
  -26.0155  -38.2840   24.1473 H   0  0  0  0  0  0
  -28.6206  -18.3618   19.6960 H   0  0  0  0  0  0
  -31.4072  -21.0036   21.6348 H   0  0  0  0  0  0
  -31.9498  -16.7368   21.9313 H   0  0  0  0  0  0
  -33.1805  -21.1162   22.7286 H   0  0  0  0  0  0
  -34.4438  -20.2024   23.4706 H   0  0  0  0  0  0
  -29.7942  -24.3266   21.2774 H   0  0  0  0  0  0
  -30.2251  -23.9561   19.6567 H   0  0  0  0  0  0
  -27.2826  -24.5199   20.3589 H   0  0  0  0  0  0
  -29.2213  -20.3688   18.1816 H   0  0  0  0  0  0
  -28.7219  -22.0238   18.2795 H   0  0  0  0  0  0
  -26.5687  -23.3324   18.5030 H   0  0  0  0  0  0
  -27.0757  -23.7245   16.8820 H   0  0  0  0  0  0
  -28.8383  -15.7258   20.5109 H   0  0  0  0  0  0
  -33.5392  -18.1561   22.6979 H   0  0  0  0  0  0
  -29.1713  -22.2162   21.7242 H   0  0  0  0  0  0
  1 25  1  0  0  0
  1 30  2  0  0  0
  1 85  1  0  0  0
  2  3  1  0  0  0
  2 25  1  0  0  0
  2 92  1  0  0  0
  2 93  1  0  0  0
  3  4  1  0  0  0
  3 94  1  0  0  0
  3 95  1  0  0  0
  4  5  1  0  0  0
  4 96  1  0  0  0
  4 97  1  0  0  0
  5  6  1  0  0  0
  5 26  1  0  0  0
  5 98  1  0  0  0
  6 25  1  0  0  0
  6 99  1  0  0  0
  6100  1  0  0  0
  7  8  2  0  0  0
  7 26  1  0  0  0
  7 29  1  0  0  0
  8  9  1  0  0  0
  8 22  1  0  0  0
  9 10  1  0  0  0
  9 27  2  0  0  0
 10 11  2  0  0  0
 10 15  1  0  0  0
 11 12  1  0  0  0
 11101  1  0  0  0
 12 13  2  0  0  0
 12102  1  0  0  0
 13 14  1  0  0  0
 13 31  1  0  0  0
 14 15  2  0  0  0
 14103  1  0  0  0
 15104  1  0  0  0
 16 17  2  0  0  0
 16 21  1  0  0  0
 16 31  1  0  0  0
 17 18  1  0  0  0
 17105  1  0  0  0
 18 19  2  0  0  0
 18106  1  0  0  0
 19 20  1  0  0  0
 19 24  1  0  0  0
 20 21  2  0  0  0
 20107  1  0  0  0
 21 23  1  0  0  0
 22 28  1  0  0  0
 22 32  2  0  0  0
 26 27  1  0  0  0
 28108  1  0  0  0
 28109  1  0  0  0
 29110  1  0  0  0
 29111  1  0  0  0
 33 34  1  0  0  0
 33 66  1  0  0  0
 33 70  2  0  0  0
 34 36  1  0  0  0
 34 59  1  0  0  0
 34112  1  0  0  0
 35 44  2  0  0  0
 35 45  1  0  0  0
 35 68  1  0  0  0
 36 56  1  0  0  0
 36113  1  0  0  0
 37 39  1  0  0  0
 37 47  1  0  0  0
 37 66  1  0  0  0
 37114  1  0  0  0
 38 43  2  0  0  0
 38 46  1  0  0  0
 38 47  1  0  0  0
 39 64  1  0  0  0
 39 67  2  0  0  0
 40 52  1  0  0  0
 40 53  2  0  0  0
 40 58  1  0  0  0
 41115  1  0  0  0
 41116  1  0  0  0
 41117  1  0  0  0
 41 48  1  0  0  0
 42 43  1  0  0  0
 42 66  1  0  0  0
 42118  1  0  0  0
 42119  1  0  0  0
 43 44  1  0  0  0
 44120  1  0  0  0
 45 46  2  0  0  0
 45121  1  0  0  0
 46122  1  0  0  0
 47123  1  0  0  0
 47124  1  0  0  0
 48 56  1  0  0  0
 48 65  1  0  0  0
 48125  1  0  0  0
 49 50  1  0  0  0
 49 53  1  0  0  0
 49 64  1  0  0  0
 49126  1  0  0  0
 50 51  1  0  0  0
 50127  1  0  0  0
 50128  1  0  0  0
 51 52  1  0  0  0
 51129  1  0  0  0
 51130  1  0  0  0
 52131  1  0  0  0
 52132  1  0  0  0
 53 54  1  0  0  0
 54 55  2  0  0  0
 54133  1  0  0  0
 55 57  1  0  0  0
 55134  1  0  0  0
 56 69  2  0  0  0
 57 58  2  0  0  0
 57135  1  0  0  0
 58136  1  0  0  0
 59 60  1  0  0  0
 59 61  1  0  0  0
 59 62  1  0  0  0
 60137  1  0  0  0
 60138  1  0  0  0
 60139  1  0  0  0
 61140  1  0  0  0
 61141  1  0  0  0
 61142  1  0  0  0
 62143  1  0  0  0
 62144  1  0  0  0
 62145  1  0  0  0
 63 65  1  0  0  0
 63146  1  0  0  0
 63147  1  0  0  0
 63148  1  0  0  0
 64149  1  0  0  0
 65150  1  0  0  0
 68 81  1  0  0  0
 71 74  2  0  0  0
 71 75  1  0  0  0
 71151  1  0  0  0
 72 74  1  0  0  0
 72 76  2  0  0  0
 72152  1  0  0  0
 73 75  2  0  0  0
 73 76  1  0  0  0
 73153  1  0  0  0
 74 77  1  0  0  0
 75 85  1  0  0  0
 76 86  1  0  0  0
 77 83  1  0  0  0
 77 87  2  0  0  0
 78 81  1  0  0  0
 78 84  1  0  0  0
 78 88  2  0  0  0
 79 82  1  0  0  0
 79 86  1  0  0  0
 79154  1  0  0  0
 79155  1  0  0  0
 80 87  1  0  0  0
 80156  1  0  0  0
 80157  1  0  0  0
 80 81  1  0  0  0
 81158  1  0  0  0
 82 89  1  0  0  0
 82 90  1  0  0  0
 82 91  1  0  0  0
 83159  1  0  0  0
 83160  1  0  0  0
 84161  1  0  0  0
 84162  1  0  0  0
 85163  1  0  0  0
 86164  1  0  0  0
 87165  1  0  0  0
M  CHG  1  87   1
M  ISO  4   1 100  68 101  81 101  85 100
M  END
> <chiral flag>
0

> <version>
0

> <s_m_source_file>
/data/baiqing/PycharmProjects/Reinvent-master-3.2/result/LINK_invent/BTK/process_docking_weight1_custom_product_contain_oxygen_bond_distance_aromatic_linkinvent_7_9_3/rearranged_h_0159.sdf

> <i_m_source_file_index>
15

> <r_mmod_Potential_Energy-OPLS-2005>
-80.6421813964844

> <r_mmod_Stretch_Energy-OPLS-2005>
137.107635498047

> <r_mmod_Bend_Energy-OPLS-2005>
188.825042724609

> <r_mmod_Torsional_Energy-OPLS-2005>
235.867172241211

> <r_mmod_Improper_Torsional_Energy-OPLS-2005>
11.4596700668335

> <r_mmod_Van_der_Waal_Energy-OPLS-2005>
142.260848999023

> <r_mmod_Electrostatic_Energy-OPLS-2005>
-397.927642822266

> <r_mmod_Solvation_Energy-OPLS-2005>
-488.564361572266

> <b_mmod_Minimization_Converged-OPLS-2005>
0

> <r_mmod_RMS_Derivative-OPLS-2005>
2.557377576828

$$$$
15
                    3D
 Structure written by MMmdl.
156164  0  0  1  0            999 V2000
  -30.6874  -14.4700   20.5265 C   0  0  0  0  0  0
  -30.4321  -12.2912   19.4321 C   0  0  0  0  0  0
  -29.5015  -12.4783   18.2143 C   0  0  0  0  0  0
  -28.0223  -12.3490   18.6278 C   0  0  0  0  0  0
  -27.6653  -13.2004   19.8749 C   0  0  2  0  0  0
  -28.7062  -12.9868   20.9981 C   0  0  0  0  0  0
  -25.2661  -13.8133   20.5787 C   0  0  0  0  0  0
  -24.1880  -13.0435   20.9200 C   0  0  0  0  0  0
  -24.6406  -11.6888   20.8715 C   0  0  0  0  0  0
  -23.9050  -10.4287   21.0392 C   0  0  0  0  0  0
  -24.3586   -9.4195   21.9167 C   0  0  0  0  0  0
  -23.6265   -8.2226   22.0736 C   0  0  0  0  0  0
  -22.4250   -8.0271   21.3523 C   0  0  0  0  0  0
  -21.9893   -9.0257   20.4634 C   0  0  0  0  0  0
  -22.7220  -10.2130   20.3043 C   0  0  0  0  0  0
  -21.6849   -6.0737   22.5286 C   0  0  0  0  0  0
  -21.4015   -6.5644   23.8214 C   0  0  0  0  0  0
  -21.3662   -5.6790   24.9174 C   0  0  0  0  0  0
  -21.6033   -4.3050   24.7212 C   0  0  0  0  0  0
  -21.8827   -3.8152   23.4338 C   0  0  0  0  0  0
  -21.9190   -4.6968   22.3404 C   0  0  0  0  0  0
  -22.7903  -13.5255   21.1833 C   0  0  0  0  0  0
  -22.1641   -4.2164   21.0973 F   0  0  0  0  0  0
  -21.5645   -3.4526   25.7722 F   0  0  0  0  0  0
  -30.0390  -13.2798   20.4456 N   0  0  0  0  0  0
  -26.3058  -12.9286   20.3375 N   0  0  0  0  0  0
  -25.9321  -11.6447   20.5714 N   0  0  0  0  0  0
  -22.0506  -12.8291   22.0370 N   0  0  0  0  0  0
  -25.4500  -15.1864   20.4392 N   0  0  0  0  0  0
  -31.8466  -14.6307   20.1337 O   0  0  0  0  0  0
  -21.6609   -6.8879   21.4250 O   0  0  0  0  0  0
  -22.3638  -14.5581   20.6659 O   0  0  0  0  0  0
  -24.6111  -31.8702   23.2108 C   0  0  0  0  0  0
  -25.9011  -32.4841   23.8405 C   0  0  1  0  0  0
  -27.2407  -27.4594   20.0974 C   0  0  0  0  0  0
  -25.5883  -33.8638   24.2350 N   0  0  0  0  0  0
  -23.3995  -30.4909   21.5515 C   0  0  2  0  0  0
  -24.8489  -28.9543   20.1201 C   0  0  0  0  0  0
  -22.7396  -29.4662   22.5005 C   0  0  0  0  0  0
  -18.0264  -28.1365   22.8496 C   0  0  0  0  0  0
  -24.1486  -36.7330   23.2638 C   0  0  0  0  0  0
  -25.9243  -30.8410   21.3599 C   0  0  0  0  0  0
  -26.0043  -29.4726   20.7185 C   0  0  0  0  0  0
  -27.2048  -28.7290   20.7112 C   0  0  0  0  0  0
  -26.0754  -26.9478   19.4916 C   0  0  0  0  0  0
  -24.8771  -27.6882   19.5070 C   0  0  0  0  0  0
  -23.6083  -29.8190   20.1672 C   0  0  0  0  0  0
  -25.4103  -36.3138   24.0350 C   0  0  1  0  0  0
  -20.5851  -28.3661   23.1327 C   0  0  2  0  0  0
  -20.6758  -26.9397   22.5421 C   0  0  0  0  0  0
  -19.5739  -26.6381   21.5209 C   0  0  0  0  0  0
  -18.1916  -26.7911   22.1626 C   0  0  0  0  0  0
  -19.1512  -28.8828   23.2909 C   0  0  0  0  0  0
  -18.9450  -30.1433   23.8918 C   0  0  0  0  0  0
  -17.6457  -30.6580   24.0562 C   0  0  0  0  0  0
  -25.9028  -34.9493   23.5151 C   0  0  0  0  0  0
  -16.5345  -29.9089   23.6315 C   0  0  0  0  0  0
  -16.7257  -28.6500   23.0344 C   0  0  0  0  0  0
  -26.4443  -31.6606   25.0714 C   0  0  0  0  0  0
  -25.3735  -31.3710   26.1489 C   0  0  0  0  0  0
  -27.0246  -30.3057   24.6039 C   0  0  0  0  0  0
  -27.6041  -32.4298   25.7465 C   0  0  0  0  0  0
  -27.5585  -37.1821   24.8463 C   0  0  0  0  0  0
  -21.4129  -29.3028   22.3743 N   0  0  0  0  0  0
  -26.4296  -37.3813   23.9413 N   0  0  0  0  0  0
  -24.6632  -31.0812   22.1003 N   0  0  0  0  0  0
  -23.4182  -28.8199   23.3026 O   0  0  0  0  0  0
  -28.4048  -26.7331   20.0550 O   0  0  0  0  0  0
  -26.5591  -34.8937   22.4711 O   0  0  0  0  0  0
  -23.5309  -32.1440   23.7527 O   0  0  0  0  0  0
  -29.6290  -18.0063   21.2363 C   0  0  0  0  0  0
  -30.0628  -16.8685   20.4903 C   0  0  0  0  0  0
  -30.5381  -17.3137   19.2789 C   0  0  0  0  0  0
  -29.9383  -19.0672   20.4261 C   0  0  0  0  0  0
  -29.1609  -22.4224   21.9983 C   0  0  0  0  0  0
  -28.1878  -24.3990   20.7817 C   0  0  0  0  0  0
  -31.0355  -16.6721   18.0247 C   0  0  0  0  0  0
  -27.9909  -23.4057   21.9313 C   0  0  0  0  0  0
  -28.8868  -20.9406   21.7009 C   0  0  0  0  0  0
  -28.5739  -25.8393   21.1596 C   0  0  0  0  0  0
  -29.9222  -15.5100   20.9099 N   0  0  0  0  0  0
  -29.7747  -20.4302   20.6595 N   0  0  0  0  0  0
  -30.3005  -22.8015   22.2902 O   0  0  0  0  0  0
  -28.0230  -24.0579   19.6023 O   0  0  0  0  0  0
  -30.4882  -18.6772   19.2480 O   0  0  0  0  0  0
  -31.4757  -12.3988   19.1307 H   0  0  0  0  0  0
  -30.3405  -11.2818   19.8380 H   0  0  0  0  0  0
  -29.7339  -11.7368   17.4482 H   0  0  0  0  0  0
  -29.6707  -13.4558   17.7591 H   0  0  0  0  0  0
  -27.8316  -11.2961   18.8360 H   0  0  0  0  0  0
  -27.3713  -12.6160   17.7949 H   0  0  0  0  0  0
  -27.7071  -14.2435   19.5639 H   0  0  0  0  0  0
  -28.6766  -11.9532   21.3453 H   0  0  0  0  0  0
  -28.4780  -13.5944   21.8746 H   0  0  0  0  0  0
  -25.2697   -9.5695   22.4779 H   0  0  0  0  0  0
  -23.9982   -7.4641   22.7465 H   0  0  0  0  0  0
  -21.0812   -8.8795   19.8949 H   0  0  0  0  0  0
  -22.3664  -10.9692   19.6191 H   0  0  0  0  0  0
  -21.2007   -7.6145   23.9719 H   0  0  0  0  0  0
  -21.1464   -6.0512   25.9079 H   0  0  0  0  0  0
  -22.0597   -2.7610   23.2835 H   0  0  0  0  0  0
  -22.4042  -11.9904   22.4727 H   0  0  0  0  0  0
  -21.1152  -13.1421   22.2555 H   0  0  0  0  0  0
  -24.7063  -15.8564   20.5945 H   0  0  0  0  0  0
  -26.3269  -15.6214   20.1841 H   0  0  0  0  0  0
  -26.7087  -32.5573   23.1181 H   0  0  0  0  0  0
  -25.0051  -33.9802   25.0512 H   0  0  0  0  0  0
  -22.6867  -31.3059   21.4115 H   0  0  0  0  0  0
  -23.3742  -35.9669   23.3319 H   0  0  0  0  0  0
  -24.3582  -36.8913   22.2048 H   0  0  0  0  0  0
  -23.7239  -37.6549   23.6620 H   0  0  0  0  0  0
  -26.0236  -31.5985   20.5815 H   0  0  0  0  0  0
  -26.8170  -30.9071   21.9691 H   0  0  0  0  0  0
  -28.0999  -29.1292   21.1674 H   0  0  0  0  0  0
  -26.0987  -25.9823   19.0055 H   0  0  0  0  0  0
  -23.9899  -27.2828   19.0411 H   0  0  0  0  0  0
  -23.7166  -30.5919   19.4052 H   0  0  0  0  0  0
  -22.7329  -29.2379   19.8721 H   0  0  0  0  0  0
  -25.1269  -36.2019   25.0841 H   0  0  0  0  0  0
  -20.9941  -28.3212   24.1448 H   0  0  0  0  0  0
  -20.5648  -26.2260   23.3605 H   0  0  0  0  0  0
  -21.6630  -26.7430   22.1215 H   0  0  0  0  0  0
  -19.6897  -25.6297   21.1224 H   0  0  0  0  0  0
  -19.6670  -27.3203   20.6747 H   0  0  0  0  0  0
  -17.4179  -26.6649   21.4033 H   0  0  0  0  0  0
  -18.0330  -26.0051   22.9024 H   0  0  0  0  0  0
  -19.7925  -30.7232   24.2302 H   0  0  0  0  0  0
  -17.5014  -31.6259   24.5166 H   0  0  0  0  0  0
  -15.5346  -30.3006   23.7620 H   0  0  0  0  0  0
  -15.8656  -28.0829   22.7056 H   0  0  0  0  0  0
  -24.5865  -30.7101   25.7833 H   0  0  0  0  0  0
  -24.8981  -32.2876   26.4997 H   0  0  0  0  0  0
  -25.8108  -30.8827   27.0213 H   0  0  0  0  0  0
  -26.2764  -29.6856   24.1091 H   0  0  0  0  0  0
  -27.4036  -29.7241   25.4453 H   0  0  0  0  0  0
  -27.8589  -30.4385   23.9148 H   0  0  0  0  0  0
  -27.2683  -33.3591   26.2078 H   0  0  0  0  0  0
  -28.3835  -32.6870   25.0278 H   0  0  0  0  0  0
  -28.0724  -31.8396   26.5356 H   0  0  0  0  0  0
  -28.2612  -38.0112   24.7521 H   0  0  0  0  0  0
  -28.1075  -36.2650   24.6272 H   0  0  0  0  0  0
  -27.2310  -37.1454   25.8867 H   0  0  0  0  0  0
  -20.9288  -29.8785   21.7004 H   0  0  0  0  0  0
  -26.0198  -38.2896   24.1411 H   0  0  0  0  0  0
  -29.1807  -18.0430   22.2189 H   0  0  0  0  0  0
  -30.6111  -15.6782   17.8928 H   0  0  0  0  0  0
  -32.1188  -16.5693   18.0443 H   0  0  0  0  0  0
  -30.7682  -17.2652   17.1502 H   0  0  0  0  0  0
  -27.9287  -23.9449   22.8751 H   0  0  0  0  0  0
  -27.0491  -22.8757   21.7971 H   0  0  0  0  0  0
  -27.8468  -20.8116   21.3999 H   0  0  0  0  0  0
  -29.0261  -20.3737   22.6219 H   0  0  0  0  0  0
  -29.6211  -25.8515   21.4618 H   0  0  0  0  0  0
  -27.9897  -26.1660   22.0217 H   0  0  0  0  0  0
  -29.0559  -15.2736   21.3708 H   0  0  0  0  0  0
  -30.0350  -21.1060   19.9474 H   0  0  0  0  0  0
  1 25  1  0  0  0
  1 30  2  0  0  0
  1 81  1  0  0  0
  2  3  1  0  0  0
  2 25  1  0  0  0
  2 86  1  0  0  0
  2 87  1  0  0  0
  3  4  1  0  0  0
  3 88  1  0  0  0
  3 89  1  0  0  0
  4  5  1  0  0  0
  4 90  1  0  0  0
  4 91  1  0  0  0
  5  6  1  0  0  0
  5 26  1  0  0  0
  5 92  1  0  0  0
  6 25  1  0  0  0
  6 93  1  0  0  0
  6 94  1  0  0  0
  7  8  2  0  0  0
  7 26  1  0  0  0
  7 29  1  0  0  0
  8  9  1  0  0  0
  8 22  1  0  0  0
  9 10  1  0  0  0
  9 27  2  0  0  0
 10 11  2  0  0  0
 10 15  1  0  0  0
 11 12  1  0  0  0
 11 95  1  0  0  0
 12 13  2  0  0  0
 12 96  1  0  0  0
 13 14  1  0  0  0
 13 31  1  0  0  0
 14 15  2  0  0  0
 14 97  1  0  0  0
 15 98  1  0  0  0
 16 17  2  0  0  0
 16 21  1  0  0  0
 16 31  1  0  0  0
 17 18  1  0  0  0
 17 99  1  0  0  0
 18 19  2  0  0  0
 18100  1  0  0  0
 19 20  1  0  0  0
 19 24  1  0  0  0
 20 21  2  0  0  0
 20101  1  0  0  0
 21 23  1  0  0  0
 22 28  1  0  0  0
 22 32  2  0  0  0
 26 27  1  0  0  0
 28102  1  0  0  0
 28103  1  0  0  0
 29104  1  0  0  0
 29105  1  0  0  0
 33 34  1  0  0  0
 33 66  1  0  0  0
 33 70  2  0  0  0
 34 36  1  0  0  0
 34 59  1  0  0  0
 34106  1  0  0  0
 35 44  2  0  0  0
 35 45  1  0  0  0
 35 68  1  0  0  0
 36 56  1  0  0  0
 36107  1  0  0  0
 37 39  1  0  0  0
 37 47  1  0  0  0
 37 66  1  0  0  0
 37108  1  0  0  0
 38 43  2  0  0  0
 38 46  1  0  0  0
 38 47  1  0  0  0
 39 64  1  0  0  0
 39 67  2  0  0  0
 40 52  1  0  0  0
 40 53  2  0  0  0
 40 58  1  0  0  0
 41109  1  0  0  0
 41110  1  0  0  0
 41111  1  0  0  0
 41 48  1  0  0  0
 42 43  1  0  0  0
 42 66  1  0  0  0
 42112  1  0  0  0
 42113  1  0  0  0
 43 44  1  0  0  0
 44114  1  0  0  0
 45 46  2  0  0  0
 45115  1  0  0  0
 46116  1  0  0  0
 47117  1  0  0  0
 47118  1  0  0  0
 48 56  1  0  0  0
 48 65  1  0  0  0
 48119  1  0  0  0
 49 50  1  0  0  0
 49 53  1  0  0  0
 49 64  1  0  0  0
 49120  1  0  0  0
 50 51  1  0  0  0
 50121  1  0  0  0
 50122  1  0  0  0
 51 52  1  0  0  0
 51123  1  0  0  0
 51124  1  0  0  0
 52125  1  0  0  0
 52126  1  0  0  0
 53 54  1  0  0  0
 54 55  2  0  0  0
 54127  1  0  0  0
 55 57  1  0  0  0
 55128  1  0  0  0
 56 69  2  0  0  0
 57 58  2  0  0  0
 57129  1  0  0  0
 58130  1  0  0  0
 59 60  1  0  0  0
 59 61  1  0  0  0
 59 62  1  0  0  0
 60131  1  0  0  0
 60132  1  0  0  0
 60133  1  0  0  0
 61134  1  0  0  0
 61135  1  0  0  0
 61136  1  0  0  0
 62137  1  0  0  0
 62138  1  0  0  0
 62139  1  0  0  0
 63 65  1  0  0  0
 63140  1  0  0  0
 63141  1  0  0  0
 63142  1  0  0  0
 64143  1  0  0  0
 65144  1  0  0  0
 68 80  1  0  0  0
 71 72  1  0  0  0
 71 74  2  0  0  0
 71145  1  0  0  0
 72 73  2  0  0  0
 72 81  1  0  0  0
 73 77  1  0  0  0
 73 85  1  0  0  0
 74 82  1  0  0  0
 74 85  1  0  0  0
 75 78  1  0  0  0
 75 79  1  0  0  0
 75 83  2  0  0  0
 76 78  1  0  0  0
 76 80  1  0  0  0
 76 84  2  0  0  0
 77146  1  0  0  0
 77147  1  0  0  0
 77148  1  0  0  0
 78149  1  0  0  0
 78150  1  0  0  0
 79 82  1  0  0  0
 79151  1  0  0  0
 79152  1  0  0  0
 80153  1  0  0  0
 80154  1  0  0  0
 81155  1  0  0  0
 82156  1  0  0  0
M  ISO  4   1 100  68 101  80 101  81 100
M  END
> <chiral flag>
0

> <version>
0

> <s_m_source_file>
/data/baiqing/PycharmProjects/Reinvent-master-3.2/result/LINK_invent/BTK/process_docking_weight1_custom_product_contain_oxygen_bond_distance_aromatic_linkinvent_7_9_3/rearranged_h_0159.sdf

> <i_m_source_file_index>
16

> <r_mmod_Potential_Energy-OPLS-2005>
-125.751914978027

> <r_mmod_Stretch_Energy-OPLS-2005>
31.9635353088379

> <r_mmod_Bend_Energy-OPLS-2005>
106.323165893555

> <r_mmod_Torsional_Energy-OPLS-2005>
267.049407958984

> <r_mmod_Improper_Torsional_Energy-OPLS-2005>
5.43955850601196

> <r_mmod_Van_der_Waal_Energy-OPLS-2005>
123.537956237793

> <r_mmod_Electrostatic_Energy-OPLS-2005>
-419.515686035156

> <r_mmod_Solvation_Energy-OPLS-2005>
-253.433364868164

> <b_mmod_Minimization_Converged-OPLS-2005>
0

> <r_mmod_RMS_Derivative-OPLS-2005>
3.01253533363342

$$$$
16
                    3D
 Structure written by MMmdl.
152160  0  0  1  0            999 V2000
  -30.6044  -14.7895   20.4511 C   0  0  0  0  0  0
  -30.4339  -12.4846   19.4822 C   0  0  0  0  0  0
  -29.5172  -12.5003   18.2411 C   0  0  0  0  0  0
  -28.0457  -12.3099   18.6565 C   0  0  0  0  0  0
  -27.6362  -13.2303   19.8380 C   0  0  2  0  0  0
  -28.6774  -13.2089   20.9763 C   0  0  0  0  0  0
  -25.2544  -13.8189   20.5765 C   0  0  0  0  0  0
  -24.1820  -13.0434   20.9258 C   0  0  0  0  0  0
  -24.6389  -11.6907   20.8740 C   0  0  0  0  0  0
  -23.9059  -10.4282   21.0398 C   0  0  0  0  0  0
  -24.3610   -9.4202   21.9182 C   0  0  0  0  0  0
  -23.6288   -8.2235   22.0759 C   0  0  0  0  0  0
  -22.4266   -8.0273   21.3548 C   0  0  0  0  0  0
  -21.9905   -9.0243   20.4642 C   0  0  0  0  0  0
  -22.7230  -10.2126   20.3051 C   0  0  0  0  0  0
  -21.6847   -6.0730   22.5282 C   0  0  0  0  0  0
  -21.3983   -6.5636   23.8208 C   0  0  0  0  0  0
  -21.3677   -5.6802   24.9182 C   0  0  0  0  0  0
  -21.6062   -4.3061   24.7232 C   0  0  0  0  0  0
  -21.8815   -3.8146   23.4347 C   0  0  0  0  0  0
  -21.9186   -4.6963   22.3405 C   0  0  0  0  0  0
  -22.7847  -13.5223   21.1914 C   0  0  0  0  0  0
  -22.1670   -4.2138   21.0989 F   0  0  0  0  0  0
  -21.5653   -3.4552   25.7748 F   0  0  0  0  0  0
  -29.9684  -13.5668   20.3823 N   0  0  0  0  0  0
  -26.2914  -12.9376   20.3214 N   0  0  0  0  0  0
  -25.9304  -11.6515   20.5683 N   0  0  0  0  0  0
  -22.0467  -12.8187   22.0438 N   0  0  0  0  0  0
  -25.4215  -15.1931   20.4306 N   0  0  0  0  0  0
  -31.8157  -14.8210   20.2170 O   0  0  0  0  0  0
  -21.6632   -6.8875   21.4241 O   0  0  0  0  0  0
  -22.3539  -14.5533   20.6773 O   0  0  0  0  0  0
  -24.6350  -31.8523   23.1940 C   0  0  0  0  0  0
  -25.9164  -32.4732   23.8295 C   0  0  1  0  0  0
  -27.2106  -27.2262   20.1460 C   0  0  0  0  0  0
  -25.5949  -33.8535   24.2223 N   0  0  0  0  0  0
  -23.4304  -30.4722   21.5417 C   0  0  2  0  0  0
  -24.8709  -28.9005   20.1170 C   0  0  0  0  0  0
  -22.7499  -29.4613   22.4955 C   0  0  0  0  0  0
  -18.0296  -28.1376   22.8478 C   0  0  0  0  0  0
  -24.1489  -36.7270   23.2646 C   0  0  0  0  0  0
  -25.9769  -30.7504   21.3763 C   0  0  0  0  0  0
  -26.0437  -29.3671   20.7257 C   0  0  0  0  0  0
  -27.2161  -28.5434   20.7248 C   0  0  0  0  0  0
  -26.0199  -26.8250   19.5096 C   0  0  0  0  0  0
  -24.8654  -27.6383   19.4966 C   0  0  0  0  0  0
  -23.6457  -29.7968   20.1604 C   0  0  0  0  0  0
  -25.4120  -36.3058   24.0328 C   0  0  1  0  0  0
  -20.5895  -28.3700   23.1273 C   0  0  2  0  0  0
  -20.6802  -26.9420   22.5411 C   0  0  0  0  0  0
  -19.5778  -26.6364   21.5222 C   0  0  0  0  0  0
  -18.1953  -26.7918   22.1623 C   0  0  0  0  0  0
  -19.1546  -28.8858   23.2874 C   0  0  0  0  0  0
  -18.9455  -30.1465   23.8887 C   0  0  0  0  0  0
  -17.6447  -30.6578   24.0550 C   0  0  0  0  0  0
  -25.9071  -34.9434   23.5085 C   0  0  0  0  0  0
  -16.5351  -29.9066   23.6316 C   0  0  0  0  0  0
  -16.7283  -28.6479   23.0349 C   0  0  0  0  0  0
  -26.4503  -31.6569   25.0707 C   0  0  0  0  0  0
  -25.3713  -31.3720   26.1423 C   0  0  0  0  0  0
  -27.0356  -30.2989   24.6206 C   0  0  0  0  0  0
  -27.6054  -32.4317   25.7478 C   0  0  0  0  0  0
  -27.5576  -37.1792   24.8474 C   0  0  0  0  0  0
  -21.4211  -29.3043   22.3661 N   0  0  0  0  0  0
  -26.4290  -37.3762   23.9411 N   0  0  0  0  0  0
  -24.7008  -31.0451   22.0931 N   0  0  0  0  0  0
  -23.4171  -28.8191   23.3102 O   0  0  0  0  0  0
  -28.3258  -26.3536   20.1326 O   0  0  0  0  0  0
  -26.5653  -34.8925   22.4661 O   0  0  0  0  0  0
  -23.5497  -32.1384   23.7208 O   0  0  0  0  0  0
  -29.2926  -18.5230   20.2982 C   0  0  0  0  0  0
  -28.1268  -18.5045   19.5401 C   0  0  0  0  0  0
  -28.7413  -20.8903   20.2381 C   0  0  0  0  0  0
  -30.2560  -17.2920   20.5739 C   0  0  0  0  0  0
  -26.2473  -17.5620   18.2175 C   0  0  0  0  0  0
  -28.2869  -23.6371   19.8596 C   0  0  0  0  0  0
  -28.3401  -25.0459   20.6994 C   0  0  2  0  0  0
  -29.5890  -19.9036   20.6744 N   0  0  0  0  0  0
  -27.5160  -17.3974   18.9174 N   0  0  0  0  0  0
  -28.8306  -22.3311   20.4600 N   0  0  0  0  0  0
  -29.8355  -15.9580   20.5243 N   0  0  0  0  0  0
  -31.4291  -17.5647   20.8598 O   0  0  0  0  0  0
  -27.4345  -24.9640   21.7059 F   0  0  0  0  0  0
  -27.4361  -20.1386   19.3233 S   0  0  0  0  0  0
  -31.4746  -12.6149   19.1801 H   0  0  0  0  0  0
  -30.3904  -11.5188   19.9892 H   0  0  0  0  0  0
  -29.8152  -11.7166   17.5436 H   0  0  0  0  0  0
  -29.6333  -13.4456   17.7079 H   0  0  0  0  0  0
  -27.9224  -11.2647   18.9439 H   0  0  0  0  0  0
  -27.3900  -12.4700   17.8006 H   0  0  0  0  0  0
  -27.6147  -14.2424   19.4335 H   0  0  0  0  0  0
  -28.7281  -12.2270   21.4498 H   0  0  0  0  0  0
  -28.3993  -13.9135   21.7620 H   0  0  0  0  0  0
  -25.2743   -9.5698   22.4765 H   0  0  0  0  0  0
  -24.0013   -7.4632   22.7469 H   0  0  0  0  0  0
  -21.0842   -8.8751   19.8934 H   0  0  0  0  0  0
  -22.3682  -10.9681   19.6172 H   0  0  0  0  0  0
  -21.1936   -7.6137   23.9702 H   0  0  0  0  0  0
  -21.1525   -6.0537   25.9093 H   0  0  0  0  0  0
  -22.0567   -2.7600   23.2858 H   0  0  0  0  0  0
  -22.4064  -11.9830   22.4805 H   0  0  0  0  0  0
  -21.1061  -13.1166   22.2600 H   0  0  0  0  0  0
  -24.6477  -15.8318   20.5721 H   0  0  0  0  0  0
  -26.2343  -15.6598   20.0435 H   0  0  0  0  0  0
  -26.7233  -32.5348   23.1027 H   0  0  0  0  0  0
  -25.0054  -33.9656   25.0343 H   0  0  0  0  0  0
  -22.7305  -31.2968   21.3939 H   0  0  0  0  0  0
  -23.3754  -35.9598   23.3308 H   0  0  0  0  0  0
  -24.3580  -36.8891   22.2062 H   0  0  0  0  0  0
  -23.7242  -37.6473   23.6666 H   0  0  0  0  0  0
  -26.1191  -31.5002   20.5969 H   0  0  0  0  0  0
  -26.8557  -30.8015   22.0079 H   0  0  0  0  0  0
  -28.1196  -28.8990   21.1999 H   0  0  0  0  0  0
  -25.9769  -25.8569   19.0317 H   0  0  0  0  0  0
  -23.9697  -27.2714   19.0143 H   0  0  0  0  0  0
  -23.7711  -30.5705   19.4025 H   0  0  0  0  0  0
  -22.7589  -29.2343   19.8613 H   0  0  0  0  0  0
  -25.1298  -36.1899   25.0819 H   0  0  0  0  0  0
  -20.9977  -28.3288   24.1402 H   0  0  0  0  0  0
  -20.5702  -26.2306   23.3611 H   0  0  0  0  0  0
  -21.6669  -26.7450   22.1200 H   0  0  0  0  0  0
  -19.6954  -25.6271   21.1269 H   0  0  0  0  0  0
  -19.6717  -27.3145   20.6731 H   0  0  0  0  0  0
  -17.4238  -26.6660   21.4010 H   0  0  0  0  0  0
  -18.0342  -26.0058   22.9012 H   0  0  0  0  0  0
  -19.7933  -30.7293   24.2243 H   0  0  0  0  0  0
  -17.4996  -31.6256   24.5151 H   0  0  0  0  0  0
  -15.5347  -30.2950   23.7641 H   0  0  0  0  0  0
  -15.8703  -28.0777   22.7068 H   0  0  0  0  0  0
  -24.5899  -30.7055   25.7750 H   0  0  0  0  0  0
  -24.8885  -32.2881   26.4837 H   0  0  0  0  0  0
  -25.8026  -30.8917   27.0215 H   0  0  0  0  0  0
  -26.2943  -29.6730   24.1227 H   0  0  0  0  0  0
  -27.4033  -29.7264   25.4729 H   0  0  0  0  0  0
  -27.8819  -30.4274   23.9458 H   0  0  0  0  0  0
  -27.2663  -33.3628   26.2034 H   0  0  0  0  0  0
  -28.3862  -32.6862   25.0297 H   0  0  0  0  0  0
  -28.0721  -31.8458   26.5408 H   0  0  0  0  0  0
  -28.2605  -38.0078   24.7505 H   0  0  0  0  0  0
  -28.1059  -36.2612   24.6308 H   0  0  0  0  0  0
  -27.2299  -37.1451   25.8880 H   0  0  0  0  0  0
  -20.9432  -29.8699   21.6785 H   0  0  0  0  0  0
  -26.0168  -38.2840   24.1383 H   0  0  0  0  0  0
  -26.3512  -18.2482   17.3768 H   0  0  0  0  0  0
  -25.4703  -17.9414   18.8847 H   0  0  0  0  0  0
  -25.9011  -16.6037   17.8250 H   0  0  0  0  0  0
  -27.2618  -23.4622   19.5334 H   0  0  0  0  0  0
  -28.8550  -23.8001   18.9425 H   0  0  0  0  0  0
  -29.3105  -24.9800   21.1902 H   0  0  0  0  0  0
  -28.1323  -16.7095   18.4878 H   0  0  0  0  0  0
  -29.5366  -22.5427   21.1575 H   0  0  0  0  0  0
  -28.8383  -15.8390   20.4759 H   0  0  0  0  0  0
  1 25  1  0  0  0
  1 30  2  0  0  0
  1 81  1  0  0  0
  2  3  1  0  0  0
  2 25  1  0  0  0
  2 85  1  0  0  0
  2 86  1  0  0  0
  3  4  1  0  0  0
  3 87  1  0  0  0
  3 88  1  0  0  0
  4  5  1  0  0  0
  4 89  1  0  0  0
  4 90  1  0  0  0
  5  6  1  0  0  0
  5 26  1  0  0  0
  5 91  1  0  0  0
  6 25  1  0  0  0
  6 92  1  0  0  0
  6 93  1  0  0  0
  7  8  2  0  0  0
  7 26  1  0  0  0
  7 29  1  0  0  0
  8  9  1  0  0  0
  8 22  1  0  0  0
  9 10  1  0  0  0
  9 27  2  0  0  0
 10 11  2  0  0  0
 10 15  1  0  0  0
 11 12  1  0  0  0
 11 94  1  0  0  0
 12 13  2  0  0  0
 12 95  1  0  0  0
 13 14  1  0  0  0
 13 31  1  0  0  0
 14 15  2  0  0  0
 14 96  1  0  0  0
 15 97  1  0  0  0
 16 17  2  0  0  0
 16 21  1  0  0  0
 16 31  1  0  0  0
 17 18  1  0  0  0
 17 98  1  0  0  0
 18 19  2  0  0  0
 18 99  1  0  0  0
 19 20  1  0  0  0
 19 24  1  0  0  0
 20 21  2  0  0  0
 20100  1  0  0  0
 21 23  1  0  0  0
 22 28  1  0  0  0
 22 32  2  0  0  0
 26 27  1  0  0  0
 28101  1  0  0  0
 28102  1  0  0  0
 29103  1  0  0  0
 29104  1  0  0  0
 33 34  1  0  0  0
 33 66  1  0  0  0
 33 70  2  0  0  0
 34 36  1  0  0  0
 34 59  1  0  0  0
 34105  1  0  0  0
 35 44  2  0  0  0
 35 45  1  0  0  0
 35 68  1  0  0  0
 36 56  1  0  0  0
 36106  1  0  0  0
 37 39  1  0  0  0
 37 47  1  0  0  0
 37 66  1  0  0  0
 37107  1  0  0  0
 38 43  2  0  0  0
 38 46  1  0  0  0
 38 47  1  0  0  0
 39 64  1  0  0  0
 39 67  2  0  0  0
 40 52  1  0  0  0
 40 53  2  0  0  0
 40 58  1  0  0  0
 41108  1  0  0  0
 41109  1  0  0  0
 41110  1  0  0  0
 41 48  1  0  0  0
 42 43  1  0  0  0
 42 66  1  0  0  0
 42111  1  0  0  0
 42112  1  0  0  0
 43 44  1  0  0  0
 44113  1  0  0  0
 45 46  2  0  0  0
 45114  1  0  0  0
 46115  1  0  0  0
 47116  1  0  0  0
 47117  1  0  0  0
 48 56  1  0  0  0
 48 65  1  0  0  0
 48118  1  0  0  0
 49 50  1  0  0  0
 49 53  1  0  0  0
 49 64  1  0  0  0
 49119  1  0  0  0
 50 51  1  0  0  0
 50120  1  0  0  0
 50121  1  0  0  0
 51 52  1  0  0  0
 51122  1  0  0  0
 51123  1  0  0  0
 52124  1  0  0  0
 52125  1  0  0  0
 53 54  1  0  0  0
 54 55  2  0  0  0
 54126  1  0  0  0
 55 57  1  0  0  0
 55127  1  0  0  0
 56 69  2  0  0  0
 57 58  2  0  0  0
 57128  1  0  0  0
 58129  1  0  0  0
 59 60  1  0  0  0
 59 61  1  0  0  0
 59 62  1  0  0  0
 60130  1  0  0  0
 60131  1  0  0  0
 60132  1  0  0  0
 61133  1  0  0  0
 61134  1  0  0  0
 61135  1  0  0  0
 62136  1  0  0  0
 62137  1  0  0  0
 62138  1  0  0  0
 63 65  1  0  0  0
 63139  1  0  0  0
 63140  1  0  0  0
 63141  1  0  0  0
 64142  1  0  0  0
 65143  1  0  0  0
 68 77  1  0  0  0
 71 72  2  0  0  0
 71 74  1  0  0  0
 71 78  1  0  0  0
 72 79  1  0  0  0
 72 84  1  0  0  0
 73 78  2  0  0  0
 73 80  1  0  0  0
 73 84  1  0  0  0
 74 81  1  0  0  0
 74 82  2  0  0  0
 75 79  1  0  0  0
 75144  1  0  0  0
 75145  1  0  0  0
 75146  1  0  0  0
 76 77  1  0  0  0
 76 80  1  0  0  0
 76147  1  0  0  0
 76148  1  0  0  0
 77 83  1  0  0  0
 77149  1  0  0  0
 79150  1  0  0  0
 80151  1  0  0  0
 81152  1  0  0  0
M  ISO  4   1 100  68 101  77 101  81 100
M  END
> <chiral flag>
0

> <version>
0

> <s_m_source_file>
/data/baiqing/PycharmProjects/Reinvent-master-3.2/result/LINK_invent/BTK/process_docking_weight1_custom_product_contain_oxygen_bond_distance_aromatic_linkinvent_7_9_3/rearranged_h_0159.sdf

> <i_m_source_file_index>
17

> <r_mmod_Potential_Energy-OPLS-2005>
205.355041503906

> <r_mmod_Stretch_Energy-OPLS-2005>
139.912506103516

> <r_mmod_Bend_Energy-OPLS-2005>
183.679077148438

> <r_mmod_Torsional_Energy-OPLS-2005>
225.401626586914

> <r_mmod_Improper_Torsional_Energy-OPLS-2005>
9.53589153289795

> <r_mmod_Van_der_Waal_Energy-OPLS-2005>
114.068473815918

> <r_mmod_Electrostatic_Energy-OPLS-2005>
-327.103393554688

> <r_mmod_Solvation_Energy-OPLS-2005>
-244.348892211914

> <b_mmod_Minimization_Converged-OPLS-2005>
0

> <r_mmod_RMS_Derivative-OPLS-2005>
2.42780184745789

$$$$
17
                    3D
 Structure written by MMmdl.
152160  0  0  1  0            999 V2000
  -30.5572  -14.8782   20.4172 C   0  0  0  0  0  0
  -30.4341  -12.5305   19.5162 C   0  0  0  0  0  0
  -29.5310  -12.5413   18.2615 C   0  0  0  0  0  0
  -28.0574  -12.3414   18.6615 C   0  0  0  0  0  0
  -27.6392  -13.2489   19.8502 C   0  0  2  0  0  0
  -28.6741  -13.2406   20.9975 C   0  0  0  0  0  0
  -25.2484  -13.8225   20.5689 C   0  0  0  0  0  0
  -24.1792  -13.0449   20.9181 C   0  0  0  0  0  0
  -24.6396  -11.6936   20.8690 C   0  0  0  0  0  0
  -23.9080  -10.4306   21.0370 C   0  0  0  0  0  0
  -24.3630   -9.4236   21.9162 C   0  0  0  0  0  0
  -23.6303   -8.2271   22.0756 C   0  0  0  0  0  0
  -22.4284   -8.0284   21.3552 C   0  0  0  0  0  0
  -21.9914   -9.0252   20.4650 C   0  0  0  0  0  0
  -22.7239  -10.2132   20.3043 C   0  0  0  0  0  0
  -21.6863   -6.0729   22.5276 C   0  0  0  0  0  0
  -21.4024   -6.5637   23.8210 C   0  0  0  0  0  0
  -21.3667   -5.6786   24.9175 C   0  0  0  0  0  0
  -21.6052   -4.3049   24.7227 C   0  0  0  0  0  0
  -21.8816   -3.8143   23.4348 C   0  0  0  0  0  0
  -21.9202   -4.6957   22.3406 C   0  0  0  0  0  0
  -22.7809  -13.5216   21.1854 C   0  0  0  0  0  0
  -22.1659   -4.2141   21.0976 F   0  0  0  0  0  0
  -21.5636   -3.4533   25.7741 F   0  0  0  0  0  0
  -29.9704  -13.6188   20.4230 N   0  0  0  0  0  0
  -26.2925  -12.9461   20.3249 N   0  0  0  0  0  0
  -25.9344  -11.6594   20.5705 N   0  0  0  0  0  0
  -22.0454  -12.8216   22.0408 N   0  0  0  0  0  0
  -25.4134  -15.1956   20.4131 N   0  0  0  0  0  0
  -31.7282  -14.9640   20.0283 O   0  0  0  0  0  0
  -21.6657   -6.8873   21.4237 O   0  0  0  0  0  0
  -22.3499  -14.5527   20.6701 O   0  0  0  0  0  0
  -24.6395  -31.8462   23.1891 C   0  0  0  0  0  0
  -25.9181  -32.4711   23.8285 C   0  0  1  0  0  0
  -27.2222  -27.1643   20.1427 C   0  0  0  0  0  0
  -25.5938  -33.8517   24.2205 N   0  0  0  0  0  0
  -23.4414  -30.4647   21.5346 C   0  0  2  0  0  0
  -24.8903  -28.8921   20.1078 C   0  0  0  0  0  0
  -22.7533  -29.4567   22.4883 C   0  0  0  0  0  0
  -18.0294  -28.1402   22.8473 C   0  0  0  0  0  0
  -24.1490  -36.7259   23.2644 C   0  0  0  0  0  0
  -25.9932  -30.7278   21.3828 C   0  0  0  0  0  0
  -26.0635  -29.3405   20.7262 C   0  0  0  0  0  0
  -27.2250  -28.4877   20.7325 C   0  0  0  0  0  0
  -26.0256  -26.8088   19.4822 C   0  0  0  0  0  0
  -24.8825  -27.6388   19.4738 C   0  0  0  0  0  0
  -23.6641  -29.7907   20.1537 C   0  0  0  0  0  0
  -25.4118  -36.3047   24.0324 C   0  0  1  0  0  0
  -20.5903  -28.3724   23.1243 C   0  0  2  0  0  0
  -20.6788  -26.9440   22.5405 C   0  0  0  0  0  0
  -19.5763  -26.6391   21.5208 C   0  0  0  0  0  0
  -18.1939  -26.7941   22.1621 C   0  0  0  0  0  0
  -19.1552  -28.8876   23.2853 C   0  0  0  0  0  0
  -18.9475  -30.1473   23.8881 C   0  0  0  0  0  0
  -17.6470  -30.6594   24.0560 C   0  0  0  0  0  0
  -25.9071  -34.9418   23.5078 C   0  0  0  0  0  0
  -16.5358  -29.9090   23.6332 C   0  0  0  0  0  0
  -16.7281  -28.6510   23.0347 C   0  0  0  0  0  0
  -26.4506  -31.6565   25.0718 C   0  0  0  0  0  0
  -25.3691  -31.3739   26.1413 C   0  0  0  0  0  0
  -27.0364  -30.2968   24.6275 C   0  0  0  0  0  0
  -27.6054  -32.4308   25.7487 C   0  0  0  0  0  0
  -27.5579  -37.1781   24.8463 C   0  0  0  0  0  0
  -21.4236  -29.3047   22.3620 N   0  0  0  0  0  0
  -26.4287  -37.3752   23.9414 N   0  0  0  0  0  0
  -24.7111  -31.0334   22.0911 N   0  0  0  0  0  0
  -23.4182  -28.8133   23.3040 O   0  0  0  0  0  0
  -28.3053  -26.2302   20.2677 O   0  0  0  0  0  0
  -26.5663  -34.8912   22.4660 O   0  0  0  0  0  0
  -23.5521  -32.1335   23.7122 O   0  0  0  0  0  0
  -29.1263  -18.7584   18.4615 C   0  0  0  0  0  0
  -29.4036  -17.3842   18.7660 C   0  0  0  0  0  0
  -29.2156  -19.5662   19.5798 C   0  0  0  0  0  0
  -29.6860  -17.2971   20.0977 C   0  0  0  0  0  0
  -29.0354  -21.1195   19.6116 C   0  0  0  0  0  0
  -28.7141  -23.5791   20.8423 C   0  0  0  0  0  0
  -29.4850  -24.8834   18.7034 C   0  0  0  0  0  0
  -28.3705  -24.7647   19.7588 C   0  0  2  0  0  0
  -29.8153  -16.0337   20.7507 N   0  0  0  0  0  0
  -28.8790  -22.0477   20.6563 N   0  0  0  0  0  0
  -29.0184  -21.6189   18.3642 N   0  3  0  0  0  0
  -28.8150  -23.9563   22.0159 O   0  0  0  0  0  0
  -29.5467  -18.6413   20.6402 O   0  0  0  0  0  0
  -31.4800  -12.6494   19.2277 H   0  0  0  0  0  0
  -30.3783  -11.5636   20.0186 H   0  0  0  0  0  0
  -29.8415  -11.7633   17.5618 H   0  0  0  0  0  0
  -29.6463  -13.4901   17.7343 H   0  0  0  0  0  0
  -27.9335  -11.2930   18.9360 H   0  0  0  0  0  0
  -27.4048  -12.5118   17.8040 H   0  0  0  0  0  0
  -27.6159  -14.2623   19.4506 H   0  0  0  0  0  0
  -28.7296  -12.2616   21.4749 H   0  0  0  0  0  0
  -28.3806  -13.9445   21.7778 H   0  0  0  0  0  0
  -25.2766   -9.5728   22.4738 H   0  0  0  0  0  0
  -24.0012   -7.4680   22.7492 H   0  0  0  0  0  0
  -21.0838   -8.8757   19.8963 H   0  0  0  0  0  0
  -22.3668  -10.9662   19.6158 H   0  0  0  0  0  0
  -21.2006   -7.6142   23.9712 H   0  0  0  0  0  0
  -21.1493   -6.0515   25.9072 H   0  0  0  0  0  0
  -22.0590   -2.7600   23.2851 H   0  0  0  0  0  0
  -22.4053  -11.9876   22.4811 H   0  0  0  0  0  0
  -21.1075  -13.1246   22.2602 H   0  0  0  0  0  0
  -24.6374  -15.8413   20.5155 H   0  0  0  0  0  0
  -26.2627  -15.6449   20.0937 H   0  0  0  0  0  0
  -26.7253  -32.5323   23.1023 H   0  0  0  0  0  0
  -25.0034  -33.9636   25.0321 H   0  0  0  0  0  0
  -22.7455  -31.2905   21.3799 H   0  0  0  0  0  0
  -23.3764  -35.9577   23.3283 H   0  0  0  0  0  0
  -24.3580  -36.8906   22.2062 H   0  0  0  0  0  0
  -23.7221  -37.6444   23.6682 H   0  0  0  0  0  0
  -26.1434  -31.4818   20.6091 H   0  0  0  0  0  0
  -26.8666  -30.7796   22.0204 H   0  0  0  0  0  0
  -28.1170  -28.8213   21.2442 H   0  0  0  0  0  0
  -25.9267  -25.8547   18.9910 H   0  0  0  0  0  0
  -23.9855  -27.2895   18.9825 H   0  0  0  0  0  0
  -23.7951  -30.5630   19.3947 H   0  0  0  0  0  0
  -22.7800  -29.2283   19.8486 H   0  0  0  0  0  0
  -25.1303  -36.1885   25.0815 H   0  0  0  0  0  0
  -20.9995  -28.3314   24.1357 H   0  0  0  0  0  0
  -20.5675  -26.2343   23.3620 H   0  0  0  0  0  0
  -21.6656  -26.7452   22.1204 H   0  0  0  0  0  0
  -19.6933  -25.6290   21.1252 H   0  0  0  0  0  0
  -19.6699  -27.3187   20.6724 H   0  0  0  0  0  0
  -17.4212  -26.6672   21.4022 H   0  0  0  0  0  0
  -18.0355  -26.0083   22.9023 H   0  0  0  0  0  0
  -19.7951  -30.7294   24.2246 H   0  0  0  0  0  0
  -17.5024  -31.6274   24.5169 H   0  0  0  0  0  0
  -15.5361  -30.2989   23.7670 H   0  0  0  0  0  0
  -15.8679  -28.0830   22.7065 H   0  0  0  0  0  0
  -24.5884  -30.7077   25.7729 H   0  0  0  0  0  0
  -24.8863  -32.2909   26.4796 H   0  0  0  0  0  0
  -25.7974  -30.8941   27.0221 H   0  0  0  0  0  0
  -26.2978  -29.6689   24.1284 H   0  0  0  0  0  0
  -27.3991  -29.7267   25.4839 H   0  0  0  0  0  0
  -27.8875  -30.4220   23.9578 H   0  0  0  0  0  0
  -27.2679  -33.3624   26.2033 H   0  0  0  0  0  0
  -28.3873  -32.6829   25.0314 H   0  0  0  0  0  0
  -28.0710  -31.8448   26.5418 H   0  0  0  0  0  0
  -28.2588  -38.0093   24.7535 H   0  0  0  0  0  0
  -28.1092  -36.2621   24.6259 H   0  0  0  0  0  0
  -27.2306  -37.1394   25.8873 H   0  0  0  0  0  0
  -20.9454  -29.8737   21.6786 H   0  0  0  0  0  0
  -26.0161  -38.2829   24.1412 H   0  0  0  0  0  0
  -28.8722  -19.1190   17.4756 H   0  0  0  0  0  0
  -29.3573  -16.5531   18.0763 H   0  0  0  0  0  0
  -29.1932  -25.5786   17.9163 H   0  0  0  0  0  0
  -29.7546  -23.9547   18.2147 H   0  0  0  0  0  0
  -30.3965  -25.2744   19.1576 H   0  0  0  0  0  0
  -27.4454  -24.4643   19.2755 H   0  0  0  0  0  0
  -29.0343  -15.8290   21.3555 H   0  0  0  0  0  0
  -28.9605  -21.5159   21.5066 H   0  0  0  0  0  0
  -29.1602  -20.9790   17.5988 H   0  0  0  0  0  0
  -28.8918  -22.5887   18.1349 H   0  0  0  0  0  0
  1 25  1  0  0  0
  1 30  2  0  0  0
  1 79  1  0  0  0
  2  3  1  0  0  0
  2 25  1  0  0  0
  2 84  1  0  0  0
  2 85  1  0  0  0
  3  4  1  0  0  0
  3 86  1  0  0  0
  3 87  1  0  0  0
  4  5  1  0  0  0
  4 88  1  0  0  0
  4 89  1  0  0  0
  5  6  1  0  0  0
  5 26  1  0  0  0
  5 90  1  0  0  0
  6 25  1  0  0  0
  6 91  1  0  0  0
  6 92  1  0  0  0
  7  8  2  0  0  0
  7 26  1  0  0  0
  7 29  1  0  0  0
  8  9  1  0  0  0
  8 22  1  0  0  0
  9 10  1  0  0  0
  9 27  2  0  0  0
 10 11  2  0  0  0
 10 15  1  0  0  0
 11 12  1  0  0  0
 11 93  1  0  0  0
 12 13  2  0  0  0
 12 94  1  0  0  0
 13 14  1  0  0  0
 13 31  1  0  0  0
 14 15  2  0  0  0
 14 95  1  0  0  0
 15 96  1  0  0  0
 16 17  2  0  0  0
 16 21  1  0  0  0
 16 31  1  0  0  0
 17 18  1  0  0  0
 17 97  1  0  0  0
 18 19  2  0  0  0
 18 98  1  0  0  0
 19 20  1  0  0  0
 19 24  1  0  0  0
 20 21  2  0  0  0
 20 99  1  0  0  0
 21 23  1  0  0  0
 22 28  1  0  0  0
 22 32  2  0  0  0
 26 27  1  0  0  0
 28100  1  0  0  0
 28101  1  0  0  0
 29102  1  0  0  0
 29103  1  0  0  0
 33 34  1  0  0  0
 33 66  1  0  0  0
 33 70  2  0  0  0
 34 36  1  0  0  0
 34 59  1  0  0  0
 34104  1  0  0  0
 35 44  2  0  0  0
 35 45  1  0  0  0
 35 68  1  0  0  0
 36 56  1  0  0  0
 36105  1  0  0  0
 37 39  1  0  0  0
 37 47  1  0  0  0
 37 66  1  0  0  0
 37106  1  0  0  0
 38 43  2  0  0  0
 38 46  1  0  0  0
 38 47  1  0  0  0
 39 64  1  0  0  0
 39 67  2  0  0  0
 40 52  1  0  0  0
 40 53  2  0  0  0
 40 58  1  0  0  0
 41107  1  0  0  0
 41108  1  0  0  0
 41109  1  0  0  0
 41 48  1  0  0  0
 42 43  1  0  0  0
 42 66  1  0  0  0
 42110  1  0  0  0
 42111  1  0  0  0
 43 44  1  0  0  0
 44112  1  0  0  0
 45 46  2  0  0  0
 45113  1  0  0  0
 46114  1  0  0  0
 47115  1  0  0  0
 47116  1  0  0  0
 48 56  1  0  0  0
 48 65  1  0  0  0
 48117  1  0  0  0
 49 50  1  0  0  0
 49 53  1  0  0  0
 49 64  1  0  0  0
 49118  1  0  0  0
 50 51  1  0  0  0
 50119  1  0  0  0
 50120  1  0  0  0
 51 52  1  0  0  0
 51121  1  0  0  0
 51122  1  0  0  0
 52123  1  0  0  0
 52124  1  0  0  0
 53 54  1  0  0  0
 54 55  2  0  0  0
 54125  1  0  0  0
 55 57  1  0  0  0
 55126  1  0  0  0
 56 69  2  0  0  0
 57 58  2  0  0  0
 57127  1  0  0  0
 58128  1  0  0  0
 59 60  1  0  0  0
 59 61  1  0  0  0
 59 62  1  0  0  0
 60129  1  0  0  0
 60130  1  0  0  0
 60131  1  0  0  0
 61132  1  0  0  0
 61133  1  0  0  0
 61134  1  0  0  0
 62135  1  0  0  0
 62136  1  0  0  0
 62137  1  0  0  0
 63 65  1  0  0  0
 63138  1  0  0  0
 63139  1  0  0  0
 63140  1  0  0  0
 64141  1  0  0  0
 65142  1  0  0  0
 68 78  1  0  0  0
 71 72  1  0  0  0
 71 73  2  0  0  0
 71143  1  0  0  0
 72 74  2  0  0  0
 72144  1  0  0  0
 73 75  1  0  0  0
 73 83  1  0  0  0
 74 79  1  0  0  0
 74 83  1  0  0  0
 75 80  1  0  0  0
 75 81  2  0  0  0
 76 78  1  0  0  0
 76 80  1  0  0  0
 76 82  2  0  0  0
 77145  1  0  0  0
 77146  1  0  0  0
 77147  1  0  0  0
 77 78  1  0  0  0
 78148  1  0  0  0
 79149  1  0  0  0
 80150  1  0  0  0
 81151  1  0  0  0
 81152  1  0  0  0
M  CHG  1  81   1
M  ISO  4   1 100  68 101  78 101  79 100
M  END
> <chiral flag>
0

> <version>
0

> <s_m_source_file>
/data/baiqing/PycharmProjects/Reinvent-master-3.2/result/LINK_invent/BTK/process_docking_weight1_custom_product_contain_oxygen_bond_distance_aromatic_linkinvent_7_9_3/rearranged_h_0159.sdf

> <i_m_source_file_index>
18

> <r_mmod_Potential_Energy-OPLS-2005>
214.599380493164

> <r_mmod_Stretch_Energy-OPLS-2005>
212.362380981445

> <r_mmod_Bend_Energy-OPLS-2005>
327.331787109375

> <r_mmod_Torsional_Energy-OPLS-2005>
254.933090209961

> <r_mmod_Improper_Torsional_Energy-OPLS-2005>
5.75342893600464

> <r_mmod_Van_der_Waal_Energy-OPLS-2005>
118.144752502441

> <r_mmod_Electrostatic_Energy-OPLS-2005>
-325.913909912109

> <r_mmod_Solvation_Energy-OPLS-2005>
-533.060913085938

> <b_mmod_Minimization_Converged-OPLS-2005>
0

> <r_mmod_RMS_Derivative-OPLS-2005>
2.64428901672363

$$$$
18
                    3D
 Structure written by MMmdl.
151159  0  0  1  0            999 V2000
  -30.6483  -14.7693   20.4249 C   0  0  0  0  0  0
  -30.4220  -12.4658   19.4804 C   0  0  0  0  0  0
  -29.5117  -12.5022   18.2348 C   0  0  0  0  0  0
  -28.0393  -12.3258   18.6496 C   0  0  0  0  0  0
  -27.6365  -13.2420   19.8374 C   0  0  2  0  0  0
  -28.6836  -13.2268   20.9739 C   0  0  0  0  0  0
  -25.2500  -13.8201   20.5688 C   0  0  0  0  0  0
  -24.1813  -13.0451   20.9221 C   0  0  0  0  0  0
  -24.6417  -11.6928   20.8778 C   0  0  0  0  0  0
  -23.9091  -10.4304   21.0438 C   0  0  0  0  0  0
  -24.3644   -9.4200   21.9199 C   0  0  0  0  0  0
  -23.6299   -8.2243   22.0774 C   0  0  0  0  0  0
  -22.4274   -8.0296   21.3572 C   0  0  0  0  0  0
  -21.9919   -9.0272   20.4673 C   0  0  0  0  0  0
  -22.7268  -10.2136   20.3081 C   0  0  0  0  0  0
  -21.6842   -6.0745   22.5290 C   0  0  0  0  0  0
  -21.4018   -6.5653   23.8218 C   0  0  0  0  0  0
  -21.3651   -5.6804   24.9177 C   0  0  0  0  0  0
  -21.6033   -4.3063   24.7230 C   0  0  0  0  0  0
  -21.8811   -3.8160   23.4350 C   0  0  0  0  0  0
  -21.9186   -4.6977   22.3407 C   0  0  0  0  0  0
  -22.7825  -13.5233   21.1848 C   0  0  0  0  0  0
  -22.1656   -4.2162   21.0983 F   0  0  0  0  0  0
  -21.5608   -3.4549   25.7736 F   0  0  0  0  0  0
  -29.9820  -13.5607   20.3769 N   0  0  0  0  0  0
  -26.2931  -12.9428   20.3220 N   0  0  0  0  0  0
  -25.9349  -11.6569   20.5751 N   0  0  0  0  0  0
  -22.0449  -12.8261   22.0403 N   0  0  0  0  0  0
  -25.4143  -15.1924   20.4061 N   0  0  0  0  0  0
  -31.8550  -14.7724   20.1634 O   0  0  0  0  0  0
  -21.6635   -6.8897   21.4258 O   0  0  0  0  0  0
  -22.3532  -14.5539   20.6670 O   0  0  0  0  0  0
  -24.6320  -31.8539   23.1991 C   0  0  0  0  0  0
  -25.9147  -32.4762   23.8327 C   0  0  1  0  0  0
  -27.2207  -27.2632   20.1364 C   0  0  0  0  0  0
  -25.5933  -33.8565   24.2246 N   0  0  0  0  0  0
  -23.4274  -30.4784   21.5408 C   0  0  2  0  0  0
  -24.8722  -28.9118   20.1208 C   0  0  0  0  0  0
  -22.7478  -29.4634   22.4924 C   0  0  0  0  0  0
  -18.0295  -28.1411   22.8479 C   0  0  0  0  0  0
  -24.1486  -36.7288   23.2640 C   0  0  0  0  0  0
  -25.9704  -30.7683   21.3741 C   0  0  0  0  0  0
  -26.0446  -29.3867   20.7243 C   0  0  0  0  0  0
  -27.2241  -28.5743   20.7219 C   0  0  0  0  0  0
  -26.0264  -26.8466   19.5174 C   0  0  0  0  0  0
  -24.8649  -27.6469   19.5106 C   0  0  0  0  0  0
  -23.6455  -29.8021   20.1605 C   0  0  0  0  0  0
  -25.4117  -36.3086   24.0324 C   0  0  1  0  0  0
  -20.5888  -28.3726   23.1256 C   0  0  2  0  0  0
  -20.6783  -26.9448   22.5397 C   0  0  0  0  0  0
  -19.5753  -26.6403   21.5210 C   0  0  0  0  0  0
  -18.1939  -26.7946   22.1624 C   0  0  0  0  0  0
  -19.1547  -28.8884   23.2865 C   0  0  0  0  0  0
  -18.9472  -30.1479   23.8890 C   0  0  0  0  0  0
  -17.6473  -30.6613   24.0572 C   0  0  0  0  0  0
  -25.9056  -34.9455   23.5097 C   0  0  0  0  0  0
  -16.5360  -29.9107   23.6346 C   0  0  0  0  0  0
  -16.7285  -28.6534   23.0354 C   0  0  0  0  0  0
  -26.4508  -31.6596   25.0726 C   0  0  0  0  0  0
  -25.3731  -31.3728   26.1439 C   0  0  0  0  0  0
  -27.0338  -30.3022   24.6190 C   0  0  0  0  0  0
  -27.6055  -32.4339   25.7489 C   0  0  0  0  0  0
  -27.5580  -37.1808   24.8475 C   0  0  0  0  0  0
  -21.4195  -29.3074   22.3639 N   0  0  0  0  0  0
  -26.4303  -37.3783   23.9403 N   0  0  0  0  0  0
  -24.6962  -31.0520   22.0949 N   0  0  0  0  0  0
  -23.4164  -28.8195   23.3068 O   0  0  0  0  0  0
  -28.3191  -26.3786   20.1167 O   0  0  0  0  0  0
  -26.5631  -34.8928   22.4669 O   0  0  0  0  0  0
  -23.5481  -32.1346   23.7320 O   0  0  0  0  0  0
  -31.2949  -20.0529   20.4271 C   0  0  0  0  0  0
  -32.1259  -18.9322   20.5500 C   0  0  0  0  0  0
  -29.8997  -19.9008   20.3327 C   0  0  0  0  0  0
  -29.4395  -18.5101   20.3517 C   0  0  0  0  0  0
  -30.3630  -17.3761   20.4874 C   0  0  0  0  0  0
  -28.5205  -23.6903   19.9084 C   0  0  0  0  0  0
  -29.2811  -22.4160   20.6078 C   0  0  0  0  0  0
  -28.1684  -25.0173   20.7470 C   0  0  0  0  0  0
  -31.6801  -17.6605   20.5904 N   0  0  0  0  0  0
  -28.0686  -18.2673   20.2476 N   0  0  0  0  0  0
  -29.0717  -21.1248   20.1290 N   0  0  0  0  0  0
  -29.9168  -15.9539   20.5248 N   0  0  0  0  0  0
  -28.2063  -23.6342   18.7127 O   0  0  0  0  0  0
  -30.0356  -22.6304   21.5632 O   0  0  0  0  0  0
  -31.4699  -12.5569   19.1873 H   0  0  0  0  0  0
  -30.3374  -11.5057   19.9904 H   0  0  0  0  0  0
  -29.7994  -11.7208   17.5305 H   0  0  0  0  0  0
  -29.6397  -13.4500   17.7067 H   0  0  0  0  0  0
  -27.9015  -11.2786   18.9268 H   0  0  0  0  0  0
  -27.3811  -12.5000   17.7951 H   0  0  0  0  0  0
  -27.6110  -14.2532   19.4327 H   0  0  0  0  0  0
  -28.7227  -12.2536   21.4631 H   0  0  0  0  0  0
  -28.4172  -13.9486   21.7492 H   0  0  0  0  0  0
  -25.2789   -9.5626   22.4782 H   0  0  0  0  0  0
  -23.9968   -7.4628   22.7507 H   0  0  0  0  0  0
  -21.0830   -8.8834   19.8992 H   0  0  0  0  0  0
  -22.3761  -10.9689   19.6196 H   0  0  0  0  0  0
  -21.2042   -7.6168   23.9727 H   0  0  0  0  0  0
  -21.1461   -6.0539   25.9075 H   0  0  0  0  0  0
  -22.0595   -2.7628   23.2857 H   0  0  0  0  0  0
  -22.4074  -11.9938   22.4823 H   0  0  0  0  0  0
  -21.1085  -13.1329   22.2607 H   0  0  0  0  0  0
  -24.6292  -15.8288   20.4872 H   0  0  0  0  0  0
  -26.2224  -15.6161   19.9715 H   0  0  0  0  0  0
  -26.7211  -32.5410   23.1062 H   0  0  0  0  0  0
  -25.0066  -33.9675   25.0387 H   0  0  0  0  0  0
  -22.7283  -31.3030   21.3901 H   0  0  0  0  0  0
  -23.3758  -35.9620   23.3336 H   0  0  0  0  0  0
  -24.3575  -36.8884   22.2053 H   0  0  0  0  0  0
  -23.7232  -37.6491   23.6647 H   0  0  0  0  0  0
  -26.1016  -31.5260   20.5993 H   0  0  0  0  0  0
  -26.8488  -30.8250   22.0040 H   0  0  0  0  0  0
  -28.1214  -28.9326   21.2062 H   0  0  0  0  0  0
  -25.9879  -25.8767   19.0420 H   0  0  0  0  0  0
  -23.9658  -27.2689   19.0436 H   0  0  0  0  0  0
  -23.7784  -30.5687   19.3962 H   0  0  0  0  0  0
  -22.7619  -29.2356   19.8592 H   0  0  0  0  0  0
  -25.1309  -36.1936   25.0822 H   0  0  0  0  0  0
  -20.9995  -28.3340   24.1365 H   0  0  0  0  0  0
  -20.5684  -26.2359   23.3617 H   0  0  0  0  0  0
  -21.6662  -26.7473   22.1200 H   0  0  0  0  0  0
  -19.6919  -25.6310   21.1260 H   0  0  0  0  0  0
  -19.6702  -27.3201   20.6734 H   0  0  0  0  0  0
  -17.4207  -26.6693   21.4036 H   0  0  0  0  0  0
  -18.0363  -26.0088   22.9022 H   0  0  0  0  0  0
  -19.7949  -30.7298   24.2268 H   0  0  0  0  0  0
  -17.5035  -31.6288   24.5173 H   0  0  0  0  0  0
  -15.5369  -30.3007   23.7692 H   0  0  0  0  0  0
  -15.8677  -28.0855   22.7062 H   0  0  0  0  0  0
  -24.5916  -30.7066   25.7764 H   0  0  0  0  0  0
  -24.8901  -32.2880   26.4867 H   0  0  0  0  0  0
  -25.8052  -30.8898   27.0208 H   0  0  0  0  0  0
  -26.2903  -29.6774   24.1220 H   0  0  0  0  0  0
  -27.4029  -29.7293   25.4702 H   0  0  0  0  0  0
  -27.8783  -30.4315   23.9419 H   0  0  0  0  0  0
  -27.2666  -33.3648   26.2041 H   0  0  0  0  0  0
  -28.3863  -32.6881   25.0311 H   0  0  0  0  0  0
  -28.0712  -31.8470   26.5406 H   0  0  0  0  0  0
  -28.2631  -38.0072   24.7497 H   0  0  0  0  0  0
  -28.1032  -36.2606   24.6341 H   0  0  0  0  0  0
  -27.2283  -37.1517   25.8872 H   0  0  0  0  0  0
  -20.9417  -29.8781   21.6799 H   0  0  0  0  0  0
  -26.0185  -38.2864   24.1389 H   0  0  0  0  0  0
  -31.7565  -21.0279   20.3864 H   0  0  0  0  0  0
  -33.1983  -19.0582   20.6088 H   0  0  0  0  0  0
  -28.7851  -25.0080   21.6466 H   0  0  0  0  0  0
  -27.1437  -24.9024   21.0978 H   0  0  0  0  0  0
  -27.7082  -17.4766   20.7673 H   0  0  0  0  0  0
  -27.4749  -19.0797   20.3772 H   0  0  0  0  0  0
  -28.3184  -21.0377   19.4610 H   0  0  0  0  0  0
  -28.9209  -15.8345   20.5852 H   0  0  0  0  0  0
  1 25  1  0  0  0
  1 30  2  0  0  0
  1 82  1  0  0  0
  2  3  1  0  0  0
  2 25  1  0  0  0
  2 85  1  0  0  0
  2 86  1  0  0  0
  3  4  1  0  0  0
  3 87  1  0  0  0
  3 88  1  0  0  0
  4  5  1  0  0  0
  4 89  1  0  0  0
  4 90  1  0  0  0
  5  6  1  0  0  0
  5 26  1  0  0  0
  5 91  1  0  0  0
  6 25  1  0  0  0
  6 92  1  0  0  0
  6 93  1  0  0  0
  7  8  2  0  0  0
  7 26  1  0  0  0
  7 29  1  0  0  0
  8  9  1  0  0  0
  8 22  1  0  0  0
  9 10  1  0  0  0
  9 27  2  0  0  0
 10 11  2  0  0  0
 10 15  1  0  0  0
 11 12  1  0  0  0
 11 94  1  0  0  0
 12 13  2  0  0  0
 12 95  1  0  0  0
 13 14  1  0  0  0
 13 31  1  0  0  0
 14 15  2  0  0  0
 14 96  1  0  0  0
 15 97  1  0  0  0
 16 17  2  0  0  0
 16 21  1  0  0  0
 16 31  1  0  0  0
 17 18  1  0  0  0
 17 98  1  0  0  0
 18 19  2  0  0  0
 18 99  1  0  0  0
 19 20  1  0  0  0
 19 24  1  0  0  0
 20 21  2  0  0  0
 20100  1  0  0  0
 21 23  1  0  0  0
 22 28  1  0  0  0
 22 32  2  0  0  0
 26 27  1  0  0  0
 28101  1  0  0  0
 28102  1  0  0  0
 29103  1  0  0  0
 29104  1  0  0  0
 33 34  1  0  0  0
 33 66  1  0  0  0
 33 70  2  0  0  0
 34 36  1  0  0  0
 34 59  1  0  0  0
 34105  1  0  0  0
 35 44  2  0  0  0
 35 45  1  0  0  0
 35 68  1  0  0  0
 36 56  1  0  0  0
 36106  1  0  0  0
 37 39  1  0  0  0
 37 47  1  0  0  0
 37 66  1  0  0  0
 37107  1  0  0  0
 38 43  2  0  0  0
 38 46  1  0  0  0
 38 47  1  0  0  0
 39 64  1  0  0  0
 39 67  2  0  0  0
 40 52  1  0  0  0
 40 53  2  0  0  0
 40 58  1  0  0  0
 41108  1  0  0  0
 41109  1  0  0  0
 41110  1  0  0  0
 41 48  1  0  0  0
 42 43  1  0  0  0
 42 66  1  0  0  0
 42111  1  0  0  0
 42112  1  0  0  0
 43 44  1  0  0  0
 44113  1  0  0  0
 45 46  2  0  0  0
 45114  1  0  0  0
 46115  1  0  0  0
 47116  1  0  0  0
 47117  1  0  0  0
 48 56  1  0  0  0
 48 65  1  0  0  0
 48118  1  0  0  0
 49 50  1  0  0  0
 49 53  1  0  0  0
 49 64  1  0  0  0
 49119  1  0  0  0
 50 51  1  0  0  0
 50120  1  0  0  0
 50121  1  0  0  0
 51 52  1  0  0  0
 51122  1  0  0  0
 51123  1  0  0  0
 52124  1  0  0  0
 52125  1  0  0  0
 53 54  1  0  0  0
 54 55  2  0  0  0
 54126  1  0  0  0
 55 57  1  0  0  0
 55127  1  0  0  0
 56 69  2  0  0  0
 57 58  2  0  0  0
 57128  1  0  0  0
 58129  1  0  0  0
 59 60  1  0  0  0
 59 61  1  0  0  0
 59 62  1  0  0  0
 60130  1  0  0  0
 60131  1  0  0  0
 60132  1  0  0  0
 61133  1  0  0  0
 61134  1  0  0  0
 61135  1  0  0  0
 62136  1  0  0  0
 62137  1  0  0  0
 62138  1  0  0  0
 63 65  1  0  0  0
 63139  1  0  0  0
 63140  1  0  0  0
 63141  1  0  0  0
 64142  1  0  0  0
 65143  1  0  0  0
 68 78  1  0  0  0
 71 72  2  0  0  0
 71 73  1  0  0  0
 71144  1  0  0  0
 72 79  1  0  0  0
 72145  1  0  0  0
 73 74  2  0  0  0
 73 81  1  0  0  0
 74 75  1  0  0  0
 74 80  1  0  0  0
 75 79  2  0  0  0
 75 82  1  0  0  0
 76 77  1  0  0  0
 76 78  1  0  0  0
 76 83  2  0  0  0
 77 81  1  0  0  0
 77 84  2  0  0  0
 78146  1  0  0  0
 78147  1  0  0  0
 80148  1  0  0  0
 80149  1  0  0  0
 81150  1  0  0  0
 82151  1  0  0  0
M  ISO  4   1 100  68 101  78 101  82 100
M  END
> <chiral flag>
0

> <version>
0

> <s_m_source_file>
/data/baiqing/PycharmProjects/Reinvent-master-3.2/result/LINK_invent/BTK/process_docking_weight1_custom_product_contain_oxygen_bond_distance_aromatic_linkinvent_7_9_3/rearranged_h_0159.sdf

> <i_m_source_file_index>
19

> <r_mmod_Potential_Energy-OPLS-2005>
-23.9504928588867

> <r_mmod_Stretch_Energy-OPLS-2005>
135.517730712891

> <r_mmod_Bend_Energy-OPLS-2005>
160.376342773438

> <r_mmod_Torsional_Energy-OPLS-2005>
257.365051269531

> <r_mmod_Improper_Torsional_Energy-OPLS-2005>
10.9305810928345

> <r_mmod_Van_der_Waal_Energy-OPLS-2005>
140.602172851562

> <r_mmod_Electrostatic_Energy-OPLS-2005>
-544.979370117188

> <r_mmod_Solvation_Energy-OPLS-2005>
-275.266326904297

> <b_mmod_Minimization_Converged-OPLS-2005>
0

> <r_mmod_RMS_Derivative-OPLS-2005>
3.38298273086548

$$$$
19
                    3D
 Structure written by MMmdl.
155163  0  0  1  0            999 V2000
  -30.7213  -14.5527   20.4548 C   0  0  0  0  0  0
  -30.4103  -12.3272   19.4613 C   0  0  0  0  0  0
  -29.4970  -12.4647   18.2252 C   0  0  0  0  0  0
  -28.0186  -12.3304   18.6361 C   0  0  0  0  0  0
  -27.6453  -13.2200   19.8523 C   0  0  2  0  0  0
  -28.6931  -13.1163   20.9867 C   0  0  0  0  0  0
  -25.2510  -13.8178   20.5679 C   0  0  0  0  0  0
  -24.1805  -13.0431   20.9219 C   0  0  0  0  0  0
  -24.6393  -11.6905   20.8770 C   0  0  0  0  0  0
  -23.9074  -10.4282   21.0425 C   0  0  0  0  0  0
  -24.3617   -9.4184   21.9197 C   0  0  0  0  0  0
  -23.6284   -8.2221   22.0753 C   0  0  0  0  0  0
  -22.4261   -8.0269   21.3543 C   0  0  0  0  0  0
  -21.9921   -9.0244   20.4634 C   0  0  0  0  0  0
  -22.7256  -10.2122   20.3054 C   0  0  0  0  0  0
  -21.6845   -6.0736   22.5282 C   0  0  0  0  0  0
  -21.4013   -6.5642   23.8222 C   0  0  0  0  0  0
  -21.3662   -5.6791   24.9183 C   0  0  0  0  0  0
  -21.6045   -4.3057   24.7222 C   0  0  0  0  0  0
  -21.8822   -3.8145   23.4346 C   0  0  0  0  0  0
  -21.9186   -4.6963   22.3397 C   0  0  0  0  0  0
  -22.7820  -13.5201   21.1888 C   0  0  0  0  0  0
  -22.1658   -4.2154   21.0973 F   0  0  0  0  0  0
  -21.5627   -3.4540   25.7733 F   0  0  0  0  0  0
  -30.0172  -13.3842   20.4109 N   0  0  0  0  0  0
  -26.2944  -12.9374   20.3304 N   0  0  0  0  0  0
  -25.9322  -11.6531   20.5799 N   0  0  0  0  0  0
  -22.0466  -12.8156   22.0419 N   0  0  0  0  0  0
  -25.4185  -15.1902   20.4027 N   0  0  0  0  0  0
  -31.9168  -14.6032   20.1647 O   0  0  0  0  0  0
  -21.6612   -6.8871   21.4242 O   0  0  0  0  0  0
  -22.3511  -14.5526   20.6768 O   0  0  0  0  0  0
  -24.6189  -31.8658   23.2088 C   0  0  0  0  0  0
  -25.9070  -32.4814   23.8386 C   0  0  1  0  0  0
  -27.2196  -27.3897   20.1075 C   0  0  0  0  0  0
  -25.5927  -33.8612   24.2328 N   0  0  0  0  0  0
  -23.4078  -30.4914   21.5502 C   0  0  2  0  0  0
  -24.8527  -28.9537   20.1132 C   0  0  0  0  0  0
  -22.7423  -29.4659   22.4971 C   0  0  0  0  0  0
  -18.0267  -28.1377   22.8495 C   0  0  0  0  0  0
  -24.1485  -36.7300   23.2640 C   0  0  0  0  0  0
  -25.9412  -30.8205   21.3644 C   0  0  0  0  0  0
  -26.0178  -29.4506   20.7131 C   0  0  0  0  0  0
  -27.2078  -28.6768   20.7069 C   0  0  0  0  0  0
  -26.0400  -26.9265   19.4862 C   0  0  0  0  0  0
  -24.8608  -27.6936   19.4933 C   0  0  0  0  0  0
  -23.6167  -29.8256   20.1647 C   0  0  0  0  0  0
  -25.4114  -36.3108   24.0338 C   0  0  1  0  0  0
  -20.5864  -28.3678   23.1307 C   0  0  2  0  0  0
  -20.6757  -26.9411   22.5417 C   0  0  0  0  0  0
  -19.5739  -26.6383   21.5213 C   0  0  0  0  0  0
  -18.1917  -26.7922   22.1624 C   0  0  0  0  0  0
  -19.1521  -28.8845   23.2896 C   0  0  0  0  0  0
  -18.9452  -30.1449   23.8915 C   0  0  0  0  0  0
  -17.6454  -30.6588   24.0562 C   0  0  0  0  0  0
  -25.9045  -34.9475   23.5131 C   0  0  0  0  0  0
  -16.5342  -29.9092   23.6328 C   0  0  0  0  0  0
  -16.7255  -28.6501   23.0364 C   0  0  0  0  0  0
  -26.4486  -31.6584   25.0711 C   0  0  0  0  0  0
  -25.3738  -31.3660   26.1436 C   0  0  0  0  0  0
  -27.0323  -30.3042   24.6066 C   0  0  0  0  0  0
  -27.6058  -32.4292   25.7489 C   0  0  0  0  0  0
  -27.5584  -37.1806   24.8470 C   0  0  0  0  0  0
  -21.4143  -29.3045   22.3709 N   0  0  0  0  0  0
  -26.4297  -37.3804   23.9415 N   0  0  0  0  0  0
  -24.6750  -31.0726   22.1006 N   0  0  0  0  0  0
  -23.4177  -28.8193   23.3026 O   0  0  0  0  0  0
  -28.3401  -26.5723   20.1183 O   0  0  0  0  0  0
  -26.5594  -34.8934   22.4686 O   0  0  0  0  0  0
  -23.5377  -32.1406   23.7481 O   0  0  0  0  0  0
  -30.2241  -19.5492   19.9047 C   0  0  0  0  0  0
  -29.7133  -18.2783   20.3520 C   0  0  0  0  0  0
  -29.3513  -20.4774   20.4156 C   0  0  0  0  0  0
  -28.1526  -25.2564   20.5399 C   0  0  0  0  0  0
  -30.3288  -16.9922   19.9108 C   0  0  0  0  0  0
  -28.8909  -24.1887   20.1288 C   0  0  0  0  0  0
  -28.6048  -22.8193   20.6317 C   0  0  0  0  0  0
  -31.7363  -16.2048   17.8562 C   0  0  0  0  0  0
  -28.6318  -18.4597   21.1067 N   0  0  0  0  0  0
  -29.4199  -21.8281   20.1743 N   0  0  0  0  0  0
  -29.9935  -15.8073   20.5272 N   0  0  0  0  0  0
  -31.1253  -17.1404   18.8161 N   0  3  0  0  0  0
  -29.9583  -24.4963   19.1537 N   0  3  0  0  0  0
  -27.6839  -22.5785   21.4184 O   0  0  0  0  0  0
  -28.3941  -19.8490   21.1573 O   0  0  0  0  0  0
  -31.4593  -12.3904   19.1651 H   0  0  0  0  0  0
  -30.2899  -11.3454   19.9220 H   0  0  0  0  0  0
  -29.7474  -11.7045   17.4839 H   0  0  0  0  0  0
  -29.6597  -13.4274   17.7412 H   0  0  0  0  0  0
  -27.8446  -11.2823   18.8820 H   0  0  0  0  0  0
  -27.3674  -12.5514   17.7887 H   0  0  0  0  0  0
  -27.6500  -14.2460   19.4867 H   0  0  0  0  0  0
  -28.6769  -12.1225   21.4368 H   0  0  0  0  0  0
  -28.4619  -13.8147   21.7916 H   0  0  0  0  0  0
  -25.2757   -9.5653   22.4776 H   0  0  0  0  0  0
  -23.9981   -7.4608   22.7467 H   0  0  0  0  0  0
  -21.0864   -8.8774   19.8919 H   0  0  0  0  0  0
  -22.3731  -10.9665   19.6158 H   0  0  0  0  0  0
  -21.2016   -7.6156   23.9729 H   0  0  0  0  0  0
  -21.1483   -6.0521   25.9090 H   0  0  0  0  0  0
  -22.0599   -2.7607   23.2842 H   0  0  0  0  0  0
  -22.4066  -11.9772   22.4735 H   0  0  0  0  0  0
  -21.1103  -13.1197   22.2663 H   0  0  0  0  0  0
  -24.6430  -15.8367   20.4962 H   0  0  0  0  0  0
  -26.2448  -15.6278   20.0182 H   0  0  0  0  0  0
  -26.7134  -32.5516   23.1138 H   0  0  0  0  0  0
  -25.0090  -33.9770   25.0486 H   0  0  0  0  0  0
  -22.6994  -31.3114   21.4138 H   0  0  0  0  0  0
  -23.3767  -35.9610   23.3289 H   0  0  0  0  0  0
  -24.3579  -36.8937   22.2058 H   0  0  0  0  0  0
  -23.7210  -37.6492   23.6659 H   0  0  0  0  0  0
  -26.0495  -31.5841   20.5922 H   0  0  0  0  0  0
  -26.8317  -30.8798   21.9784 H   0  0  0  0  0  0
  -28.1052  -29.0538   21.1774 H   0  0  0  0  0  0
  -26.0255  -25.9595   19.0040 H   0  0  0  0  0  0
  -23.9664  -27.3100   19.0217 H   0  0  0  0  0  0
  -23.7257  -30.6023   19.4075 H   0  0  0  0  0  0
  -22.7386  -29.2479   19.8686 H   0  0  0  0  0  0
  -25.1288  -36.1970   25.0832 H   0  0  0  0  0  0
  -20.9955  -28.3245   24.1426 H   0  0  0  0  0  0
  -20.5676  -26.2282   23.3602 H   0  0  0  0  0  0
  -21.6625  -26.7451   22.1212 H   0  0  0  0  0  0
  -19.6904  -25.6295   21.1242 H   0  0  0  0  0  0
  -19.6683  -27.3191   20.6746 H   0  0  0  0  0  0
  -17.4188  -26.6681   21.4020 H   0  0  0  0  0  0
  -18.0312  -26.0054   22.9014 H   0  0  0  0  0  0
  -19.7931  -30.7258   24.2293 H   0  0  0  0  0  0
  -17.5015  -31.6280   24.5155 H   0  0  0  0  0  0
  -15.5344  -30.3013   23.7649 H   0  0  0  0  0  0
  -15.8645  -28.0829   22.7087 H   0  0  0  0  0  0
  -24.5963  -30.6954   25.7754 H   0  0  0  0  0  0
  -24.8854  -32.2789   26.4853 H   0  0  0  0  0  0
  -25.8094  -30.8859   27.0206 H   0  0  0  0  0  0
  -26.2857  -29.6800   24.1136 H   0  0  0  0  0  0
  -27.4137  -29.7280   25.4506 H   0  0  0  0  0  0
  -27.8672  -30.4394   23.9182 H   0  0  0  0  0  0
  -27.2699  -33.3628   26.2017 H   0  0  0  0  0  0
  -28.3902  -32.6781   25.0327 H   0  0  0  0  0  0
  -28.0658  -31.8415   26.5443 H   0  0  0  0  0  0
  -28.2588  -38.0118   24.7557 H   0  0  0  0  0  0
  -28.1094  -36.2652   24.6255 H   0  0  0  0  0  0
  -27.2289  -37.1408   25.8869 H   0  0  0  0  0  0
  -20.9293  -29.8770   21.6941 H   0  0  0  0  0  0
  -26.0179  -38.2880   24.1437 H   0  0  0  0  0  0
  -31.0815  -19.7559   19.2819 H   0  0  0  0  0  0
  -27.3368  -25.1632   21.2479 H   0  0  0  0  0  0
  -31.9156  -16.7184   16.9110 H   0  0  0  0  0  0
  -31.0838  -15.3578   17.6478 H   0  0  0  0  0  0
  -32.7017  -15.8417   18.2066 H   0  0  0  0  0  0
  -30.1673  -22.0951   19.5590 H   0  0  0  0  0  0
  -29.1013  -15.8711   20.9848 H   0  0  0  0  0  0
  -31.2451  -18.1096   18.5558 H   0  0  0  0  0  0
  -29.9370  -25.4790   18.9539 H   0  0  0  0  0  0
  -30.8693  -24.2873   19.5180 H   0  0  0  0  0  0
  -29.8174  -24.0147   18.2846 H   0  0  0  0  0  0
  1 25  1  0  0  0
  1 30  2  0  0  0
  1 81  1  0  0  0
  2  3  1  0  0  0
  2 25  1  0  0  0
  2 86  1  0  0  0
  2 87  1  0  0  0
  3  4  1  0  0  0
  3 88  1  0  0  0
  3 89  1  0  0  0
  4  5  1  0  0  0
  4 90  1  0  0  0
  4 91  1  0  0  0
  5  6  1  0  0  0
  5 26  1  0  0  0
  5 92  1  0  0  0
  6 25  1  0  0  0
  6 93  1  0  0  0
  6 94  1  0  0  0
  7  8  2  0  0  0
  7 26  1  0  0  0
  7 29  1  0  0  0
  8  9  1  0  0  0
  8 22  1  0  0  0
  9 10  1  0  0  0
  9 27  2  0  0  0
 10 11  2  0  0  0
 10 15  1  0  0  0
 11 12  1  0  0  0
 11 95  1  0  0  0
 12 13  2  0  0  0
 12 96  1  0  0  0
 13 14  1  0  0  0
 13 31  1  0  0  0
 14 15  2  0  0  0
 14 97  1  0  0  0
 15 98  1  0  0  0
 16 17  2  0  0  0
 16 21  1  0  0  0
 16 31  1  0  0  0
 17 18  1  0  0  0
 17 99  1  0  0  0
 18 19  2  0  0  0
 18100  1  0  0  0
 19 20  1  0  0  0
 19 24  1  0  0  0
 20 21  2  0  0  0
 20101  1  0  0  0
 21 23  1  0  0  0
 22 28  1  0  0  0
 22 32  2  0  0  0
 26 27  1  0  0  0
 28102  1  0  0  0
 28103  1  0  0  0
 29104  1  0  0  0
 29105  1  0  0  0
 33 34  1  0  0  0
 33 66  1  0  0  0
 33 70  2  0  0  0
 34 36  1  0  0  0
 34 59  1  0  0  0
 34106  1  0  0  0
 35 44  2  0  0  0
 35 45  1  0  0  0
 35 68  1  0  0  0
 36 56  1  0  0  0
 36107  1  0  0  0
 37 39  1  0  0  0
 37 47  1  0  0  0
 37 66  1  0  0  0
 37108  1  0  0  0
 38 43  2  0  0  0
 38 46  1  0  0  0
 38 47  1  0  0  0
 39 64  1  0  0  0
 39 67  2  0  0  0
 40 52  1  0  0  0
 40 53  2  0  0  0
 40 58  1  0  0  0
 41109  1  0  0  0
 41110  1  0  0  0
 41111  1  0  0  0
 41 48  1  0  0  0
 42 43  1  0  0  0
 42 66  1  0  0  0
 42112  1  0  0  0
 42113  1  0  0  0
 43 44  1  0  0  0
 44114  1  0  0  0
 45 46  2  0  0  0
 45115  1  0  0  0
 46116  1  0  0  0
 47117  1  0  0  0
 47118  1  0  0  0
 48 56  1  0  0  0
 48 65  1  0  0  0
 48119  1  0  0  0
 49 50  1  0  0  0
 49 53  1  0  0  0
 49 64  1  0  0  0
 49120  1  0  0  0
 50 51  1  0  0  0
 50121  1  0  0  0
 50122  1  0  0  0
 51 52  1  0  0  0
 51123  1  0  0  0
 51124  1  0  0  0
 52125  1  0  0  0
 52126  1  0  0  0
 53 54  1  0  0  0
 54 55  2  0  0  0
 54127  1  0  0  0
 55 57  1  0  0  0
 55128  1  0  0  0
 56 69  2  0  0  0
 57 58  2  0  0  0
 57129  1  0  0  0
 58130  1  0  0  0
 59 60  1  0  0  0
 59 61  1  0  0  0
 59 62  1  0  0  0
 60131  1  0  0  0
 60132  1  0  0  0
 60133  1  0  0  0
 61134  1  0  0  0
 61135  1  0  0  0
 61136  1  0  0  0
 62137  1  0  0  0
 62138  1  0  0  0
 62139  1  0  0  0
 63 65  1  0  0  0
 63140  1  0  0  0
 63141  1  0  0  0
 63142  1  0  0  0
 64143  1  0  0  0
 65144  1  0  0  0
 68 74  1  0  0  0
 71 72  1  0  0  0
 71 73  2  0  0  0
 71145  1  0  0  0
 72 75  1  0  0  0
 72 79  2  0  0  0
 73 80  1  0  0  0
 73 85  1  0  0  0
 74 76  2  0  0  0
 74146  1  0  0  0
 75 81  1  0  0  0
 75 82  2  0  0  0
 76 77  1  0  0  0
 76 83  1  0  0  0
 77 80  1  0  0  0
 77 84  2  0  0  0
 78 82  1  0  0  0
 78147  1  0  0  0
 78148  1  0  0  0
 78149  1  0  0  0
 79 85  1  0  0  0
 80150  1  0  0  0
 81151  1  0  0  0
 82152  1  0  0  0
 83153  1  0  0  0
 83154  1  0  0  0
 83155  1  0  0  0
M  CHG  2  82   1  83   1
M  ISO  4   1 100  68 101  74 101  81 100
M  END
> <chiral flag>
0

> <version>
0

> <s_m_source_file>
/data/baiqing/PycharmProjects/Reinvent-master-3.2/result/LINK_invent/BTK/process_docking_weight1_custom_product_contain_oxygen_bond_distance_aromatic_linkinvent_7_9_3/rearranged_h_0159.sdf

> <i_m_source_file_index>
20

> <r_mmod_Potential_Energy-OPLS-2005>
-697.454467773438

> <r_mmod_Stretch_Energy-OPLS-2005>
50.6430168151855

> <r_mmod_Bend_Energy-OPLS-2005>
140.043960571289

> <r_mmod_Torsional_Energy-OPLS-2005>
234.218887329102

> <r_mmod_Improper_Torsional_Energy-OPLS-2005>
8.53777599334717

> <r_mmod_Van_der_Waal_Energy-OPLS-2005>
141.995178222656

> <r_mmod_Electrostatic_Energy-OPLS-2005>
-296.441009521484

> <r_mmod_Solvation_Energy-OPLS-2005>
-1010.06994628906

> <b_mmod_Minimization_Converged-OPLS-2005>
0

> <r_mmod_RMS_Derivative-OPLS-2005>
1.75131213665009

$$$$
20
                    3D
 Structure written by MMmdl.
156164  0  0  1  0            999 V2000
  -30.6589  -14.5459   20.4901 C   0  0  0  0  0  0
  -30.4230  -12.3213   19.4611 C   0  0  0  0  0  0
  -29.5088  -12.4828   18.2268 C   0  0  0  0  0  0
  -28.0292  -12.3402   18.6334 C   0  0  0  0  0  0
  -27.6568  -13.2104   19.8649 C   0  0  2  0  0  0
  -28.6939  -13.0467   21.0030 C   0  0  0  0  0  0
  -25.2581  -13.8171   20.5694 C   0  0  0  0  0  0
  -24.1838  -13.0450   20.9209 C   0  0  0  0  0  0
  -24.6383  -11.6904   20.8742 C   0  0  0  0  0  0
  -23.9074  -10.4299   21.0421 C   0  0  0  0  0  0
  -24.3622   -9.4205   21.9197 C   0  0  0  0  0  0
  -23.6298   -8.2240   22.0745 C   0  0  0  0  0  0
  -22.4284   -8.0297   21.3538 C   0  0  0  0  0  0
  -21.9927   -9.0273   20.4637 C   0  0  0  0  0  0
  -22.7254  -10.2147   20.3057 C   0  0  0  0  0  0
  -21.6852   -6.0749   22.5287 C   0  0  0  0  0  0
  -21.4012   -6.5643   23.8224 C   0  0  0  0  0  0
  -21.3656   -5.6787   24.9187 C   0  0  0  0  0  0
  -21.6033   -4.3056   24.7225 C   0  0  0  0  0  0
  -21.8821   -3.8157   23.4347 C   0  0  0  0  0  0
  -21.9190   -4.6977   22.3409 C   0  0  0  0  0  0
  -22.7862  -13.5251   21.1871 C   0  0  0  0  0  0
  -22.1657   -4.2170   21.0989 F   0  0  0  0  0  0
  -21.5622   -3.4532   25.7734 F   0  0  0  0  0  0
  -30.0257  -13.3392   20.4508 N   0  0  0  0  0  0
  -26.2999  -12.9339   20.3303 N   0  0  0  0  0  0
  -25.9305  -11.6506   20.5750 N   0  0  0  0  0  0
  -22.0466  -12.8262   22.0410 N   0  0  0  0  0  0
  -25.4306  -15.1894   20.4110 N   0  0  0  0  0  0
  -31.8055  -14.6984   20.0606 O   0  0  0  0  0  0
  -21.6626   -6.8903   21.4257 O   0  0  0  0  0  0
  -22.3564  -14.5564   20.6714 O   0  0  0  0  0  0
  -24.6174  -31.8659   23.2078 C   0  0  0  0  0  0
  -25.9066  -32.4821   23.8376 C   0  0  1  0  0  0
  -27.2339  -27.4107   20.0804 C   0  0  0  0  0  0
  -25.5920  -33.8628   24.2315 N   0  0  0  0  0  0
  -23.4045  -30.4927   21.5478 C   0  0  2  0  0  0
  -24.8480  -28.9514   20.1151 C   0  0  0  0  0  0
  -22.7415  -29.4671   22.4963 C   0  0  0  0  0  0
  -18.0282  -28.1383   22.8509 C   0  0  0  0  0  0
  -24.1486  -36.7310   23.2641 C   0  0  0  0  0  0
  -25.9385  -30.8229   21.3628 C   0  0  0  0  0  0
  -26.0107  -29.4548   20.7099 C   0  0  0  0  0  0
  -27.2013  -28.6899   20.6920 C   0  0  0  0  0  0
  -26.0453  -26.9225   19.4911 C   0  0  0  0  0  0
  -24.8617  -27.6844   19.5060 C   0  0  0  0  0  0
  -23.6134  -29.8244   20.1629 C   0  0  0  0  0  0
  -25.4112  -36.3114   24.0335 C   0  0  1  0  0  0
  -20.5870  -28.3674   23.1313 C   0  0  2  0  0  0
  -20.6773  -26.9405   22.5415 C   0  0  0  0  0  0
  -19.5745  -26.6388   21.5220 C   0  0  0  0  0  0
  -18.1921  -26.7932   22.1628 C   0  0  0  0  0  0
  -19.1527  -28.8847   23.2917 C   0  0  0  0  0  0
  -18.9454  -30.1455   23.8927 C   0  0  0  0  0  0
  -17.6462  -30.6594   24.0572 C   0  0  0  0  0  0
  -25.9048  -34.9484   23.5116 C   0  0  0  0  0  0
  -16.5352  -29.9102   23.6327 C   0  0  0  0  0  0
  -16.7267  -28.6513   23.0349 C   0  0  0  0  0  0
  -26.4476  -31.6627   25.0727 C   0  0  0  0  0  0
  -25.3725  -31.3766   26.1463 C   0  0  0  0  0  0
  -27.0296  -30.3063   24.6125 C   0  0  0  0  0  0
  -27.6035  -32.4356   25.7493 C   0  0  0  0  0  0
  -27.5578  -37.1814   24.8465 C   0  0  0  0  0  0
  -21.4136  -29.3041   22.3709 N   0  0  0  0  0  0
  -26.4293  -37.3799   23.9410 N   0  0  0  0  0  0
  -24.6720  -31.0756   22.0973 N   0  0  0  0  0  0
  -23.4191  -28.8197   23.2992 O   0  0  0  0  0  0
  -28.4203  -26.6936   20.0869 O   0  0  0  0  0  0
  -26.5595  -34.8926   22.4671 O   0  0  0  0  0  0
  -23.5361  -32.1412   23.7468 O   0  0  0  0  0  0
  -29.0373  -19.2826   20.1082 C   0  0  0  0  0  0
  -29.9848  -18.2245   20.3869 C   0  0  0  0  0  0
  -31.0926  -18.7312   21.0329 C   0  0  0  0  0  0
  -29.4310  -20.5616   20.4586 C   0  0  0  0  0  0
  -32.3021  -18.0861   21.5424 C   0  0  0  0  0  0
  -29.1771  -23.0124   20.2548 C   0  0  0  0  0  0
  -33.6224  -18.8448   21.4654 C   0  0  0  0  0  0
  -29.8105  -16.8020   19.8412 C   0  0  0  0  0  0
  -28.1289  -24.1585   20.1760 C   0  0  0  0  0  0
  -28.5472  -25.4389   19.3762 C   0  0  0  0  0  0
  -28.7280  -21.7283   20.2712 N   0  0  0  0  0  0
  -29.8604  -15.6146   20.7319 N   0  0  0  0  0  0
  -32.2883  -16.9649   22.0496 O   0  0  0  0  0  0
  -30.3768  -23.3007   20.2956 O   0  0  0  0  0  0
  -30.9937  -20.4664   21.2434 S   0  0  0  0  0  0
  -31.4712  -12.4088   19.1713 H   0  0  0  0  0  0
  -30.3173  -11.3203   19.8837 H   0  0  0  0  0  0
  -29.7629  -11.7327   17.4756 H   0  0  0  0  0  0
  -29.6792  -13.4541   17.7595 H   0  0  0  0  0  0
  -27.8600  -11.2890   18.8678 H   0  0  0  0  0  0
  -27.3790  -12.5686   17.7892 H   0  0  0  0  0  0
  -27.6838  -14.2476   19.5302 H   0  0  0  0  0  0
  -28.6687  -12.0305   21.3981 H   0  0  0  0  0  0
  -28.4547  -13.6981   21.8466 H   0  0  0  0  0  0
  -25.2758   -9.5678   22.4785 H   0  0  0  0  0  0
  -23.9999   -7.4623   22.7452 H   0  0  0  0  0  0
  -21.0859   -8.8807   19.8939 H   0  0  0  0  0  0
  -22.3728  -10.9698   19.6169 H   0  0  0  0  0  0
  -21.2002   -7.6147   23.9753 H   0  0  0  0  0  0
  -21.1472   -6.0504   25.9093 H   0  0  0  0  0  0
  -22.0600   -2.7623   23.2837 H   0  0  0  0  0  0
  -22.4032  -11.9924   22.4846 H   0  0  0  0  0  0
  -21.1075  -13.1301   22.2551 H   0  0  0  0  0  0
  -24.6635  -15.8451   20.5200 H   0  0  0  0  0  0
  -26.2809  -15.6285   20.0828 H   0  0  0  0  0  0
  -26.7152  -32.5512   23.1145 H   0  0  0  0  0  0
  -25.0100  -33.9793   25.0479 H   0  0  0  0  0  0
  -22.6957  -31.3118   21.4092 H   0  0  0  0  0  0
  -23.3743  -35.9647   23.3310 H   0  0  0  0  0  0
  -24.3573  -36.8903   22.2050 H   0  0  0  0  0  0
  -23.7237  -37.6520   23.6644 H   0  0  0  0  0  0
  -26.0573  -31.5883   20.5938 H   0  0  0  0  0  0
  -26.8278  -30.8755   21.9801 H   0  0  0  0  0  0
  -28.1013  -29.0849   21.1419 H   0  0  0  0  0  0
  -26.0058  -25.9538   19.0161 H   0  0  0  0  0  0
  -23.9650  -27.2884   19.0472 H   0  0  0  0  0  0
  -23.7261  -30.6002   19.4044 H   0  0  0  0  0  0
  -22.7357  -29.2475   19.8658 H   0  0  0  0  0  0
  -25.1294  -36.1962   25.0828 H   0  0  0  0  0  0
  -20.9996  -28.3251   24.1419 H   0  0  0  0  0  0
  -20.5669  -26.2287   23.3604 H   0  0  0  0  0  0
  -21.6644  -26.7435   22.1203 H   0  0  0  0  0  0
  -19.6886  -25.6304   21.1240 H   0  0  0  0  0  0
  -19.6682  -27.3212   20.6760 H   0  0  0  0  0  0
  -17.4186  -26.6696   21.4026 H   0  0  0  0  0  0
  -18.0307  -26.0078   22.9027 H   0  0  0  0  0  0
  -19.7929  -30.7268   24.2294 H   0  0  0  0  0  0
  -17.5007  -31.6265   24.5174 H   0  0  0  0  0  0
  -15.5347  -30.3006   23.7631 H   0  0  0  0  0  0
  -15.8664  -28.0840   22.7040 H   0  0  0  0  0  0
  -24.5877  -30.7133   25.7811 H   0  0  0  0  0  0
  -24.8938  -32.2941   26.4907 H   0  0  0  0  0  0
  -25.8057  -30.8938   27.0229 H   0  0  0  0  0  0
  -26.2849  -29.6843   24.1139 H   0  0  0  0  0  0
  -27.4009  -29.7290   25.4601 H   0  0  0  0  0  0
  -27.8718  -30.4381   23.9323 H   0  0  0  0  0  0
  -27.2643  -33.3637   26.2106 H   0  0  0  0  0  0
  -28.3832  -32.6944   25.0320 H   0  0  0  0  0  0
  -28.0723  -31.8462   26.5375 H   0  0  0  0  0  0
  -28.2617  -38.0095   24.7502 H   0  0  0  0  0  0
  -28.1049  -36.2621   24.6304 H   0  0  0  0  0  0
  -27.2295  -37.1492   25.8870 H   0  0  0  0  0  0
  -20.9273  -29.8788   21.6969 H   0  0  0  0  0  0
  -26.0167  -38.2875   24.1398 H   0  0  0  0  0  0
  -28.1054  -19.0686   19.6024 H   0  0  0  0  0  0
  -33.7178  -19.5342   22.3021 H   0  0  0  0  0  0
  -33.6740  -19.4183   20.5399 H   0  0  0  0  0  0
  -34.4630  -18.1513   21.4868 H   0  0  0  0  0  0
  -30.5169  -16.6673   19.0190 H   0  0  0  0  0  0
  -28.8384  -16.7414   19.3508 H   0  0  0  0  0  0
  -27.9025  -24.4461   21.2031 H   0  0  0  0  0  0
  -27.1928  -23.7755   19.7673 H   0  0  0  0  0  0
  -29.5986  -25.3771   19.0980 H   0  0  0  0  0  0
  -28.0358  -25.4752   18.4142 H   0  0  0  0  0  0
  -27.7322  -21.6187   20.1287 H   0  0  0  0  0  0
  -28.9845  -15.3885   21.1767 H   0  0  0  0  0  0
  1 25  1  0  0  0
  1 30  2  0  0  0
  1 82  1  0  0  0
  2  3  1  0  0  0
  2 25  1  0  0  0
  2 86  1  0  0  0
  2 87  1  0  0  0
  3  4  1  0  0  0
  3 88  1  0  0  0
  3 89  1  0  0  0
  4  5  1  0  0  0
  4 90  1  0  0  0
  4 91  1  0  0  0
  5  6  1  0  0  0
  5 26  1  0  0  0
  5 92  1  0  0  0
  6 25  1  0  0  0
  6 93  1  0  0  0
  6 94  1  0  0  0
  7  8  2  0  0  0
  7 26  1  0  0  0
  7 29  1  0  0  0
  8  9  1  0  0  0
  8 22  1  0  0  0
  9 10  1  0  0  0
  9 27  2  0  0  0
 10 11  2  0  0  0
 10 15  1  0  0  0
 11 12  1  0  0  0
 11 95  1  0  0  0
 12 13  2  0  0  0
 12 96  1  0  0  0
 13 14  1  0  0  0
 13 31  1  0  0  0
 14 15  2  0  0  0
 14 97  1  0  0  0
 15 98  1  0  0  0
 16 17  2  0  0  0
 16 21  1  0  0  0
 16 31  1  0  0  0
 17 18  1  0  0  0
 17 99  1  0  0  0
 18 19  2  0  0  0
 18100  1  0  0  0
 19 20  1  0  0  0
 19 24  1  0  0  0
 20 21  2  0  0  0
 20101  1  0  0  0
 21 23  1  0  0  0
 22 28  1  0  0  0
 22 32  2  0  0  0
 26 27  1  0  0  0
 28102  1  0  0  0
 28103  1  0  0  0
 29104  1  0  0  0
 29105  1  0  0  0
 33 34  1  0  0  0
 33 66  1  0  0  0
 33 70  2  0  0  0
 34 36  1  0  0  0
 34 59  1  0  0  0
 34106  1  0  0  0
 35 44  2  0  0  0
 35 45  1  0  0  0
 35 68  1  0  0  0
 36 56  1  0  0  0
 36107  1  0  0  0
 37 39  1  0  0  0
 37 47  1  0  0  0
 37 66  1  0  0  0
 37108  1  0  0  0
 38 43  2  0  0  0
 38 46  1  0  0  0
 38 47  1  0  0  0
 39 64  1  0  0  0
 39 67  2  0  0  0
 40 52  1  0  0  0
 40 53  2  0  0  0
 40 58  1  0  0  0
 41109  1  0  0  0
 41110  1  0  0  0
 41111  1  0  0  0
 41 48  1  0  0  0
 42 43  1  0  0  0
 42 66  1  0  0  0
 42112  1  0  0  0
 42113  1  0  0  0
 43 44  1  0  0  0
 44114  1  0  0  0
 45 46  2  0  0  0
 45115  1  0  0  0
 46116  1  0  0  0
 47117  1  0  0  0
 47118  1  0  0  0
 48 56  1  0  0  0
 48 65  1  0  0  0
 48119  1  0  0  0
 49 50  1  0  0  0
 49 53  1  0  0  0
 49 64  1  0  0  0
 49120  1  0  0  0
 50 51  1  0  0  0
 50121  1  0  0  0
 50122  1  0  0  0
 51 52  1  0  0  0
 51123  1  0  0  0
 51124  1  0  0  0
 52125  1  0  0  0
 52126  1  0  0  0
 53 54  1  0  0  0
 54 55  2  0  0  0
 54127  1  0  0  0
 55 57  1  0  0  0
 55128  1  0  0  0
 56 69  2  0  0  0
 57 58  2  0  0  0
 57129  1  0  0  0
 58130  1  0  0  0
 59 60  1  0  0  0
 59 61  1  0  0  0
 59 62  1  0  0  0
 60131  1  0  0  0
 60132  1  0  0  0
 60133  1  0  0  0
 61134  1  0  0  0
 61135  1  0  0  0
 61136  1  0  0  0
 62137  1  0  0  0
 62138  1  0  0  0
 62139  1  0  0  0
 63 65  1  0  0  0
 63140  1  0  0  0
 63141  1  0  0  0
 63142  1  0  0  0
 64143  1  0  0  0
 65144  1  0  0  0
 68 80  1  0  0  0
 71 72  1  0  0  0
 71 74  2  0  0  0
 71145  1  0  0  0
 72 73  2  0  0  0
 72 78  1  0  0  0
 73 75  1  0  0  0
 73 85  1  0  0  0
 74 81  1  0  0  0
 74 85  1  0  0  0
 75 77  1  0  0  0
 75 83  2  0  0  0
 76 79  1  0  0  0
 76 81  1  0  0  0
 76 84  2  0  0  0
 77146  1  0  0  0
 77147  1  0  0  0
 77148  1  0  0  0
 78 82  1  0  0  0
 78149  1  0  0  0
 78150  1  0  0  0
 79 80  1  0  0  0
 79151  1  0  0  0
 79152  1  0  0  0
 80153  1  0  0  0
 80154  1  0  0  0
 81155  1  0  0  0
 82156  1  0  0  0
M  ISO  4   1 100  68 101  80 101  82 100
M  END
> <chiral flag>
0

> <version>
0

> <s_m_source_file>
/data/baiqing/PycharmProjects/Reinvent-master-3.2/result/LINK_invent/BTK/process_docking_weight1_custom_product_contain_oxygen_bond_distance_aromatic_linkinvent_7_9_3/rearranged_h_0159.sdf

> <i_m_source_file_index>
21

> <r_mmod_Potential_Energy-OPLS-2005>
-158.868850708008

> <r_mmod_Stretch_Energy-OPLS-2005>
46.062313079834

> <r_mmod_Bend_Energy-OPLS-2005>
126.236167907715

> <r_mmod_Torsional_Energy-OPLS-2005>
237.75260925293

> <r_mmod_Improper_Torsional_Energy-OPLS-2005>
11.2952833175659

> <r_mmod_Van_der_Waal_Energy-OPLS-2005>
131.335968017578

> <r_mmod_Electrostatic_Energy-OPLS-2005>
-469.966033935547

> <r_mmod_Solvation_Energy-OPLS-2005>
-263.402008056641

> <b_mmod_Minimization_Converged-OPLS-2005>
0

> <r_mmod_RMS_Derivative-OPLS-2005>
2.9287281036377

$$$$
21
                    3D
 Structure written by MMmdl.
164173  0  0  1  0            999 V2000
  -30.6378  -14.8824   20.4717 C   0  0  0  0  0  0
  -30.4246  -12.5681   19.4761 C   0  0  0  0  0  0
  -29.5023  -12.5461   18.2399 C   0  0  0  0  0  0
  -28.0374  -12.3378   18.6632 C   0  0  0  0  0  0
  -27.6287  -13.2482   19.8521 C   0  0  2  0  0  0
  -28.6872  -13.2468   20.9785 C   0  0  0  0  0  0
  -25.2296  -13.8108   20.5507 C   0  0  0  0  0  0
  -24.1705  -13.0343   20.9205 C   0  0  0  0  0  0
  -24.6387  -11.6865   20.8803 C   0  0  0  0  0  0
  -23.9083  -10.4246   21.0434 C   0  0  0  0  0  0
  -24.3628   -9.4169   21.9207 C   0  0  0  0  0  0
  -23.6291   -8.2212   22.0762 C   0  0  0  0  0  0
  -22.4272   -8.0264   21.3552 C   0  0  0  0  0  0
  -21.9917   -9.0237   20.4644 C   0  0  0  0  0  0
  -22.7257  -10.2106   20.3065 C   0  0  0  0  0  0
  -21.6850   -6.0724   22.5276 C   0  0  0  0  0  0
  -21.4012   -6.5630   23.8206 C   0  0  0  0  0  0
  -21.3667   -5.6784   24.9170 C   0  0  0  0  0  0
  -21.6048   -4.3048   24.7221 C   0  0  0  0  0  0
  -21.8825   -3.8140   23.4340 C   0  0  0  0  0  0
  -21.9194   -4.6955   22.3399 C   0  0  0  0  0  0
  -22.7735  -13.5130   21.1867 C   0  0  0  0  0  0
  -22.1663   -4.2145   21.0975 F   0  0  0  0  0  0
  -21.5631   -3.4531   25.7734 F   0  0  0  0  0  0
  -29.9565  -13.6682   20.3713 N   0  0  0  0  0  0
  -26.2869  -12.9431   20.3354 N   0  0  0  0  0  0
  -25.9354  -11.6556   20.5885 N   0  0  0  0  0  0
  -22.0412  -12.8133   22.0455 N   0  0  0  0  0  0
  -25.3585  -15.1765   20.3464 N   0  0  0  0  0  0
  -31.8430  -14.8464   20.1975 O   0  0  0  0  0  0
  -21.6634   -6.8864   21.4237 O   0  0  0  0  0  0
  -22.3409  -14.5441   20.6723 O   0  0  0  0  0  0
  -24.6403  -31.8481   23.1920 C   0  0  0  0  0  0
  -25.9193  -32.4713   23.8289 C   0  0  1  0  0  0
  -27.2073  -27.1689   20.1768 C   0  0  0  0  0  0
  -25.5963  -33.8515   24.2217 N   0  0  0  0  0  0
  -23.4398  -30.4682   21.5372 C   0  0  2  0  0  0
  -24.8866  -28.8912   20.1248 C   0  0  0  0  0  0
  -22.7542  -29.4575   22.4890 C   0  0  0  0  0  0
  -18.0290  -28.1405   22.8465 C   0  0  0  0  0  0
  -24.1489  -36.7262   23.2640 C   0  0  0  0  0  0
  -25.9920  -30.7326   21.3835 C   0  0  0  0  0  0
  -26.0607  -29.3409   20.7432 C   0  0  0  0  0  0
  -27.2277  -28.4949   20.7527 C   0  0  0  0  0  0
  -26.0176  -26.8120   19.5142 C   0  0  0  0  0  0
  -24.8737  -27.6365   19.4965 C   0  0  0  0  0  0
  -23.6653  -29.7940   20.1577 C   0  0  0  0  0  0
  -25.4116  -36.3039   24.0318 C   0  0  1  0  0  0
  -20.5900  -28.3720   23.1239 C   0  0  2  0  0  0
  -20.6784  -26.9420   22.5411 C   0  0  0  0  0  0
  -19.5764  -26.6384   21.5214 C   0  0  0  0  0  0
  -18.1940  -26.7941   22.1617 C   0  0  0  0  0  0
  -19.1549  -28.8878   23.2848 C   0  0  0  0  0  0
  -18.9471  -30.1475   23.8870 C   0  0  0  0  0  0
  -17.6469  -30.6596   24.0557 C   0  0  0  0  0  0
  -25.9064  -34.9412   23.5072 C   0  0  0  0  0  0
  -16.5360  -29.9085   23.6338 C   0  0  0  0  0  0
  -16.7280  -28.6513   23.0346 C   0  0  0  0  0  0
  -26.4528  -31.6558   25.0708 C   0  0  0  0  0  0
  -25.3731  -31.3733   26.1415 C   0  0  0  0  0  0
  -27.0379  -30.2953   24.6261 C   0  0  0  0  0  0
  -27.6064  -32.4320   25.7495 C   0  0  0  0  0  0
  -27.5572  -37.1782   24.8463 C   0  0  0  0  0  0
  -21.4242  -29.3051   22.3624 N   0  0  0  0  0  0
  -26.4276  -37.3755   23.9419 N   0  0  0  0  0  0
  -24.7103  -31.0377   22.0928 N   0  0  0  0  0  0
  -23.4199  -28.8114   23.3025 O   0  0  0  0  0  0
  -28.2985  -26.2585   20.0572 O   0  0  0  0  0  0
  -26.5646  -34.8902   22.4643 O   0  0  0  0  0  0
  -23.5530  -32.1331   23.7167 O   0  0  0  0  0  0
  -27.7745  -21.9202   19.1151 C   0  0  0  0  0  0
  -26.5003  -22.7526   19.1460 C   0  0  0  0  0  0
  -26.5161  -23.3668   20.5458 C   0  0  0  0  0  0
  -30.7652  -18.7309   21.2963 C   0  0  0  0  0  0
  -28.9557  -18.3848   19.8099 C   0  0  0  0  0  0
  -30.8069  -17.1625   21.6483 C   0  0  0  0  0  0
  -29.4250  -19.4498   20.8789 C   0  0  2  0  0  0
  -28.0009  -23.4173   20.9086 C   0  0  2  0  0  0
  -28.8264  -16.8497   20.3099 C   0  0  2  0  0  0
  -27.7481  -16.8097   21.4094 C   0  0  0  0  0  0
  -29.6196  -21.0981   20.6052 C   0  0  0  0  0  0
  -28.5627  -24.9942   20.8837 C   0  0  0  0  0  0
  -28.5634  -22.1610   20.1746 N   0  0  0  0  0  0
  -30.0585  -16.1443   20.8238 N   0  0  0  0  0  0
  -27.9813  -21.0824   18.2349 O   0  0  0  0  0  0
  -31.4595  -12.6959   19.1548 H   0  0  0  0  0  0
  -30.3977  -11.6066   19.9913 H   0  0  0  0  0  0
  -29.8089  -11.7602   17.5483 H   0  0  0  0  0  0
  -29.5978  -13.4891   17.6980 H   0  0  0  0  0  0
  -27.9194  -11.2902   18.9428 H   0  0  0  0  0  0
  -27.3720  -12.5003   17.8146 H   0  0  0  0  0  0
  -27.5894  -14.2543   19.4427 H   0  0  0  0  0  0
  -28.7771  -12.2516   21.4171 H   0  0  0  0  0  0
  -28.4166  -13.9040   21.8010 H   0  0  0  0  0  0
  -25.2763   -9.5641   22.4793 H   0  0  0  0  0  0
  -23.9989   -7.4599   22.7479 H   0  0  0  0  0  0
  -21.0853   -8.8754   19.8940 H   0  0  0  0  0  0
  -22.3721  -10.9649   19.6175 H   0  0  0  0  0  0
  -21.1995   -7.6137   23.9708 H   0  0  0  0  0  0
  -21.1493   -6.0515   25.9074 H   0  0  0  0  0  0
  -22.0597   -2.7602   23.2842 H   0  0  0  0  0  0
  -22.4032  -11.9794   22.4844 H   0  0  0  0  0  0
  -21.1041  -13.1165   22.2677 H   0  0  0  0  0  0
  -24.5717  -15.8089   20.4395 H   0  0  0  0  0  0
  -26.2067  -15.6362   20.0445 H   0  0  0  0  0  0
  -26.7260  -32.5323   23.1021 H   0  0  0  0  0  0
  -25.0111  -33.9641   25.0365 H   0  0  0  0  0  0
  -22.7411  -31.2931   21.3829 H   0  0  0  0  0  0
  -23.3755  -35.9587   23.3279 H   0  0  0  0  0  0
  -24.3585  -36.8921   22.2060 H   0  0  0  0  0  0
  -23.7232  -37.6450   23.6684 H   0  0  0  0  0  0
  -26.1366  -31.4804   20.6021 H   0  0  0  0  0  0
  -26.8679  -30.7909   22.0179 H   0  0  0  0  0  0
  -28.1356  -28.8491   21.2200 H   0  0  0  0  0  0
  -25.9701  -25.8659   18.9953 H   0  0  0  0  0  0
  -23.9814  -27.2927   18.9921 H   0  0  0  0  0  0
  -23.8015  -30.5658   19.3994 H   0  0  0  0  0  0
  -22.7795  -29.2367   19.8482 H   0  0  0  0  0  0
  -25.1295  -36.1867   25.0807 H   0  0  0  0  0  0
  -20.9986  -28.3315   24.1364 H   0  0  0  0  0  0
  -20.5691  -26.2328   23.3631 H   0  0  0  0  0  0
  -21.6649  -26.7446   22.1201 H   0  0  0  0  0  0
  -19.6931  -25.6291   21.1257 H   0  0  0  0  0  0
  -19.6710  -27.3181   20.6733 H   0  0  0  0  0  0
  -17.4214  -26.6679   21.4022 H   0  0  0  0  0  0
  -18.0337  -26.0095   22.9022 H   0  0  0  0  0  0
  -19.7947  -30.7301   24.2229 H   0  0  0  0  0  0
  -17.5018  -31.6265   24.5177 H   0  0  0  0  0  0
  -15.5361  -30.2982   23.7681 H   0  0  0  0  0  0
  -15.8679  -28.0833   22.7068 H   0  0  0  0  0  0
  -24.5935  -30.7045   25.7752 H   0  0  0  0  0  0
  -24.8887  -32.2903   26.4778 H   0  0  0  0  0  0
  -25.8038  -30.8968   27.0230 H   0  0  0  0  0  0
  -26.2980  -29.6691   24.1263 H   0  0  0  0  0  0
  -27.3992  -29.7236   25.4822 H   0  0  0  0  0  0
  -27.8889  -30.4198   23.9560 H   0  0  0  0  0  0
  -27.2666  -33.3646   26.2012 H   0  0  0  0  0  0
  -28.3906  -32.6845   25.0346 H   0  0  0  0  0  0
  -28.0687  -31.8480   26.5468 H   0  0  0  0  0  0
  -28.2564  -38.0104   24.7526 H   0  0  0  0  0  0
  -28.1095  -36.2632   24.6259 H   0  0  0  0  0  0
  -27.2292  -37.1386   25.8866 H   0  0  0  0  0  0
  -20.9449  -29.8764   21.6801 H   0  0  0  0  0  0
  -26.0142  -38.2818   24.1443 H   0  0  0  0  0  0
  -25.6159  -22.1355   18.9779 H   0  0  0  0  0  0
  -26.5475  -23.5163   18.3709 H   0  0  0  0  0  0
  -25.9909  -22.7035   21.2349 H   0  0  0  0  0  0
  -26.0219  -24.3332   20.6081 H   0  0  0  0  0  0
  -31.4831  -18.8980   20.4927 H   0  0  0  0  0  0
  -31.1832  -19.2662   22.1501 H   0  0  0  0  0  0
  -29.6317  -18.4159   18.9537 H   0  0  0  0  0  0
  -27.9891  -18.6975   19.4129 H   0  0  0  0  0  0
  -30.4349  -17.0446   22.6665 H   0  0  0  0  0  0
  -31.8577  -16.8749   21.7145 H   0  0  0  0  0  0
  -28.7338  -19.3873   21.7191 H   0  0  0  0  0  0
  -28.0794  -23.1343   21.9603 H   0  0  0  0  0  0
  -28.4757  -16.2786   19.4514 H   0  0  0  0  0  0
  -28.0783  -17.3112   22.3181 H   0  0  0  0  0  0
  -27.4874  -15.8004   21.7064 H   0  0  0  0  0  0
  -26.8360  -17.3134   21.0871 H   0  0  0  0  0  0
  -30.4245  -21.1939   19.8754 H   0  0  0  0  0  0
  -30.0430  -21.5032   21.5250 H   0  0  0  0  0  0
  -29.6484  -24.8991   20.8705 H   0  0  0  0  0  0
  -28.3555  -25.3545   21.8924 H   0  0  0  0  0  0
  1 25  1  0  0  0
  1 30  2  0  0  0
  1 84  1  0  0  0
  2  3  1  0  0  0
  2 25  1  0  0  0
  2 86  1  0  0  0
  2 87  1  0  0  0
  3  4  1  0  0  0
  3 88  1  0  0  0
  3 89  1  0  0  0
  4  5  1  0  0  0
  4 90  1  0  0  0
  4 91  1  0  0  0
  5  6  1  0  0  0
  5 26  1  0  0  0
  5 92  1  0  0  0
  6 25  1  0  0  0
  6 93  1  0  0  0
  6 94  1  0  0  0
  7  8  2  0  0  0
  7 26  1  0  0  0
  7 29  1  0  0  0
  8  9  1  0  0  0
  8 22  1  0  0  0
  9 10  1  0  0  0
  9 27  2  0  0  0
 10 11  2  0  0  0
 10 15  1  0  0  0
 11 12  1  0  0  0
 11 95  1  0  0  0
 12 13  2  0  0  0
 12 96  1  0  0  0
 13 14  1  0  0  0
 13 31  1  0  0  0
 14 15  2  0  0  0
 14 97  1  0  0  0
 15 98  1  0  0  0
 16 17  2  0  0  0
 16 21  1  0  0  0
 16 31  1  0  0  0
 17 18  1  0  0  0
 17 99  1  0  0  0
 18 19  2  0  0  0
 18100  1  0  0  0
 19 20  1  0  0  0
 19 24  1  0  0  0
 20 21  2  0  0  0
 20101  1  0  0  0
 21 23  1  0  0  0
 22 28  1  0  0  0
 22 32  2  0  0  0
 26 27  1  0  0  0
 28102  1  0  0  0
 28103  1  0  0  0
 29104  1  0  0  0
 29105  1  0  0  0
 33 34  1  0  0  0
 33 66  1  0  0  0
 33 70  2  0  0  0
 34 36  1  0  0  0
 34 59  1  0  0  0
 34106  1  0  0  0
 35 44  2  0  0  0
 35 45  1  0  0  0
 35 68  1  0  0  0
 36 56  1  0  0  0
 36107  1  0  0  0
 37 39  1  0  0  0
 37 47  1  0  0  0
 37 66  1  0  0  0
 37108  1  0  0  0
 38 43  2  0  0  0
 38 46  1  0  0  0
 38 47  1  0  0  0
 39 64  1  0  0  0
 39 67  2  0  0  0
 40 52  1  0  0  0
 40 53  2  0  0  0
 40 58  1  0  0  0
 41109  1  0  0  0
 41110  1  0  0  0
 41111  1  0  0  0
 41 48  1  0  0  0
 42 43  1  0  0  0
 42 66  1  0  0  0
 42112  1  0  0  0
 42113  1  0  0  0
 43 44  1  0  0  0
 44114  1  0  0  0
 45 46  2  0  0  0
 45115  1  0  0  0
 46116  1  0  0  0
 47117  1  0  0  0
 47118  1  0  0  0
 48 56  1  0  0  0
 48 65  1  0  0  0
 48119  1  0  0  0
 49 50  1  0  0  0
 49 53  1  0  0  0
 49 64  1  0  0  0
 49120  1  0  0  0
 50 51  1  0  0  0
 50121  1  0  0  0
 50122  1  0  0  0
 51 52  1  0  0  0
 51123  1  0  0  0
 51124  1  0  0  0
 52125  1  0  0  0
 52126  1  0  0  0
 53 54  1  0  0  0
 54 55  2  0  0  0
 54127  1  0  0  0
 55 57  1  0  0  0
 55128  1  0  0  0
 56 69  2  0  0  0
 57 58  2  0  0  0
 57129  1  0  0  0
 58130  1  0  0  0
 59 60  1  0  0  0
 59 61  1  0  0  0
 59 62  1  0  0  0
 60131  1  0  0  0
 60132  1  0  0  0
 60133  1  0  0  0
 61134  1  0  0  0
 61135  1  0  0  0
 61136  1  0  0  0
 62137  1  0  0  0
 62138  1  0  0  0
 62139  1  0  0  0
 63 65  1  0  0  0
 63140  1  0  0  0
 63141  1  0  0  0
 63142  1  0  0  0
 64143  1  0  0  0
 65144  1  0  0  0
 68 82  1  0  0  0
 71 72  1  0  0  0
 71 83  1  0  0  0
 71 85  2  0  0  0
 72 73  1  0  0  0
 72145  1  0  0  0
 72146  1  0  0  0
 73 78  1  0  0  0
 73147  1  0  0  0
 73148  1  0  0  0
 74 76  1  0  0  0
 74 77  1  0  0  0
 74149  1  0  0  0
 74150  1  0  0  0
 75 77  1  0  0  0
 75 79  1  0  0  0
 75151  1  0  0  0
 75152  1  0  0  0
 76 84  1  0  0  0
 76153  1  0  0  0
 76154  1  0  0  0
 77 81  1  0  0  0
 77155  1  0  0  0
 78 82  1  0  0  0
 78 83  1  0  0  0
 78156  1  0  0  0
 79 80  1  0  0  0
 79 84  1  0  0  0
 79157  1  0  0  0
 80158  1  0  0  0
 80159  1  0  0  0
 80160  1  0  0  0
 81 83  1  0  0  0
 81161  1  0  0  0
 81162  1  0  0  0
 82163  1  0  0  0
 82164  1  0  0  0
M  ISO  4   1 100  68 101  82 101  84 100
M  END
> <chiral flag>
0

> <version>
0

> <s_m_source_file>
/data/baiqing/PycharmProjects/Reinvent-master-3.2/result/LINK_invent/BTK/process_docking_weight1_custom_product_contain_oxygen_bond_distance_aromatic_linkinvent_7_9_3/rearranged_h_0159.sdf

> <i_m_source_file_index>
22

> <r_mmod_Potential_Energy-OPLS-2005>
797.694702148438

> <r_mmod_Stretch_Energy-OPLS-2005>
210.81640625

> <r_mmod_Bend_Energy-OPLS-2005>
406.456207275391

> <r_mmod_Torsional_Energy-OPLS-2005>
413.228546142578

> <r_mmod_Improper_Torsional_Energy-OPLS-2005>
3.29590463638306

> <r_mmod_Van_der_Waal_Energy-OPLS-2005>
112.845817565918

> <r_mmod_Electrostatic_Energy-OPLS-2005>
-280.359130859375

> <r_mmod_Solvation_Energy-OPLS-2005>
-212.944854736328

> <b_mmod_Minimization_Converged-OPLS-2005>
0

> <r_mmod_RMS_Derivative-OPLS-2005>
1.91686820983887

$$$$
22
                    3D
 Structure written by MMmdl.
161169  0  0  1  0            999 V2000
  -30.6273  -14.5638   20.5872 C   0  0  0  0  0  0
  -30.4501  -12.3610   19.4479 C   0  0  0  0  0  0
  -29.5190  -12.5197   18.2244 C   0  0  0  0  0  0
  -28.0380  -12.3634   18.6290 C   0  0  0  0  0  0
  -27.6668  -13.2034   19.8796 C   0  0  2  0  0  0
  -28.7024  -12.9835   21.0035 C   0  0  0  0  0  0
  -25.2620  -13.8144   20.5651 C   0  0  0  0  0  0
  -24.1851  -13.0430   20.9134 C   0  0  0  0  0  0
  -24.6384  -11.6897   20.8683 C   0  0  0  0  0  0
  -23.9034  -10.4285   21.0382 C   0  0  0  0  0  0
  -24.3595   -9.4216   21.9174 C   0  0  0  0  0  0
  -23.6280   -8.2247   22.0757 C   0  0  0  0  0  0
  -22.4265   -8.0271   21.3549 C   0  0  0  0  0  0
  -21.9886   -9.0238   20.4647 C   0  0  0  0  0  0
  -22.7199  -10.2124   20.3046 C   0  0  0  0  0  0
  -21.6849   -6.0716   22.5281 C   0  0  0  0  0  0
  -21.4006   -6.5627   23.8208 C   0  0  0  0  0  0
  -21.3669   -5.6784   24.9170 C   0  0  0  0  0  0
  -21.6050   -4.3048   24.7230 C   0  0  0  0  0  0
  -21.8811   -3.8139   23.4350 C   0  0  0  0  0  0
  -21.9196   -4.6946   22.3405 C   0  0  0  0  0  0
  -22.7874  -13.5251   21.1834 C   0  0  0  0  0  0
  -22.1663   -4.2132   21.0984 F   0  0  0  0  0  0
  -21.5640   -3.4537   25.7747 F   0  0  0  0  0  0
  -30.0326  -13.3377   20.4711 N   0  0  0  0  0  0
  -26.3047  -12.9298   20.3344 N   0  0  0  0  0  0
  -25.9314  -11.6453   20.5704 N   0  0  0  0  0  0
  -22.0493  -12.8253   22.0383 N   0  0  0  0  0  0
  -25.4329  -15.1851   20.4055 N   0  0  0  0  0  0
  -31.7196  -14.8204   20.0665 O   0  0  0  0  0  0
  -21.6639   -6.8867   21.4242 O   0  0  0  0  0  0
  -22.3557  -14.5564   20.6694 O   0  0  0  0  0  0
  -24.6213  -31.8626   23.2027 C   0  0  0  0  0  0
  -25.9094  -32.4777   23.8340 C   0  0  1  0  0  0
  -27.2342  -27.3683   20.1293 C   0  0  0  0  0  0
  -25.5955  -33.8571   24.2293 N   0  0  0  0  0  0
  -23.4107  -30.4836   21.5435 C   0  0  2  0  0  0
  -24.8595  -28.9384   20.1130 C   0  0  0  0  0  0
  -22.7455  -29.4634   22.4963 C   0  0  0  0  0  0
  -18.0275  -28.1380   22.8481 C   0  0  0  0  0  0
  -24.1488  -36.7291   23.2632 C   0  0  0  0  0  0
  -25.9415  -30.8130   21.3593 C   0  0  0  0  0  0
  -26.0208  -29.4402   20.7133 C   0  0  0  0  0  0
  -27.2121  -28.6674   20.7099 C   0  0  0  0  0  0
  -26.0523  -26.8946   19.5197 C   0  0  0  0  0  0
  -24.8745  -27.6688   19.5071 C   0  0  0  0  0  0
  -23.6245  -29.8133   20.1580 C   0  0  0  0  0  0
  -25.4107  -36.3079   24.0338 C   0  0  1  0  0  0
  -20.5862  -28.3676   23.1309 C   0  0  2  0  0  0
  -20.6772  -26.9414   22.5411 C   0  0  0  0  0  0
  -19.5757  -26.6397   21.5204 C   0  0  0  0  0  0
  -18.1936  -26.7921   22.1617 C   0  0  0  0  0  0
  -19.1521  -28.8852   23.2892 C   0  0  0  0  0  0
  -18.9461  -30.1455   23.8907 C   0  0  0  0  0  0
  -17.6465  -30.6588   24.0569 C   0  0  0  0  0  0
  -25.9046  -34.9453   23.5113 C   0  0  0  0  0  0
  -16.5353  -29.9094   23.6326 C   0  0  0  0  0  0
  -16.7269  -28.6511   23.0347 C   0  0  0  0  0  0
  -26.4510  -31.6554   25.0676 C   0  0  0  0  0  0
  -25.3774  -31.3686   26.1435 C   0  0  0  0  0  0
  -27.0335  -30.2989   24.6046 C   0  0  0  0  0  0
  -27.6074  -32.4273   25.7469 C   0  0  0  0  0  0
  -27.5574  -37.1810   24.8473 C   0  0  0  0  0  0
  -21.4169  -29.3040   22.3727 N   0  0  0  0  0  0
  -26.4280  -37.3785   23.9428 N   0  0  0  0  0  0
  -24.6766  -31.0704   22.0935 N   0  0  0  0  0  0
  -23.4225  -28.8212   23.3045 O   0  0  0  0  0  0
  -28.3847  -26.5876   20.1488 O   0  0  0  0  0  0
  -26.5594  -34.8922   22.4655 O   0  0  0  0  0  0
  -23.5407  -32.1414   23.7408 O   0  0  0  0  0  0
  -28.8171  -19.0051   21.6403 C   0  0  0  0  0  0
  -28.9896  -17.6352   22.0601 C   0  0  0  0  0  0
  -29.5059  -19.3359   20.5034 C   0  0  0  0  0  0
  -29.7388  -16.8418   21.1965 C   0  0  0  0  0  0
  -28.5491  -24.2480   19.2477 C   0  0  0  0  0  0
  -28.3309  -17.1172   23.3042 C   0  0  0  0  0  0
  -28.8023  -22.9092   19.1316 C   0  0  0  0  0  0
  -28.4073  -17.9916   24.5578 C   0  0  0  0  0  0
  -29.0293  -22.3520   17.7309 C   0  0  0  0  0  0
  -29.4841  -19.0693   24.6727 C   0  0  0  0  0  0
  -28.2622  -25.1588   20.4529 C   0  0  0  0  0  0
  -28.8899  -21.8281   20.2456 C   0  0  0  0  0  0
  -27.7546  -15.9867   23.3286 N   0  0  0  0  0  0
  -29.9168  -15.4731   21.3044 N   0  0  0  0  0  0
  -29.6115  -20.5887   19.8451 N   0  0  0  0  0  0
  -27.6372  -17.8161   25.5099 O   0  0  0  0  0  0
  -30.3326  -17.8890   19.8947 S   0  0  0  0  0  0
  -31.4940  -12.4977   19.1590 H   0  0  0  0  0  0
  -30.3867  -11.3468   19.8479 H   0  0  0  0  0  0
  -29.7771  -11.7829   17.4635 H   0  0  0  0  0  0
  -29.6767  -13.4998   17.7700 H   0  0  0  0  0  0
  -27.8650  -11.3049   18.8317 H   0  0  0  0  0  0
  -27.3874  -12.6249   17.7946 H   0  0  0  0  0  0
  -27.7124  -14.2515   19.5841 H   0  0  0  0  0  0
  -28.6995  -11.9386   21.3162 H   0  0  0  0  0  0
  -28.4337  -13.5475   21.8981 H   0  0  0  0  0  0
  -25.2735   -9.5700   22.4752 H   0  0  0  0  0  0
  -23.9986   -7.4640   22.7488 H   0  0  0  0  0  0
  -21.0815   -8.8736   19.8966 H   0  0  0  0  0  0
  -22.3641  -10.9649   19.6160 H   0  0  0  0  0  0
  -21.1986   -7.6134   23.9704 H   0  0  0  0  0  0
  -21.1505   -6.0522   25.9079 H   0  0  0  0  0  0
  -22.0589   -2.7601   23.2856 H   0  0  0  0  0  0
  -22.4070  -11.9901   22.4767 H   0  0  0  0  0  0
  -21.1111  -13.1300   22.2574 H   0  0  0  0  0  0
  -24.6821  -15.8472   20.5621 H   0  0  0  0  0  0
  -26.3134  -15.6276   20.1747 H   0  0  0  0  0  0
  -26.7144  -32.5481   23.1083 H   0  0  0  0  0  0
  -25.0169  -33.9720   25.0487 H   0  0  0  0  0  0
  -22.6987  -31.3005   21.3997 H   0  0  0  0  0  0
  -23.3736  -35.9633   23.3292 H   0  0  0  0  0  0
  -24.3576  -36.8915   22.2044 H   0  0  0  0  0  0
  -23.7258  -37.6510   23.6631 H   0  0  0  0  0  0
  -26.0508  -31.5718   20.5833 H   0  0  0  0  0  0
  -26.8318  -30.8768   21.9740 H   0  0  0  0  0  0
  -28.1046  -29.0535   21.1843 H   0  0  0  0  0  0
  -26.0376  -25.9179   19.0539 H   0  0  0  0  0  0
  -23.9858  -27.2724   19.0383 H   0  0  0  0  0  0
  -23.7429  -30.5857   19.3975 H   0  0  0  0  0  0
  -22.7480  -29.2376   19.8577 H   0  0  0  0  0  0
  -25.1282  -36.1917   25.0833 H   0  0  0  0  0  0
  -20.9936  -28.3216   24.1442 H   0  0  0  0  0  0
  -20.5671  -26.2296   23.3604 H   0  0  0  0  0  0
  -21.6654  -26.7478   22.1219 H   0  0  0  0  0  0
  -19.6919  -25.6320   21.1227 H   0  0  0  0  0  0
  -19.6662  -27.3221   20.6737 H   0  0  0  0  0  0
  -17.4215  -26.6674   21.4008 H   0  0  0  0  0  0
  -18.0321  -26.0057   22.9009 H   0  0  0  0  0  0
  -19.7946  -30.7251   24.2288 H   0  0  0  0  0  0
  -17.5035  -31.6258   24.5181 H   0  0  0  0  0  0
  -15.5370  -30.3014   23.7624 H   0  0  0  0  0  0
  -15.8669  -28.0837   22.7051 H   0  0  0  0  0  0
  -24.5964  -30.6994   25.7815 H   0  0  0  0  0  0
  -24.8941  -32.2848   26.4824 H   0  0  0  0  0  0
  -25.8161  -30.8931   27.0220 H   0  0  0  0  0  0
  -26.2869  -29.6744   24.1124 H   0  0  0  0  0  0
  -27.4148  -29.7228   25.4490 H   0  0  0  0  0  0
  -27.8684  -30.4308   23.9159 H   0  0  0  0  0  0
  -27.2672  -33.3573   26.2035 H   0  0  0  0  0  0
  -28.3912  -32.6832   25.0324 H   0  0  0  0  0  0
  -28.0684  -31.8384   26.5412 H   0  0  0  0  0  0
  -28.2617  -38.0085   24.7523 H   0  0  0  0  0  0
  -28.1059  -36.2634   24.6289 H   0  0  0  0  0  0
  -27.2313  -37.1471   25.8884 H   0  0  0  0  0  0
  -20.9346  -29.8784   21.6948 H   0  0  0  0  0  0
  -26.0152  -38.2867   24.1398 H   0  0  0  0  0  0
  -28.2109  -19.7040   22.1977 H   0  0  0  0  0  0
  -28.5217  -24.8133   18.3275 H   0  0  0  0  0  0
  -28.8349  -23.0908   16.9531 H   0  0  0  0  0  0
  -28.3667  -21.5052   17.5461 H   0  0  0  0  0  0
  -30.0635  -22.0256   17.6123 H   0  0  0  0  0  0
  -29.1126  -20.0381   24.3362 H   0  0  0  0  0  0
  -30.3588  -18.8076   24.0771 H   0  0  0  0  0  0
  -29.7945  -19.1665   25.7123 H   0  0  0  0  0  0
  -28.9658  -24.9230   21.2527 H   0  0  0  0  0  0
  -27.2758  -24.9129   20.8508 H   0  0  0  0  0  0
  -27.8687  -21.5578   20.5237 H   0  0  0  0  0  0
  -29.3524  -22.2586   21.1338 H   0  0  0  0  0  0
  -27.3896  -15.8377   24.2653 H   0  0  0  0  0  0
  -29.2112  -15.0306   21.8813 H   0  0  0  0  0  0
  -30.2480  -20.6999   19.0573 H   0  0  0  0  0  0
  1 25  1  0  0  0
  1 30  2  0  0  0
  1 84  1  0  0  0
  2  3  1  0  0  0
  2 25  1  0  0  0
  2 88  1  0  0  0
  2 89  1  0  0  0
  3  4  1  0  0  0
  3 90  1  0  0  0
  3 91  1  0  0  0
  4  5  1  0  0  0
  4 92  1  0  0  0
  4 93  1  0  0  0
  5  6  1  0  0  0
  5 26  1  0  0  0
  5 94  1  0  0  0
  6 25  1  0  0  0
  6 95  1  0  0  0
  6 96  1  0  0  0
  7  8  2  0  0  0
  7 26  1  0  0  0
  7 29  1  0  0  0
  8  9  1  0  0  0
  8 22  1  0  0  0
  9 10  1  0  0  0
  9 27  2  0  0  0
 10 11  2  0  0  0
 10 15  1  0  0  0
 11 12  1  0  0  0
 11 97  1  0  0  0
 12 13  2  0  0  0
 12 98  1  0  0  0
 13 14  1  0  0  0
 13 31  1  0  0  0
 14 15  2  0  0  0
 14 99  1  0  0  0
 15100  1  0  0  0
 16 17  2  0  0  0
 16 21  1  0  0  0
 16 31  1  0  0  0
 17 18  1  0  0  0
 17101  1  0  0  0
 18 19  2  0  0  0
 18102  1  0  0  0
 19 20  1  0  0  0
 19 24  1  0  0  0
 20 21  2  0  0  0
 20103  1  0  0  0
 21 23  1  0  0  0
 22 28  1  0  0  0
 22 32  2  0  0  0
 26 27  1  0  0  0
 28104  1  0  0  0
 28105  1  0  0  0
 29106  1  0  0  0
 29107  1  0  0  0
 33 34  1  0  0  0
 33 66  1  0  0  0
 33 70  2  0  0  0
 34 36  1  0  0  0
 34 59  1  0  0  0
 34108  1  0  0  0
 35 44  2  0  0  0
 35 45  1  0  0  0
 35 68  1  0  0  0
 36 56  1  0  0  0
 36109  1  0  0  0
 37 39  1  0  0  0
 37 47  1  0  0  0
 37 66  1  0  0  0
 37110  1  0  0  0
 38 43  2  0  0  0
 38 46  1  0  0  0
 38 47  1  0  0  0
 39 64  1  0  0  0
 39 67  2  0  0  0
 40 52  1  0  0  0
 40 53  2  0  0  0
 40 58  1  0  0  0
 41111  1  0  0  0
 41112  1  0  0  0
 41113  1  0  0  0
 41 48  1  0  0  0
 42 43  1  0  0  0
 42 66  1  0  0  0
 42114  1  0  0  0
 42115  1  0  0  0
 43 44  1  0  0  0
 44116  1  0  0  0
 45 46  2  0  0  0
 45117  1  0  0  0
 46118  1  0  0  0
 47119  1  0  0  0
 47120  1  0  0  0
 48 56  1  0  0  0
 48 65  1  0  0  0
 48121  1  0  0  0
 49 50  1  0  0  0
 49 53  1  0  0  0
 49 64  1  0  0  0
 49122  1  0  0  0
 50 51  1  0  0  0
 50123  1  0  0  0
 50124  1  0  0  0
 51 52  1  0  0  0
 51125  1  0  0  0
 51126  1  0  0  0
 52127  1  0  0  0
 52128  1  0  0  0
 53 54  1  0  0  0
 54 55  2  0  0  0
 54129  1  0  0  0
 55 57  1  0  0  0
 55130  1  0  0  0
 56 69  2  0  0  0
 57 58  2  0  0  0
 57131  1  0  0  0
 58132  1  0  0  0
 59 60  1  0  0  0
 59 61  1  0  0  0
 59 62  1  0  0  0
 60133  1  0  0  0
 60134  1  0  0  0
 60135  1  0  0  0
 61136  1  0  0  0
 61137  1  0  0  0
 61138  1  0  0  0
 62139  1  0  0  0
 62140  1  0  0  0
 62141  1  0  0  0
 63 65  1  0  0  0
 63142  1  0  0  0
 63143  1  0  0  0
 63144  1  0  0  0
 64145  1  0  0  0
 65146  1  0  0  0
 68 81  1  0  0  0
 71 72  1  0  0  0
 71 73  2  0  0  0
 71147  1  0  0  0
 72 74  2  0  0  0
 72 76  1  0  0  0
 73 85  1  0  0  0
 73 87  1  0  0  0
 74 84  1  0  0  0
 74 87  1  0  0  0
 75 77  2  0  0  0
 75 81  1  0  0  0
 75148  1  0  0  0
 76 78  1  0  0  0
 76 83  2  0  0  0
 77 79  1  0  0  0
 77 82  1  0  0  0
 78 80  1  0  0  0
 78 86  2  0  0  0
 79149  1  0  0  0
 79150  1  0  0  0
 79151  1  0  0  0
 80152  1  0  0  0
 80153  1  0  0  0
 80154  1  0  0  0
 81155  1  0  0  0
 81156  1  0  0  0
 82 85  1  0  0  0
 82157  1  0  0  0
 82158  1  0  0  0
 83159  1  0  0  0
 84160  1  0  0  0
 85161  1  0  0  0
M  ISO  4   1 100  68 101  81 101  84 100
M  END
> <chiral flag>
0

> <version>
0

> <s_m_source_file>
/data/baiqing/PycharmProjects/Reinvent-master-3.2/result/LINK_invent/BTK/process_docking_weight1_custom_product_contain_oxygen_bond_distance_aromatic_linkinvent_7_9_3/rearranged_h_0159.sdf

> <i_m_source_file_index>
23

> <r_mmod_Potential_Energy-OPLS-2005>
16.8811836242676

> <r_mmod_Stretch_Energy-OPLS-2005>
59.6337890625

> <r_mmod_Bend_Energy-OPLS-2005>
144.533706665039

> <r_mmod_Torsional_Energy-OPLS-2005>
234.400543212891

> <r_mmod_Improper_Torsional_Energy-OPLS-2005>
3.26873445510864

> <r_mmod_Van_der_Waal_Energy-OPLS-2005>
131.283981323242

> <r_mmod_Electrostatic_Energy-OPLS-2005>
-355.69482421875

> <r_mmod_Solvation_Energy-OPLS-2005>
-228.589462280273

> <b_mmod_Minimization_Converged-OPLS-2005>
0

> <r_mmod_RMS_Derivative-OPLS-2005>
3.77601337432861

$$$$
23
                    3D
 Structure written by MMmdl.
155163  0  0  1  0            999 V2000
  -30.7175  -14.4599   20.5666 C   0  0  0  0  0  0
  -30.4212  -12.2888   19.4343 C   0  0  0  0  0  0
  -29.5006  -12.4888   18.2137 C   0  0  0  0  0  0
  -28.0216  -12.3460   18.6250 C   0  0  0  0  0  0
  -27.6623  -13.2031   19.8694 C   0  0  2  0  0  0
  -28.7011  -13.0013   20.9941 C   0  0  0  0  0  0
  -25.2618  -13.8159   20.5689 C   0  0  0  0  0  0
  -24.1859  -13.0445   20.9168 C   0  0  0  0  0  0
  -24.6396  -11.6903   20.8714 C   0  0  0  0  0  0
  -23.9062  -10.4289   21.0392 C   0  0  0  0  0  0
  -24.3615   -9.4202   21.9172 C   0  0  0  0  0  0
  -23.6289   -8.2242   22.0755 C   0  0  0  0  0  0
  -22.4268   -8.0280   21.3546 C   0  0  0  0  0  0
  -21.9899   -9.0251   20.4644 C   0  0  0  0  0  0
  -22.7232  -10.2125   20.3043 C   0  0  0  0  0  0
  -21.6851   -6.0734   22.5284 C   0  0  0  0  0  0
  -21.4010   -6.5640   23.8218 C   0  0  0  0  0  0
  -21.3655   -5.6795   24.9180 C   0  0  0  0  0  0
  -21.6043   -4.3057   24.7226 C   0  0  0  0  0  0
  -21.8825   -3.8147   23.4348 C   0  0  0  0  0  0
  -21.9192   -4.6964   22.3405 C   0  0  0  0  0  0
  -22.7875  -13.5235   21.1841 C   0  0  0  0  0  0
  -22.1665   -4.2152   21.0982 F   0  0  0  0  0  0
  -21.5623   -3.4538   25.7737 F   0  0  0  0  0  0
  -30.0366  -13.2877   20.4434 N   0  0  0  0  0  0
  -26.3039  -12.9320   20.3343 N   0  0  0  0  0  0
  -25.9314  -11.6482   20.5736 N   0  0  0  0  0  0
  -22.0522  -12.8211   22.0391 N   0  0  0  0  0  0
  -25.4354  -15.1883   20.4143 N   0  0  0  0  0  0
  -31.8531  -14.5838   20.0960 O   0  0  0  0  0  0
  -21.6639   -6.8871   21.4243 O   0  0  0  0  0  0
  -22.3541  -14.5545   20.6697 O   0  0  0  0  0  0
  -24.6119  -31.8713   23.2106 C   0  0  0  0  0  0
  -25.9020  -32.4844   23.8403 C   0  0  1  0  0  0
  -27.2356  -27.4579   20.0989 C   0  0  0  0  0  0
  -25.5889  -33.8644   24.2335 N   0  0  0  0  0  0
  -23.3994  -30.4929   21.5520 C   0  0  2  0  0  0
  -24.8485  -28.9600   20.1161 C   0  0  0  0  0  0
  -22.7398  -29.4675   22.5015 C   0  0  0  0  0  0
  -18.0262  -28.1368   22.8527 C   0  0  0  0  0  0
  -24.1494  -36.7321   23.2639 C   0  0  0  0  0  0
  -25.9260  -30.8426   21.3628 C   0  0  0  0  0  0
  -26.0058  -29.4780   20.7126 C   0  0  0  0  0  0
  -27.2055  -28.7325   20.7042 C   0  0  0  0  0  0
  -26.0682  -26.9448   19.5014 C   0  0  0  0  0  0
  -24.8733  -27.6909   19.5080 C   0  0  0  0  0  0
  -23.6079  -29.8240   20.1659 C   0  0  0  0  0  0
  -25.4116  -36.3133   24.0342 C   0  0  1  0  0  0
  -20.5855  -28.3646   23.1321 C   0  0  2  0  0  0
  -20.6772  -26.9400   22.5379 C   0  0  0  0  0  0
  -19.5707  -26.6405   21.5209 C   0  0  0  0  0  0
  -18.1907  -26.7922   22.1652 C   0  0  0  0  0  0
  -19.1517  -28.8818   23.2929 C   0  0  0  0  0  0
  -18.9459  -30.1426   23.8936 C   0  0  0  0  0  0
  -17.6474  -30.6598   24.0565 C   0  0  0  0  0  0
  -25.9036  -34.9496   23.5140 C   0  0  0  0  0  0
  -16.5344  -29.9120   23.6323 C   0  0  0  0  0  0
  -16.7258  -28.6513   23.0382 C   0  0  0  0  0  0
  -26.4456  -31.6615   25.0730 C   0  0  0  0  0  0
  -25.3714  -31.3722   26.1475 C   0  0  0  0  0  0
  -27.0287  -30.3060   24.6087 C   0  0  0  0  0  0
  -27.6047  -32.4326   25.7484 C   0  0  0  0  0  0
  -27.5595  -37.1822   24.8472 C   0  0  0  0  0  0
  -21.4115  -29.3066   22.3769 N   0  0  0  0  0  0
  -26.4318  -37.3804   23.9401 N   0  0  0  0  0  0
  -24.6630  -31.0835   22.0995 N   0  0  0  0  0  0
  -23.4182  -28.8207   23.3041 O   0  0  0  0  0  0
  -28.3781  -26.7020   20.0858 O   0  0  0  0  0  0
  -26.5606  -34.8949   22.4705 O   0  0  0  0  0  0
  -23.5320  -32.1449   23.7510 O   0  0  0  0  0  0
  -29.6424  -19.1424   20.2064 C   0  0  0  0  0  0
  -29.4842  -17.9185   20.8187 C   0  0  0  0  0  0
  -28.7883  -19.9834   21.0003 C   0  0  0  0  0  0
  -30.1194  -16.6424   20.4808 C   0  0  0  0  0  0
  -28.9267  -22.3018   19.9632 C   0  0  0  0  0  0
  -30.5592  -25.0116   20.4155 C   0  0  0  0  0  0
  -28.3210  -23.7100   20.1222 C   0  0  0  0  0  0
  -29.1695  -24.6756   20.9888 C   0  0  1  0  0  0
  -28.1968  -19.3166   21.9839 N   0  0  0  0  0  0
  -29.9710  -15.5166   21.0853 N   0  0  0  0  0  0
  -30.4472  -19.4571   19.0809 N   0  0  0  0  0  0
  -28.5064  -21.3705   20.8429 N   0  0  0  0  0  0
  -28.4214  -25.8990   21.2900 N   0  0  0  0  0  0
  -29.7231  -22.1043   19.0431 O   0  0  0  0  0  0
  -28.6332  -17.9890   21.8760 O   0  0  0  0  0  0
  -31.4689  -12.3585   19.1382 H   0  0  0  0  0  0
  -30.3004  -11.2837   19.8413 H   0  0  0  0  0  0
  -29.7447  -11.7601   17.4399 H   0  0  0  0  0  0
  -29.6716  -13.4724   17.7749 H   0  0  0  0  0  0
  -27.8455  -11.2911   18.8406 H   0  0  0  0  0  0
  -27.3685  -12.5964   17.7896 H   0  0  0  0  0  0
  -27.7059  -14.2474   19.5608 H   0  0  0  0  0  0
  -28.6700  -11.9736   21.3612 H   0  0  0  0  0  0
  -28.4633  -13.6245   21.8577 H   0  0  0  0  0  0
  -25.2760   -9.5680   22.4737 H   0  0  0  0  0  0
  -24.0005   -7.4632   22.7468 H   0  0  0  0  0  0
  -21.0837   -8.8757   19.8944 H   0  0  0  0  0  0
  -22.3693  -10.9657   19.6142 H   0  0  0  0  0  0
  -21.2004   -7.6147   23.9718 H   0  0  0  0  0  0
  -21.1471   -6.0525   25.9083 H   0  0  0  0  0  0
  -22.0605   -2.7609   23.2850 H   0  0  0  0  0  0
  -22.4156  -11.9862   22.4745 H   0  0  0  0  0  0
  -21.1136  -13.1215   22.2629 H   0  0  0  0  0  0
  -24.6763  -15.8484   20.5445 H   0  0  0  0  0  0
  -26.3059  -15.6274   20.1431 H   0  0  0  0  0  0
  -26.7105  -32.5565   23.1191 H   0  0  0  0  0  0
  -25.0040  -33.9801   25.0480 H   0  0  0  0  0  0
  -22.6866  -31.3081   21.4125 H   0  0  0  0  0  0
  -23.3766  -35.9647   23.3321 H   0  0  0  0  0  0
  -24.3586  -36.8914   22.2051 H   0  0  0  0  0  0
  -23.7248  -37.6536   23.6628 H   0  0  0  0  0  0
  -26.0365  -31.6085   20.5929 H   0  0  0  0  0  0
  -26.8138  -30.8940   21.9824 H   0  0  0  0  0  0
  -28.1021  -29.1249   21.1616 H   0  0  0  0  0  0
  -26.0884  -25.9661   19.0433 H   0  0  0  0  0  0
  -23.9837  -27.2855   19.0470 H   0  0  0  0  0  0
  -23.7113  -30.5987   19.4046 H   0  0  0  0  0  0
  -22.7330  -29.2408   19.8720 H   0  0  0  0  0  0
  -25.1293  -36.2012   25.0838 H   0  0  0  0  0  0
  -20.9950  -28.3177   24.1442 H   0  0  0  0  0  0
  -21.6624  -26.7482   22.1117 H   0  0  0  0  0  0
  -20.5724  -26.2227   23.3542 H   0  0  0  0  0  0
  -19.6805  -25.6329   21.1199 H   0  0  0  0  0  0
  -19.6577  -27.3263   20.6775 H   0  0  0  0  0  0
  -17.4165  -26.6668   21.4071 H   0  0  0  0  0  0
  -18.0304  -26.0068   22.9049 H   0  0  0  0  0  0
  -19.7951  -30.7217   24.2317 H   0  0  0  0  0  0
  -17.5036  -31.6279   24.5169 H   0  0  0  0  0  0
  -15.5355  -30.3045   23.7631 H   0  0  0  0  0  0
  -15.8650  -28.0835   22.7116 H   0  0  0  0  0  0
  -24.5857  -30.7114   25.7793 H   0  0  0  0  0  0
  -24.8942  -32.2887   26.4955 H   0  0  0  0  0  0
  -25.8042  -30.8847   27.0216 H   0  0  0  0  0  0
  -26.2823  -29.6838   24.1128 H   0  0  0  0  0  0
  -27.4062  -29.7283   25.4538 H   0  0  0  0  0  0
  -27.8655  -30.4409   23.9224 H   0  0  0  0  0  0
  -27.2664  -33.3595   26.2127 H   0  0  0  0  0  0
  -28.3804  -32.6939   25.0273 H   0  0  0  0  0  0
  -28.0766  -31.8413   26.5345 H   0  0  0  0  0  0
  -28.2635  -38.0100   24.7499 H   0  0  0  0  0  0
  -28.1069  -36.2632   24.6317 H   0  0  0  0  0  0
  -27.2300  -37.1496   25.8875 H   0  0  0  0  0  0
  -20.9243  -29.8840   21.7047 H   0  0  0  0  0  0
  -26.0219  -38.2896   24.1372 H   0  0  0  0  0  0
  -30.7784  -16.7286   19.6094 H   0  0  0  0  0  0
  -31.1740  -24.1145   20.3376 H   0  0  0  0  0  0
  -31.0944  -25.7108   21.0585 H   0  0  0  0  0  0
  -30.4999  -25.4461   19.4180 H   0  0  0  0  0  0
  -27.3204  -23.6161   20.5460 H   0  0  0  0  0  0
  -28.1775  -24.1347   19.1280 H   0  0  0  0  0  0
  -29.3329  -24.1806   21.9488 H   0  0  0  0  0  0
  -30.3692  -20.4026   18.6951 H   0  0  0  0  0  0
  -30.7071  -18.7590   18.3916 H   0  0  0  0  0  0
  -27.8501  -21.7163   21.5236 H   0  0  0  0  0  0
  -28.9196  -26.4627   21.9742 H   0  0  0  0  0  0
  1 25  1  0  0  0
  1 30  2  0  0  0
  1 80  1  0  0  0
  2  3  1  0  0  0
  2 25  1  0  0  0
  2 86  1  0  0  0
  2 87  1  0  0  0
  3  4  1  0  0  0
  3 88  1  0  0  0
  3 89  1  0  0  0
  4  5  1  0  0  0
  4 90  1  0  0  0
  4 91  1  0  0  0
  5  6  1  0  0  0
  5 26  1  0  0  0
  5 92  1  0  0  0
  6 25  1  0  0  0
  6 93  1  0  0  0
  6 94  1  0  0  0
  7  8  2  0  0  0
  7 26  1  0  0  0
  7 29  1  0  0  0
  8  9  1  0  0  0
  8 22  1  0  0  0
  9 10  1  0  0  0
  9 27  2  0  0  0
 10 11  2  0  0  0
 10 15  1  0  0  0
 11 12  1  0  0  0
 11 95  1  0  0  0
 12 13  2  0  0  0
 12 96  1  0  0  0
 13 14  1  0  0  0
 13 31  1  0  0  0
 14 15  2  0  0  0
 14 97  1  0  0  0
 15 98  1  0  0  0
 16 17  2  0  0  0
 16 21  1  0  0  0
 16 31  1  0  0  0
 17 18  1  0  0  0
 17 99  1  0  0  0
 18 19  2  0  0  0
 18100  1  0  0  0
 19 20  1  0  0  0
 19 24  1  0  0  0
 20 21  2  0  0  0
 20101  1  0  0  0
 21 23  1  0  0  0
 22 28  1  0  0  0
 22 32  2  0  0  0
 26 27  1  0  0  0
 28102  1  0  0  0
 28103  1  0  0  0
 29104  1  0  0  0
 29105  1  0  0  0
 33 34  1  0  0  0
 33 66  1  0  0  0
 33 70  2  0  0  0
 34 36  1  0  0  0
 34 59  1  0  0  0
 34106  1  0  0  0
 35 44  2  0  0  0
 35 45  1  0  0  0
 35 68  1  0  0  0
 36 56  1  0  0  0
 36107  1  0  0  0
 37 39  1  0  0  0
 37 47  1  0  0  0
 37 66  1  0  0  0
 37108  1  0  0  0
 38 43  2  0  0  0
 38 46  1  0  0  0
 38 47  1  0  0  0
 39 64  1  0  0  0
 39 67  2  0  0  0
 40 52  1  0  0  0
 40 53  2  0  0  0
 40 58  1  0  0  0
 41109  1  0  0  0
 41110  1  0  0  0
 41111  1  0  0  0
 41 48  1  0  0  0
 42 43  1  0  0  0
 42 66  1  0  0  0
 42112  1  0  0  0
 42113  1  0  0  0
 43 44  1  0  0  0
 44114  1  0  0  0
 45 46  2  0  0  0
 45115  1  0  0  0
 46116  1  0  0  0
 47117  1  0  0  0
 47118  1  0  0  0
 48 56  1  0  0  0
 48 65  1  0  0  0
 48119  1  0  0  0
 49 50  1  0  0  0
 49 53  1  0  0  0
 49 64  1  0  0  0
 49120  1  0  0  0
 50 51  1  0  0  0
 50121  1  0  0  0
 50122  1  0  0  0
 51 52  1  0  0  0
 51123  1  0  0  0
 51124  1  0  0  0
 52125  1  0  0  0
 52126  1  0  0  0
 53 54  1  0  0  0
 54 55  2  0  0  0
 54127  1  0  0  0
 55 57  1  0  0  0
 55128  1  0  0  0
 56 69  2  0  0  0
 57 58  2  0  0  0
 57129  1  0  0  0
 58130  1  0  0  0
 59 60  1  0  0  0
 59 61  1  0  0  0
 59 62  1  0  0  0
 60131  1  0  0  0
 60132  1  0  0  0
 60133  1  0  0  0
 61134  1  0  0  0
 61135  1  0  0  0
 61136  1  0  0  0
 62137  1  0  0  0
 62138  1  0  0  0
 62139  1  0  0  0
 63 65  1  0  0  0
 63140  1  0  0  0
 63141  1  0  0  0
 63142  1  0  0  0
 64143  1  0  0  0
 65144  1  0  0  0
 68 83  1  0  0  0
 71 72  2  0  0  0
 71 73  1  0  0  0
 71 81  1  0  0  0
 72 74  1  0  0  0
 72 85  1  0  0  0
 73 79  2  0  0  0
 73 82  1  0  0  0
 74 80  2  0  0  0
 74145  1  0  0  0
 75 77  1  0  0  0
 75 82  1  0  0  0
 75 84  2  0  0  0
 76146  1  0  0  0
 76147  1  0  0  0
 76148  1  0  0  0
 76 78  1  0  0  0
 77 78  1  0  0  0
 77149  1  0  0  0
 77150  1  0  0  0
 78 83  1  0  0  0
 78151  1  0  0  0
 79 85  1  0  0  0
 81152  1  0  0  0
 81153  1  0  0  0
 82154  1  0  0  0
 83155  1  0  0  0
M  ISO  4   1 100  68 101  80 100  83 101
M  END
> <chiral flag>
0

> <version>
0

> <s_m_source_file>
/data/baiqing/PycharmProjects/Reinvent-master-3.2/result/LINK_invent/BTK/process_docking_weight1_custom_product_contain_oxygen_bond_distance_aromatic_linkinvent_7_9_3/rearranged_h_0159.sdf

> <i_m_source_file_index>
24

> <r_mmod_Potential_Energy-OPLS-2005>
-66.9439086914062

> <r_mmod_Stretch_Energy-OPLS-2005>
36.6302261352539

> <r_mmod_Bend_Energy-OPLS-2005>
119.297592163086

> <r_mmod_Torsional_Energy-OPLS-2005>
169.319213867188

> <r_mmod_Improper_Torsional_Energy-OPLS-2005>
6.02519607543945

> <r_mmod_Van_der_Waal_Energy-OPLS-2005>
145.091903686523

> <r_mmod_Electrostatic_Energy-OPLS-2005>
-329.741821289062

> <r_mmod_Solvation_Energy-OPLS-2005>
-225.777938842773

> <b_mmod_Minimization_Converged-OPLS-2005>
0

> <r_mmod_RMS_Derivative-OPLS-2005>
2.27691745758057

$$$$
24
                    3D
 Structure written by MMmdl.
154162  0  0  1  0            999 V2000
  -30.7333  -14.4374   20.6241 C   0  0  0  0  0  0
  -30.4115  -12.3052   19.4180 C   0  0  0  0  0  0
  -29.4825  -12.5090   18.2061 C   0  0  0  0  0  0
  -28.0072  -12.3657   18.6228 C   0  0  0  0  0  0
  -27.6581  -13.2070   19.8788 C   0  0  2  0  0  0
  -28.6989  -12.9804   20.9986 C   0  0  0  0  0  0
  -25.2568  -13.8153   20.5710 C   0  0  0  0  0  0
  -24.1819  -13.0441   20.9185 C   0  0  0  0  0  0
  -24.6362  -11.6905   20.8724 C   0  0  0  0  0  0
  -23.9032  -10.4294   21.0394 C   0  0  0  0  0  0
  -24.3583   -9.4215   21.9178 C   0  0  0  0  0  0
  -23.6271   -8.2246   22.0734 C   0  0  0  0  0  0
  -22.4257   -8.0277   21.3529 C   0  0  0  0  0  0
  -21.9893   -9.0251   20.4631 C   0  0  0  0  0  0
  -22.7203  -10.2136   20.3050 C   0  0  0  0  0  0
  -21.6851   -6.0726   22.5276 C   0  0  0  0  0  0
  -21.4024   -6.5641   23.8206 C   0  0  0  0  0  0
  -21.3647   -5.6798   24.9172 C   0  0  0  0  0  0
  -21.6042   -4.3061   24.7233 C   0  0  0  0  0  0
  -21.8814   -3.8141   23.4355 C   0  0  0  0  0  0
  -21.9199   -4.6953   22.3409 C   0  0  0  0  0  0
  -22.7840  -13.5225   21.1855 C   0  0  0  0  0  0
  -22.1660   -4.2146   21.0982 F   0  0  0  0  0  0
  -21.5620   -3.4536   25.7739 F   0  0  0  0  0  0
  -30.0318  -13.2838   20.4509 N   0  0  0  0  0  0
  -26.2998  -12.9326   20.3399 N   0  0  0  0  0  0
  -25.9295  -11.6477   20.5782 N   0  0  0  0  0  0
  -22.0495  -12.8225   22.0421 N   0  0  0  0  0  0
  -25.4339  -15.1878   20.4114 N   0  0  0  0  0  0
  -31.8062  -14.6490   20.0532 O   0  0  0  0  0  0
  -21.6627   -6.8876   21.4239 O   0  0  0  0  0  0
  -22.3536  -14.5551   20.6722 O   0  0  0  0  0  0
  -24.6177  -31.8639   23.2035 C   0  0  0  0  0  0
  -25.9073  -32.4768   23.8345 C   0  0  1  0  0  0
  -27.2328  -27.3942   20.1098 C   0  0  0  0  0  0
  -25.5902  -33.8564   24.2271 N   0  0  0  0  0  0
  -23.4061  -30.4886   21.5389 C   0  0  2  0  0  0
  -24.8562  -28.9488   20.1075 C   0  0  0  0  0  0
  -22.7420  -29.4664   22.4907 C   0  0  0  0  0  0
  -18.0273  -28.1383   22.8482 C   0  0  0  0  0  0
  -24.1495  -36.7324   23.2629 C   0  0  0  0  0  0
  -25.9383  -30.8200   21.3603 C   0  0  0  0  0  0
  -26.0140  -29.4499   20.7114 C   0  0  0  0  0  0
  -27.2015  -28.6793   20.7108 C   0  0  0  0  0  0
  -26.0505  -26.9092   19.5086 C   0  0  0  0  0  0
  -24.8719  -27.6812   19.5006 C   0  0  0  0  0  0
  -23.6180  -29.8172   20.1547 C   0  0  0  0  0  0
  -25.4111  -36.3077   24.0315 C   0  0  1  0  0  0
  -20.5878  -28.3683   23.1277 C   0  0  2  0  0  0
  -20.6765  -26.9402   22.5402 C   0  0  0  0  0  0
  -19.5736  -26.6384   21.5205 C   0  0  0  0  0  0
  -18.1922  -26.7920   22.1628 C   0  0  0  0  0  0
  -19.1531  -28.8844   23.2879 C   0  0  0  0  0  0
  -18.9457  -30.1448   23.8897 C   0  0  0  0  0  0
  -17.6460  -30.6587   24.0568 C   0  0  0  0  0  0
  -25.9035  -34.9443   23.5089 C   0  0  0  0  0  0
  -16.5347  -29.9094   23.6323 C   0  0  0  0  0  0
  -16.7262  -28.6513   23.0332 C   0  0  0  0  0  0
  -26.4490  -31.6558   25.0688 C   0  0  0  0  0  0
  -25.3750  -31.3706   26.1430 C   0  0  0  0  0  0
  -27.0322  -30.2982   24.6108 C   0  0  0  0  0  0
  -27.6037  -32.4292   25.7475 C   0  0  0  0  0  0
  -27.5577  -37.1813   24.8454 C   0  0  0  0  0  0
  -21.4145  -29.3043   22.3660 N   0  0  0  0  0  0
  -26.4298  -37.3766   23.9384 N   0  0  0  0  0  0
  -24.6717  -31.0755   22.0914 N   0  0  0  0  0  0
  -23.4201  -28.8204   23.2953 O   0  0  0  0  0  0
  -28.4154  -26.6726   20.1514 O   0  0  0  0  0  0
  -26.5604  -34.8906   22.4654 O   0  0  0  0  0  0
  -23.5370  -32.1380   23.7421 O   0  0  0  0  0  0
  -28.3865  -19.2712   21.2085 C   0  0  0  0  0  0
  -30.2662  -17.9369   21.4512 C   0  0  0  0  0  0
  -29.1788  -20.4332   20.9973 C   0  0  0  0  0  0
  -31.0726  -19.0936   21.2351 C   0  0  0  0  0  0
  -28.9104  -22.8120   20.2321 C   0  0  0  0  0  0
  -30.8721  -16.5889   21.8838 C   0  0  0  0  0  0
  -28.1443  -24.1433   20.4966 C   0  0  0  0  0  0
  -28.5394  -25.3499   19.5766 C   0  0  0  0  0  0
  -28.9123  -18.0320   21.4218 N   0  0  0  0  0  0
  -30.5366  -20.3136   21.0036 N   0  0  0  0  0  0
  -32.4623  -19.0752   21.2778 N   0  0  0  0  0  0
  -28.4996  -21.6920   20.8715 N   0  0  0  0  0  0
  -30.1929  -15.3537   21.4460 N   0  0  0  0  0  0
  -29.8464  -22.7967   19.4280 O   0  0  0  0  0  0
  -31.4547  -12.3945   19.1100 H   0  0  0  0  0  0
  -30.3085  -11.2929   19.8138 H   0  0  0  0  0  0
  -29.7213  -11.7860   17.4241 H   0  0  0  0  0  0
  -29.6484  -13.4992   17.7777 H   0  0  0  0  0  0
  -27.8212  -11.3094   18.8218 H   0  0  0  0  0  0
  -27.3505  -12.6333   17.7932 H   0  0  0  0  0  0
  -27.7058  -14.2561   19.5853 H   0  0  0  0  0  0
  -28.6723  -11.9401   21.3290 H   0  0  0  0  0  0
  -28.4539  -13.5668   21.8852 H   0  0  0  0  0  0
  -25.2717   -9.5704   22.4753 H   0  0  0  0  0  0
  -23.9977   -7.4648   22.7448 H   0  0  0  0  0  0
  -21.0820   -8.8748   19.8946 H   0  0  0  0  0  0
  -22.3631  -10.9665   19.6157 H   0  0  0  0  0  0
  -21.2018   -7.6151   23.9717 H   0  0  0  0  0  0
  -21.1466   -6.0523   25.9077 H   0  0  0  0  0  0
  -22.0605   -2.7607   23.2852 H   0  0  0  0  0  0
  -22.4090  -11.9861   22.4787 H   0  0  0  0  0  0
  -21.1119  -13.1240   22.2632 H   0  0  0  0  0  0
  -24.6764  -15.8520   20.5264 H   0  0  0  0  0  0
  -26.3033  -15.6210   20.1244 H   0  0  0  0  0  0
  -26.7135  -32.5486   23.1093 H   0  0  0  0  0  0
  -25.0016  -33.9692   25.0394 H   0  0  0  0  0  0
  -22.6937  -31.3036   21.3926 H   0  0  0  0  0  0
  -23.3721  -35.9704   23.3308 H   0  0  0  0  0  0
  -24.3585  -36.8930   22.2045 H   0  0  0  0  0  0
  -23.7307  -37.6546   23.6655 H   0  0  0  0  0  0
  -26.0547  -31.5816   20.5879 H   0  0  0  0  0  0
  -26.8239  -30.8738   21.9831 H   0  0  0  0  0  0
  -28.0949  -29.0632   21.1842 H   0  0  0  0  0  0
  -26.0090  -25.9330   19.0523 H   0  0  0  0  0  0
  -23.9805  -27.2919   19.0296 H   0  0  0  0  0  0
  -23.7212  -30.5842   19.3864 H   0  0  0  0  0  0
  -22.7455  -29.2297   19.8639 H   0  0  0  0  0  0
  -25.1305  -36.1914   25.0814 H   0  0  0  0  0  0
  -20.9990  -28.3263   24.1392 H   0  0  0  0  0  0
  -20.5668  -26.2290   23.3603 H   0  0  0  0  0  0
  -21.6633  -26.7423   22.1189 H   0  0  0  0  0  0
  -19.6904  -25.6303   21.1213 H   0  0  0  0  0  0
  -19.6675  -27.3216   20.6756 H   0  0  0  0  0  0
  -17.4182  -26.6635   21.4046 H   0  0  0  0  0  0
  -18.0343  -26.0077   22.9047 H   0  0  0  0  0  0
  -19.7934  -30.7258   24.2279 H   0  0  0  0  0  0
  -17.5013  -31.6267   24.5167 H   0  0  0  0  0  0
  -15.5349  -30.2997   23.7650 H   0  0  0  0  0  0
  -15.8658  -28.0848   22.7026 H   0  0  0  0  0  0
  -24.5904  -30.7062   25.7780 H   0  0  0  0  0  0
  -24.8986  -32.2899   26.4858 H   0  0  0  0  0  0
  -25.8103  -30.8885   27.0195 H   0  0  0  0  0  0
  -26.2889  -29.6718   24.1159 H   0  0  0  0  0  0
  -27.4041  -29.7227   25.4595 H   0  0  0  0  0  0
  -27.8750  -30.4229   23.9301 H   0  0  0  0  0  0
  -27.2605  -33.3551   26.2102 H   0  0  0  0  0  0
  -28.3858  -32.6910   25.0337 H   0  0  0  0  0  0
  -28.0712  -31.8398   26.5369 H   0  0  0  0  0  0
  -28.2590  -38.0107   24.7466 H   0  0  0  0  0  0
  -28.1068  -36.2629   24.6330 H   0  0  0  0  0  0
  -27.2279  -37.1529   25.8850 H   0  0  0  0  0  0
  -20.9304  -29.8808   21.6917 H   0  0  0  0  0  0
  -26.0167  -38.2839   24.1373 H   0  0  0  0  0  0
  -27.3078  -19.3405   21.2328 H   0  0  0  0  0  0
  -30.8857  -16.5826   22.9730 H   0  0  0  0  0  0
  -31.9250  -16.5599   21.6009 H   0  0  0  0  0  0
  -28.3559  -24.4180   21.5290 H   0  0  0  0  0  0
  -27.0690  -23.9721   20.4433 H   0  0  0  0  0  0
  -28.0500  -25.2829   18.6058 H   0  0  0  0  0  0
  -29.6016  -25.2751   19.3444 H   0  0  0  0  0  0
  -32.9519  -18.2811   21.6747 H   0  0  0  0  0  0
  -32.9679  -19.9504   21.3265 H   0  0  0  0  0  0
  -27.6079  -21.7458   21.3450 H   0  0  0  0  0  0
  -29.3074  -15.1358   21.8751 H   0  0  0  0  0  0
  1 25  1  0  0  0
  1 30  2  0  0  0
  1 83  1  0  0  0
  2  3  1  0  0  0
  2 25  1  0  0  0
  2 85  1  0  0  0
  2 86  1  0  0  0
  3  4  1  0  0  0
  3 87  1  0  0  0
  3 88  1  0  0  0
  4  5  1  0  0  0
  4 89  1  0  0  0
  4 90  1  0  0  0
  5  6  1  0  0  0
  5 26  1  0  0  0
  5 91  1  0  0  0
  6 25  1  0  0  0
  6 92  1  0  0  0
  6 93  1  0  0  0
  7  8  2  0  0  0
  7 26  1  0  0  0
  7 29  1  0  0  0
  8  9  1  0  0  0
  8 22  1  0  0  0
  9 10  1  0  0  0
  9 27  2  0  0  0
 10 11  2  0  0  0
 10 15  1  0  0  0
 11 12  1  0  0  0
 11 94  1  0  0  0
 12 13  2  0  0  0
 12 95  1  0  0  0
 13 14  1  0  0  0
 13 31  1  0  0  0
 14 15  2  0  0  0
 14 96  1  0  0  0
 15 97  1  0  0  0
 16 17  2  0  0  0
 16 21  1  0  0  0
 16 31  1  0  0  0
 17 18  1  0  0  0
 17 98  1  0  0  0
 18 19  2  0  0  0
 18 99  1  0  0  0
 19 20  1  0  0  0
 19 24  1  0  0  0
 20 21  2  0  0  0
 20100  1  0  0  0
 21 23  1  0  0  0
 22 28  1  0  0  0
 22 32  2  0  0  0
 26 27  1  0  0  0
 28101  1  0  0  0
 28102  1  0  0  0
 29103  1  0  0  0
 29104  1  0  0  0
 33 34  1  0  0  0
 33 66  1  0  0  0
 33 70  2  0  0  0
 34 36  1  0  0  0
 34 59  1  0  0  0
 34105  1  0  0  0
 35 44  2  0  0  0
 35 45  1  0  0  0
 35 68  1  0  0  0
 36 56  1  0  0  0
 36106  1  0  0  0
 37 39  1  0  0  0
 37 47  1  0  0  0
 37 66  1  0  0  0
 37107  1  0  0  0
 38 43  2  0  0  0
 38 46  1  0  0  0
 38 47  1  0  0  0
 39 64  1  0  0  0
 39 67  2  0  0  0
 40 52  1  0  0  0
 40 53  2  0  0  0
 40 58  1  0  0  0
 41108  1  0  0  0
 41109  1  0  0  0
 41110  1  0  0  0
 41 48  1  0  0  0
 42 43  1  0  0  0
 42 66  1  0  0  0
 42111  1  0  0  0
 42112  1  0  0  0
 43 44  1  0  0  0
 44113  1  0  0  0
 45 46  2  0  0  0
 45114  1  0  0  0
 46115  1  0  0  0
 47116  1  0  0  0
 47117  1  0  0  0
 48 56  1  0  0  0
 48 65  1  0  0  0
 48118  1  0  0  0
 49 50  1  0  0  0
 49 53  1  0  0  0
 49 64  1  0  0  0
 49119  1  0  0  0
 50 51  1  0  0  0
 50120  1  0  0  0
 50121  1  0  0  0
 51 52  1  0  0  0
 51122  1  0  0  0
 51123  1  0  0  0
 52124  1  0  0  0
 52125  1  0  0  0
 53 54  1  0  0  0
 54 55  2  0  0  0
 54126  1  0  0  0
 55 57  1  0  0  0
 55127  1  0  0  0
 56 69  2  0  0  0
 57 58  2  0  0  0
 57128  1  0  0  0
 58129  1  0  0  0
 59 60  1  0  0  0
 59 61  1  0  0  0
 59 62  1  0  0  0
 60130  1  0  0  0
 60131  1  0  0  0
 60132  1  0  0  0
 61133  1  0  0  0
 61134  1  0  0  0
 61135  1  0  0  0
 62136  1  0  0  0
 62137  1  0  0  0
 62138  1  0  0  0
 63 65  1  0  0  0
 63139  1  0  0  0
 63140  1  0  0  0
 63141  1  0  0  0
 64142  1  0  0  0
 65143  1  0  0  0
 68 78  1  0  0  0
 71 73  2  0  0  0
 71 79  1  0  0  0
 71144  1  0  0  0
 72 74  1  0  0  0
 72 76  1  0  0  0
 72 79  2  0  0  0
 73 80  1  0  0  0
 73 82  1  0  0  0
 74 80  2  0  0  0
 74 81  1  0  0  0
 75 77  1  0  0  0
 75 82  1  0  0  0
 75 84  2  0  0  0
 76 83  1  0  0  0
 76145  1  0  0  0
 76146  1  0  0  0
 77 78  1  0  0  0
 77147  1  0  0  0
 77148  1  0  0  0
 78149  1  0  0  0
 78150  1  0  0  0
 81151  1  0  0  0
 81152  1  0  0  0
 82153  1  0  0  0
 83154  1  0  0  0
M  ISO  4   1 100  68 101  78 101  83 100
M  END
> <chiral flag>
0

> <version>
0

> <s_m_source_file>
/data/baiqing/PycharmProjects/Reinvent-master-3.2/result/LINK_invent/BTK/process_docking_weight1_custom_product_contain_oxygen_bond_distance_aromatic_linkinvent_7_9_3/rearranged_h_0159.sdf

> <i_m_source_file_index>
25

> <r_mmod_Potential_Energy-OPLS-2005>
-169.890426635742

> <r_mmod_Stretch_Energy-OPLS-2005>
47.0258178710938

> <r_mmod_Bend_Energy-OPLS-2005>
122.508575439453

> <r_mmod_Torsional_Energy-OPLS-2005>
195.479110717773

> <r_mmod_Improper_Torsional_Energy-OPLS-2005>
4.42722415924072

> <r_mmod_Van_der_Waal_Energy-OPLS-2005>
161.636199951172

> <r_mmod_Electrostatic_Energy-OPLS-2005>
-446.157958984375

> <r_mmod_Solvation_Energy-OPLS-2005>
-268.429321289062

> <b_mmod_Minimization_Converged-OPLS-2005>
0

> <r_mmod_RMS_Derivative-OPLS-2005>
3.24752712249756

$$$$
25
                    3D
 Structure written by MMmdl.
160168  0  0  1  0            999 V2000
  -30.5783  -14.7160   20.4650 C   0  0  0  0  0  0
  -30.4469  -12.4301   19.4701 C   0  0  0  0  0  0
  -29.5207  -12.5066   18.2351 C   0  0  0  0  0  0
  -28.0429  -12.3273   18.6419 C   0  0  0  0  0  0
  -27.6484  -13.2185   19.8501 C   0  0  2  0  0  0
  -28.6896  -13.1116   20.9872 C   0  0  0  0  0  0
  -25.2543  -13.8185   20.5644 C   0  0  0  0  0  0
  -24.1813  -13.0449   20.9166 C   0  0  0  0  0  0
  -24.6373  -11.6918   20.8701 C   0  0  0  0  0  0
  -23.9034  -10.4304   21.0375 C   0  0  0  0  0  0
  -24.3595   -9.4234   21.9169 C   0  0  0  0  0  0
  -23.6284   -8.2260   22.0751 C   0  0  0  0  0  0
  -22.4265   -8.0280   21.3543 C   0  0  0  0  0  0
  -21.9885   -9.0246   20.4645 C   0  0  0  0  0  0
  -22.7201  -10.2130   20.3045 C   0  0  0  0  0  0
  -21.6858   -6.0720   22.5273 C   0  0  0  0  0  0
  -21.4019   -6.5618   23.8205 C   0  0  0  0  0  0
  -21.3662   -5.6768   24.9168 C   0  0  0  0  0  0
  -21.6049   -4.3033   24.7225 C   0  0  0  0  0  0
  -21.8818   -3.8128   23.4341 C   0  0  0  0  0  0
  -21.9194   -4.6944   22.3397 C   0  0  0  0  0  0
  -22.7832  -13.5246   21.1840 C   0  0  0  0  0  0
  -22.1657   -4.2121   21.0981 F   0  0  0  0  0  0
  -21.5634   -3.4525   25.7742 F   0  0  0  0  0  0
  -29.9999  -13.4694   20.4215 N   0  0  0  0  0  0
  -26.2957  -12.9364   20.3231 N   0  0  0  0  0  0
  -25.9305  -11.6521   20.5701 N   0  0  0  0  0  0
  -22.0450  -12.8266   22.0402 N   0  0  0  0  0  0
  -25.4272  -15.1907   20.4052 N   0  0  0  0  0  0
  -31.7473  -14.8860   20.1063 O   0  0  0  0  0  0
  -21.6643   -6.8866   21.4237 O   0  0  0  0  0  0
  -22.3531  -14.5558   20.6688 O   0  0  0  0  0  0
  -24.6276  -31.8581   23.1983 C   0  0  0  0  0  0
  -25.9120  -32.4777   23.8337 C   0  0  1  0  0  0
  -27.2385  -27.2940   20.1398 C   0  0  0  0  0  0
  -25.5917  -33.8577   24.2257 N   0  0  0  0  0  0
  -23.4244  -30.4733   21.5408 C   0  0  2  0  0  0
  -24.8748  -28.9124   20.1224 C   0  0  0  0  0  0
  -22.7484  -29.4608   22.4954 C   0  0  0  0  0  0
  -18.0283  -28.1412   22.8506 C   0  0  0  0  0  0
  -24.1462  -36.7260   23.2644 C   0  0  0  0  0  0
  -25.9646  -30.7822   21.3709 C   0  0  0  0  0  0
  -26.0416  -29.4016   20.7240 C   0  0  0  0  0  0
  -27.2266  -28.6058   20.7155 C   0  0  0  0  0  0
  -26.0499  -26.8506   19.5269 C   0  0  0  0  0  0
  -24.8820  -27.6446   19.5142 C   0  0  0  0  0  0
  -23.6423  -29.7951   20.1619 C   0  0  0  0  0  0
  -25.4103  -36.3081   24.0324 C   0  0  1  0  0  0
  -20.5883  -28.3703   23.1308 C   0  0  2  0  0  0
  -20.6758  -26.9427   22.5429 C   0  0  0  0  0  0
  -19.5732  -26.6412   21.5231 C   0  0  0  0  0  0
  -18.1915  -26.7968   22.1645 C   0  0  0  0  0  0
  -19.1531  -28.8882   23.2900 C   0  0  0  0  0  0
  -18.9459  -30.1481   23.8919 C   0  0  0  0  0  0
  -17.6452  -30.6613   24.0581 C   0  0  0  0  0  0
  -25.9048  -34.9451   23.5100 C   0  0  0  0  0  0
  -16.5343  -29.9109   23.6348 C   0  0  0  0  0  0
  -16.7271  -28.6522   23.0388 C   0  0  0  0  0  0
  -26.4506  -31.6615   25.0718 C   0  0  0  0  0  0
  -25.3729  -31.3762   26.1431 C   0  0  0  0  0  0
  -27.0357  -30.3038   24.6189 C   0  0  0  0  0  0
  -27.6065  -32.4357   25.7493 C   0  0  0  0  0  0
  -27.5558  -37.1783   24.8476 C   0  0  0  0  0  0
  -21.4191  -29.3025   22.3685 N   0  0  0  0  0  0
  -26.4277  -37.3772   23.9417 N   0  0  0  0  0  0
  -24.6909  -31.0559   22.0938 N   0  0  0  0  0  0
  -23.4188  -28.8173   23.3075 O   0  0  0  0  0  0
  -28.3942  -26.4944   20.0778 O   0  0  0  0  0  0
  -26.5620  -34.8925   22.4667 O   0  0  0  0  0  0
  -23.5431  -32.1403   23.7281 O   0  0  0  0  0  0
  -28.8714  -18.0998   21.2215 C   0  0  0  0  0  0
  -30.7850  -17.9285   19.8163 C   0  0  0  0  0  0
  -28.9244  -19.5284   21.1034 C   0  0  0  0  0  0
  -29.8255  -17.2398   20.5991 C   0  0  0  0  0  0
  -29.9237  -20.1223   20.2981 C   0  0  0  0  0  0
  -30.3854  -21.5941   20.3190 C   0  0  0  0  0  0
  -27.8405  -25.0401   22.0796 C   0  0  0  0  0  0
  -28.7150  -24.8767   23.3172 C   0  0  0  0  0  0
  -28.5930  -23.7156   19.9627 C   0  0  0  0  0  0
  -28.5675  -25.1474   20.7257 C   0  0  2  0  0  0
  -27.9800  -20.4062   21.8989 C   0  0  0  0  0  0
  -30.8315  -19.2933   19.6759 N   0  0  0  0  0  0
  -31.7155  -21.6289   20.4723 N   0  0  0  0  0  0
  -29.7389  -15.7692   20.7675 N   0  0  0  0  0  0
  -29.8486  -22.8809   20.2165 N   0  3  0  0  0  0
  -26.6107  -25.0208   22.1715 O   0  0  0  0  0  0
  -27.4399  -19.7484   22.9252 F   0  0  0  0  0  0
  -28.6502  -21.4524   22.3783 F   0  0  0  0  0  0
  -27.0066  -20.8437   21.1040 F   0  0  0  0  0  0
  -31.4892  -12.5650   19.1756 H   0  0  0  0  0  0
  -30.3954  -11.4426   19.9311 H   0  0  0  0  0  0
  -29.7999  -11.7468   17.5033 H   0  0  0  0  0  0
  -29.6505  -13.4707   17.7400 H   0  0  0  0  0  0
  -27.8951  -11.2762   18.8964 H   0  0  0  0  0  0
  -27.3894  -12.5256   17.7914 H   0  0  0  0  0  0
  -27.6563  -14.2437   19.4801 H   0  0  0  0  0  0
  -28.7146  -12.0989   21.3900 H   0  0  0  0  0  0
  -28.4239  -13.7568   21.8263 H   0  0  0  0  0  0
  -25.2741   -9.5710   22.4741 H   0  0  0  0  0  0
  -23.9984   -7.4654   22.7472 H   0  0  0  0  0  0
  -21.0812   -8.8755   19.8965 H   0  0  0  0  0  0
  -22.3645  -10.9656   19.6144 H   0  0  0  0  0  0
  -21.2015   -7.6125   23.9696 H   0  0  0  0  0  0
  -21.1486   -6.0505   25.9062 H   0  0  0  0  0  0
  -22.0602   -2.7592   23.2852 H   0  0  0  0  0  0
  -22.4048  -11.9939   22.4827 H   0  0  0  0  0  0
  -21.1065  -13.1327   22.2577 H   0  0  0  0  0  0
  -24.6557  -15.8436   20.4940 H   0  0  0  0  0  0
  -26.2679  -15.6208   20.0431 H   0  0  0  0  0  0
  -26.7188  -32.5459   23.1089 H   0  0  0  0  0  0
  -25.0073  -33.9727   25.0412 H   0  0  0  0  0  0
  -22.7177  -31.2926   21.3898 H   0  0  0  0  0  0
  -23.3736  -35.9582   23.3346 H   0  0  0  0  0  0
  -24.3533  -36.8849   22.2048 H   0  0  0  0  0  0
  -23.7193  -37.6460   23.6649 H   0  0  0  0  0  0
  -26.0943  -31.5406   20.5979 H   0  0  0  0  0  0
  -26.8468  -30.8420   21.9977 H   0  0  0  0  0  0
  -28.1326  -28.9879   21.1643 H   0  0  0  0  0  0
  -26.0291  -25.8803   19.0524 H   0  0  0  0  0  0
  -23.9893  -27.2646   19.0343 H   0  0  0  0  0  0
  -23.7589  -30.5658   19.3989 H   0  0  0  0  0  0
  -22.7658  -29.2160   19.8644 H   0  0  0  0  0  0
  -25.1282  -36.1939   25.0810 H   0  0  0  0  0  0
  -20.9977  -28.3290   24.1432 H   0  0  0  0  0  0
  -20.5674  -26.2309   23.3624 H   0  0  0  0  0  0
  -21.6630  -26.7461   22.1219 H   0  0  0  0  0  0
  -19.6875  -25.6328   21.1260 H   0  0  0  0  0  0
  -19.6685  -27.3232   20.6772 H   0  0  0  0  0  0
  -17.4187  -26.6754   21.4038 H   0  0  0  0  0  0
  -18.0284  -26.0101   22.9025 H   0  0  0  0  0  0
  -19.7923  -30.7289   24.2308 H   0  0  0  0  0  0
  -17.5005  -31.6301   24.5164 H   0  0  0  0  0  0
  -15.5346  -30.3014   23.7653 H   0  0  0  0  0  0
  -15.8674  -28.0823   22.7130 H   0  0  0  0  0  0
  -24.5925  -30.7094   25.7757 H   0  0  0  0  0  0
  -24.8893  -32.2919   26.4827 H   0  0  0  0  0  0
  -25.8041  -30.8968   27.0225 H   0  0  0  0  0  0
  -26.2934  -29.6778   24.1206 H   0  0  0  0  0  0
  -27.4044  -29.7313   25.4716 H   0  0  0  0  0  0
  -27.8817  -30.4319   23.9423 H   0  0  0  0  0  0
  -27.2700  -33.3684   26.2040 H   0  0  0  0  0  0
  -28.3903  -32.6887   25.0334 H   0  0  0  0  0  0
  -28.0716  -31.8500   26.5436 H   0  0  0  0  0  0
  -28.2612  -38.0048   24.7505 H   0  0  0  0  0  0
  -28.1015  -36.2576   24.6341 H   0  0  0  0  0  0
  -27.2271  -37.1493   25.8881 H   0  0  0  0  0  0
  -20.9382  -29.8694   21.6833 H   0  0  0  0  0  0
  -26.0158  -38.2841   24.1444 H   0  0  0  0  0  0
  -28.1091  -17.6499   21.8418 H   0  0  0  0  0  0
  -31.5482  -17.3793   19.2835 H   0  0  0  0  0  0
  -28.1559  -24.4167   24.1307 H   0  0  0  0  0  0
  -29.0842  -25.8489   23.6453 H   0  0  0  0  0  0
  -29.5724  -24.2418   23.0939 H   0  0  0  0  0  0
  -28.5414  -23.9079   18.8911 H   0  0  0  0  0  0
  -27.7039  -23.1357   20.2063 H   0  0  0  0  0  0
  -29.6065  -25.2556   21.0334 H   0  0  0  0  0  0
  -32.1367  -20.7146   20.3373 H   0  0  0  0  0  0
  -32.3121  -22.4340   20.5503 H   0  0  0  0  0  0
  -28.8467  -15.4435   21.1103 H   0  0  0  0  0  0
  -30.6132  -23.5335   20.1654 H   0  0  0  0  0  0
  1 25  1  0  0  0
  1 30  2  0  0  0
  1 84  1  0  0  0
  2  3  1  0  0  0
  2 25  1  0  0  0
  2 90  1  0  0  0
  2 91  1  0  0  0
  3  4  1  0  0  0
  3 92  1  0  0  0
  3 93  1  0  0  0
  4  5  1  0  0  0
  4 94  1  0  0  0
  4 95  1  0  0  0
  5  6  1  0  0  0
  5 26  1  0  0  0
  5 96  1  0  0  0
  6 25  1  0  0  0
  6 97  1  0  0  0
  6 98  1  0  0  0
  7  8  2  0  0  0
  7 26  1  0  0  0
  7 29  1  0  0  0
  8  9  1  0  0  0
  8 22  1  0  0  0
  9 10  1  0  0  0
  9 27  2  0  0  0
 10 11  2  0  0  0
 10 15  1  0  0  0
 11 12  1  0  0  0
 11 99  1  0  0  0
 12 13  2  0  0  0
 12100  1  0  0  0
 13 14  1  0  0  0
 13 31  1  0  0  0
 14 15  2  0  0  0
 14101  1  0  0  0
 15102  1  0  0  0
 16 17  2  0  0  0
 16 21  1  0  0  0
 16 31  1  0  0  0
 17 18  1  0  0  0
 17103  1  0  0  0
 18 19  2  0  0  0
 18104  1  0  0  0
 19 20  1  0  0  0
 19 24  1  0  0  0
 20 21  2  0  0  0
 20105  1  0  0  0
 21 23  1  0  0  0
 22 28  1  0  0  0
 22 32  2  0  0  0
 26 27  1  0  0  0
 28106  1  0  0  0
 28107  1  0  0  0
 29108  1  0  0  0
 29109  1  0  0  0
 33 34  1  0  0  0
 33 66  1  0  0  0
 33 70  2  0  0  0
 34 36  1  0  0  0
 34 59  1  0  0  0
 34110  1  0  0  0
 35 44  2  0  0  0
 35 45  1  0  0  0
 35 68  1  0  0  0
 36 56  1  0  0  0
 36111  1  0  0  0
 37 39  1  0  0  0
 37 47  1  0  0  0
 37 66  1  0  0  0
 37112  1  0  0  0
 38 43  2  0  0  0
 38 46  1  0  0  0
 38 47  1  0  0  0
 39 64  1  0  0  0
 39 67  2  0  0  0
 40 52  1  0  0  0
 40 53  2  0  0  0
 40 58  1  0  0  0
 41113  1  0  0  0
 41114  1  0  0  0
 41115  1  0  0  0
 41 48  1  0  0  0
 42 43  1  0  0  0
 42 66  1  0  0  0
 42116  1  0  0  0
 42117  1  0  0  0
 43 44  1  0  0  0
 44118  1  0  0  0
 45 46  2  0  0  0
 45119  1  0  0  0
 46120  1  0  0  0
 47121  1  0  0  0
 47122  1  0  0  0
 48 56  1  0  0  0
 48 65  1  0  0  0
 48123  1  0  0  0
 49 50  1  0  0  0
 49 53  1  0  0  0
 49 64  1  0  0  0
 49124  1  0  0  0
 50 51  1  0  0  0
 50125  1  0  0  0
 50126  1  0  0  0
 51 52  1  0  0  0
 51127  1  0  0  0
 51128  1  0  0  0
 52129  1  0  0  0
 52130  1  0  0  0
 53 54  1  0  0  0
 54 55  2  0  0  0
 54131  1  0  0  0
 55 57  1  0  0  0
 55132  1  0  0  0
 56 69  2  0  0  0
 57 58  2  0  0  0
 57133  1  0  0  0
 58134  1  0  0  0
 59 60  1  0  0  0
 59 61  1  0  0  0
 59 62  1  0  0  0
 60135  1  0  0  0
 60136  1  0  0  0
 60137  1  0  0  0
 61138  1  0  0  0
 61139  1  0  0  0
 61140  1  0  0  0
 62141  1  0  0  0
 62142  1  0  0  0
 62143  1  0  0  0
 63 65  1  0  0  0
 63144  1  0  0  0
 63145  1  0  0  0
 63146  1  0  0  0
 64147  1  0  0  0
 65148  1  0  0  0
 68 80  1  0  0  0
 71 73  2  0  0  0
 71 74  1  0  0  0
 71149  1  0  0  0
 72 74  2  0  0  0
 72 82  1  0  0  0
 72150  1  0  0  0
 73 75  1  0  0  0
 73 81  1  0  0  0
 74 84  1  0  0  0
 75 76  1  0  0  0
 75 82  2  0  0  0
 76 83  1  0  0  0
 76 85  2  0  0  0
 77 78  1  0  0  0
 77 80  1  0  0  0
 77 86  2  0  0  0
 78151  1  0  0  0
 78152  1  0  0  0
 78153  1  0  0  0
 79 85  1  0  0  0
 79154  1  0  0  0
 79155  1  0  0  0
 79 80  1  0  0  0
 80156  1  0  0  0
 81 87  1  0  0  0
 81 88  1  0  0  0
 81 89  1  0  0  0
 83157  1  0  0  0
 83158  1  0  0  0
 84159  1  0  0  0
 85160  1  0  0  0
M  CHG  1  85   1
M  ISO  4   1 100  68 101  80 101  84 100
M  END
> <chiral flag>
0

> <version>
0

> <s_m_source_file>
/data/baiqing/PycharmProjects/Reinvent-master-3.2/result/LINK_invent/BTK/process_docking_weight1_custom_product_contain_oxygen_bond_distance_aromatic_linkinvent_7_9_3/rearranged_h_0159.sdf

> <i_m_source_file_index>
26

> <r_mmod_Potential_Energy-OPLS-2005>
-266.740356445312

> <r_mmod_Stretch_Energy-OPLS-2005>
110.438461303711

> <r_mmod_Bend_Energy-OPLS-2005>
274.135559082031

> <r_mmod_Torsional_Energy-OPLS-2005>
258.748596191406

> <r_mmod_Improper_Torsional_Energy-OPLS-2005>
7.59021759033203

> <r_mmod_Van_der_Waal_Energy-OPLS-2005>
141.099334716797

> <r_mmod_Electrostatic_Energy-OPLS-2005>
-641.736389160156

> <r_mmod_Solvation_Energy-OPLS-2005>
-482.017120361328

> <b_mmod_Minimization_Converged-OPLS-2005>
0

> <r_mmod_RMS_Derivative-OPLS-2005>
3.23190355300903

$$$$
26
                    3D
 Structure written by MMmdl.
150158  0  0  1  0            999 V2000
  -30.5748  -14.8332   20.4327 C   0  0  0  0  0  0
  -30.4442  -12.5107   19.4814 C   0  0  0  0  0  0
  -29.5178  -12.5012   18.2440 C   0  0  0  0  0  0
  -28.0515  -12.3006   18.6707 C   0  0  0  0  0  0
  -27.6388  -13.2290   19.8439 C   0  0  2  0  0  0
  -28.6827  -13.2199   20.9817 C   0  0  0  0  0  0
  -25.2503  -13.8184   20.5701 C   0  0  0  0  0  0
  -24.1792  -13.0421   20.9217 C   0  0  0  0  0  0
  -24.6386  -11.6915   20.8759 C   0  0  0  0  0  0
  -23.9059  -10.4294   21.0416 C   0  0  0  0  0  0
  -24.3610   -9.4222   21.9205 C   0  0  0  0  0  0
  -23.6283   -8.2252   22.0773 C   0  0  0  0  0  0
  -22.4270   -8.0280   21.3549 C   0  0  0  0  0  0
  -21.9898   -9.0262   20.4662 C   0  0  0  0  0  0
  -22.7221  -10.2139   20.3079 C   0  0  0  0  0  0
  -21.6868   -6.0716   22.5260 C   0  0  0  0  0  0
  -21.4033   -6.5631   23.8189 C   0  0  0  0  0  0
  -21.3659   -5.6783   24.9153 C   0  0  0  0  0  0
  -21.6045   -4.3039   24.7206 C   0  0  0  0  0  0
  -21.8826   -3.8134   23.4328 C   0  0  0  0  0  0
  -21.9203   -4.6947   22.3388 C   0  0  0  0  0  0
  -22.7824  -13.5233   21.1876 C   0  0  0  0  0  0
  -22.1669   -4.2132   21.0961 F   0  0  0  0  0  0
  -21.5628   -3.4530   25.7723 F   0  0  0  0  0  0
  -29.9743  -13.5881   20.3866 N   0  0  0  0  0  0
  -26.2923  -12.9386   20.3257 N   0  0  0  0  0  0
  -25.9322  -11.6544   20.5774 N   0  0  0  0  0  0
  -22.0449  -12.8237   22.0424 N   0  0  0  0  0  0
  -25.4187  -15.1907   20.4143 N   0  0  0  0  0  0
  -31.7792  -14.9142   20.1656 O   0  0  0  0  0  0
  -21.6650   -6.8859   21.4221 O   0  0  0  0  0  0
  -22.3537  -14.5549   20.6716 O   0  0  0  0  0  0
  -24.6332  -31.8544   23.1948 C   0  0  0  0  0  0
  -25.9147  -32.4754   23.8308 C   0  0  1  0  0  0
  -27.2214  -27.2438   20.1455 C   0  0  0  0  0  0
  -25.5934  -33.8550   24.2249 N   0  0  0  0  0  0
  -23.4302  -30.4748   21.5381 C   0  0  2  0  0  0
  -24.8792  -28.9099   20.1116 C   0  0  0  0  0  0
  -22.7516  -29.4604   22.4909 C   0  0  0  0  0  0
  -18.0312  -28.1368   22.8477 C   0  0  0  0  0  0
  -24.1484  -36.7285   23.2637 C   0  0  0  0  0  0
  -25.9762  -30.7633   21.3726 C   0  0  0  0  0  0
  -26.0509  -29.3798   20.7223 C   0  0  0  0  0  0
  -27.2273  -28.5608   20.7216 C   0  0  0  0  0  0
  -26.0335  -26.8392   19.5052 C   0  0  0  0  0  0
  -24.8783  -27.6491   19.4888 C   0  0  0  0  0  0
  -23.6499  -29.8014   20.1566 C   0  0  0  0  0  0
  -25.4102  -36.3075   24.0335 C   0  0  1  0  0  0
  -20.5918  -28.3699   23.1293 C   0  0  2  0  0  0
  -20.6802  -26.9411   22.5445 C   0  0  0  0  0  0
  -19.5820  -26.6409   21.5210 C   0  0  0  0  0  0
  -18.1968  -26.7954   22.1554 C   0  0  0  0  0  0
  -19.1551  -28.8849   23.2897 C   0  0  0  0  0  0
  -18.9470  -30.1444   23.8921 C   0  0  0  0  0  0
  -17.6464  -30.6566   24.0575 C   0  0  0  0  0  0
  -25.9042  -34.9447   23.5095 C   0  0  0  0  0  0
  -16.5364  -29.9048   23.6305 C   0  0  0  0  0  0
  -16.7293  -28.6471   23.0332 C   0  0  0  0  0  0
  -26.4512  -31.6576   25.0689 C   0  0  0  0  0  0
  -25.3718  -31.3726   26.1401 C   0  0  0  0  0  0
  -27.0359  -30.2993   24.6166 C   0  0  0  0  0  0
  -27.6076  -32.4305   25.7458 C   0  0  0  0  0  0
  -27.5575  -37.1795   24.8473 C   0  0  0  0  0  0
  -21.4216  -29.3044   22.3663 N   0  0  0  0  0  0
  -26.4290  -37.3764   23.9409 N   0  0  0  0  0  0
  -24.6993  -31.0500   22.0922 N   0  0  0  0  0  0
  -23.4209  -28.8150   23.3020 O   0  0  0  0  0  0
  -28.3239  -26.3564   20.1487 O   0  0  0  0  0  0
  -26.5627  -34.8939   22.4662 O   0  0  0  0  0  0
  -23.5479  -32.1398   23.7229 O   0  0  0  0  0  0
  -30.8689  -19.4582   20.7450 C   0  0  0  0  0  0
  -29.5583  -19.7186   20.4002 C   0  0  0  0  0  0
  -29.9762  -17.4366   20.5085 C   0  0  0  0  0  0
  -29.1757  -22.2465   20.4883 C   0  0  0  0  0  0
  -27.1640  -24.8536   21.8152 C   0  0  0  0  0  0
  -28.4220  -23.5614   19.8977 C   0  0  0  0  0  0
  -28.2779  -24.9598   20.7513 C   0  0  1  0  0  0
  -31.1199  -18.0675   20.7977 N   0  0  0  0  0  0
  -28.8551  -20.9261   20.1529 N   0  0  0  0  0  0
  -29.7471  -15.9585   20.5304 N   0  0  0  0  0  0
  -30.1043  -22.4499   21.2721 O   0  0  0  0  0  0
  -28.9903  -18.4105   20.2600 O   0  0  0  0  0  0
  -31.4817  -12.6587   19.1750 H   0  0  0  0  0  0
  -30.4188  -11.5490   19.9950 H   0  0  0  0  0  0
  -29.8181  -11.7101   17.5559 H   0  0  0  0  0  0
  -29.6166  -13.4401   17.6953 H   0  0  0  0  0  0
  -27.9457  -11.2588   18.9784 H   0  0  0  0  0  0
  -27.3819  -12.4378   17.8203 H   0  0  0  0  0  0
  -27.6149  -14.2342   19.4253 H   0  0  0  0  0  0
  -28.7446  -12.2423   21.4598 H   0  0  0  0  0  0
  -28.4050  -13.9258   21.7666 H   0  0  0  0  0  0
  -25.2750   -9.5694   22.4784 H   0  0  0  0  0  0
  -23.9984   -7.4653   22.7505 H   0  0  0  0  0  0
  -21.0824   -8.8791   19.8977 H   0  0  0  0  0  0
  -22.3680  -10.9690   19.6200 H   0  0  0  0  0  0
  -21.2043   -7.6144   23.9679 H   0  0  0  0  0  0
  -21.1471   -6.0518   25.9044 H   0  0  0  0  0  0
  -22.0608   -2.7602   23.2834 H   0  0  0  0  0  0
  -22.4066  -11.9898   22.4819 H   0  0  0  0  0  0
  -21.1101  -13.1328   22.2666 H   0  0  0  0  0  0
  -24.6490  -15.8384   20.5380 H   0  0  0  0  0  0
  -26.2509  -15.6358   20.0526 H   0  0  0  0  0  0
  -26.7184  -32.5447   23.1037 H   0  0  0  0  0  0
  -25.0089  -33.9665   25.0408 H   0  0  0  0  0  0
  -22.7265  -31.2960   21.3889 H   0  0  0  0  0  0
  -23.3746  -35.9616   23.3297 H   0  0  0  0  0  0
  -24.3585  -36.8911   22.2053 H   0  0  0  0  0  0
  -23.7247  -37.6491   23.6654 H   0  0  0  0  0  0
  -26.1058  -31.5161   20.5934 H   0  0  0  0  0  0
  -26.8558  -30.8272   22.0017 H   0  0  0  0  0  0
  -28.1272  -28.9190   21.2022 H   0  0  0  0  0  0
  -25.9959  -25.8706   19.0284 H   0  0  0  0  0  0
  -23.9843  -27.2872   18.9991 H   0  0  0  0  0  0
  -23.7760  -30.5770   19.3998 H   0  0  0  0  0  0
  -22.7681  -29.2352   19.8517 H   0  0  0  0  0  0
  -25.1272  -36.1915   25.0824 H   0  0  0  0  0  0
  -21.0030  -28.3296   24.1405 H   0  0  0  0  0  0
  -20.5670  -26.2302   23.3642 H   0  0  0  0  0  0
  -21.6677  -26.7423   22.1262 H   0  0  0  0  0  0
  -19.6980  -25.6339   21.1182 H   0  0  0  0  0  0
  -19.6797  -27.3260   20.6777 H   0  0  0  0  0  0
  -17.4283  -26.6784   21.3898 H   0  0  0  0  0  0
  -18.0304  -26.0043   22.8882 H   0  0  0  0  0  0
  -19.7939  -30.7263   24.2297 H   0  0  0  0  0  0
  -17.4991  -31.6234   24.5183 H   0  0  0  0  0  0
  -15.5352  -30.2942   23.7607 H   0  0  0  0  0  0
  -15.8717  -28.0783   22.7016 H   0  0  0  0  0  0
  -24.5866  -30.7125   25.7700 H   0  0  0  0  0  0
  -24.8949  -32.2908   26.4841 H   0  0  0  0  0  0
  -25.8018  -30.8868   27.0171 H   0  0  0  0  0  0
  -26.2943  -29.6723   24.1209 H   0  0  0  0  0  0
  -27.4070  -29.7267   25.4679 H   0  0  0  0  0  0
  -27.8808  -30.4260   23.9387 H   0  0  0  0  0  0
  -27.2678  -33.3584   26.2058 H   0  0  0  0  0  0
  -28.3868  -32.6893   25.0273 H   0  0  0  0  0  0
  -28.0759  -31.8414   26.5354 H   0  0  0  0  0  0
  -28.2597  -38.0084   24.7488 H   0  0  0  0  0  0
  -28.1063  -36.2619   24.6312 H   0  0  0  0  0  0
  -27.2306  -37.1467   25.8882 H   0  0  0  0  0  0
  -20.9403  -29.8796   21.6901 H   0  0  0  0  0  0
  -26.0179  -38.2847   24.1386 H   0  0  0  0  0  0
  -31.6616  -20.1684   20.9343 H   0  0  0  0  0  0
  -27.2915  -23.9635   22.4317 H   0  0  0  0  0  0
  -26.1746  -24.7881   21.3641 H   0  0  0  0  0  0
  -27.1654  -25.7162   22.4835 H   0  0  0  0  0  0
  -27.4394  -23.2602   19.5334 H   0  0  0  0  0  0
  -28.9804  -23.8123   18.9956 H   0  0  0  0  0  0
  -29.1950  -24.9786   21.3399 H   0  0  0  0  0  0
  -28.0134  -20.8285   19.6008 H   0  0  0  0  0  0
  -28.7744  -15.7181   20.5967 H   0  0  0  0  0  0
  1 25  1  0  0  0
  1 30  2  0  0  0
  1 80  1  0  0  0
  2  3  1  0  0  0
  2 25  1  0  0  0
  2 83  1  0  0  0
  2 84  1  0  0  0
  3  4  1  0  0  0
  3 85  1  0  0  0
  3 86  1  0  0  0
  4  5  1  0  0  0
  4 87  1  0  0  0
  4 88  1  0  0  0
  5  6  1  0  0  0
  5 26  1  0  0  0
  5 89  1  0  0  0
  6 25  1  0  0  0
  6 90  1  0  0  0
  6 91  1  0  0  0
  7  8  2  0  0  0
  7 26  1  0  0  0
  7 29  1  0  0  0
  8  9  1  0  0  0
  8 22  1  0  0  0
  9 10  1  0  0  0
  9 27  2  0  0  0
 10 11  2  0  0  0
 10 15  1  0  0  0
 11 12  1  0  0  0
 11 92  1  0  0  0
 12 13  2  0  0  0
 12 93  1  0  0  0
 13 14  1  0  0  0
 13 31  1  0  0  0
 14 15  2  0  0  0
 14 94  1  0  0  0
 15 95  1  0  0  0
 16 17  2  0  0  0
 16 21  1  0  0  0
 16 31  1  0  0  0
 17 18  1  0  0  0
 17 96  1  0  0  0
 18 19  2  0  0  0
 18 97  1  0  0  0
 19 20  1  0  0  0
 19 24  1  0  0  0
 20 21  2  0  0  0
 20 98  1  0  0  0
 21 23  1  0  0  0
 22 28  1  0  0  0
 22 32  2  0  0  0
 26 27  1  0  0  0
 28 99  1  0  0  0
 28100  1  0  0  0
 29101  1  0  0  0
 29102  1  0  0  0
 33 34  1  0  0  0
 33 66  1  0  0  0
 33 70  2  0  0  0
 34 36  1  0  0  0
 34 59  1  0  0  0
 34103  1  0  0  0
 35 44  2  0  0  0
 35 45  1  0  0  0
 35 68  1  0  0  0
 36 56  1  0  0  0
 36104  1  0  0  0
 37 39  1  0  0  0
 37 47  1  0  0  0
 37 66  1  0  0  0
 37105  1  0  0  0
 38 43  2  0  0  0
 38 46  1  0  0  0
 38 47  1  0  0  0
 39 64  1  0  0  0
 39 67  2  0  0  0
 40 52  1  0  0  0
 40 53  2  0  0  0
 40 58  1  0  0  0
 41106  1  0  0  0
 41107  1  0  0  0
 41108  1  0  0  0
 41 48  1  0  0  0
 42 43  1  0  0  0
 42 66  1  0  0  0
 42109  1  0  0  0
 42110  1  0  0  0
 43 44  1  0  0  0
 44111  1  0  0  0
 45 46  2  0  0  0
 45112  1  0  0  0
 46113  1  0  0  0
 47114  1  0  0  0
 47115  1  0  0  0
 48 56  1  0  0  0
 48 65  1  0  0  0
 48116  1  0  0  0
 49 50  1  0  0  0
 49 53  1  0  0  0
 49 64  1  0  0  0
 49117  1  0  0  0
 50 51  1  0  0  0
 50118  1  0  0  0
 50119  1  0  0  0
 51 52  1  0  0  0
 51120  1  0  0  0
 51121  1  0  0  0
 52122  1  0  0  0
 52123  1  0  0  0
 53 54  1  0  0  0
 54 55  2  0  0  0
 54124  1  0  0  0
 55 57  1  0  0  0
 55125  1  0  0  0
 56 69  2  0  0  0
 57 58  2  0  0  0
 57126  1  0  0  0
 58127  1  0  0  0
 59 60  1  0  0  0
 59 61  1  0  0  0
 59 62  1  0  0  0
 60128  1  0  0  0
 60129  1  0  0  0
 60130  1  0  0  0
 61131  1  0  0  0
 61132  1  0  0  0
 61133  1  0  0  0
 62134  1  0  0  0
 62135  1  0  0  0
 62136  1  0  0  0
 63 65  1  0  0  0
 63137  1  0  0  0
 63138  1  0  0  0
 63139  1  0  0  0
 64140  1  0  0  0
 65141  1  0  0  0
 68 77  1  0  0  0
 71 72  2  0  0  0
 71 78  1  0  0  0
 71142  1  0  0  0
 72 79  1  0  0  0
 72 82  1  0  0  0
 73 78  2  0  0  0
 73 80  1  0  0  0
 73 82  1  0  0  0
 74 76  1  0  0  0
 74 79  1  0  0  0
 74 81  2  0  0  0
 75143  1  0  0  0
 75144  1  0  0  0
 75145  1  0  0  0
 75 77  1  0  0  0
 76 77  1  0  0  0
 76146  1  0  0  0
 76147  1  0  0  0
 77148  1  0  0  0
 79149  1  0  0  0
 80150  1  0  0  0
M  ISO  4   1 100  68 101  77 101  80 100
M  END
> <chiral flag>
0

> <version>
0

> <s_m_source_file>
/data/baiqing/PycharmProjects/Reinvent-master-3.2/result/LINK_invent/BTK/process_docking_weight1_custom_product_contain_oxygen_bond_distance_aromatic_linkinvent_7_9_3/rearranged_h_0159.sdf

> <i_m_source_file_index>
27

> <r_mmod_Potential_Energy-OPLS-2005>
125.112861633301

> <r_mmod_Stretch_Energy-OPLS-2005>
146.266937255859

> <r_mmod_Bend_Energy-OPLS-2005>
198.054809570312

> <r_mmod_Torsional_Energy-OPLS-2005>
232.065658569336

> <r_mmod_Improper_Torsional_Energy-OPLS-2005>
6.02954816818237

> <r_mmod_Van_der_Waal_Energy-OPLS-2005>
113.309951782227

> <r_mmod_Electrostatic_Energy-OPLS-2005>
-428.291290283203

> <r_mmod_Solvation_Energy-OPLS-2005>
-255.20166015625

> <b_mmod_Minimization_Converged-OPLS-2005>
0

> <r_mmod_RMS_Derivative-OPLS-2005>
3.19700074195862

$$$$
27
                    3D
 Structure written by MMmdl.
150158  0  0  1  0            999 V2000
  -30.6866  -14.5554   20.4222 C   0  0  0  0  0  0
  -30.4153  -12.3277   19.4252 C   0  0  0  0  0  0
  -29.4877  -12.4753   18.2014 C   0  0  0  0  0  0
  -28.0130  -12.3386   18.6243 C   0  0  0  0  0  0
  -27.6466  -13.2171   19.8485 C   0  0  2  0  0  0
  -28.7005  -13.0969   20.9739 C   0  0  0  0  0  0
  -25.2521  -13.8187   20.5594 C   0  0  0  0  0  0
  -24.1807  -13.0452   20.9177 C   0  0  0  0  0  0
  -24.6383  -11.6930   20.8742 C   0  0  0  0  0  0
  -23.9076  -10.4294   21.0407 C   0  0  0  0  0  0
  -24.3609   -9.4204   21.9179 C   0  0  0  0  0  0
  -23.6291   -8.2241   22.0752 C   0  0  0  0  0  0
  -22.4270   -8.0274   21.3539 C   0  0  0  0  0  0
  -21.9899   -9.0260   20.4649 C   0  0  0  0  0  0
  -22.7237  -10.2136   20.3073 C   0  0  0  0  0  0
  -21.6863   -6.0713   22.5257 C   0  0  0  0  0  0
  -21.4014   -6.5621   23.8185 C   0  0  0  0  0  0
  -21.3671   -5.6768   24.9156 C   0  0  0  0  0  0
  -21.6049   -4.3034   24.7205 C   0  0  0  0  0  0
  -21.8829   -3.8128   23.4331 C   0  0  0  0  0  0
  -21.9193   -4.6949   22.3381 C   0  0  0  0  0  0
  -22.7826  -13.5250   21.1839 C   0  0  0  0  0  0
  -22.1664   -4.2136   21.0973 F   0  0  0  0  0  0
  -21.5634   -3.4523   25.7718 F   0  0  0  0  0  0
  -30.0177  -13.3706   20.3838 N   0  0  0  0  0  0
  -26.2962  -12.9371   20.3279 N   0  0  0  0  0  0
  -25.9312  -11.6537   20.5771 N   0  0  0  0  0  0
  -22.0457  -12.8268   22.0407 N   0  0  0  0  0  0
  -25.4225  -15.1889   20.3839 N   0  0  0  0  0  0
  -31.8941  -14.6036   20.2026 O   0  0  0  0  0  0
  -21.6667   -6.8851   21.4208 O   0  0  0  0  0  0
  -22.3516  -14.5548   20.6682 O   0  0  0  0  0  0
  -24.6191  -31.8690   23.2105 C   0  0  0  0  0  0
  -25.9067  -32.4832   23.8393 C   0  0  1  0  0  0
  -27.2061  -27.3784   20.0780 C   0  0  0  0  0  0
  -25.5905  -33.8628   24.2323 N   0  0  0  0  0  0
  -23.4087  -30.4975   21.5574 C   0  0  2  0  0  0
  -24.8456  -28.9742   20.1157 C   0  0  0  0  0  0
  -22.7456  -29.4664   22.5007 C   0  0  0  0  0  0
  -18.0279  -28.1378   22.8507 C   0  0  0  0  0  0
  -24.1486  -36.7305   23.2632 C   0  0  0  0  0  0
  -25.9483  -30.8136   21.3793 C   0  0  0  0  0  0
  -26.0192  -29.4495   20.7147 C   0  0  0  0  0  0
  -27.2039  -28.6617   20.6944 C   0  0  0  0  0  0
  -25.9989  -26.9536   19.4621 C   0  0  0  0  0  0
  -24.8335  -27.7270   19.4880 C   0  0  0  0  0  0
  -23.6162  -29.8462   20.1689 C   0  0  0  0  0  0
  -25.4110  -36.3124   24.0334 C   0  0  1  0  0  0
  -20.5885  -28.3672   23.1317 C   0  0  2  0  0  0
  -20.6780  -26.9404   22.5419 C   0  0  0  0  0  0
  -19.5743  -26.6390   21.5231 C   0  0  0  0  0  0
  -18.1920  -26.7923   22.1648 C   0  0  0  0  0  0
  -19.1528  -28.8848   23.2906 C   0  0  0  0  0  0
  -18.9457  -30.1461   23.8910 C   0  0  0  0  0  0
  -17.6458  -30.6595   24.0565 C   0  0  0  0  0  0
  -25.9046  -34.9489   23.5133 C   0  0  0  0  0  0
  -16.5355  -29.9090   23.6331 C   0  0  0  0  0  0
  -16.7266  -28.6502   23.0358 C   0  0  0  0  0  0
  -26.4462  -31.6612   25.0749 C   0  0  0  0  0  0
  -25.3696  -31.3732   26.1477 C   0  0  0  0  0  0
  -27.0287  -30.3048   24.6157 C   0  0  0  0  0  0
  -27.6033  -32.4345   25.7502 C   0  0  0  0  0  0
  -27.5598  -37.1797   24.8452 C   0  0  0  0  0  0
  -21.4180  -29.3032   22.3727 N   0  0  0  0  0  0
  -26.4293  -37.3816   23.9430 N   0  0  0  0  0  0
  -24.6772  -31.0737   22.1052 N   0  0  0  0  0  0
  -23.4214  -28.8191   23.3045 O   0  0  0  0  0  0
  -28.3285  -26.5431   20.0931 O   0  0  0  0  0  0
  -26.5618  -34.8940   22.4705 O   0  0  0  0  0  0
  -23.5375  -32.1458   23.7470 O   0  0  0  0  0  0
  -31.2330  -18.9331   19.5847 C   0  0  0  0  0  0
  -31.3773  -17.5236   19.6866 C   0  0  0  0  0  0
  -29.9814  -19.2035   20.0783 C   0  0  0  0  0  0
  -30.2281  -16.9910   20.2213 C   0  0  0  0  0  0
  -28.8930  -22.7446   20.0275 C   0  0  0  0  0  0
  -29.1402  -24.0836   19.9161 C   0  0  0  0  0  0
  -29.9060  -21.6796   20.0126 C   0  0  0  0  0  0
  -28.0349  -25.1411   19.8103 C   0  0  0  0  0  0
  -29.3772  -20.4368   20.1680 N   0  0  0  0  0  0
  -29.9092  -15.6693   20.4729 N   0  0  0  0  0  0
  -31.1125  -21.8919   19.8584 O   0  0  0  0  0  0
  -29.3373  -18.0293   20.4457 O   0  0  0  0  0  0
  -30.3582  -24.6419   19.8335 O   0  0  0  0  0  0
  -32.4879  -16.8671   19.2813 F   0  0  0  0  0  0
  -31.4587  -12.4150   19.1132 H   0  0  0  0  0  0
  -30.3181  -11.3376   19.8723 H   0  0  0  0  0  0
  -29.7266  -11.7187   17.4530 H   0  0  0  0  0  0
  -29.6451  -13.4414   17.7195 H   0  0  0  0  0  0
  -27.8320  -11.2905   18.8576 H   0  0  0  0  0  0
  -27.3601  -12.5819   17.7870 H   0  0  0  0  0  0
  -27.6557  -14.2456   19.4901 H   0  0  0  0  0  0
  -28.6882  -12.1036   21.4230 H   0  0  0  0  0  0
  -28.4871  -13.7987   21.7826 H   0  0  0  0  0  0
  -25.2729   -9.5715   22.4770 H   0  0  0  0  0  0
  -23.9977   -7.4637   22.7488 H   0  0  0  0  0  0
  -21.0818   -8.8806   19.8965 H   0  0  0  0  0  0
  -22.3667  -10.9684   19.6212 H   0  0  0  0  0  0
  -21.2014   -7.6123   23.9683 H   0  0  0  0  0  0
  -21.1488   -6.0506   25.9054 H   0  0  0  0  0  0
  -22.0611   -2.7597   23.2848 H   0  0  0  0  0  0
  -22.4067  -11.9939   22.4806 H   0  0  0  0  0  0
  -21.1105  -13.1355   22.2664 H   0  0  0  0  0  0
  -24.6356  -15.8264   20.4283 H   0  0  0  0  0  0
  -26.2453  -15.6065   19.9695 H   0  0  0  0  0  0
  -26.7146  -32.5524   23.1141 H   0  0  0  0  0  0
  -25.0003  -33.9769   25.0438 H   0  0  0  0  0  0
  -22.7002  -31.3170   21.4251 H   0  0  0  0  0  0
  -23.3757  -35.9626   23.3302 H   0  0  0  0  0  0
  -24.3577  -36.8912   22.2046 H   0  0  0  0  0  0
  -23.7221  -37.6507   23.6635 H   0  0  0  0  0  0
  -26.0812  -31.5849   20.6170 H   0  0  0  0  0  0
  -26.8295  -30.8535   22.0080 H   0  0  0  0  0  0
  -28.1041  -29.0212   21.1747 H   0  0  0  0  0  0
  -25.8940  -26.0099   18.9489 H   0  0  0  0  0  0
  -23.9332  -27.3572   19.0165 H   0  0  0  0  0  0
  -23.7321  -30.6257   19.4151 H   0  0  0  0  0  0
  -22.7369  -29.2736   19.8668 H   0  0  0  0  0  0
  -25.1277  -36.1979   25.0824 H   0  0  0  0  0  0
  -20.9949  -28.3220   24.1452 H   0  0  0  0  0  0
  -20.5713  -26.2264   23.3600 H   0  0  0  0  0  0
  -21.6641  -26.7466   22.1196 H   0  0  0  0  0  0
  -19.6896  -25.6308   21.1242 H   0  0  0  0  0  0
  -19.6655  -27.3218   20.6770 H   0  0  0  0  0  0
  -17.4182  -26.6674   21.4056 H   0  0  0  0  0  0
  -18.0320  -26.0074   22.9051 H   0  0  0  0  0  0
  -19.7930  -30.7276   24.2276 H   0  0  0  0  0  0
  -17.5011  -31.6269   24.5162 H   0  0  0  0  0  0
  -15.5350  -30.2991   23.7648 H   0  0  0  0  0  0
  -15.8670  -28.0819   22.7075 H   0  0  0  0  0  0
  -24.5877  -30.7070   25.7804 H   0  0  0  0  0  0
  -24.8857  -32.2887   26.4902 H   0  0  0  0  0  0
  -25.8024  -30.8917   27.0249 H   0  0  0  0  0  0
  -26.2843  -29.6849   24.1146 H   0  0  0  0  0  0
  -27.3963  -29.7264   25.4633 H   0  0  0  0  0  0
  -27.8724  -30.4354   23.9379 H   0  0  0  0  0  0
  -27.2633  -33.3621   26.2110 H   0  0  0  0  0  0
  -28.3794  -32.6950   25.0298 H   0  0  0  0  0  0
  -28.0739  -31.8459   26.5376 H   0  0  0  0  0  0
  -28.2575  -38.0145   24.7615 H   0  0  0  0  0  0
  -28.1150  -36.2688   24.6137 H   0  0  0  0  0  0
  -27.2332  -37.1273   25.8857 H   0  0  0  0  0  0
  -20.9355  -29.8745   21.6938 H   0  0  0  0  0  0
  -26.0181  -38.2882   24.1496 H   0  0  0  0  0  0
  -31.9620  -19.6285   19.1927 H   0  0  0  0  0  0
  -27.8565  -22.4421   20.1026 H   0  0  0  0  0  0
  -27.2096  -24.8073   20.4435 H   0  0  0  0  0  0
  -27.7178  -25.0543   18.7699 H   0  0  0  0  0  0
  -28.3909  -20.4165   20.3804 H   0  0  0  0  0  0
  -28.9331  -15.4784   20.6319 H   0  0  0  0  0  0
  -30.9934  -23.9308   19.8341 H   0  0  0  0  0  0
  1 25  1  0  0  0
  1 30  2  0  0  0
  1 80  1  0  0  0
  2  3  1  0  0  0
  2 25  1  0  0  0
  2 85  1  0  0  0
  2 86  1  0  0  0
  3  4  1  0  0  0
  3 87  1  0  0  0
  3 88  1  0  0  0
  4  5  1  0  0  0
  4 89  1  0  0  0
  4 90  1  0  0  0
  5  6  1  0  0  0
  5 26  1  0  0  0
  5 91  1  0  0  0
  6 25  1  0  0  0
  6 92  1  0  0  0
  6 93  1  0  0  0
  7  8  2  0  0  0
  7 26  1  0  0  0
  7 29  1  0  0  0
  8  9  1  0  0  0
  8 22  1  0  0  0
  9 10  1  0  0  0
  9 27  2  0  0  0
 10 11  2  0  0  0
 10 15  1  0  0  0
 11 12  1  0  0  0
 11 94  1  0  0  0
 12 13  2  0  0  0
 12 95  1  0  0  0
 13 14  1  0  0  0
 13 31  1  0  0  0
 14 15  2  0  0  0
 14 96  1  0  0  0
 15 97  1  0  0  0
 16 17  2  0  0  0
 16 21  1  0  0  0
 16 31  1  0  0  0
 17 18  1  0  0  0
 17 98  1  0  0  0
 18 19  2  0  0  0
 18 99  1  0  0  0
 19 20  1  0  0  0
 19 24  1  0  0  0
 20 21  2  0  0  0
 20100  1  0  0  0
 21 23  1  0  0  0
 22 28  1  0  0  0
 22 32  2  0  0  0
 26 27  1  0  0  0
 28101  1  0  0  0
 28102  1  0  0  0
 29103  1  0  0  0
 29104  1  0  0  0
 33 34  1  0  0  0
 33 66  1  0  0  0
 33 70  2  0  0  0
 34 36  1  0  0  0
 34 59  1  0  0  0
 34105  1  0  0  0
 35 44  2  0  0  0
 35 45  1  0  0  0
 35 68  1  0  0  0
 36 56  1  0  0  0
 36106  1  0  0  0
 37 39  1  0  0  0
 37 47  1  0  0  0
 37 66  1  0  0  0
 37107  1  0  0  0
 38 43  2  0  0  0
 38 46  1  0  0  0
 38 47  1  0  0  0
 39 64  1  0  0  0
 39 67  2  0  0  0
 40 52  1  0  0  0
 40 53  2  0  0  0
 40 58  1  0  0  0
 41108  1  0  0  0
 41109  1  0  0  0
 41110  1  0  0  0
 41 48  1  0  0  0
 42 43  1  0  0  0
 42 66  1  0  0  0
 42111  1  0  0  0
 42112  1  0  0  0
 43 44  1  0  0  0
 44113  1  0  0  0
 45 46  2  0  0  0
 45114  1  0  0  0
 46115  1  0  0  0
 47116  1  0  0  0
 47117  1  0  0  0
 48 56  1  0  0  0
 48 65  1  0  0  0
 48118  1  0  0  0
 49 50  1  0  0  0
 49 53  1  0  0  0
 49 64  1  0  0  0
 49119  1  0  0  0
 50 51  1  0  0  0
 50120  1  0  0  0
 50121  1  0  0  0
 51 52  1  0  0  0
 51122  1  0  0  0
 51123  1  0  0  0
 52124  1  0  0  0
 52125  1  0  0  0
 53 54  1  0  0  0
 54 55  2  0  0  0
 54126  1  0  0  0
 55 57  1  0  0  0
 55127  1  0  0  0
 56 69  2  0  0  0
 57 58  2  0  0  0
 57128  1  0  0  0
 58129  1  0  0  0
 59 60  1  0  0  0
 59 61  1  0  0  0
 59 62  1  0  0  0
 60130  1  0  0  0
 60131  1  0  0  0
 60132  1  0  0  0
 61133  1  0  0  0
 61134  1  0  0  0
 61135  1  0  0  0
 62136  1  0  0  0
 62137  1  0  0  0
 62138  1  0  0  0
 63 65  1  0  0  0
 63139  1  0  0  0
 63140  1  0  0  0
 63141  1  0  0  0
 64142  1  0  0  0
 65143  1  0  0  0
 68 78  1  0  0  0
 71 72  1  0  0  0
 71 73  2  0  0  0
 71144  1  0  0  0
 72 74  2  0  0  0
 72 84  1  0  0  0
 73 79  1  0  0  0
 73 82  1  0  0  0
 74 80  1  0  0  0
 74 82  1  0  0  0
 75 76  2  0  0  0
 75 77  1  0  0  0
 75145  1  0  0  0
 76 78  1  0  0  0
 76 83  1  0  0  0
 77 79  1  0  0  0
 77 81  2  0  0  0
 78146  1  0  0  0
 78147  1  0  0  0
 79148  1  0  0  0
 80149  1  0  0  0
 83150  1  0  0  0
M  ISO  4   1 100  68 101  78 101  80 100
M  END
> <chiral flag>
0

> <version>
0

> <s_m_source_file>
/data/baiqing/PycharmProjects/Reinvent-master-3.2/result/LINK_invent/BTK/process_docking_weight1_custom_product_contain_oxygen_bond_distance_aromatic_linkinvent_7_9_3/rearranged_h_0159.sdf

> <i_m_source_file_index>
28

> <r_mmod_Potential_Energy-OPLS-2005>
-53.7509346008301

> <r_mmod_Stretch_Energy-OPLS-2005>
49.4772644042969

> <r_mmod_Bend_Energy-OPLS-2005>
142.141448974609

> <r_mmod_Torsional_Energy-OPLS-2005>
212.075180053711

> <r_mmod_Improper_Torsional_Energy-OPLS-2005>
6.71780776977539

> <r_mmod_Van_der_Waal_Energy-OPLS-2005>
160.032089233398

> <r_mmod_Electrostatic_Energy-OPLS-2005>
-415.542755126953

> <r_mmod_Solvation_Energy-OPLS-2005>
-246.723129272461

> <b_mmod_Minimization_Converged-OPLS-2005>
0

> <r_mmod_RMS_Derivative-OPLS-2005>
4.57880687713623

$$$$
28
                    3D
 Structure written by MMmdl.
153161  0  0  1  0            999 V2000
  -30.5659  -14.7552   20.4623 C   0  0  0  0  0  0
  -30.4466  -12.4610   19.4603 C   0  0  0  0  0  0
  -29.5126  -12.5150   18.2286 C   0  0  0  0  0  0
  -28.0392  -12.3305   18.6440 C   0  0  0  0  0  0
  -27.6458  -13.2208   19.8523 C   0  0  2  0  0  0
  -28.6929  -13.1306   20.9854 C   0  0  0  0  0  0
  -25.2550  -13.8158   20.5665 C   0  0  0  0  0  0
  -24.1820  -13.0425   20.9183 C   0  0  0  0  0  0
  -24.6382  -11.6895   20.8726 C   0  0  0  0  0  0
  -23.9048  -10.4289   21.0387 C   0  0  0  0  0  0
  -24.3605   -9.4213   21.9174 C   0  0  0  0  0  0
  -23.6283   -8.2238   22.0750 C   0  0  0  0  0  0
  -22.4273   -8.0274   21.3535 C   0  0  0  0  0  0
  -21.9897   -9.0239   20.4636 C   0  0  0  0  0  0
  -22.7208  -10.2124   20.3045 C   0  0  0  0  0  0
  -21.6867   -6.0720   22.5266 C   0  0  0  0  0  0
  -21.4010   -6.5631   23.8201 C   0  0  0  0  0  0
  -21.3660   -5.6799   24.9165 C   0  0  0  0  0  0
  -21.6049   -4.3055   24.7219 C   0  0  0  0  0  0
  -21.8824   -3.8135   23.4352 C   0  0  0  0  0  0
  -21.9188   -4.6945   22.3400 C   0  0  0  0  0  0
  -22.7851  -13.5227   21.1839 C   0  0  0  0  0  0
  -22.1668   -4.2136   21.0980 F   0  0  0  0  0  0
  -21.5629   -3.4538   25.7737 F   0  0  0  0  0  0
  -29.9935  -13.5025   20.4101 N   0  0  0  0  0  0
  -26.2962  -12.9338   20.3263 N   0  0  0  0  0  0
  -25.9314  -11.6492   20.5721 N   0  0  0  0  0  0
  -22.0498  -12.8233   22.0403 N   0  0  0  0  0  0
  -25.4256  -15.1887   20.4061 N   0  0  0  0  0  0
  -31.7514  -14.9136   20.1533 O   0  0  0  0  0  0
  -21.6650   -6.8868   21.4227 O   0  0  0  0  0  0
  -22.3548  -14.5533   20.6688 O   0  0  0  0  0  0
  -24.6303  -31.8534   23.1957 C   0  0  0  0  0  0
  -25.9119  -32.4743   23.8301 C   0  0  1  0  0  0
  -27.2244  -27.2685   20.1237 C   0  0  0  0  0  0
  -25.5913  -33.8542   24.2256 N   0  0  0  0  0  0
  -23.4279  -30.4785   21.5377 C   0  0  2  0  0  0
  -24.8726  -28.9113   20.1226 C   0  0  0  0  0  0
  -22.7497  -29.4620   22.4888 C   0  0  0  0  0  0
  -18.0305  -28.1407   22.8485 C   0  0  0  0  0  0
  -24.1491  -36.7285   23.2647 C   0  0  0  0  0  0
  -25.9708  -30.7676   21.3715 C   0  0  0  0  0  0
  -26.0454  -29.3863   20.7238 C   0  0  0  0  0  0
  -27.2274  -28.5793   20.7071 C   0  0  0  0  0  0
  -26.0263  -26.8445   19.5169 C   0  0  0  0  0  0
  -24.8645  -27.6463   19.5126 C   0  0  0  0  0  0
  -23.6488  -29.8073   20.1565 C   0  0  0  0  0  0
  -25.4111  -36.3055   24.0333 C   0  0  1  0  0  0
  -20.5900  -28.3706   23.1279 C   0  0  2  0  0  0
  -20.6797  -26.9431   22.5402 C   0  0  0  0  0  0
  -19.5770  -26.6392   21.5206 C   0  0  0  0  0  0
  -18.1948  -26.7952   22.1604 C   0  0  0  0  0  0
  -19.1552  -28.8864   23.2890 C   0  0  0  0  0  0
  -18.9483  -30.1477   23.8896 C   0  0  0  0  0  0
  -17.6480  -30.6603   24.0592 C   0  0  0  0  0  0
  -25.9038  -34.9426   23.5102 C   0  0  0  0  0  0
  -16.5372  -29.9128   23.6329 C   0  0  0  0  0  0
  -16.7285  -28.6544   23.0343 C   0  0  0  0  0  0
  -26.4473  -31.6561   25.0688 C   0  0  0  0  0  0
  -25.3712  -31.3751   26.1423 C   0  0  0  0  0  0
  -27.0314  -30.2999   24.6140 C   0  0  0  0  0  0
  -27.6031  -32.4289   25.7478 C   0  0  0  0  0  0
  -27.5576  -37.1795   24.8471 C   0  0  0  0  0  0
  -21.4196  -29.3077   22.3659 N   0  0  0  0  0  0
  -26.4286  -37.3752   23.9426 N   0  0  0  0  0  0
  -24.6966  -31.0513   22.0923 N   0  0  0  0  0  0
  -23.4199  -28.8156   23.2982 O   0  0  0  0  0  0
  -28.3449  -26.4179   20.0431 O   0  0  0  0  0  0
  -26.5616  -34.8921   22.4674 O   0  0  0  0  0  0
  -23.5453  -32.1326   23.7284 O   0  0  0  0  0  0
  -30.8231  -18.1097   20.7628 C   0  0  0  0  0  0
  -29.7878  -17.2168   20.5295 C   0  0  0  0  0  0
  -29.2669  -19.7958   20.2123 C   0  0  0  0  0  0
  -28.6738  -21.1613   19.7433 C   0  0  0  0  0  0
  -29.5067  -25.1273   21.7510 C   0  0  0  0  0  0
  -28.4693  -23.7501   19.8232 C   0  0  0  0  0  0
  -29.1247  -24.9279   23.2005 C   0  0  0  0  0  0
  -28.3636  -25.0831   20.7343 C   0  0  2  0  0  0
  -30.5258  -19.5030   20.5999 N   0  0  0  0  0  0
  -27.9254  -20.9927   18.7074 N   0  0  0  0  0  0
  -30.7080  -25.3696   21.4209 N   0  0  0  0  0  0
  -29.6933  -15.8171   20.6514 N   0  0  0  0  0  0
  -28.8122  -22.4855   20.3360 N   0  0  0  0  0  0
  -28.1821  -23.9041   18.6293 O   0  0  0  0  0  0
  -28.3767  -18.2234   20.0899 S   0  0  0  0  0  0
  -31.4818  -12.6141   19.1517 H   0  0  0  0  0  0
  -30.4132  -11.4753   19.9264 H   0  0  0  0  0  0
  -29.7946  -11.7513   17.5038 H   0  0  0  0  0  0
  -29.6338  -13.4746   17.7219 H   0  0  0  0  0  0
  -27.8990  -11.2799   18.8991 H   0  0  0  0  0  0
  -27.3797  -12.5276   17.7981 H   0  0  0  0  0  0
  -27.6423  -14.2446   19.4793 H   0  0  0  0  0  0
  -28.7337  -12.1216   21.3981 H   0  0  0  0  0  0
  -28.4243  -13.7863   21.8150 H   0  0  0  0  0  0
  -25.2746   -9.5704   22.4756 H   0  0  0  0  0  0
  -23.9992   -7.4646   22.7489 H   0  0  0  0  0  0
  -21.0821   -8.8738   19.8966 H   0  0  0  0  0  0
  -22.3635  -10.9657   19.6166 H   0  0  0  0  0  0
  -21.2011   -7.6140   23.9691 H   0  0  0  0  0  0
  -21.1481   -6.0529   25.9067 H   0  0  0  0  0  0
  -22.0602   -2.7593   23.2848 H   0  0  0  0  0  0
  -22.4109  -11.9876   22.4775 H   0  0  0  0  0  0
  -21.1114  -13.1257   22.2594 H   0  0  0  0  0  0
  -24.6501  -15.8349   20.5013 H   0  0  0  0  0  0
  -26.2580  -15.6234   20.0306 H   0  0  0  0  0  0
  -26.7191  -32.5368   23.1037 H   0  0  0  0  0  0
  -25.0050  -33.9685   25.0393 H   0  0  0  0  0  0
  -22.7249  -31.3018   21.3895 H   0  0  0  0  0  0
  -23.3740  -35.9624   23.3284 H   0  0  0  0  0  0
  -24.3604  -36.8923   22.2073 H   0  0  0  0  0  0
  -23.7264  -37.6491   23.6671 H   0  0  0  0  0  0
  -26.0979  -31.5236   20.5934 H   0  0  0  0  0  0
  -26.8558  -30.8254   21.9934 H   0  0  0  0  0  0
  -28.1359  -28.9530   21.1582 H   0  0  0  0  0  0
  -25.9927  -25.8782   19.0351 H   0  0  0  0  0  0
  -23.9646  -27.2800   19.0358 H   0  0  0  0  0  0
  -23.7897  -30.5815   19.4011 H   0  0  0  0  0  0
  -22.7639  -29.2514   19.8419 H   0  0  0  0  0  0
  -25.1301  -36.1862   25.0825 H   0  0  0  0  0  0
  -20.9977  -28.3240   24.1401 H   0  0  0  0  0  0
  -20.5680  -26.2311   23.3592 H   0  0  0  0  0  0
  -21.6677  -26.7464   22.1206 H   0  0  0  0  0  0
  -19.6951  -25.6298   21.1249 H   0  0  0  0  0  0
  -19.6726  -27.3208   20.6743 H   0  0  0  0  0  0
  -17.4231  -26.6696   21.4005 H   0  0  0  0  0  0
  -18.0361  -26.0105   22.9005 H   0  0  0  0  0  0
  -19.7962  -30.7312   24.2227 H   0  0  0  0  0  0
  -17.5058  -31.6277   24.5216 H   0  0  0  0  0  0
  -15.5390  -30.3060   23.7666 H   0  0  0  0  0  0
  -15.8672  -28.0911   22.7011 H   0  0  0  0  0  0
  -24.5876  -30.7092   25.7784 H   0  0  0  0  0  0
  -24.8907  -32.2938   26.4789 H   0  0  0  0  0  0
  -25.8012  -30.8976   27.0234 H   0  0  0  0  0  0
  -26.2892  -29.6761   24.1153 H   0  0  0  0  0  0
  -27.4040  -29.7218   25.4601 H   0  0  0  0  0  0
  -27.8722  -30.4330   23.9344 H   0  0  0  0  0  0
  -27.2642  -33.3617   26.2003 H   0  0  0  0  0  0
  -28.3854  -32.6792   25.0295 H   0  0  0  0  0  0
  -28.0648  -31.8429   26.5427 H   0  0  0  0  0  0
  -28.2563  -38.0119   24.7498 H   0  0  0  0  0  0
  -28.1090  -36.2638   24.6272 H   0  0  0  0  0  0
  -27.2312  -37.1433   25.8883 H   0  0  0  0  0  0
  -20.9337  -29.8837   21.6925 H   0  0  0  0  0  0
  -26.0136  -38.2809   24.1430 H   0  0  0  0  0  0
  -31.8236  -17.8475   21.0804 H   0  0  0  0  0  0
  -28.1280  -25.3210   23.3963 H   0  0  0  0  0  0
  -29.8210  -25.4500   23.8584 H   0  0  0  0  0  0
  -29.1369  -23.8678   23.4522 H   0  0  0  0  0  0
  -27.4222  -24.9852   21.2745 H   0  0  0  0  0  0
  -27.9470  -20.0075   18.4495 H   0  0  0  0  0  0
  -31.3277  -25.3967   22.2226 H   0  0  0  0  0  0
  -28.7502  -15.4938   20.7951 H   0  0  0  0  0  0
  -29.1746  -22.4918   21.2779 H   0  0  0  0  0  0
  1 25  1  0  0  0
  1 30  2  0  0  0
  1 82  1  0  0  0
  2  3  1  0  0  0
  2 25  1  0  0  0
  2 86  1  0  0  0
  2 87  1  0  0  0
  3  4  1  0  0  0
  3 88  1  0  0  0
  3 89  1  0  0  0
  4  5  1  0  0  0
  4 90  1  0  0  0
  4 91  1  0  0  0
  5  6  1  0  0  0
  5 26  1  0  0  0
  5 92  1  0  0  0
  6 25  1  0  0  0
  6 93  1  0  0  0
  6 94  1  0  0  0
  7  8  2  0  0  0
  7 26  1  0  0  0
  7 29  1  0  0  0
  8  9  1  0  0  0
  8 22  1  0  0  0
  9 10  1  0  0  0
  9 27  2  0  0  0
 10 11  2  0  0  0
 10 15  1  0  0  0
 11 12  1  0  0  0
 11 95  1  0  0  0
 12 13  2  0  0  0
 12 96  1  0  0  0
 13 14  1  0  0  0
 13 31  1  0  0  0
 14 15  2  0  0  0
 14 97  1  0  0  0
 15 98  1  0  0  0
 16 17  2  0  0  0
 16 21  1  0  0  0
 16 31  1  0  0  0
 17 18  1  0  0  0
 17 99  1  0  0  0
 18 19  2  0  0  0
 18100  1  0  0  0
 19 20  1  0  0  0
 19 24  1  0  0  0
 20 21  2  0  0  0
 20101  1  0  0  0
 21 23  1  0  0  0
 22 28  1  0  0  0
 22 32  2  0  0  0
 26 27  1  0  0  0
 28102  1  0  0  0
 28103  1  0  0  0
 29104  1  0  0  0
 29105  1  0  0  0
 33 34  1  0  0  0
 33 66  1  0  0  0
 33 70  2  0  0  0
 34 36  1  0  0  0
 34 59  1  0  0  0
 34106  1  0  0  0
 35 44  2  0  0  0
 35 45  1  0  0  0
 35 68  1  0  0  0
 36 56  1  0  0  0
 36107  1  0  0  0
 37 39  1  0  0  0
 37 47  1  0  0  0
 37 66  1  0  0  0
 37108  1  0  0  0
 38 43  2  0  0  0
 38 46  1  0  0  0
 38 47  1  0  0  0
 39 64  1  0  0  0
 39 67  2  0  0  0
 40 52  1  0  0  0
 40 53  2  0  0  0
 40 58  1  0  0  0
 41109  1  0  0  0
 41110  1  0  0  0
 41111  1  0  0  0
 41 48  1  0  0  0
 42 43  1  0  0  0
 42 66  1  0  0  0
 42112  1  0  0  0
 42113  1  0  0  0
 43 44  1  0  0  0
 44114  1  0  0  0
 45 46  2  0  0  0
 45115  1  0  0  0
 46116  1  0  0  0
 47117  1  0  0  0
 47118  1  0  0  0
 48 56  1  0  0  0
 48 65  1  0  0  0
 48119  1  0  0  0
 49 50  1  0  0  0
 49 53  1  0  0  0
 49 64  1  0  0  0
 49120  1  0  0  0
 50 51  1  0  0  0
 50121  1  0  0  0
 50122  1  0  0  0
 51 52  1  0  0  0
 51123  1  0  0  0
 51124  1  0  0  0
 52125  1  0  0  0
 52126  1  0  0  0
 53 54  1  0  0  0
 54 55  2  0  0  0
 54127  1  0  0  0
 55 57  1  0  0  0
 55128  1  0  0  0
 56 69  2  0  0  0
 57 58  2  0  0  0
 57129  1  0  0  0
 58130  1  0  0  0
 59 60  1  0  0  0
 59 61  1  0  0  0
 59 62  1  0  0  0
 60131  1  0  0  0
 60132  1  0  0  0
 60133  1  0  0  0
 61134  1  0  0  0
 61135  1  0  0  0
 61136  1  0  0  0
 62137  1  0  0  0
 62138  1  0  0  0
 62139  1  0  0  0
 63 65  1  0  0  0
 63140  1  0  0  0
 63141  1  0  0  0
 63142  1  0  0  0
 64143  1  0  0  0
 65144  1  0  0  0
 68 78  1  0  0  0
 71 72  2  0  0  0
 71 79  1  0  0  0
 71145  1  0  0  0
 72 82  1  0  0  0
 72 85  1  0  0  0
 73 74  1  0  0  0
 73 79  2  0  0  0
 73 85  1  0  0  0
 74 80  2  0  0  0
 74 83  1  0  0  0
 75 77  1  0  0  0
 75 78  1  0  0  0
 75 81  2  0  0  0
 76 78  1  0  0  0
 76 83  1  0  0  0
 76 84  2  0  0  0
 77146  1  0  0  0
 77147  1  0  0  0
 77148  1  0  0  0
 78149  1  0  0  0
 80150  1  0  0  0
 81151  1  0  0  0
 82152  1  0  0  0
 83153  1  0  0  0
M  ISO  4   1 100  68 101  78 101  82 100
M  END
> <chiral flag>
0

> <version>
0

> <s_m_source_file>
/data/baiqing/PycharmProjects/Reinvent-master-3.2/result/LINK_invent/BTK/process_docking_weight1_custom_product_contain_oxygen_bond_distance_aromatic_linkinvent_7_9_3/rearranged_h_0159.sdf

> <i_m_source_file_index>
29

> <r_mmod_Potential_Energy-OPLS-2005>
144.527084350586

> <r_mmod_Stretch_Energy-OPLS-2005>
121.640182495117

> <r_mmod_Bend_Energy-OPLS-2005>
181.751541137695

> <r_mmod_Torsional_Energy-OPLS-2005>
246.857864379883

> <r_mmod_Improper_Torsional_Energy-OPLS-2005>
6.94035816192627

> <r_mmod_Van_der_Waal_Energy-OPLS-2005>
115.25821685791

> <r_mmod_Electrostatic_Energy-OPLS-2005>
-311.183898925781

> <r_mmod_Solvation_Energy-OPLS-2005>
-298.423675537109

> <b_mmod_Minimization_Converged-OPLS-2005>
0

> <r_mmod_RMS_Derivative-OPLS-2005>
3.479820728302

$$$$
29
                    3D
 Structure written by MMmdl.
169178  0  0  1  0            999 V2000
  -30.6806  -14.4557   20.5581 C   0  0  0  0  0  0
  -30.4302  -12.2990   19.4182 C   0  0  0  0  0  0
  -29.4898  -12.5091   18.2095 C   0  0  0  0  0  0
  -28.0125  -12.3613   18.6214 C   0  0  0  0  0  0
  -27.6656  -13.1927   19.8839 C   0  0  2  0  0  0
  -28.7010  -12.9572   21.0051 C   0  0  0  0  0  0
  -25.2642  -13.8123   20.5669 C   0  0  0  0  0  0
  -24.1875  -13.0447   20.9180 C   0  0  0  0  0  0
  -24.6399  -11.6900   20.8742 C   0  0  0  0  0  0
  -23.9067  -10.4295   21.0427 C   0  0  0  0  0  0
  -24.3632   -9.4214   21.9201 C   0  0  0  0  0  0
  -23.6303   -8.2257   22.0773 C   0  0  0  0  0  0
  -22.4296   -8.0300   21.3551 C   0  0  0  0  0  0
  -21.9920   -9.0279   20.4665 C   0  0  0  0  0  0
  -22.7250  -10.2147   20.3072 C   0  0  0  0  0  0
  -21.6860   -6.0764   22.5278 C   0  0  0  0  0  0
  -21.4016   -6.5663   23.8212 C   0  0  0  0  0  0
  -21.3655   -5.6807   24.9172 C   0  0  0  0  0  0
  -21.6037   -4.3072   24.7213 C   0  0  0  0  0  0
  -21.8828   -3.8174   23.4334 C   0  0  0  0  0  0
  -21.9199   -4.6994   22.3394 C   0  0  0  0  0  0
  -22.7904  -13.5286   21.1798 C   0  0  0  0  0  0
  -22.1678   -4.2190   21.0969 F   0  0  0  0  0  0
  -21.5615   -3.4550   25.7714 F   0  0  0  0  0  0
  -30.0389  -13.2588   20.4586 N   0  0  0  0  0  0
  -26.3064  -12.9259   20.3413 N   0  0  0  0  0  0
  -25.9323  -11.6445   20.5789 N   0  0  0  0  0  0
  -22.0545  -12.8271   22.0333 N   0  0  0  0  0  0
  -25.4389  -15.1831   20.4085 N   0  0  0  0  0  0
  -31.8093  -14.6630   20.1022 O   0  0  0  0  0  0
  -21.6662   -6.8906   21.4245 O   0  0  0  0  0  0
  -22.3577  -14.5586   20.6635 O   0  0  0  0  0  0
  -24.6103  -31.8710   23.2057 C   0  0  0  0  0  0
  -25.9007  -32.4854   23.8377 C   0  0  1  0  0  0
  -27.2553  -27.4650   20.1106 C   0  0  0  0  0  0
  -25.5881  -33.8630   24.2328 N   0  0  0  0  0  0
  -23.4012  -30.4853   21.5413 C   0  0  2  0  0  0
  -24.8526  -28.9384   20.1237 C   0  0  0  0  0  0
  -22.7381  -29.4705   22.4981 C   0  0  0  0  0  0
  -18.0274  -28.1369   22.8503 C   0  0  0  0  0  0
  -24.1475  -36.7325   23.2647 C   0  0  0  0  0  0
  -25.9213  -30.8471   21.3522 C   0  0  0  0  0  0
  -26.0036  -29.4779   20.7087 C   0  0  0  0  0  0
  -27.2076  -28.7497   20.6886 C   0  0  0  0  0  0
  -26.0920  -26.9237   19.5279 C   0  0  0  0  0  0
  -24.8870  -27.6587   19.5355 C   0  0  0  0  0  0
  -23.6119  -29.7988   20.1615 C   0  0  0  0  0  0
  -25.4091  -36.3138   24.0350 C   0  0  1  0  0  0
  -20.5875  -28.3671   23.1317 C   0  0  2  0  0  0
  -20.6732  -26.9411   22.5410 C   0  0  0  0  0  0
  -19.5704  -26.6376   21.5198 C   0  0  0  0  0  0
  -18.1893  -26.7917   22.1638 C   0  0  0  0  0  0
  -19.1531  -28.8820   23.2917 C   0  0  0  0  0  0
  -18.9472  -30.1428   23.8919 C   0  0  0  0  0  0
  -17.6480  -30.6577   24.0564 C   0  0  0  0  0  0
  -25.9027  -34.9502   23.5152 C   0  0  0  0  0  0
  -16.5368  -29.9085   23.6329 C   0  0  0  0  0  0
  -16.7268  -28.6506   23.0336 C   0  0  0  0  0  0
  -26.4451  -31.6620   25.0700 C   0  0  0  0  0  0
  -25.3712  -31.3719   26.1444 C   0  0  0  0  0  0
  -27.0294  -30.3061   24.6087 C   0  0  0  0  0  0
  -27.6052  -32.4311   25.7464 C   0  0  0  0  0  0
  -27.5571  -37.1808   24.8473 C   0  0  0  0  0  0
  -21.4131  -29.3036   22.3716 N   0  0  0  0  0  0
  -26.4285  -37.3797   23.9425 N   0  0  0  0  0  0
  -24.6605  -31.0855   22.0928 N   0  0  0  0  0  0
  -23.4157  -28.8285   23.3034 O   0  0  0  0  0  0
  -28.4656  -26.8161   20.0837 O   0  0  0  0  0  0
  -26.5588  -34.8979   22.4724 O   0  0  0  0  0  0
  -23.5298  -32.1444   23.7474 O   0  0  0  0  0  0
  -28.7879  -19.1695   19.3958 C   0  0  0  0  0  0
  -28.4667  -17.3583   20.9944 C   0  0  0  0  0  0
  -30.3614  -17.2978   19.4472 C   0  0  0  0  0  0
  -28.0513  -18.5882   20.4429 C   0  0  0  0  0  0
  -29.9529  -18.5351   18.9034 C   0  0  0  0  0  0
  -29.6192  -16.7016   20.5084 C   0  0  0  0  0  0
  -31.3754  -21.0871   18.9335 C   0  0  0  0  0  0
  -32.3043  -20.7224   19.8984 C   0  0  0  0  0  0
  -31.0680  -22.7766   20.4117 C   0  0  0  0  0  0
  -31.0890  -20.3432   17.6650 C   0  0  0  0  0  0
  -28.3055  -25.5250   22.1953 C   0  0  0  0  0  0
  -27.8385  -24.2066   22.7723 C   0  0  0  0  0  0
  -30.0713  -25.1778   20.3669 C   0  0  0  0  0  0
  -28.5946  -25.5219   20.6809 C   0  0  2  0  0  0
  -30.7278  -22.2987   19.2209 N   0  0  0  0  0  0
  -28.4774  -26.5399   22.9365 N   0  0  0  0  0  0
  -26.8976  -19.2228   20.9035 N   0  0  0  0  0  0
  -33.1991  -19.6499   19.9439 N   0  0  0  0  0  0
  -30.6284  -19.0860   17.7815 N   0  0  0  0  0  0
  -29.9223  -15.4325   21.0855 N   0  0  0  0  0  0
  -30.5956  -23.9535   20.9546 N   0  0  0  0  0  0
  -31.2020  -20.8809   16.5584 O   0  0  0  0  0  0
  -32.2840  -21.8258   21.2443 S   0  0  0  0  0  0
  -31.4727  -12.4224   19.1172 H   0  0  0  0  0  0
  -30.3493  -11.2823   19.8063 H   0  0  0  0  0  0
  -29.7284  -11.7991   17.4180 H   0  0  0  0  0  0
  -29.6459  -13.5043   17.7828 H   0  0  0  0  0  0
  -27.8122  -11.3028   18.7976 H   0  0  0  0  0  0
  -27.3627  -12.6563   17.7979 H   0  0  0  0  0  0
  -27.7175  -14.2425   19.5949 H   0  0  0  0  0  0
  -28.6703  -11.9232   21.3484 H   0  0  0  0  0  0
  -28.4522  -13.5504   21.8857 H   0  0  0  0  0  0
  -25.2783   -9.5700   22.4779 H   0  0  0  0  0  0
  -24.0044   -7.4639   22.7474 H   0  0  0  0  0  0
  -21.0874   -8.8816   19.8937 H   0  0  0  0  0  0
  -22.3746  -10.9718   19.6198 H   0  0  0  0  0  0
  -21.2025   -7.6177   23.9728 H   0  0  0  0  0  0
  -21.1452   -6.0536   25.9073 H   0  0  0  0  0  0
  -22.0606   -2.7640   23.2812 H   0  0  0  0  0  0
  -22.4195  -11.9949   22.4728 H   0  0  0  0  0  0
  -21.1159  -13.1269   22.2558 H   0  0  0  0  0  0
  -24.6607  -15.8293   20.4872 H   0  0  0  0  0  0
  -26.2855  -15.6180   20.0652 H   0  0  0  0  0  0
  -26.7103  -32.5595   23.1179 H   0  0  0  0  0  0
  -24.9971  -33.9762   25.0422 H   0  0  0  0  0  0
  -22.6937  -31.3029   21.3892 H   0  0  0  0  0  0
  -23.3737  -35.9657   23.3338 H   0  0  0  0  0  0
  -24.3567  -36.8900   22.2062 H   0  0  0  0  0  0
  -23.7232  -37.6539   23.6627 H   0  0  0  0  0  0
  -26.0238  -31.6098   20.5804 H   0  0  0  0  0  0
  -26.8136  -30.9151   21.9609 H   0  0  0  0  0  0
  -28.1028  -29.1583   21.1302 H   0  0  0  0  0  0
  -26.1285  -25.9507   19.0610 H   0  0  0  0  0  0
  -24.0002  -27.2333   19.0869 H   0  0  0  0  0  0
  -23.7312  -30.5665   19.3959 H   0  0  0  0  0  0
  -22.7400  -29.2156   19.8639 H   0  0  0  0  0  0
  -25.1268  -36.1993   25.0828 H   0  0  0  0  0  0
  -21.0008  -28.3214   24.1428 H   0  0  0  0  0  0
  -20.5562  -26.2314   23.3586 H   0  0  0  0  0  0
  -21.6597  -26.7347   22.1254 H   0  0  0  0  0  0
  -19.6840  -25.6277   21.1211 H   0  0  0  0  0  0
  -19.6615  -27.3185   20.6723 H   0  0  0  0  0  0
  -17.4155  -26.6691   21.4051 H   0  0  0  0  0  0
  -18.0320  -26.0026   22.9020 H   0  0  0  0  0  0
  -19.7941  -30.7232   24.2308 H   0  0  0  0  0  0
  -17.5024  -31.6251   24.5169 H   0  0  0  0  0  0
  -15.5369  -30.2988   23.7581 H   0  0  0  0  0  0
  -15.8687  -28.0796   22.7043 H   0  0  0  0  0  0
  -24.5875  -30.7110   25.7747 H   0  0  0  0  0  0
  -24.8910  -32.2876   26.4896 H   0  0  0  0  0  0
  -25.8038  -30.8849   27.0189 H   0  0  0  0  0  0
  -26.2850  -29.6816   24.1152 H   0  0  0  0  0  0
  -27.4103  -29.7308   25.4541 H   0  0  0  0  0  0
  -27.8655  -30.4399   23.9217 H   0  0  0  0  0  0
  -27.2704  -33.3580   26.2117 H   0  0  0  0  0  0
  -28.3821  -32.6912   25.0267 H   0  0  0  0  0  0
  -28.0775  -31.8378   26.5301 H   0  0  0  0  0  0
  -28.2612  -38.0078   24.7504 H   0  0  0  0  0  0
  -28.1051  -36.2631   24.6307 H   0  0  0  0  0  0
  -27.2323  -37.1474   25.8880 H   0  0  0  0  0  0
  -20.9280  -29.8872   21.7008 H   0  0  0  0  0  0
  -26.0205  -38.2889   24.1365 H   0  0  0  0  0  0
  -28.4362  -20.0842   18.9329 H   0  0  0  0  0  0
  -27.8767  -16.9042   21.7807 H   0  0  0  0  0  0
  -31.2314  -16.8104   19.0267 H   0  0  0  0  0  0
  -27.6915  -23.4738   21.9778 H   0  0  0  0  0  0
  -26.8975  -24.3211   23.3113 H   0  0  0  0  0  0
  -28.5800  -23.8012   23.4589 H   0  0  0  0  0  0
  -30.2136  -25.1283   19.2855 H   0  0  0  0  0  0
  -30.7006  -25.9932   20.7291 H   0  0  0  0  0  0
  -27.9329  -24.8134   20.1785 H   0  0  0  0  0  0
  -28.2485  -26.3436   23.9023 H   0  0  0  0  0  0
  -26.1694  -18.6462   21.3098 H   0  0  0  0  0  0
  -26.5202  -19.9805   20.3413 H   0  0  0  0  0  0
  -33.2667  -19.0213   19.1502 H   0  0  0  0  0  0
  -34.1002  -19.7580   20.4000 H   0  0  0  0  0  0
  -30.5705  -18.5575   16.9244 H   0  0  0  0  0  0
  -29.1777  -15.0699   21.6620 H   0  0  0  0  0  0
  -30.8976  -24.0792   21.9155 H   0  0  0  0  0  0
  1 25  1  0  0  0
  1 30  2  0  0  0
  1 90  1  0  0  0
  2  3  1  0  0  0
  2 25  1  0  0  0
  2 94  1  0  0  0
  2 95  1  0  0  0
  3  4  1  0  0  0
  3 96  1  0  0  0
  3 97  1  0  0  0
  4  5  1  0  0  0
  4 98  1  0  0  0
  4 99  1  0  0  0
  5  6  1  0  0  0
  5 26  1  0  0  0
  5100  1  0  0  0
  6 25  1  0  0  0
  6101  1  0  0  0
  6102  1  0  0  0
  7  8  2  0  0  0
  7 26  1  0  0  0
  7 29  1  0  0  0
  8  9  1  0  0  0
  8 22  1  0  0  0
  9 10  1  0  0  0
  9 27  2  0  0  0
 10 11  2  0  0  0
 10 15  1  0  0  0
 11 12  1  0  0  0
 11103  1  0  0  0
 12 13  2  0  0  0
 12104  1  0  0  0
 13 14  1  0  0  0
 13 31  1  0  0  0
 14 15  2  0  0  0
 14105  1  0  0  0
 15106  1  0  0  0
 16 17  2  0  0  0
 16 21  1  0  0  0
 16 31  1  0  0  0
 17 18  1  0  0  0
 17107  1  0  0  0
 18 19  2  0  0  0
 18108  1  0  0  0
 19 20  1  0  0  0
 19 24  1  0  0  0
 20 21  2  0  0  0
 20109  1  0  0  0
 21 23  1  0  0  0
 22 28  1  0  0  0
 22 32  2  0  0  0
 26 27  1  0  0  0
 28110  1  0  0  0
 28111  1  0  0  0
 29112  1  0  0  0
 29113  1  0  0  0
 33 34  1  0  0  0
 33 66  1  0  0  0
 33 70  2  0  0  0
 34 36  1  0  0  0
 34 59  1  0  0  0
 34114  1  0  0  0
 35 44  2  0  0  0
 35 45  1  0  0  0
 35 68  1  0  0  0
 36 56  1  0  0  0
 36115  1  0  0  0
 37 39  1  0  0  0
 37 47  1  0  0  0
 37 66  1  0  0  0
 37116  1  0  0  0
 38 43  2  0  0  0
 38 46  1  0  0  0
 38 47  1  0  0  0
 39 64  1  0  0  0
 39 67  2  0  0  0
 40 52  1  0  0  0
 40 53  2  0  0  0
 40 58  1  0  0  0
 41117  1  0  0  0
 41118  1  0  0  0
 41119  1  0  0  0
 41 48  1  0  0  0
 42 43  1  0  0  0
 42 66  1  0  0  0
 42120  1  0  0  0
 42121  1  0  0  0
 43 44  1  0  0  0
 44122  1  0  0  0
 45 46  2  0  0  0
 45123  1  0  0  0
 46124  1  0  0  0
 47125  1  0  0  0
 47126  1  0  0  0
 48 56  1  0  0  0
 48 65  1  0  0  0
 48127  1  0  0  0
 49 50  1  0  0  0
 49 53  1  0  0  0
 49 64  1  0  0  0
 49128  1  0  0  0
 50 51  1  0  0  0
 50129  1  0  0  0
 50130  1  0  0  0
 51 52  1  0  0  0
 51131  1  0  0  0
 51132  1  0  0  0
 52133  1  0  0  0
 52134  1  0  0  0
 53 54  1  0  0  0
 54 55  2  0  0  0
 54135  1  0  0  0
 55 57  1  0  0  0
 55136  1  0  0  0
 56 69  2  0  0  0
 57 58  2  0  0  0
 57137  1  0  0  0
 58138  1  0  0  0
 59 60  1  0  0  0
 59 61  1  0  0  0
 59 62  1  0  0  0
 60139  1  0  0  0
 60140  1  0  0  0
 60141  1  0  0  0
 61142  1  0  0  0
 61143  1  0  0  0
 61144  1  0  0  0
 62145  1  0  0  0
 62146  1  0  0  0
 62147  1  0  0  0
 63 65  1  0  0  0
 63148  1  0  0  0
 63149  1  0  0  0
 63150  1  0  0  0
 64151  1  0  0  0
 65152  1  0  0  0
 68 84  1  0  0  0
 71 74  2  0  0  0
 71 75  1  0  0  0
 71153  1  0  0  0
 72 74  1  0  0  0
 72 76  2  0  0  0
 72154  1  0  0  0
 73 75  2  0  0  0
 73 76  1  0  0  0
 73155  1  0  0  0
 74 87  1  0  0  0
 75 89  1  0  0  0
 76 90  1  0  0  0
 77 78  2  0  0  0
 77 80  1  0  0  0
 77 85  1  0  0  0
 78 88  1  0  0  0
 78 93  1  0  0  0
 79 85  2  0  0  0
 79 91  1  0  0  0
 79 93  1  0  0  0
 80 89  1  0  0  0
 80 92  2  0  0  0
 81 82  1  0  0  0
 81 84  1  0  0  0
 81 86  2  0  0  0
 82156  1  0  0  0
 82157  1  0  0  0
 82158  1  0  0  0
 83 91  1  0  0  0
 83159  1  0  0  0
 83160  1  0  0  0
 83 84  1  0  0  0
 84161  1  0  0  0
 86162  1  0  0  0
 87163  1  0  0  0
 87164  1  0  0  0
 88165  1  0  0  0
 88166  1  0  0  0
 89167  1  0  0  0
 90168  1  0  0  0
 91169  1  0  0  0
M  ISO  4   1 100  68 101  84 101  90 100
M  END
> <chiral flag>
0

> <version>
0

> <s_m_source_file>
/data/baiqing/PycharmProjects/Reinvent-master-3.2/result/LINK_invent/BTK/process_docking_weight1_custom_product_contain_oxygen_bond_distance_aromatic_linkinvent_7_9_3/rearranged_h_0159.sdf

> <i_m_source_file_index>
30

> <r_mmod_Potential_Energy-OPLS-2005>
164.831039428711

> <r_mmod_Stretch_Energy-OPLS-2005>
38.0324478149414

> <r_mmod_Bend_Energy-OPLS-2005>
113.988670349121

> <r_mmod_Torsional_Energy-OPLS-2005>
309.916076660156

> <r_mmod_Improper_Torsional_Energy-OPLS-2005>
14.9421949386597

> <r_mmod_Van_der_Waal_Energy-OPLS-2005>
136.058380126953

> <r_mmod_Electrostatic_Energy-OPLS-2005>
-187.290435791016

> <r_mmod_Solvation_Energy-OPLS-2005>
-272.354248046875

> <b_mmod_Minimization_Converged-OPLS-2005>
0

> <r_mmod_RMS_Derivative-OPLS-2005>
7.10371589660645

$$$$
30
                    3D
 Structure written by MMmdl.
153161  0  0  1  0            999 V2000
  -30.6717  -14.5747   20.4942 C   0  0  0  0  0  0
  -30.4195  -12.3470   19.4573 C   0  0  0  0  0  0
  -29.5020  -12.4982   18.2260 C   0  0  0  0  0  0
  -28.0252  -12.3418   18.6386 C   0  0  0  0  0  0
  -27.6507  -13.2185   19.8642 C   0  0  2  0  0  0
  -28.6941  -13.0764   20.9965 C   0  0  0  0  0  0
  -25.2534  -13.8189   20.5681 C   0  0  0  0  0  0
  -24.1805  -13.0440   20.9191 C   0  0  0  0  0  0
  -24.6379  -11.6915   20.8746 C   0  0  0  0  0  0
  -23.9053  -10.4293   21.0406 C   0  0  0  0  0  0
  -24.3599   -9.4209   21.9191 C   0  0  0  0  0  0
  -23.6267   -8.2248   22.0764 C   0  0  0  0  0  0
  -22.4254   -8.0287   21.3548 C   0  0  0  0  0  0
  -21.9895   -9.0262   20.4653 C   0  0  0  0  0  0
  -22.7223  -10.2140   20.3058 C   0  0  0  0  0  0
  -21.6847   -6.0731   22.5273 C   0  0  0  0  0  0
  -21.4015   -6.5629   23.8210 C   0  0  0  0  0  0
  -21.3664   -5.6784   24.9174 C   0  0  0  0  0  0
  -21.6047   -4.3047   24.7225 C   0  0  0  0  0  0
  -21.8818   -3.8135   23.4343 C   0  0  0  0  0  0
  -21.9191   -4.6955   22.3397 C   0  0  0  0  0  0
  -22.7832  -13.5235   21.1852 C   0  0  0  0  0  0
  -22.1656   -4.2140   21.0975 F   0  0  0  0  0  0
  -21.5634   -3.4531   25.7739 F   0  0  0  0  0  0
  -30.0161  -13.3782   20.4297 N   0  0  0  0  0  0
  -26.2967  -12.9373   20.3335 N   0  0  0  0  0  0
  -25.9309  -11.6527   20.5770 N   0  0  0  0  0  0
  -22.0467  -12.8238   22.0412 N   0  0  0  0  0  0
  -25.4226  -15.1910   20.4076 N   0  0  0  0  0  0
  -31.8454  -14.6711   20.1271 O   0  0  0  0  0  0
  -21.6623   -6.8877   21.4238 O   0  0  0  0  0  0
  -22.3522  -14.5540   20.6699 O   0  0  0  0  0  0
  -24.6179  -31.8650   23.2101 C   0  0  0  0  0  0
  -25.9056  -32.4804   23.8402 C   0  0  1  0  0  0
  -27.2210  -27.3828   20.1115 C   0  0  0  0  0  0
  -25.5903  -33.8609   24.2319 N   0  0  0  0  0  0
  -23.4094  -30.4882   21.5511 C   0  0  2  0  0  0
  -24.8557  -28.9518   20.1133 C   0  0  0  0  0  0
  -22.7435  -29.4626   22.4970 C   0  0  0  0  0  0
  -18.0272  -28.1365   22.8489 C   0  0  0  0  0  0
  -24.1489  -36.7324   23.2642 C   0  0  0  0  0  0
  -25.9429  -30.8150   21.3726 C   0  0  0  0  0  0
  -26.0196  -29.4454   20.7184 C   0  0  0  0  0  0
  -27.2078  -28.6686   20.7151 C   0  0  0  0  0  0
  -26.0442  -26.9243   19.4831 C   0  0  0  0  0  0
  -24.8640  -27.6911   19.4936 C   0  0  0  0  0  0
  -23.6221  -29.8274   20.1632 C   0  0  0  0  0  0
  -25.4113  -36.3101   24.0320 C   0  0  1  0  0  0
  -20.5869  -28.3662   23.1313 C   0  0  2  0  0  0
  -20.6768  -26.9395   22.5419 C   0  0  0  0  0  0
  -19.5754  -26.6383   21.5211 C   0  0  0  0  0  0
  -18.1927  -26.7915   22.1612 C   0  0  0  0  0  0
  -19.1521  -28.8826   23.2901 C   0  0  0  0  0  0
  -18.9447  -30.1428   23.8922 C   0  0  0  0  0  0
  -17.6452  -30.6573   24.0558 C   0  0  0  0  0  0
  -25.9034  -34.9461   23.5115 C   0  0  0  0  0  0
  -16.5345  -29.9078   23.6319 C   0  0  0  0  0  0
  -16.7262  -28.6488   23.0353 C   0  0  0  0  0  0
  -26.4477  -31.6599   25.0741 C   0  0  0  0  0  0
  -25.3736  -31.3685   26.1483 C   0  0  0  0  0  0
  -27.0332  -30.3043   24.6152 C   0  0  0  0  0  0
  -27.6052  -32.4336   25.7499 C   0  0  0  0  0  0
  -27.5580  -37.1816   24.8455 C   0  0  0  0  0  0
  -21.4156  -29.3026   22.3712 N   0  0  0  0  0  0
  -26.4298  -37.3787   23.9392 N   0  0  0  0  0  0
  -24.6749  -31.0708   22.1028 N   0  0  0  0  0  0
  -23.4182  -28.8163   23.3026 O   0  0  0  0  0  0
  -28.3412  -26.5653   20.1274 O   0  0  0  0  0  0
  -26.5606  -34.8912   22.4684 O   0  0  0  0  0  0
  -23.5353  -32.1431   23.7459 O   0  0  0  0  0  0
  -31.3941  -17.5795   20.2678 C   0  0  0  0  0  0
  -31.2201  -18.9984   20.2270 C   0  0  0  0  0  0
  -30.1950  -17.0140   20.6226 C   0  0  0  0  0  0
  -29.8899  -19.2117   20.5235 C   0  0  0  0  0  0
  -28.7449  -22.7539   20.5797 C   0  0  0  0  0  0
  -28.7968  -24.0342   20.0943 C   0  0  0  0  0  0
  -29.3828  -21.5730   19.9613 C   0  0  0  0  0  0
  -32.3264  -19.9868   19.9382 C   0  0  0  0  0  0
  -28.1453  -25.2669   20.7681 C   0  0  0  0  0  0
  -29.2680  -20.4297   20.6923 N   0  0  0  0  0  0
  -29.9131  -15.6710   20.7930 N   0  0  0  0  0  0
  -29.9508  -21.6068   18.8652 O   0  0  0  0  0  0
  -29.2597  -18.0119   20.8098 O   0  0  0  0  0  0
  -29.4326  -24.3910   18.9654 O   0  0  0  0  0  0
  -31.4675  -12.4299   19.1657 H   0  0  0  0  0  0
  -30.3121  -11.3548   19.8984 H   0  0  0  0  0  0
  -29.7612  -11.7589   17.4672 H   0  0  0  0  0  0
  -29.6548  -13.4773   17.7672 H   0  0  0  0  0  0
  -27.8620  -11.2895   18.8771 H   0  0  0  0  0  0
  -27.3695  -12.5661   17.7965 H   0  0  0  0  0  0
  -27.6694  -14.2529   19.5199 H   0  0  0  0  0  0
  -28.6861  -12.0623   21.3987 H   0  0  0  0  0  0
  -28.4545  -13.7318   21.8356 H   0  0  0  0  0  0
  -25.2736   -9.5691   22.4780 H   0  0  0  0  0  0
  -23.9967   -7.4645   22.7497 H   0  0  0  0  0  0
  -21.0824   -8.8786   19.8964 H   0  0  0  0  0  0
  -22.3673  -10.9682   19.6177 H   0  0  0  0  0  0
  -21.2010   -7.6138   23.9709 H   0  0  0  0  0  0
  -21.1491   -6.0514   25.9077 H   0  0  0  0  0  0
  -22.0600   -2.7599   23.2841 H   0  0  0  0  0  0
  -22.4045  -11.9870   22.4768 H   0  0  0  0  0  0
  -21.1111  -13.1316   22.2646 H   0  0  0  0  0  0
  -24.6516  -15.8430   20.5062 H   0  0  0  0  0  0
  -26.2699  -15.6318   20.0731 H   0  0  0  0  0  0
  -26.7121  -32.5501   23.1155 H   0  0  0  0  0  0
  -25.0031  -33.9770   25.0446 H   0  0  0  0  0  0
  -22.6998  -31.3057   21.4124 H   0  0  0  0  0  0
  -23.3736  -35.9673   23.3298 H   0  0  0  0  0  0
  -24.3585  -36.8971   22.2060 H   0  0  0  0  0  0
  -23.7251  -37.6527   23.6681 H   0  0  0  0  0  0
  -26.0607  -31.5799   20.6043 H   0  0  0  0  0  0
  -26.8282  -30.8684   21.9947 H   0  0  0  0  0  0
  -28.1009  -29.0360   21.2032 H   0  0  0  0  0  0
  -26.0353  -25.9605   18.9935 H   0  0  0  0  0  0
  -23.9703  -27.3081   19.0204 H   0  0  0  0  0  0
  -23.7386  -30.6077   19.4101 H   0  0  0  0  0  0
  -22.7439  -29.2550   19.8609 H   0  0  0  0  0  0
  -25.1288  -36.1974   25.0811 H   0  0  0  0  0  0
  -20.9946  -28.3231   24.1437 H   0  0  0  0  0  0
  -20.5689  -26.2257   23.3601 H   0  0  0  0  0  0
  -21.6636  -26.7453   22.1209 H   0  0  0  0  0  0
  -19.6925  -25.6302   21.1228 H   0  0  0  0  0  0
  -19.6699  -27.3199   20.6747 H   0  0  0  0  0  0
  -17.4204  -26.6664   21.4007 H   0  0  0  0  0  0
  -18.0327  -26.0049   22.8997 H   0  0  0  0  0  0
  -19.7921  -30.7231   24.2328 H   0  0  0  0  0  0
  -17.5008  -31.6256   24.5149 H   0  0  0  0  0  0
  -15.5349  -30.2995   23.7622 H   0  0  0  0  0  0
  -15.8653  -28.0810   22.7076 H   0  0  0  0  0  0
  -24.5918  -30.7030   25.7801 H   0  0  0  0  0  0
  -24.8902  -32.2819   26.4959 H   0  0  0  0  0  0
  -25.8084  -30.8831   27.0226 H   0  0  0  0  0  0
  -26.2885  -29.6785   24.1221 H   0  0  0  0  0  0
  -27.4103  -29.7309   25.4629 H   0  0  0  0  0  0
  -27.8718  -30.4362   23.9315 H   0  0  0  0  0  0
  -27.2680  -33.3648   26.2070 H   0  0  0  0  0  0
  -28.3853  -32.6887   25.0311 H   0  0  0  0  0  0
  -28.0731  -31.8469   26.5416 H   0  0  0  0  0  0
  -28.2584  -38.0126   24.7516 H   0  0  0  0  0  0
  -28.1085  -36.2651   24.6268 H   0  0  0  0  0  0
  -27.2291  -37.1459   25.8859 H   0  0  0  0  0  0
  -20.9321  -29.8747   21.6932 H   0  0  0  0  0  0
  -26.0179  -38.2863   24.1411 H   0  0  0  0  0  0
  -32.3194  -17.0568   20.0722 H   0  0  0  0  0  0
  -28.1958  -22.6037   21.4989 H   0  0  0  0  0  0
  -33.2898  -19.5656   20.2266 H   0  0  0  0  0  0
  -32.1941  -20.9189   20.4869 H   0  0  0  0  0  0
  -32.3656  -20.2142   18.8730 H   0  0  0  0  0  0
  -28.5677  -25.3447   21.7692 H   0  0  0  0  0  0
  -27.0909  -25.0334   20.9204 H   0  0  0  0  0  0
  -28.6247  -20.4789   21.4683 H   0  0  0  0  0  0
  -28.9669  -15.4610   21.0701 H   0  0  0  0  0  0
  -29.8088  -23.6003   18.5890 H   0  0  0  0  0  0
  1 25  1  0  0  0
  1 30  2  0  0  0
  1 81  1  0  0  0
  2  3  1  0  0  0
  2 25  1  0  0  0
  2 85  1  0  0  0
  2 86  1  0  0  0
  3  4  1  0  0  0
  3 87  1  0  0  0
  3 88  1  0  0  0
  4  5  1  0  0  0
  4 89  1  0  0  0
  4 90  1  0  0  0
  5  6  1  0  0  0
  5 26  1  0  0  0
  5 91  1  0  0  0
  6 25  1  0  0  0
  6 92  1  0  0  0
  6 93  1  0  0  0
  7  8  2  0  0  0
  7 26  1  0  0  0
  7 29  1  0  0  0
  8  9  1  0  0  0
  8 22  1  0  0  0
  9 10  1  0  0  0
  9 27  2  0  0  0
 10 11  2  0  0  0
 10 15  1  0  0  0
 11 12  1  0  0  0
 11 94  1  0  0  0
 12 13  2  0  0  0
 12 95  1  0  0  0
 13 14  1  0  0  0
 13 31  1  0  0  0
 14 15  2  0  0  0
 14 96  1  0  0  0
 15 97  1  0  0  0
 16 17  2  0  0  0
 16 21  1  0  0  0
 16 31  1  0  0  0
 17 18  1  0  0  0
 17 98  1  0  0  0
 18 19  2  0  0  0
 18 99  1  0  0  0
 19 20  1  0  0  0
 19 24  1  0  0  0
 20 21  2  0  0  0
 20100  1  0  0  0
 21 23  1  0  0  0
 22 28  1  0  0  0
 22 32  2  0  0  0
 26 27  1  0  0  0
 28101  1  0  0  0
 28102  1  0  0  0
 29103  1  0  0  0
 29104  1  0  0  0
 33 34  1  0  0  0
 33 66  1  0  0  0
 33 70  2  0  0  0
 34 36  1  0  0  0
 34 59  1  0  0  0
 34105  1  0  0  0
 35 44  2  0  0  0
 35 45  1  0  0  0
 35 68  1  0  0  0
 36 56  1  0  0  0
 36106  1  0  0  0
 37 39  1  0  0  0
 37 47  1  0  0  0
 37 66  1  0  0  0
 37107  1  0  0  0
 38 43  2  0  0  0
 38 46  1  0  0  0
 38 47  1  0  0  0
 39 64  1  0  0  0
 39 67  2  0  0  0
 40 52  1  0  0  0
 40 53  2  0  0  0
 40 58  1  0  0  0
 41108  1  0  0  0
 41109  1  0  0  0
 41110  1  0  0  0
 41 48  1  0  0  0
 42 43  1  0  0  0
 42 66  1  0  0  0
 42111  1  0  0  0
 42112  1  0  0  0
 43 44  1  0  0  0
 44113  1  0  0  0
 45 46  2  0  0  0
 45114  1  0  0  0
 46115  1  0  0  0
 47116  1  0  0  0
 47117  1  0  0  0
 48 56  1  0  0  0
 48 65  1  0  0  0
 48118  1  0  0  0
 49 50  1  0  0  0
 49 53  1  0  0  0
 49 64  1  0  0  0
 49119  1  0  0  0
 50 51  1  0  0  0
 50120  1  0  0  0
 50121  1  0  0  0
 51 52  1  0  0  0
 51122  1  0  0  0
 51123  1  0  0  0
 52124  1  0  0  0
 52125  1  0  0  0
 53 54  1  0  0  0
 54 55  2  0  0  0
 54126  1  0  0  0
 55 57  1  0  0  0
 55127  1  0  0  0
 56 69  2  0  0  0
 57 58  2  0  0  0
 57128  1  0  0  0
 58129  1  0  0  0
 59 60  1  0  0  0
 59 61  1  0  0  0
 59 62  1  0  0  0
 60130  1  0  0  0
 60131  1  0  0  0
 60132  1  0  0  0
 61133  1  0  0  0
 61134  1  0  0  0
 61135  1  0  0  0
 62136  1  0  0  0
 62137  1  0  0  0
 62138  1  0  0  0
 63 65  1  0  0  0
 63139  1  0  0  0
 63140  1  0  0  0
 63141  1  0  0  0
 64142  1  0  0  0
 65143  1  0  0  0
 68 79  1  0  0  0
 71 72  1  0  0  0
 71 73  2  0  0  0
 71144  1  0  0  0
 72 74  2  0  0  0
 72 78  1  0  0  0
 73 81  1  0  0  0
 73 83  1  0  0  0
 74 80  1  0  0  0
 74 83  1  0  0  0
 75 76  2  0  0  0
 75 77  1  0  0  0
 75145  1  0  0  0
 76 79  1  0  0  0
 76 84  1  0  0  0
 77 80  1  0  0  0
 77 82  2  0  0  0
 78146  1  0  0  0
 78147  1  0  0  0
 78148  1  0  0  0
 79149  1  0  0  0
 79150  1  0  0  0
 80151  1  0  0  0
 81152  1  0  0  0
 84153  1  0  0  0
M  ISO  4   1 100  68 101  79 101  81 100
M  END
> <chiral flag>
0

> <version>
0

> <s_m_source_file>
/data/baiqing/PycharmProjects/Reinvent-master-3.2/result/LINK_invent/BTK/process_docking_weight1_custom_product_contain_oxygen_bond_distance_aromatic_linkinvent_7_9_3/rearranged_h_0159.sdf

> <i_m_source_file_index>
31

> <r_mmod_Potential_Energy-OPLS-2005>
-55.7449493408203

> <r_mmod_Stretch_Energy-OPLS-2005>
52.084056854248

> <r_mmod_Bend_Energy-OPLS-2005>
126.903915405273

> <r_mmod_Torsional_Energy-OPLS-2005>
236.863998413086

> <r_mmod_Improper_Torsional_Energy-OPLS-2005>
5.13230895996094

> <r_mmod_Van_der_Waal_Energy-OPLS-2005>
139.942825317383

> <r_mmod_Electrostatic_Energy-OPLS-2005>
-415.335906982422

> <r_mmod_Solvation_Energy-OPLS-2005>
-231.775421142578

> <b_mmod_Minimization_Converged-OPLS-2005>
0

> <r_mmod_RMS_Derivative-OPLS-2005>
1.92493879795074

$$$$
31
                    3D
 Structure written by MMmdl.
165173  0  0  1  0            999 V2000
  -30.7282  -14.4473   20.5962 C   0  0  0  0  0  0
  -30.4177  -12.2991   19.4255 C   0  0  0  0  0  0
  -29.4965  -12.5121   18.2085 C   0  0  0  0  0  0
  -28.0176  -12.3680   18.6184 C   0  0  0  0  0  0
  -27.6631  -13.2075   19.8752 C   0  0  2  0  0  0
  -28.7020  -12.9894   20.9990 C   0  0  0  0  0  0
  -25.2590  -13.8168   20.5682 C   0  0  0  0  0  0
  -24.1838  -13.0447   20.9169 C   0  0  0  0  0  0
  -24.6391  -11.6911   20.8716 C   0  0  0  0  0  0
  -23.9054  -10.4296   21.0392 C   0  0  0  0  0  0
  -24.3603   -9.4217   21.9174 C   0  0  0  0  0  0
  -23.6279   -8.2255   22.0750 C   0  0  0  0  0  0
  -22.4255   -8.0286   21.3551 C   0  0  0  0  0  0
  -21.9888   -9.0257   20.4650 C   0  0  0  0  0  0
  -22.7227  -10.2133   20.3046 C   0  0  0  0  0  0
  -21.6852   -6.0727   22.5274 C   0  0  0  0  0  0
  -21.4021   -6.5635   23.8208 C   0  0  0  0  0  0
  -21.3663   -5.6782   24.9168 C   0  0  0  0  0  0
  -21.6037   -4.3045   24.7219 C   0  0  0  0  0  0
  -21.8822   -3.8142   23.4344 C   0  0  0  0  0  0
  -21.9199   -4.6956   22.3399 C   0  0  0  0  0  0
  -22.7854  -13.5246   21.1827 C   0  0  0  0  0  0
  -22.1659   -4.2142   21.0978 F   0  0  0  0  0  0
  -21.5628   -3.4529   25.7732 F   0  0  0  0  0  0
  -30.0381  -13.2833   20.4521 N   0  0  0  0  0  0
  -26.3026  -12.9341   20.3355 N   0  0  0  0  0  0
  -25.9314  -11.6495   20.5749 N   0  0  0  0  0  0
  -22.0478  -12.8255   22.0386 N   0  0  0  0  0  0
  -25.4346  -15.1876   20.4089 N   0  0  0  0  0  0
  -31.8300  -14.6221   20.0686 O   0  0  0  0  0  0
  -21.6633   -6.8872   21.4237 O   0  0  0  0  0  0
  -22.3550  -14.5556   20.6676 O   0  0  0  0  0  0
  -24.6119  -31.8694   23.2117 C   0  0  0  0  0  0
  -25.9029  -32.4824   23.8399 C   0  0  1  0  0  0
  -27.2364  -27.4571   20.1041 C   0  0  0  0  0  0
  -25.5883  -33.8615   24.2336 N   0  0  0  0  0  0
  -23.3987  -30.4918   21.5510 C   0  0  2  0  0  0
  -24.8487  -28.9612   20.1128 C   0  0  0  0  0  0
  -22.7397  -29.4657   22.4997 C   0  0  0  0  0  0
  -18.0267  -28.1368   22.8493 C   0  0  0  0  0  0
  -24.1481  -36.7326   23.2634 C   0  0  0  0  0  0
  -25.9234  -30.8420   21.3629 C   0  0  0  0  0  0
  -26.0037  -29.4766   20.7162 C   0  0  0  0  0  0
  -27.2009  -28.7282   20.7193 C   0  0  0  0  0  0
  -26.0764  -26.9589   19.4817 C   0  0  0  0  0  0
  -24.8784  -27.6985   19.4944 C   0  0  0  0  0  0
  -23.6069  -29.8220   20.1652 C   0  0  0  0  0  0
  -25.4090  -36.3104   24.0340 C   0  0  1  0  0  0
  -20.5855  -28.3646   23.1328 C   0  0  2  0  0  0
  -20.6762  -26.9383   22.5422 C   0  0  0  0  0  0
  -19.5738  -26.6379   21.5213 C   0  0  0  0  0  0
  -18.1913  -26.7919   22.1616 C   0  0  0  0  0  0
  -19.1516  -28.8823   23.2911 C   0  0  0  0  0  0
  -18.9449  -30.1436   23.8907 C   0  0  0  0  0  0
  -17.6452  -30.6575   24.0556 C   0  0  0  0  0  0
  -25.9018  -34.9469   23.5135 C   0  0  0  0  0  0
  -16.5344  -29.9077   23.6317 C   0  0  0  0  0  0
  -16.7259  -28.6495   23.0338 C   0  0  0  0  0  0
  -26.4473  -31.6594   25.0721 C   0  0  0  0  0  0
  -25.3747  -31.3706   26.1477 C   0  0  0  0  0  0
  -27.0304  -30.3038   24.6079 C   0  0  0  0  0  0
  -27.6060  -32.4302   25.7479 C   0  0  0  0  0  0
  -27.5575  -37.1799   24.8451 C   0  0  0  0  0  0
  -21.4124  -29.3022   22.3741 N   0  0  0  0  0  0
  -26.4274  -37.3794   23.9411 N   0  0  0  0  0  0
  -24.6623  -31.0819   22.1006 N   0  0  0  0  0  0
  -23.4179  -28.8207   23.3039 O   0  0  0  0  0  0
  -28.3702  -26.6813   20.0822 O   0  0  0  0  0  0
  -26.5586  -34.8925   22.4698 O   0  0  0  0  0  0
  -23.5323  -32.1439   23.7530 O   0  0  0  0  0  0
  -31.7977  -17.2585   21.3242 C   0  0  0  0  0  0
  -31.0824  -19.5925   21.4527 C   0  0  0  0  0  0
  -29.4275  -17.8018   21.4295 C   0  0  0  0  0  0
  -32.1109  -18.6327   21.3708 C   0  0  0  0  0  0
  -30.4497  -16.8229   21.3315 C   0  0  0  0  0  0
  -29.7307  -19.1880   21.4838 C   0  0  0  0  0  0
  -33.5028  -19.0668   21.3230 C   0  0  0  0  0  0
  -27.5967  -23.9356   21.4975 C   0  0  0  0  0  0
  -27.5848  -22.3773   21.4561 C   0  0  0  0  0  0
  -30.1952  -26.8941   21.6093 C   0  0  0  0  0  0
  -28.9366  -24.6859   21.3870 C   0  0  0  0  0  0
  -28.9074  -21.5850   21.4814 C   0  0  0  0  0  0
  -28.8325  -26.2346   21.3617 C   0  0  2  0  0  0
  -34.3474  -18.5323   20.4449 N   0  0  0  0  0  0
  -30.0887  -15.4337   21.2580 N   0  0  0  0  0  0
  -28.6880  -20.1295   21.5588 N   0  0  0  0  0  0
  -33.9504  -20.0066   22.1528 N   0  3  0  0  0  0
  -26.5301  -24.5472   21.6455 O   0  0  0  0  0  0
  -26.5067  -21.7665   21.4073 O   0  0  0  0  0  0
  -31.4644  -12.3817   19.1249 H   0  0  0  0  0  0
  -30.3046  -11.2887   19.8201 H   0  0  0  0  0  0
  -29.7402  -11.7961   17.4216 H   0  0  0  0  0  0
  -29.6703  -13.5030   17.7865 H   0  0  0  0  0  0
  -27.8283  -11.3128   18.8159 H   0  0  0  0  0  0
  -27.3709  -12.6430   17.7843 H   0  0  0  0  0  0
  -27.7108  -14.2557   19.5795 H   0  0  0  0  0  0
  -28.6708  -11.9553   21.3443 H   0  0  0  0  0  0
  -28.4598  -13.5922   21.8754 H   0  0  0  0  0  0
  -25.2749   -9.5695   22.4756 H   0  0  0  0  0  0
  -23.9995   -7.4638   22.7464 H   0  0  0  0  0  0
  -21.0820   -8.8775   19.8950 H   0  0  0  0  0  0
  -22.3687  -10.9661   19.6146 H   0  0  0  0  0  0
  -21.2013   -7.6139   23.9712 H   0  0  0  0  0  0
  -21.1478   -6.0510   25.9072 H   0  0  0  0  0  0
  -22.0601   -2.7600   23.2851 H   0  0  0  0  0  0
  -22.4057  -11.9916   22.4797 H   0  0  0  0  0  0
  -21.1096  -13.1316   22.2554 H   0  0  0  0  0  0
  -24.6715  -15.8486   20.5100 H   0  0  0  0  0  0
  -26.2836  -15.6176   20.0640 H   0  0  0  0  0  0
  -26.7106  -32.5559   23.1175 H   0  0  0  0  0  0
  -25.0023  -33.9776   25.0468 H   0  0  0  0  0  0
  -22.6857  -31.3068   21.4114 H   0  0  0  0  0  0
  -23.3736  -35.9668   23.3299 H   0  0  0  0  0  0
  -24.3589  -36.8936   22.2050 H   0  0  0  0  0  0
  -23.7249  -37.6532   23.6660 H   0  0  0  0  0  0
  -26.0285  -31.6056   20.5908 H   0  0  0  0  0  0
  -26.8117  -30.9013   21.9790 H   0  0  0  0  0  0
  -28.0899  -29.1232   21.1893 H   0  0  0  0  0  0
  -26.0968  -25.9872   19.0081 H   0  0  0  0  0  0
  -23.9911  -27.2932   19.0278 H   0  0  0  0  0  0
  -23.7076  -30.5937   19.4014 H   0  0  0  0  0  0
  -22.7323  -29.2364   19.8747 H   0  0  0  0  0  0
  -25.1259  -36.1968   25.0833 H   0  0  0  0  0  0
  -20.9940  -28.3219   24.1449 H   0  0  0  0  0  0
  -20.5653  -26.2246   23.3606 H   0  0  0  0  0  0
  -21.6637  -26.7428   22.1219 H   0  0  0  0  0  0
  -19.6898  -25.6294   21.1230 H   0  0  0  0  0  0
  -19.6679  -27.3195   20.6752 H   0  0  0  0  0  0
  -17.4188  -26.6679   21.4015 H   0  0  0  0  0  0
  -18.0294  -26.0048   22.8989 H   0  0  0  0  0  0
  -19.7929  -30.7253   24.2267 H   0  0  0  0  0  0
  -17.5012  -31.6257   24.5158 H   0  0  0  0  0  0
  -15.5344  -30.2979   23.7640 H   0  0  0  0  0  0
  -15.8659  -28.0821   22.7037 H   0  0  0  0  0  0
  -24.5886  -30.7089   25.7822 H   0  0  0  0  0  0
  -24.8972  -32.2867   26.4964 H   0  0  0  0  0  0
  -25.8096  -30.8843   27.0219 H   0  0  0  0  0  0
  -26.2839  -29.6807   24.1141 H   0  0  0  0  0  0
  -27.4083  -29.7269   25.4535 H   0  0  0  0  0  0
  -27.8671  -30.4355   23.9211 H   0  0  0  0  0  0
  -27.2686  -33.3581   26.2115 H   0  0  0  0  0  0
  -28.3842  -32.6896   25.0287 H   0  0  0  0  0  0
  -28.0764  -31.8388   26.5350 H   0  0  0  0  0  0
  -28.2575  -38.0114   24.7522 H   0  0  0  0  0  0
  -28.1083  -36.2648   24.6226 H   0  0  0  0  0  0
  -27.2313  -37.1399   25.8857 H   0  0  0  0  0  0
  -20.9276  -29.8750   21.6971 H   0  0  0  0  0  0
  -26.0172  -38.2869   24.1423 H   0  0  0  0  0  0
  -32.6111  -16.5488   21.2859 H   0  0  0  0  0  0
  -31.3498  -20.6395   21.4749 H   0  0  0  0  0  0
  -28.3936  -17.4878   21.4465 H   0  0  0  0  0  0
  -30.5969  -26.6079   22.5819 H   0  0  0  0  0  0
  -30.1190  -27.9814   21.5958 H   0  0  0  0  0  0
  -30.9204  -26.6031   20.8484 H   0  0  0  0  0  0
  -29.4722  -24.3326   20.5055 H   0  0  0  0  0  0
  -29.5314  -24.3902   22.2511 H   0  0  0  0  0  0
  -29.4911  -21.9186   22.3402 H   0  0  0  0  0  0
  -29.4743  -21.8309   20.5829 H   0  0  0  0  0  0
  -28.1617  -26.5544   22.1636 H   0  0  0  0  0  0
  -33.9959  -17.8667   19.7713 H   0  0  0  0  0  0
  -35.3134  -18.8081   20.3752 H   0  0  0  0  0  0
  -29.1666  -15.1880   21.5858 H   0  0  0  0  0  0
  -27.7141  -19.8332   21.5278 H   0  0  0  0  0  0
  -33.3288  -20.3801   22.8556 H   0  0  0  0  0  0
  -34.9021  -20.3364   22.1365 H   0  0  0  0  0  0
  1 25  1  0  0  0
  1 30  2  0  0  0
  1 85  1  0  0  0
  2  3  1  0  0  0
  2 25  1  0  0  0
  2 90  1  0  0  0
  2 91  1  0  0  0
  3  4  1  0  0  0
  3 92  1  0  0  0
  3 93  1  0  0  0
  4  5  1  0  0  0
  4 94  1  0  0  0
  4 95  1  0  0  0
  5  6  1  0  0  0
  5 26  1  0  0  0
  5 96  1  0  0  0
  6 25  1  0  0  0
  6 97  1  0  0  0
  6 98  1  0  0  0
  7  8  2  0  0  0
  7 26  1  0  0  0
  7 29  1  0  0  0
  8  9  1  0  0  0
  8 22  1  0  0  0
  9 10  1  0  0  0
  9 27  2  0  0  0
 10 11  2  0  0  0
 10 15  1  0  0  0
 11 12  1  0  0  0
 11 99  1  0  0  0
 12 13  2  0  0  0
 12100  1  0  0  0
 13 14  1  0  0  0
 13 31  1  0  0  0
 14 15  2  0  0  0
 14101  1  0  0  0
 15102  1  0  0  0
 16 17  2  0  0  0
 16 21  1  0  0  0
 16 31  1  0  0  0
 17 18  1  0  0  0
 17103  1  0  0  0
 18 19  2  0  0  0
 18104  1  0  0  0
 19 20  1  0  0  0
 19 24  1  0  0  0
 20 21  2  0  0  0
 20105  1  0  0  0
 21 23  1  0  0  0
 22 28  1  0  0  0
 22 32  2  0  0  0
 26 27  1  0  0  0
 28106  1  0  0  0
 28107  1  0  0  0
 29108  1  0  0  0
 29109  1  0  0  0
 33 34  1  0  0  0
 33 66  1  0  0  0
 33 70  2  0  0  0
 34 36  1  0  0  0
 34 59  1  0  0  0
 34110  1  0  0  0
 35 44  2  0  0  0
 35 45  1  0  0  0
 35 68  1  0  0  0
 36 56  1  0  0  0
 36111  1  0  0  0
 37 39  1  0  0  0
 37 47  1  0  0  0
 37 66  1  0  0  0
 37112  1  0  0  0
 38 43  2  0  0  0
 38 46  1  0  0  0
 38 47  1  0  0  0
 39 64  1  0  0  0
 39 67  2  0  0  0
 40 52  1  0  0  0
 40 53  2  0  0  0
 40 58  1  0  0  0
 41113  1  0  0  0
 41114  1  0  0  0
 41115  1  0  0  0
 41 48  1  0  0  0
 42 43  1  0  0  0
 42 66  1  0  0  0
 42116  1  0  0  0
 42117  1  0  0  0
 43 44  1  0  0  0
 44118  1  0  0  0
 45 46  2  0  0  0
 45119  1  0  0  0
 46120  1  0  0  0
 47121  1  0  0  0
 47122  1  0  0  0
 48 56  1  0  0  0
 48 65  1  0  0  0
 48123  1  0  0  0
 49 50  1  0  0  0
 49 53  1  0  0  0
 49 64  1  0  0  0
 49124  1  0  0  0
 50 51  1  0  0  0
 50125  1  0  0  0
 50126  1  0  0  0
 51 52  1  0  0  0
 51127  1  0  0  0
 51128  1  0  0  0
 52129  1  0  0  0
 52130  1  0  0  0
 53 54  1  0  0  0
 54 55  2  0  0  0
 54131  1  0  0  0
 55 57  1  0  0  0
 55132  1  0  0  0
 56 69  2  0  0  0
 57 58  2  0  0  0
 57133  1  0  0  0
 58134  1  0  0  0
 59 60  1  0  0  0
 59 61  1  0  0  0
 59 62  1  0  0  0
 60135  1  0  0  0
 60136  1  0  0  0
 60137  1  0  0  0
 61138  1  0  0  0
 61139  1  0  0  0
 61140  1  0  0  0
 62141  1  0  0  0
 62142  1  0  0  0
 62143  1  0  0  0
 63 65  1  0  0  0
 63144  1  0  0  0
 63145  1  0  0  0
 63146  1  0  0  0
 64147  1  0  0  0
 65148  1  0  0  0
 68 83  1  0  0  0
 71 74  2  0  0  0
 71 75  1  0  0  0
 71149  1  0  0  0
 72 74  1  0  0  0
 72 76  2  0  0  0
 72150  1  0  0  0
 73 75  2  0  0  0
 73 76  1  0  0  0
 73151  1  0  0  0
 74 77  1  0  0  0
 75 85  1  0  0  0
 76 86  1  0  0  0
 77 84  1  0  0  0
 77 87  2  0  0  0
 78 79  1  0  0  0
 78 81  1  0  0  0
 78 88  2  0  0  0
 79 82  1  0  0  0
 79 89  2  0  0  0
 80152  1  0  0  0
 80153  1  0  0  0
 80154  1  0  0  0
 80 83  1  0  0  0
 81 83  1  0  0  0
 81155  1  0  0  0
 81156  1  0  0  0
 82 86  1  0  0  0
 82157  1  0  0  0
 82158  1  0  0  0
 83159  1  0  0  0
 84160  1  0  0  0
 84161  1  0  0  0
 85162  1  0  0  0
 86163  1  0  0  0
 87164  1  0  0  0
 87165  1  0  0  0
M  CHG  1  87   1
M  ISO  4   1 100  68 101  83 101  85 100
M  END
> <chiral flag>
0

> <version>
0

> <s_m_source_file>
/data/baiqing/PycharmProjects/Reinvent-master-3.2/result/LINK_invent/BTK/process_docking_weight1_custom_product_contain_oxygen_bond_distance_aromatic_linkinvent_7_9_3/rearranged_h_0159.sdf

> <i_m_source_file_index>
32

> <r_mmod_Potential_Energy-OPLS-2005>
-292.923492431641

> <r_mmod_Stretch_Energy-OPLS-2005>
39.7024154663086

> <r_mmod_Bend_Energy-OPLS-2005>
108.151168823242

> <r_mmod_Torsional_Energy-OPLS-2005>
219.095062255859

> <r_mmod_Improper_Torsional_Energy-OPLS-2005>
3.40913772583008

> <r_mmod_Van_der_Waal_Energy-OPLS-2005>
155.917663574219

> <r_mmod_Electrostatic_Energy-OPLS-2005>
-337.665649414062

> <r_mmod_Solvation_Energy-OPLS-2005>
-491.556335449219

> <b_mmod_Minimization_Converged-OPLS-2005>
0

> <r_mmod_RMS_Derivative-OPLS-2005>
1.95816326141357

$$$$
32
                    3D
 Structure written by MMmdl.
163172  0  0  1  0            999 V2000
  -30.6940  -14.5048   20.5952 C   0  0  0  0  0  0
  -30.4330  -12.3342   19.4330 C   0  0  0  0  0  0
  -29.5003  -12.5241   18.2182 C   0  0  0  0  0  0
  -28.0214  -12.3783   18.6284 C   0  0  0  0  0  0
  -27.6651  -13.2131   19.8857 C   0  0  2  0  0  0
  -28.7068  -12.9935   21.0064 C   0  0  0  0  0  0
  -25.2596  -13.8182   20.5741 C   0  0  0  0  0  0
  -24.1829  -13.0449   20.9209 C   0  0  0  0  0  0
  -24.6383  -11.6912   20.8735 C   0  0  0  0  0  0
  -23.9036  -10.4298   21.0397 C   0  0  0  0  0  0
  -24.3591   -9.4217   21.9187 C   0  0  0  0  0  0
  -23.6282   -8.2241   22.0749 C   0  0  0  0  0  0
  -22.4271   -8.0269   21.3530 C   0  0  0  0  0  0
  -21.9890   -9.0240   20.4637 C   0  0  0  0  0  0
  -22.7199  -10.2133   20.3059 C   0  0  0  0  0  0
  -21.6852   -6.0724   22.5267 C   0  0  0  0  0  0
  -21.3997   -6.5632   23.8198 C   0  0  0  0  0  0
  -21.3672   -5.6788   24.9171 C   0  0  0  0  0  0
  -21.6067   -4.3049   24.7221 C   0  0  0  0  0  0
  -21.8820   -3.8132   23.4339 C   0  0  0  0  0  0
  -21.9188   -4.6948   22.3395 C   0  0  0  0  0  0
  -22.7849  -13.5230   21.1883 C   0  0  0  0  0  0
  -22.1669   -4.2138   21.0969 F   0  0  0  0  0  0
  -21.5643   -3.4535   25.7735 F   0  0  0  0  0  0
  -30.0425  -13.3120   20.4643 N   0  0  0  0  0  0
  -26.3032  -12.9363   20.3428 N   0  0  0  0  0  0
  -25.9319  -11.6511   20.5783 N   0  0  0  0  0  0
  -22.0486  -12.8195   22.0419 N   0  0  0  0  0  0
  -25.4344  -15.1904   20.4178 N   0  0  0  0  0  0
  -31.7738  -14.7377   20.0406 O   0  0  0  0  0  0
  -21.6636   -6.8865   21.4230 O   0  0  0  0  0  0
  -22.3509  -14.5539   20.6754 O   0  0  0  0  0  0
  -24.6182  -31.8665   23.2110 C   0  0  0  0  0  0
  -25.9061  -32.4820   23.8413 C   0  0  1  0  0  0
  -27.2303  -27.3989   20.0786 C   0  0  0  0  0  0
  -25.5910  -33.8621   24.2340 N   0  0  0  0  0  0
  -23.4068  -30.4929   21.5519 C   0  0  2  0  0  0
  -24.8507  -28.9590   20.1121 C   0  0  0  0  0  0
  -22.7423  -29.4658   22.4976 C   0  0  0  0  0  0
  -18.0280  -28.1366   22.8494 C   0  0  0  0  0  0
  -24.1487  -36.7317   23.2635 C   0  0  0  0  0  0
  -25.9420  -30.8148   21.3756 C   0  0  0  0  0  0
  -26.0134  -29.4479   20.7199 C   0  0  0  0  0  0
  -27.1989  -28.6689   20.7134 C   0  0  0  0  0  0
  -26.0454  -26.9478   19.4541 C   0  0  0  0  0  0
  -24.8620  -27.7062   19.4814 C   0  0  0  0  0  0
  -23.6163  -29.8305   20.1653 C   0  0  0  0  0  0
  -25.4105  -36.3115   24.0341 C   0  0  1  0  0  0
  -20.5875  -28.3664   23.1298 C   0  0  2  0  0  0
  -20.6765  -26.9392   22.5409 C   0  0  0  0  0  0
  -19.5745  -26.6374   21.5203 C   0  0  0  0  0  0
  -18.1924  -26.7916   22.1615 C   0  0  0  0  0  0
  -19.1532  -28.8829   23.2900 C   0  0  0  0  0  0
  -18.9454  -30.1434   23.8914 C   0  0  0  0  0  0
  -17.6454  -30.6578   24.0558 C   0  0  0  0  0  0
  -25.9033  -34.9476   23.5139 C   0  0  0  0  0  0
  -16.5347  -29.9075   23.6326 C   0  0  0  0  0  0
  -16.7265  -28.6487   23.0359 C   0  0  0  0  0  0
  -26.4467  -31.6617   25.0763 C   0  0  0  0  0  0
  -25.3726  -31.3742   26.1514 C   0  0  0  0  0  0
  -27.0297  -30.3051   24.6178 C   0  0  0  0  0  0
  -27.6046  -32.4334   25.7528 C   0  0  0  0  0  0
  -27.5587  -37.1815   24.8464 C   0  0  0  0  0  0
  -21.4149  -29.3047   22.3719 N   0  0  0  0  0  0
  -26.4295  -37.3795   23.9410 N   0  0  0  0  0  0
  -24.6743  -31.0728   22.1040 N   0  0  0  0  0  0
  -23.4184  -28.8190   23.3021 O   0  0  0  0  0  0
  -28.3921  -26.6354   20.1166 O   0  0  0  0  0  0
  -26.5587  -34.8919   22.4697 O   0  0  0  0  0  0
  -23.5363  -32.1439   23.7476 O   0  0  0  0  0  0
  -30.4036  -17.7089   20.2323 C   0  0  0  0  0  0
  -30.1302  -17.5554   22.5517 C   0  0  0  0  0  0
  -30.2373  -16.8568   21.3791 C   0  0  0  0  0  0
  -30.4359  -19.0616   20.5431 C   0  0  0  0  0  0
  -30.5928  -20.1757   19.5909 C   0  0  0  0  0  0
  -29.3212  -23.6323   20.7861 C   0  0  0  0  0  0
  -28.7632  -23.1382   18.3870 C   0  0  0  0  0  0
  -29.4967  -22.0793   20.9091 C   0  0  0  0  0  0
  -30.1089  -22.3840   18.5193 C   0  0  0  0  0  0
  -28.4108  -24.0608   19.5978 C   0  0  0  0  0  0
  -26.9394  -23.7952   19.9820 C   0  0  0  0  0  0
  -28.6149  -25.5664   19.1640 C   0  0  0  0  0  0
  -30.0945  -21.4617   19.6909 N   0  0  0  0  0  0
  -30.0685  -15.4310   21.3545 N   0  0  0  0  0  0
  -31.3012  -19.8599   18.4909 N   0  3  0  0  0  0
  -30.3090  -19.2736   22.2800 S   0  0  0  0  0  0
  -31.4759  -12.4464   19.1298 H   0  0  0  0  0  0
  -30.3497  -11.3225   19.8326 H   0  0  0  0  0  0
  -29.7468  -11.8004   17.4404 H   0  0  0  0  0  0
  -29.6661  -13.5096   17.7801 H   0  0  0  0  0  0
  -27.8324  -11.3220   18.8251 H   0  0  0  0  0  0
  -27.3695  -12.6544   17.7983 H   0  0  0  0  0  0
  -27.7101  -14.2636   19.5941 H   0  0  0  0  0  0
  -28.6864  -11.9561   21.3437 H   0  0  0  0  0  0
  -28.4508  -13.5850   21.8864 H   0  0  0  0  0  0
  -25.2743   -9.5714   22.4754 H   0  0  0  0  0  0
  -24.0017   -7.4633   22.7461 H   0  0  0  0  0  0
  -21.0830   -8.8735   19.8932 H   0  0  0  0  0  0
  -22.3647  -10.9670   19.6166 H   0  0  0  0  0  0
  -21.1970   -7.6136   23.9690 H   0  0  0  0  0  0
  -21.1514   -6.0524   25.9077 H   0  0  0  0  0  0
  -22.0589   -2.7588   23.2834 H   0  0  0  0  0  0
  -22.4093  -11.9837   22.4788 H   0  0  0  0  0  0
  -21.1112  -13.1216   22.2662 H   0  0  0  0  0  0
  -24.6765  -15.8549   20.5310 H   0  0  0  0  0  0
  -26.2976  -15.6249   20.1139 H   0  0  0  0  0  0
  -26.7134  -32.5506   23.1174 H   0  0  0  0  0  0
  -25.0121  -33.9792   25.0527 H   0  0  0  0  0  0
  -22.6984  -31.3126   21.4129 H   0  0  0  0  0  0
  -23.3758  -35.9645   23.3294 H   0  0  0  0  0  0
  -24.3596  -36.8933   22.2056 H   0  0  0  0  0  0
  -23.7227  -37.6514   23.6650 H   0  0  0  0  0  0
  -26.0620  -31.5802   20.6082 H   0  0  0  0  0  0
  -26.8286  -30.8655   21.9960 H   0  0  0  0  0  0
  -28.0926  -29.0353   21.1992 H   0  0  0  0  0  0
  -26.0018  -26.0038   18.9419 H   0  0  0  0  0  0
  -23.9699  -27.3218   19.0060 H   0  0  0  0  0  0
  -23.7255  -30.6075   19.4075 H   0  0  0  0  0  0
  -22.7392  -29.2538   19.8670 H   0  0  0  0  0  0
  -25.1281  -36.1996   25.0834 H   0  0  0  0  0  0
  -20.9969  -28.3216   24.1416 H   0  0  0  0  0  0
  -20.5654  -26.2266   23.3598 H   0  0  0  0  0  0
  -21.6633  -26.7417   22.1208 H   0  0  0  0  0  0
  -19.6905  -25.6284   21.1239 H   0  0  0  0  0  0
  -19.6695  -27.3180   20.6731 H   0  0  0  0  0  0
  -17.4196  -26.6675   21.4016 H   0  0  0  0  0  0
  -18.0324  -26.0047   22.8997 H   0  0  0  0  0  0
  -19.7926  -30.7246   24.2297 H   0  0  0  0  0  0
  -17.5006  -31.6262   24.5146 H   0  0  0  0  0  0
  -15.5350  -30.2981   23.7635 H   0  0  0  0  0  0
  -15.8663  -28.0803   22.7078 H   0  0  0  0  0  0
  -24.5890  -30.7095   25.7862 H   0  0  0  0  0  0
  -24.8929  -32.2906   26.4968 H   0  0  0  0  0  0
  -25.8079  -30.8914   27.0274 H   0  0  0  0  0  0
  -26.2856  -29.6833   24.1185 H   0  0  0  0  0  0
  -27.3990  -29.7282   25.4669 H   0  0  0  0  0  0
  -27.8730  -30.4367   23.9394 H   0  0  0  0  0  0
  -27.2678  -33.3637   26.2118 H   0  0  0  0  0  0
  -28.3855  -32.6887   25.0354 H   0  0  0  0  0  0
  -28.0709  -31.8446   26.5438 H   0  0  0  0  0  0
  -28.2596  -38.0118   24.7510 H   0  0  0  0  0  0
  -28.1091  -36.2647   24.6290 H   0  0  0  0  0  0
  -27.2308  -37.1469   25.8866 H   0  0  0  0  0  0
  -20.9305  -29.8805   21.6979 H   0  0  0  0  0  0
  -26.0193  -38.2882   24.1402 H   0  0  0  0  0  0
  -30.4696  -17.3136   19.2282 H   0  0  0  0  0  0
  -29.9713  -17.1843   23.5583 H   0  0  0  0  0  0
  -30.3098  -24.0844   20.6767 H   0  0  0  0  0  0
  -28.9327  -24.0409   21.7190 H   0  0  0  0  0  0
  -27.9898  -22.3808   18.2551 H   0  0  0  0  0  0
  -28.7530  -23.7000   17.4520 H   0  0  0  0  0  0
  -28.5496  -21.5914   21.1351 H   0  0  0  0  0  0
  -30.1587  -21.8987   21.7528 H   0  0  0  0  0  0
  -30.9439  -23.0807   18.6048 H   0  0  0  0  0  0
  -30.2571  -21.8362   17.5910 H   0  0  0  0  0  0
  -26.7853  -22.7760   20.3355 H   0  0  0  0  0  0
  -26.2745  -23.9132   19.1261 H   0  0  0  0  0  0
  -26.6077  -24.4657   20.7751 H   0  0  0  0  0  0
  -28.0690  -25.7672   18.2412 H   0  0  0  0  0  0
  -29.6598  -25.6685   18.8696 H   0  0  0  0  0  0
  -29.3208  -15.0641   21.9239 H   0  0  0  0  0  0
  -31.7189  -18.9475   18.3982 H   0  0  0  0  0  0
  -31.5042  -20.5404   17.7764 H   0  0  0  0  0  0
  1 25  1  0  0  0
  1 30  2  0  0  0
  1 84  1  0  0  0
  2  3  1  0  0  0
  2 25  1  0  0  0
  2 87  1  0  0  0
  2 88  1  0  0  0
  3  4  1  0  0  0
  3 89  1  0  0  0
  3 90  1  0  0  0
  4  5  1  0  0  0
  4 91  1  0  0  0
  4 92  1  0  0  0
  5  6  1  0  0  0
  5 26  1  0  0  0
  5 93  1  0  0  0
  6 25  1  0  0  0
  6 94  1  0  0  0
  6 95  1  0  0  0
  7  8  2  0  0  0
  7 26  1  0  0  0
  7 29  1  0  0  0
  8  9  1  0  0  0
  8 22  1  0  0  0
  9 10  1  0  0  0
  9 27  2  0  0  0
 10 11  2  0  0  0
 10 15  1  0  0  0
 11 12  1  0  0  0
 11 96  1  0  0  0
 12 13  2  0  0  0
 12 97  1  0  0  0
 13 14  1  0  0  0
 13 31  1  0  0  0
 14 15  2  0  0  0
 14 98  1  0  0  0
 15 99  1  0  0  0
 16 17  2  0  0  0
 16 21  1  0  0  0
 16 31  1  0  0  0
 17 18  1  0  0  0
 17100  1  0  0  0
 18 19  2  0  0  0
 18101  1  0  0  0
 19 20  1  0  0  0
 19 24  1  0  0  0
 20 21  2  0  0  0
 20102  1  0  0  0
 21 23  1  0  0  0
 22 28  1  0  0  0
 22 32  2  0  0  0
 26 27  1  0  0  0
 28103  1  0  0  0
 28104  1  0  0  0
 29105  1  0  0  0
 29106  1  0  0  0
 33 34  1  0  0  0
 33 66  1  0  0  0
 33 70  2  0  0  0
 34 36  1  0  0  0
 34 59  1  0  0  0
 34107  1  0  0  0
 35 44  2  0  0  0
 35 45  1  0  0  0
 35 68  1  0  0  0
 36 56  1  0  0  0
 36108  1  0  0  0
 37 39  1  0  0  0
 37 47  1  0  0  0
 37 66  1  0  0  0
 37109  1  0  0  0
 38 43  2  0  0  0
 38 46  1  0  0  0
 38 47  1  0  0  0
 39 64  1  0  0  0
 39 67  2  0  0  0
 40 52  1  0  0  0
 40 53  2  0  0  0
 40 58  1  0  0  0
 41110  1  0  0  0
 41111  1  0  0  0
 41112  1  0  0  0
 41 48  1  0  0  0
 42 43  1  0  0  0
 42 66  1  0  0  0
 42113  1  0  0  0
 42114  1  0  0  0
 43 44  1  0  0  0
 44115  1  0  0  0
 45 46  2  0  0  0
 45116  1  0  0  0
 46117  1  0  0  0
 47118  1  0  0  0
 47119  1  0  0  0
 48 56  1  0  0  0
 48 65  1  0  0  0
 48120  1  0  0  0
 49 50  1  0  0  0
 49 53  1  0  0  0
 49 64  1  0  0  0
 49121  1  0  0  0
 50 51  1  0  0  0
 50122  1  0  0  0
 50123  1  0  0  0
 51 52  1  0  0  0
 51124  1  0  0  0
 51125  1  0  0  0
 52126  1  0  0  0
 52127  1  0  0  0
 53 54  1  0  0  0
 54 55  2  0  0  0
 54128  1  0  0  0
 55 57  1  0  0  0
 55129  1  0  0  0
 56 69  2  0  0  0
 57 58  2  0  0  0
 57130  1  0  0  0
 58131  1  0  0  0
 59 60  1  0  0  0
 59 61  1  0  0  0
 59 62  1  0  0  0
 60132  1  0  0  0
 60133  1  0  0  0
 60134  1  0  0  0
 61135  1  0  0  0
 61136  1  0  0  0
 61137  1  0  0  0
 62138  1  0  0  0
 62139  1  0  0  0
 62140  1  0  0  0
 63 65  1  0  0  0
 63141  1  0  0  0
 63142  1  0  0  0
 63143  1  0  0  0
 64144  1  0  0  0
 65145  1  0  0  0
 68 82  1  0  0  0
 71 73  1  0  0  0
 71 74  2  0  0  0
 71146  1  0  0  0
 72 73  2  0  0  0
 72 86  1  0  0  0
 72147  1  0  0  0
 73 84  1  0  0  0
 74 75  1  0  0  0
 74 86  1  0  0  0
 75 83  1  0  0  0
 75 85  2  0  0  0
 76 78  1  0  0  0
 76 80  1  0  0  0
 76148  1  0  0  0
 76149  1  0  0  0
 77 79  1  0  0  0
 77 80  1  0  0  0
 77150  1  0  0  0
 77151  1  0  0  0
 78 83  1  0  0  0
 78152  1  0  0  0
 78153  1  0  0  0
 79 83  1  0  0  0
 79154  1  0  0  0
 79155  1  0  0  0
 80 81  1  0  0  0
 80 82  1  0  0  0
 81156  1  0  0  0
 81157  1  0  0  0
 81158  1  0  0  0
 82159  1  0  0  0
 82160  1  0  0  0
 84161  1  0  0  0
 85162  1  0  0  0
 85163  1  0  0  0
M  CHG  1  85   1
M  ISO  4   1 100  68 101  82 101  84 100
M  END
> <chiral flag>
0

> <version>
0

> <s_m_source_file>
/data/baiqing/PycharmProjects/Reinvent-master-3.2/result/LINK_invent/BTK/process_docking_weight1_custom_product_contain_oxygen_bond_distance_aromatic_linkinvent_7_9_3/rearranged_h_0159.sdf

> <i_m_source_file_index>
33

> <r_mmod_Potential_Energy-OPLS-2005>
-30.5100288391113

> <r_mmod_Stretch_Energy-OPLS-2005>
53.6943130493164

> <r_mmod_Bend_Energy-OPLS-2005>
139.378997802734

> <r_mmod_Torsional_Energy-OPLS-2005>
279.025360107422

> <r_mmod_Improper_Torsional_Energy-OPLS-2005>
2.5469012260437

> <r_mmod_Van_der_Waal_Energy-OPLS-2005>
158.246276855469

> <r_mmod_Electrostatic_Energy-OPLS-2005>
-242.619201660156

> <r_mmod_Solvation_Energy-OPLS-2005>
-438.606872558594

> <b_mmod_Minimization_Converged-OPLS-2005>
0

> <r_mmod_RMS_Derivative-OPLS-2005>
2.12597703933716

$$$$
33
                    3D
 Structure written by MMmdl.
162170  0  0  1  0            999 V2000
  -30.6553  -14.5442   20.5318 C   0  0  0  0  0  0
  -30.4274  -12.3405   19.4365 C   0  0  0  0  0  0
  -29.4968  -12.5025   18.2141 C   0  0  0  0  0  0
  -28.0178  -12.3550   18.6244 C   0  0  0  0  0  0
  -27.6564  -13.2072   19.8706 C   0  0  2  0  0  0
  -28.6989  -13.0177   20.9960 C   0  0  0  0  0  0
  -25.2574  -13.8154   20.5684 C   0  0  0  0  0  0
  -24.1829  -13.0439   20.9186 C   0  0  0  0  0  0
  -24.6377  -11.6906   20.8744 C   0  0  0  0  0  0
  -23.9053  -10.4296   21.0413 C   0  0  0  0  0  0
  -24.3613   -9.4212   21.9189 C   0  0  0  0  0  0
  -23.6295   -8.2242   22.0757 C   0  0  0  0  0  0
  -22.4279   -8.0280   21.3547 C   0  0  0  0  0  0
  -21.9917   -9.0251   20.4646 C   0  0  0  0  0  0
  -22.7234  -10.2130   20.3059 C   0  0  0  0  0  0
  -21.6848   -6.0743   22.5283 C   0  0  0  0  0  0
  -21.4009   -6.5646   23.8215 C   0  0  0  0  0  0
  -21.3655   -5.6798   24.9177 C   0  0  0  0  0  0
  -21.6046   -4.3064   24.7228 C   0  0  0  0  0  0
  -21.8821   -3.8157   23.4344 C   0  0  0  0  0  0
  -21.9190   -4.6971   22.3401 C   0  0  0  0  0  0
  -22.7853  -13.5243   21.1844 C   0  0  0  0  0  0
  -22.1663   -4.2157   21.0976 F   0  0  0  0  0  0
  -21.5629   -3.4548   25.7743 F   0  0  0  0  0  0
  -30.0217  -13.3403   20.4392 N   0  0  0  0  0  0
  -26.2997  -12.9320   20.3354 N   0  0  0  0  0  0
  -25.9305  -11.6486   20.5780 N   0  0  0  0  0  0
  -22.0498  -12.8226   22.0393 N   0  0  0  0  0  0
  -25.4325  -15.1868   20.4085 N   0  0  0  0  0  0
  -31.8077  -14.7050   20.1194 O   0  0  0  0  0  0
  -21.6639   -6.8882   21.4243 O   0  0  0  0  0  0
  -22.3554  -14.5565   20.6707 O   0  0  0  0  0  0
  -24.6194  -31.8637   23.2062 C   0  0  0  0  0  0
  -25.9056  -32.4800   23.8380 C   0  0  1  0  0  0
  -27.2303  -27.3782   20.0983 C   0  0  0  0  0  0
  -25.5887  -33.8603   24.2308 N   0  0  0  0  0  0
  -23.4086  -30.4870   21.5499 C   0  0  2  0  0  0
  -24.8523  -28.9465   20.1160 C   0  0  0  0  0  0
  -22.7434  -29.4631   22.4984 C   0  0  0  0  0  0
  -18.0265  -28.1383   22.8490 C   0  0  0  0  0  0
  -24.1486  -36.7296   23.2645 C   0  0  0  0  0  0
  -25.9436  -30.8130   21.3655 C   0  0  0  0  0  0
  -26.0163  -29.4428   20.7121 C   0  0  0  0  0  0
  -27.2044  -28.6676   20.6958 C   0  0  0  0  0  0
  -26.0341  -26.9045   19.5075 C   0  0  0  0  0  0
  -24.8590  -27.6797   19.5111 C   0  0  0  0  0  0
  -23.6166  -29.8184   20.1657 C   0  0  0  0  0  0
  -25.4107  -36.3090   24.0340 C   0  0  1  0  0  0
  -20.5862  -28.3670   23.1314 C   0  0  2  0  0  0
  -20.6751  -26.9407   22.5413 C   0  0  0  0  0  0
  -19.5726  -26.6390   21.5214 C   0  0  0  0  0  0
  -18.1906  -26.7935   22.1621 C   0  0  0  0  0  0
  -19.1516  -28.8844   23.2898 C   0  0  0  0  0  0
  -18.9443  -30.1456   23.8911 C   0  0  0  0  0  0
  -17.6442  -30.6590   24.0567 C   0  0  0  0  0  0
  -25.9034  -34.9458   23.5122 C   0  0  0  0  0  0
  -16.5335  -29.9087   23.6330 C   0  0  0  0  0  0
  -16.7254  -28.6506   23.0354 C   0  0  0  0  0  0
  -26.4482  -31.6584   25.0715 C   0  0  0  0  0  0
  -25.3732  -31.3670   26.1441 C   0  0  0  0  0  0
  -27.0328  -30.3024   24.6106 C   0  0  0  0  0  0
  -27.6050  -32.4320   25.7481 C   0  0  0  0  0  0
  -27.5578  -37.1797   24.8470 C   0  0  0  0  0  0
  -21.4153  -29.3030   22.3731 N   0  0  0  0  0  0
  -26.4290  -37.3772   23.9414 N   0  0  0  0  0  0
  -24.6760  -31.0709   22.0981 N   0  0  0  0  0  0
  -23.4192  -28.8156   23.3021 O   0  0  0  0  0  0
  -28.4130  -26.6432   20.1232 O   0  0  0  0  0  0
  -26.5618  -34.8909   22.4700 O   0  0  0  0  0  0
  -23.5378  -32.1394   23.7439 O   0  0  0  0  0  0
  -31.2876  -17.6626   20.4200 C   0  0  0  0  0  0
  -29.1591  -17.9741   21.0973 C   0  0  0  0  0  0
  -30.0957  -17.0029   20.8279 C   0  0  0  0  0  0
  -31.0659  -19.0143   20.4907 C   0  0  0  0  0  0
  -31.9588  -20.1127   20.2121 C   0  0  0  0  0  0
  -28.0242  -22.7582   20.0725 C   0  0  0  0  0  0
  -28.5111  -24.1271   20.6236 C   0  0  0  0  0  0
  -29.0405  -20.5426   21.0903 C   0  0  0  0  0  0
  -28.5056  -25.2954   19.5787 C   0  0  0  0  0  0
  -28.9949  -21.5385   19.8730 C   0  0  1  0  0  0
  -29.7340  -19.2364   20.8763 N   0  0  0  0  0  0
  -32.6040  -20.1337   19.0457 N   0  0  0  0  0  0
  -29.8775  -15.5806   20.9468 N   0  0  0  0  0  0
  -32.1515  -21.0874   21.1033 N   0  3  0  0  0  0
  -28.4741  -20.8406   18.6806 N   0  3  0  0  0  0
  -26.8268  -22.6576   19.7837 O   0  0  0  0  0  0
  -31.4708  -12.4518   19.1368 H   0  0  0  0  0  0
  -30.3435  -11.3374   19.8568 H   0  0  0  0  0  0
  -29.7472  -11.7662   17.4492 H   0  0  0  0  0  0
  -29.6493  -13.4814   17.7572 H   0  0  0  0  0  0
  -27.8339  -11.2999   18.8293 H   0  0  0  0  0  0
  -27.3666  -12.6172   17.7893 H   0  0  0  0  0  0
  -27.6891  -14.2500   19.5547 H   0  0  0  0  0  0
  -28.6920  -11.9856   21.3507 H   0  0  0  0  0  0
  -28.4559  -13.6283   21.8675 H   0  0  0  0  0  0
  -25.2757   -9.5685   22.4762 H   0  0  0  0  0  0
  -24.0006   -7.4636   22.7475 H   0  0  0  0  0  0
  -21.0852   -8.8761   19.8946 H   0  0  0  0  0  0
  -22.3697  -10.9669   19.6167 H   0  0  0  0  0  0
  -21.1997   -7.6156   23.9720 H   0  0  0  0  0  0
  -21.1477   -6.0531   25.9077 H   0  0  0  0  0  0
  -22.0600   -2.7619   23.2847 H   0  0  0  0  0  0
  -22.4130  -11.9875   22.4748 H   0  0  0  0  0  0
  -21.1112  -13.1231   22.2607 H   0  0  0  0  0  0
  -24.6679  -15.8442   20.5136 H   0  0  0  0  0  0
  -26.2813  -15.6198   20.0677 H   0  0  0  0  0  0
  -26.7121  -32.5482   23.1139 H   0  0  0  0  0  0
  -25.0033  -33.9788   25.0448 H   0  0  0  0  0  0
  -22.6968  -31.3031   21.4114 H   0  0  0  0  0  0
  -23.3744  -35.9631   23.3296 H   0  0  0  0  0  0
  -24.3579  -36.8914   22.2057 H   0  0  0  0  0  0
  -23.7231  -37.6493   23.6671 H   0  0  0  0  0  0
  -26.0633  -31.5760   20.5955 H   0  0  0  0  0  0
  -26.8307  -30.8681   21.9848 H   0  0  0  0  0  0
  -28.1053  -29.0528   21.1524 H   0  0  0  0  0  0
  -25.9622  -25.9337   19.0441 H   0  0  0  0  0  0
  -23.9610  -27.2908   19.0509 H   0  0  0  0  0  0
  -23.7208  -30.5911   19.4041 H   0  0  0  0  0  0
  -22.7404  -29.2366   19.8745 H   0  0  0  0  0  0
  -25.1293  -36.1953   25.0831 H   0  0  0  0  0  0
  -20.9960  -28.3226   24.1428 H   0  0  0  0  0  0
  -20.5642  -26.2280   23.3598 H   0  0  0  0  0  0
  -21.6616  -26.7424   22.1204 H   0  0  0  0  0  0
  -19.6876  -25.6300   21.1235 H   0  0  0  0  0  0
  -19.6670  -27.3208   20.6749 H   0  0  0  0  0  0
  -17.4174  -26.6686   21.4021 H   0  0  0  0  0  0
  -18.0295  -26.0077   22.9015 H   0  0  0  0  0  0
  -19.7912  -30.7273   24.2282 H   0  0  0  0  0  0
  -17.4988  -31.6273   24.5161 H   0  0  0  0  0  0
  -15.5335  -30.2993   23.7662 H   0  0  0  0  0  0
  -15.8644  -28.0841   22.7066 H   0  0  0  0  0  0
  -24.5947  -30.6985   25.7742 H   0  0  0  0  0  0
  -24.8885  -32.2814   26.4871 H   0  0  0  0  0  0
  -25.8070  -30.8839   27.0203 H   0  0  0  0  0  0
  -26.2877  -29.6764   24.1177 H   0  0  0  0  0  0
  -27.4108  -29.7278   25.4571 H   0  0  0  0  0  0
  -27.8710  -30.4335   23.9256 H   0  0  0  0  0  0
  -27.2674  -33.3634   26.2041 H   0  0  0  0  0  0
  -28.3865  -32.6848   25.0304 H   0  0  0  0  0  0
  -28.0710  -31.8447   26.5402 H   0  0  0  0  0  0
  -28.2582  -38.0101   24.7516 H   0  0  0  0  0  0
  -28.1086  -36.2631   24.6309 H   0  0  0  0  0  0
  -27.2299  -37.1449   25.8871 H   0  0  0  0  0  0
  -20.9326  -29.8766   21.6965 H   0  0  0  0  0  0
  -26.0173  -38.2851   24.1396 H   0  0  0  0  0  0
  -32.2296  -17.2165   20.1327 H   0  0  0  0  0  0
  -28.1324  -17.8879   21.4320 H   0  0  0  0  0  0
  -29.4980  -24.0207   21.0746 H   0  0  0  0  0  0
  -27.8327  -24.3905   21.4355 H   0  0  0  0  0  0
  -28.0202  -20.3265   21.4119 H   0  0  0  0  0  0
  -29.5015  -21.0350   21.9466 H   0  0  0  0  0  0
  -27.8011  -25.1091   18.7725 H   0  0  0  0  0  0
  -29.4706  -25.2580   19.0728 H   0  0  0  0  0  0
  -29.9970  -21.9073   19.6561 H   0  0  0  0  0  0
  -32.4725  -19.3687   18.4000 H   0  0  0  0  0  0
  -33.2702  -20.8428   18.7825 H   0  0  0  0  0  0
  -28.9645  -15.3008   21.2712 H   0  0  0  0  0  0
  -31.8137  -20.9580   22.0451 H   0  0  0  0  0  0
  -32.8125  -21.8338   20.9551 H   0  0  0  0  0  0
  -27.4833  -20.7100   18.8048 H   0  0  0  0  0  0
  -28.9174  -19.9522   18.5390 H   0  0  0  0  0  0
  -28.6003  -21.4101   17.8629 H   0  0  0  0  0  0
  1 25  1  0  0  0
  1 30  2  0  0  0
  1 83  1  0  0  0
  2  3  1  0  0  0
  2 25  1  0  0  0
  2 87  1  0  0  0
  2 88  1  0  0  0
  3  4  1  0  0  0
  3 89  1  0  0  0
  3 90  1  0  0  0
  4  5  1  0  0  0
  4 91  1  0  0  0
  4 92  1  0  0  0
  5  6  1  0  0  0
  5 26  1  0  0  0
  5 93  1  0  0  0
  6 25  1  0  0  0
  6 94  1  0  0  0
  6 95  1  0  0  0
  7  8  2  0  0  0
  7 26  1  0  0  0
  7 29  1  0  0  0
  8  9  1  0  0  0
  8 22  1  0  0  0
  9 10  1  0  0  0
  9 27  2  0  0  0
 10 11  2  0  0  0
 10 15  1  0  0  0
 11 12  1  0  0  0
 11 96  1  0  0  0
 12 13  2  0  0  0
 12 97  1  0  0  0
 13 14  1  0  0  0
 13 31  1  0  0  0
 14 15  2  0  0  0
 14 98  1  0  0  0
 15 99  1  0  0  0
 16 17  2  0  0  0
 16 21  1  0  0  0
 16 31  1  0  0  0
 17 18  1  0  0  0
 17100  1  0  0  0
 18 19  2  0  0  0
 18101  1  0  0  0
 19 20  1  0  0  0
 19 24  1  0  0  0
 20 21  2  0  0  0
 20102  1  0  0  0
 21 23  1  0  0  0
 22 28  1  0  0  0
 22 32  2  0  0  0
 26 27  1  0  0  0
 28103  1  0  0  0
 28104  1  0  0  0
 29105  1  0  0  0
 29106  1  0  0  0
 33 34  1  0  0  0
 33 66  1  0  0  0
 33 70  2  0  0  0
 34 36  1  0  0  0
 34 59  1  0  0  0
 34107  1  0  0  0
 35 44  2  0  0  0
 35 45  1  0  0  0
 35 68  1  0  0  0
 36 56  1  0  0  0
 36108  1  0  0  0
 37 39  1  0  0  0
 37 47  1  0  0  0
 37 66  1  0  0  0
 37109  1  0  0  0
 38 43  2  0  0  0
 38 46  1  0  0  0
 38 47  1  0  0  0
 39 64  1  0  0  0
 39 67  2  0  0  0
 40 52  1  0  0  0
 40 53  2  0  0  0
 40 58  1  0  0  0
 41110  1  0  0  0
 41111  1  0  0  0
 41112  1  0  0  0
 41 48  1  0  0  0
 42 43  1  0  0  0
 42 66  1  0  0  0
 42113  1  0  0  0
 42114  1  0  0  0
 43 44  1  0  0  0
 44115  1  0  0  0
 45 46  2  0  0  0
 45116  1  0  0  0
 46117  1  0  0  0
 47118  1  0  0  0
 47119  1  0  0  0
 48 56  1  0  0  0
 48 65  1  0  0  0
 48120  1  0  0  0
 49 50  1  0  0  0
 49 53  1  0  0  0
 49 64  1  0  0  0
 49121  1  0  0  0
 50 51  1  0  0  0
 50122  1  0  0  0
 50123  1  0  0  0
 51 52  1  0  0  0
 51124  1  0  0  0
 51125  1  0  0  0
 52126  1  0  0  0
 52127  1  0  0  0
 53 54  1  0  0  0
 54 55  2  0  0  0
 54128  1  0  0  0
 55 57  1  0  0  0
 55129  1  0  0  0
 56 69  2  0  0  0
 57 58  2  0  0  0
 57130  1  0  0  0
 58131  1  0  0  0
 59 60  1  0  0  0
 59 61  1  0  0  0
 59 62  1  0  0  0
 60132  1  0  0  0
 60133  1  0  0  0
 60134  1  0  0  0
 61135  1  0  0  0
 61136  1  0  0  0
 61137  1  0  0  0
 62138  1  0  0  0
 62139  1  0  0  0
 62140  1  0  0  0
 63 65  1  0  0  0
 63141  1  0  0  0
 63142  1  0  0  0
 63143  1  0  0  0
 64144  1  0  0  0
 65145  1  0  0  0
 68 79  1  0  0  0
 71 73  1  0  0  0
 71 74  2  0  0  0
 71146  1  0  0  0
 72 73  2  0  0  0
 72 81  1  0  0  0
 72147  1  0  0  0
 73 83  1  0  0  0
 74 75  1  0  0  0
 74 81  1  0  0  0
 75 82  1  0  0  0
 75 84  2  0  0  0
 76 77  1  0  0  0
 76 80  1  0  0  0
 76 86  2  0  0  0
 77 79  1  0  0  0
 77148  1  0  0  0
 77149  1  0  0  0
 78 80  1  0  0  0
 78 81  1  0  0  0
 78150  1  0  0  0
 78151  1  0  0  0
 79152  1  0  0  0
 79153  1  0  0  0
 80 85  1  0  0  0
 80154  1  0  0  0
 82155  1  0  0  0
 82156  1  0  0  0
 83157  1  0  0  0
 84158  1  0  0  0
 84159  1  0  0  0
 85160  1  0  0  0
 85161  1  0  0  0
 85162  1  0  0  0
M  CHG  2  84   1  85   1
M  ISO  4   1 100  68 101  79 101  83 100
M  END
> <chiral flag>
0

> <version>
0

> <s_m_source_file>
/data/baiqing/PycharmProjects/Reinvent-master-3.2/result/LINK_invent/BTK/process_docking_weight1_custom_product_contain_oxygen_bond_distance_aromatic_linkinvent_7_9_3/rearranged_h_0159.sdf

> <i_m_source_file_index>
34

> <r_mmod_Potential_Energy-OPLS-2005>
-639.399230957031

> <r_mmod_Stretch_Energy-OPLS-2005>
53.2629699707031

> <r_mmod_Bend_Energy-OPLS-2005>
133.97492980957

> <r_mmod_Torsional_Energy-OPLS-2005>
248.315231323242

> <r_mmod_Improper_Torsional_Energy-OPLS-2005>
4.80142068862915

> <r_mmod_Van_der_Waal_Energy-OPLS-2005>
127.554168701172

> <r_mmod_Electrostatic_Energy-OPLS-2005>
-128.892913818359

> <r_mmod_Solvation_Energy-OPLS-2005>
-1101.31518554688

> <b_mmod_Minimization_Converged-OPLS-2005>
0

> <r_mmod_RMS_Derivative-OPLS-2005>
1.60904181003571

$$$$
34
                    3D
 Structure written by MMmdl.
152160  0  0  1  0            999 V2000
  -30.5665  -14.8211   20.4606 C   0  0  0  0  0  0
  -30.4544  -12.5119   19.4771 C   0  0  0  0  0  0
  -29.5212  -12.5014   18.2458 C   0  0  0  0  0  0
  -28.0550  -12.2927   18.6721 C   0  0  0  0  0  0
  -27.6413  -13.2209   19.8453 C   0  0  2  0  0  0
  -28.6850  -13.1883   20.9831 C   0  0  0  0  0  0
  -25.2521  -13.8162   20.5669 C   0  0  0  0  0  0
  -24.1820  -13.0438   20.9215 C   0  0  0  0  0  0
  -24.6395  -11.6903   20.8771 C   0  0  0  0  0  0
  -23.9053  -10.4291   21.0431 C   0  0  0  0  0  0
  -24.3604   -9.4207   21.9199 C   0  0  0  0  0  0
  -23.6289   -8.2239   22.0765 C   0  0  0  0  0  0
  -22.4263   -8.0278   21.3557 C   0  0  0  0  0  0
  -21.9911   -9.0254   20.4650 C   0  0  0  0  0  0
  -22.7237  -10.2131   20.3073 C   0  0  0  0  0  0
  -21.6852   -6.0736   22.5275 C   0  0  0  0  0  0
  -21.4011   -6.5646   23.8218 C   0  0  0  0  0  0
  -21.3644   -5.6795   24.9179 C   0  0  0  0  0  0
  -21.6055   -4.3066   24.7222 C   0  0  0  0  0  0
  -21.8814   -3.8150   23.4347 C   0  0  0  0  0  0
  -21.9193   -4.6960   22.3395 C   0  0  0  0  0  0
  -22.7843  -13.5231   21.1861 C   0  0  0  0  0  0
  -22.1664   -4.2151   21.0975 F   0  0  0  0  0  0
  -21.5621   -3.4529   25.7731 F   0  0  0  0  0  0
  -29.9754  -13.5717   20.3974 N   0  0  0  0  0  0
  -26.2942  -12.9355   20.3273 N   0  0  0  0  0  0
  -25.9328  -11.6506   20.5760 N   0  0  0  0  0  0
  -22.0454  -12.8243   22.0385 N   0  0  0  0  0  0
  -25.4220  -15.1889   20.4010 N   0  0  0  0  0  0
  -31.7640  -14.9365   20.1744 O   0  0  0  0  0  0
  -21.6643   -6.8867   21.4237 O   0  0  0  0  0  0
  -22.3540  -14.5522   20.6661 O   0  0  0  0  0  0
  -24.6290  -31.8521   23.1961 C   0  0  0  0  0  0
  -25.9094  -32.4738   23.8331 C   0  0  1  0  0  0
  -27.2292  -27.2390   20.1653 C   0  0  0  0  0  0
  -25.5873  -33.8566   24.2245 N   0  0  0  0  0  0
  -23.4344  -30.4723   21.5357 C   0  0  2  0  0  0
  -24.8888  -28.9146   20.1085 C   0  0  0  0  0  0
  -22.7529  -29.4607   22.4898 C   0  0  0  0  0  0
  -18.0282  -28.1419   22.8518 C   0  0  0  0  0  0
  -24.1479  -36.7303   23.2654 C   0  0  0  0  0  0
  -25.9778  -30.7566   21.3864 C   0  0  0  0  0  0
  -26.0522  -29.3734   20.7396 C   0  0  0  0  0  0
  -27.2238  -28.5489   20.7622 C   0  0  0  0  0  0
  -26.0588  -26.8677   19.4704 C   0  0  0  0  0  0
  -24.8986  -27.6699   19.4570 C   0  0  0  0  0  0
  -23.6610  -29.8051   20.1497 C   0  0  0  0  0  0
  -25.4105  -36.3077   24.0337 C   0  0  1  0  0  0
  -20.5904  -28.3717   23.1268 C   0  0  2  0  0  0
  -20.6793  -26.9433   22.5411 C   0  0  0  0  0  0
  -19.5756  -26.6427   21.5223 C   0  0  0  0  0  0
  -18.1934  -26.7984   22.1628 C   0  0  0  0  0  0
  -19.1542  -28.8887   23.2891 C   0  0  0  0  0  0
  -18.9485  -30.1500   23.8904 C   0  0  0  0  0  0
  -17.6491  -30.6626   24.0607 C   0  0  0  0  0  0
  -25.9046  -34.9450   23.5100 C   0  0  0  0  0  0
  -16.5369  -29.9151   23.6349 C   0  0  0  0  0  0
  -16.7280  -28.6566   23.0355 C   0  0  0  0  0  0
  -26.4478  -31.6580   25.0730 C   0  0  0  0  0  0
  -25.3688  -31.3792   26.1437 C   0  0  0  0  0  0
  -27.0283  -30.2975   24.6215 C   0  0  0  0  0  0
  -27.6035  -32.4296   25.7499 C   0  0  0  0  0  0
  -27.5568  -37.1802   24.8469 C   0  0  0  0  0  0
  -21.4236  -29.3073   22.3664 N   0  0  0  0  0  0
  -26.4288  -37.3759   23.9405 N   0  0  0  0  0  0
  -24.6993  -31.0477   22.0939 N   0  0  0  0  0  0
  -23.4206  -28.8157   23.3019 O   0  0  0  0  0  0
  -28.3173  -26.3246   20.1964 O   0  0  0  0  0  0
  -26.5644  -34.8934   22.4684 O   0  0  0  0  0  0
  -23.5438  -32.1323   23.7240 O   0  0  0  0  0  0
  -29.0707  -18.3565   20.1576 C   0  0  0  0  0  0
  -29.6689  -19.6722   20.4132 C   0  0  0  0  0  0
  -29.9404  -17.3408   20.6070 C   0  0  0  0  0  0
  -30.8377  -19.3320   21.0546 C   0  0  0  0  0  0
  -29.2613  -21.0728   19.8751 C   0  0  0  0  0  0
  -28.7348  -23.6647   19.9493 C   0  0  0  0  0  0
  -26.8325  -24.6162   21.4341 C   0  0  0  0  0  0
  -28.2195  -24.9280   20.8248 C   0  0  2  0  0  0
  -29.7291  -15.9381   20.5931 N   0  0  0  0  0  0
  -29.0173  -22.2918   20.5544 N   0  0  0  0  0  0
  -29.1472  -21.0924   18.5353 N   0  3  0  0  0  0
  -28.8670  -23.8111   18.7276 O   0  0  0  0  0  0
  -31.0362  -17.9562   21.1670 O   0  0  0  0  0  0
  -31.7805  -20.2176   21.4588 F   0  0  0  0  0  0
  -31.4830  -12.6818   19.1593 H   0  0  0  0  0  0
  -30.4595  -11.5426   19.9785 H   0  0  0  0  0  0
  -29.8235  -11.7180   17.5536 H   0  0  0  0  0  0
  -29.6152  -13.4423   17.7042 H   0  0  0  0  0  0
  -27.9532  -11.2513   18.9817 H   0  0  0  0  0  0
  -27.3854  -12.4226   17.8227 H   0  0  0  0  0  0
  -27.6256  -14.2306   19.4344 H   0  0  0  0  0  0
  -28.7502  -12.1923   21.4299 H   0  0  0  0  0  0
  -28.4059  -13.8694   21.7890 H   0  0  0  0  0  0
  -25.2751   -9.5684   22.4776 H   0  0  0  0  0  0
  -23.9995   -7.4628   22.7506 H   0  0  0  0  0  0
  -21.0829   -8.8769   19.8959 H   0  0  0  0  0  0
  -22.3696  -10.9669   19.6169 H   0  0  0  0  0  0
  -21.2007   -7.6154   23.9716 H   0  0  0  0  0  0
  -21.1469   -6.0529   25.9082 H   0  0  0  0  0  0
  -22.0603   -2.7616   23.2842 H   0  0  0  0  0  0
  -22.4041  -11.9903   22.4784 H   0  0  0  0  0  0
  -21.1085  -13.1298   22.2580 H   0  0  0  0  0  0
  -24.6369  -15.8273   20.4718 H   0  0  0  0  0  0
  -26.2414  -15.6215   19.9976 H   0  0  0  0  0  0
  -26.7184  -32.5370   23.1111 H   0  0  0  0  0  0
  -24.9999  -33.9710   25.0381 H   0  0  0  0  0  0
  -22.7362  -31.2987   21.3879 H   0  0  0  0  0  0
  -23.3741  -35.9634   23.3318 H   0  0  0  0  0  0
  -24.3609  -36.8884   22.2059 H   0  0  0  0  0  0
  -23.7202  -37.6511   23.6658 H   0  0  0  0  0  0
  -26.1145  -31.5117   20.6100 H   0  0  0  0  0  0
  -26.8614  -30.8151   22.0120 H   0  0  0  0  0  0
  -28.1025  -28.8983   21.2830 H   0  0  0  0  0  0
  -26.0401  -25.9229   18.9454 H   0  0  0  0  0  0
  -24.0202  -27.3304   18.9291 H   0  0  0  0  0  0
  -23.7951  -30.5812   19.3985 H   0  0  0  0  0  0
  -22.7815  -29.2383   19.8361 H   0  0  0  0  0  0
  -25.1275  -36.1954   25.0824 H   0  0  0  0  0  0
  -20.9975  -28.3266   24.1396 H   0  0  0  0  0  0
  -20.5699  -26.2317   23.3630 H   0  0  0  0  0  0
  -21.6645  -26.7487   22.1169 H   0  0  0  0  0  0
  -19.6918  -25.6329   21.1231 H   0  0  0  0  0  0
  -19.6682  -27.3285   20.6786 H   0  0  0  0  0  0
  -17.4200  -26.6752   21.4026 H   0  0  0  0  0  0
  -18.0302  -26.0144   22.9031 H   0  0  0  0  0  0
  -19.7963  -30.7325   24.2264 H   0  0  0  0  0  0
  -17.5050  -31.6300   24.5217 H   0  0  0  0  0  0
  -15.5367  -30.3065   23.7695 H   0  0  0  0  0  0
  -15.8681  -28.0922   22.7020 H   0  0  0  0  0  0
  -24.5894  -30.7081   25.7803 H   0  0  0  0  0  0
  -24.8871  -32.2980   26.4766 H   0  0  0  0  0  0
  -25.8000  -30.9058   27.0267 H   0  0  0  0  0  0
  -26.2842  -29.6750   24.1225 H   0  0  0  0  0  0
  -27.3919  -29.7190   25.4728 H   0  0  0  0  0  0
  -27.8746  -30.4246   23.9473 H   0  0  0  0  0  0
  -27.2678  -33.3643   26.2028 H   0  0  0  0  0  0
  -28.3882  -32.6765   25.0324 H   0  0  0  0  0  0
  -28.0663  -31.8431   26.5438 H   0  0  0  0  0  0
  -28.2592  -38.0108   24.7480 H   0  0  0  0  0  0
  -28.1051  -36.2608   24.6319 H   0  0  0  0  0  0
  -27.2318  -37.1448   25.8898 H   0  0  0  0  0  0
  -20.9442  -29.8846   21.6902 H   0  0  0  0  0  0
  -26.0176  -38.2835   24.1414 H   0  0  0  0  0  0
  -28.1286  -18.1928   19.6557 H   0  0  0  0  0  0
  -26.8487  -23.7045   22.0339 H   0  0  0  0  0  0
  -26.0726  -24.4722   20.6660 H   0  0  0  0  0  0
  -26.4963  -25.4172   22.0904 H   0  0  0  0  0  0
  -28.9098  -24.9734   21.6678 H   0  0  0  0  0  0
  -28.7603  -15.6700   20.6645 H   0  0  0  0  0  0
  -28.9782  -22.1807   21.5539 H   0  0  0  0  0  0
  -29.2907  -20.2595   17.9818 H   0  0  0  0  0  0
  -29.0218  -21.9842   18.0663 H   0  0  0  0  0  0
  1 25  1  0  0  0
  1 30  2  0  0  0
  1 79  1  0  0  0
  2  3  1  0  0  0
  2 25  1  0  0  0
  2 85  1  0  0  0
  2 86  1  0  0  0
  3  4  1  0  0  0
  3 87  1  0  0  0
  3 88  1  0  0  0
  4  5  1  0  0  0
  4 89  1  0  0  0
  4 90  1  0  0  0
  5  6  1  0  0  0
  5 26  1  0  0  0
  5 91  1  0  0  0
  6 25  1  0  0  0
  6 92  1  0  0  0
  6 93  1  0  0  0
  7  8  2  0  0  0
  7 26  1  0  0  0
  7 29  1  0  0  0
  8  9  1  0  0  0
  8 22  1  0  0  0
  9 10  1  0  0  0
  9 27  2  0  0  0
 10 11  2  0  0  0
 10 15  1  0  0  0
 11 12  1  0  0  0
 11 94  1  0  0  0
 12 13  2  0  0  0
 12 95  1  0  0  0
 13 14  1  0  0  0
 13 31  1  0  0  0
 14 15  2  0  0  0
 14 96  1  0  0  0
 15 97  1  0  0  0
 16 17  2  0  0  0
 16 21  1  0  0  0
 16 31  1  0  0  0
 17 18  1  0  0  0
 17 98  1  0  0  0
 18 19  2  0  0  0
 18 99  1  0  0  0
 19 20  1  0  0  0
 19 24  1  0  0  0
 20 21  2  0  0  0
 20100  1  0  0  0
 21 23  1  0  0  0
 22 28  1  0  0  0
 22 32  2  0  0  0
 26 27  1  0  0  0
 28101  1  0  0  0
 28102  1  0  0  0
 29103  1  0  0  0
 29104  1  0  0  0
 33 34  1  0  0  0
 33 66  1  0  0  0
 33 70  2  0  0  0
 34 36  1  0  0  0
 34 59  1  0  0  0
 34105  1  0  0  0
 35 44  2  0  0  0
 35 45  1  0  0  0
 35 68  1  0  0  0
 36 56  1  0  0  0
 36106  1  0  0  0
 37 39  1  0  0  0
 37 47  1  0  0  0
 37 66  1  0  0  0
 37107  1  0  0  0
 38 43  2  0  0  0
 38 46  1  0  0  0
 38 47  1  0  0  0
 39 64  1  0  0  0
 39 67  2  0  0  0
 40 52  1  0  0  0
 40 53  2  0  0  0
 40 58  1  0  0  0
 41108  1  0  0  0
 41109  1  0  0  0
 41110  1  0  0  0
 41 48  1  0  0  0
 42 43  1  0  0  0
 42 66  1  0  0  0
 42111  1  0  0  0
 42112  1  0  0  0
 43 44  1  0  0  0
 44113  1  0  0  0
 45 46  2  0  0  0
 45114  1  0  0  0
 46115  1  0  0  0
 47116  1  0  0  0
 47117  1  0  0  0
 48 56  1  0  0  0
 48 65  1  0  0  0
 48118  1  0  0  0
 49 50  1  0  0  0
 49 53  1  0  0  0
 49 64  1  0  0  0
 49119  1  0  0  0
 50 51  1  0  0  0
 50120  1  0  0  0
 50121  1  0  0  0
 51 52  1  0  0  0
 51122  1  0  0  0
 51123  1  0  0  0
 52124  1  0  0  0
 52125  1  0  0  0
 53 54  1  0  0  0
 54 55  2  0  0  0
 54126  1  0  0  0
 55 57  1  0  0  0
 55127  1  0  0  0
 56 69  2  0  0  0
 57 58  2  0  0  0
 57128  1  0  0  0
 58129  1  0  0  0
 59 60  1  0  0  0
 59 61  1  0  0  0
 59 62  1  0  0  0
 60130  1  0  0  0
 60131  1  0  0  0
 60132  1  0  0  0
 61133  1  0  0  0
 61134  1  0  0  0
 61135  1  0  0  0
 62136  1  0  0  0
 62137  1  0  0  0
 62138  1  0  0  0
 63 65  1  0  0  0
 63139  1  0  0  0
 63140  1  0  0  0
 63141  1  0  0  0
 64142  1  0  0  0
 65143  1  0  0  0
 68 78  1  0  0  0
 71 72  1  0  0  0
 71 73  2  0  0  0
 71144  1  0  0  0
 72 74  2  0  0  0
 72 75  1  0  0  0
 73 79  1  0  0  0
 73 83  1  0  0  0
 74 83  1  0  0  0
 74 84  1  0  0  0
 75 80  1  0  0  0
 75 81  2  0  0  0
 76 78  1  0  0  0
 76 80  1  0  0  0
 76 82  2  0  0  0
 77145  1  0  0  0
 77146  1  0  0  0
 77147  1  0  0  0
 77 78  1  0  0  0
 78148  1  0  0  0
 79149  1  0  0  0
 80150  1  0  0  0
 81151  1  0  0  0
 81152  1  0  0  0
M  CHG  1  81   1
M  ISO  4   1 100  68 101  78 101  79 100
M  END
> <chiral flag>
0

> <version>
0

> <s_m_source_file>
/data/baiqing/PycharmProjects/Reinvent-master-3.2/result/LINK_invent/BTK/process_docking_weight1_custom_product_contain_oxygen_bond_distance_aromatic_linkinvent_7_9_3/rearranged_h_0159.sdf

> <i_m_source_file_index>
35

> <r_mmod_Potential_Energy-OPLS-2005>
53.2650527954102

> <r_mmod_Stretch_Energy-OPLS-2005>
153.660369873047

> <r_mmod_Bend_Energy-OPLS-2005>
208.317184448242

> <r_mmod_Torsional_Energy-OPLS-2005>
257.216644287109

> <r_mmod_Improper_Torsional_Energy-OPLS-2005>
8.79600715637207

> <r_mmod_Van_der_Waal_Energy-OPLS-2005>
124.050094604492

> <r_mmod_Electrostatic_Energy-OPLS-2005>
-307.378265380859

> <r_mmod_Solvation_Energy-OPLS-2005>
-505.961029052734

> <b_mmod_Minimization_Converged-OPLS-2005>
0

> <r_mmod_RMS_Derivative-OPLS-2005>
6.42183780670166

$$$$
35
                    3D
 Structure written by MMmdl.
167176  0  0  1  0            999 V2000
  -30.7163  -14.5063   20.6658 C   0  0  0  0  0  0
  -30.4447  -12.3563   19.4271 C   0  0  0  0  0  0
  -29.5070  -12.5395   18.2154 C   0  0  0  0  0  0
  -28.0317  -12.3497   18.6241 C   0  0  0  0  0  0
  -27.6688  -13.1865   19.8726 C   0  0  2  0  0  0
  -28.7186  -12.9643   20.9973 C   0  0  0  0  0  0
  -25.2303  -13.7966   20.5193 C   0  0  0  0  0  0
  -24.1709  -13.0289   20.9069 C   0  0  0  0  0  0
  -24.6371  -11.6808   20.8774 C   0  0  0  0  0  0
  -23.9076  -10.4177   21.0448 C   0  0  0  0  0  0
  -24.3605   -9.4093   21.9223 C   0  0  0  0  0  0
  -23.6234   -8.2158   22.0799 C   0  0  0  0  0  0
  -22.4212   -8.0222   21.3575 C   0  0  0  0  0  0
  -21.9863   -9.0213   20.4681 C   0  0  0  0  0  0
  -22.7254  -10.2051   20.3090 C   0  0  0  0  0  0
  -21.6812   -6.0675   22.5277 C   0  0  0  0  0  0
  -21.3988   -6.5595   23.8211 C   0  0  0  0  0  0
  -21.3670   -5.6768   24.9179 C   0  0  0  0  0  0
  -21.6060   -4.3039   24.7247 C   0  0  0  0  0  0
  -21.8827   -3.8111   23.4378 C   0  0  0  0  0  0
  -21.9165   -4.6897   22.3416 C   0  0  0  0  0  0
  -22.7743  -13.5110   21.1777 C   0  0  0  0  0  0
  -22.1642   -4.2070   21.0999 F   0  0  0  0  0  0
  -21.5631   -3.4538   25.7778 F   0  0  0  0  0  0
  -30.0561  -13.3170   20.4811 N   0  0  0  0  0  0
  -26.2996  -12.9242   20.3321 N   0  0  0  0  0  0
  -25.9336  -11.6439   20.5919 N   0  0  0  0  0  0
  -22.0443  -12.8165   22.0427 N   0  0  0  0  0  0
  -25.3385  -15.1615   20.2973 N   0  0  0  0  0  0
  -31.7353  -14.7900   20.0247 O   0  0  0  0  0  0
  -21.6620   -6.8801   21.4228 O   0  0  0  0  0  0
  -22.3397  -14.5416   20.6657 O   0  0  0  0  0  0
  -24.6210  -31.8693   23.2135 C   0  0  0  0  0  0
  -25.9098  -32.4825   23.8427 C   0  0  1  0  0  0
  -27.2211  -27.4078   20.0736 C   0  0  0  0  0  0
  -25.5956  -33.8645   24.2379 N   0  0  0  0  0  0
  -23.4094  -30.5015   21.5564 C   0  0  2  0  0  0
  -24.8451  -28.9762   20.1165 C   0  0  0  0  0  0
  -22.7448  -29.4685   22.4990 C   0  0  0  0  0  0
  -18.0278  -28.1381   22.8475 C   0  0  0  0  0  0
  -24.1482  -36.7294   23.2642 C   0  0  0  0  0  0
  -25.9443  -30.8284   21.3721 C   0  0  0  0  0  0
  -26.0167  -29.4640   20.7088 C   0  0  0  0  0  0
  -27.2068  -28.6912   20.6837 C   0  0  0  0  0  0
  -26.0145  -26.9533   19.4828 C   0  0  0  0  0  0
  -24.8418  -27.7203   19.5041 C   0  0  0  0  0  0
  -23.6169  -29.8535   20.1661 C   0  0  0  0  0  0
  -25.4114  -36.3132   24.0355 C   0  0  1  0  0  0
  -20.5877  -28.3676   23.1286 C   0  0  2  0  0  0
  -20.6791  -26.9402   22.5391 C   0  0  0  0  0  0
  -19.5754  -26.6387   21.5200 C   0  0  0  0  0  0
  -18.1940  -26.7938   22.1632 C   0  0  0  0  0  0
  -19.1529  -28.8854   23.2885 C   0  0  0  0  0  0
  -18.9434  -30.1450   23.8895 C   0  0  0  0  0  0
  -17.6442  -30.6572   24.0554 C   0  0  0  0  0  0
  -25.9035  -34.9475   23.5155 C   0  0  0  0  0  0
  -16.5328  -29.9059   23.6314 C   0  0  0  0  0  0
  -16.7277  -28.6498   23.0317 C   0  0  0  0  0  0
  -26.4472  -31.6586   25.0764 C   0  0  0  0  0  0
  -25.3715  -31.3706   26.1508 C   0  0  0  0  0  0
  -27.0328  -30.3050   24.6112 C   0  0  0  0  0  0
  -27.6058  -32.4289   25.7526 C   0  0  0  0  0  0
  -27.5586  -37.1817   24.8471 C   0  0  0  0  0  0
  -21.4198  -29.3042   22.3687 N   0  0  0  0  0  0
  -26.4305  -37.3814   23.9403 N   0  0  0  0  0  0
  -24.6769  -31.0823   22.1029 N   0  0  0  0  0  0
  -23.4201  -28.8157   23.2995 O   0  0  0  0  0  0
  -28.3703  -26.6239   20.0774 O   0  0  0  0  0  0
  -26.5576  -34.8915   22.4708 O   0  0  0  0  0  0
  -23.5414  -32.1439   23.7547 O   0  0  0  0  0  0
  -28.3962  -19.1152   20.8478 C   0  0  0  0  0  0
  -27.7124  -17.9036   20.7152 C   0  0  0  0  0  0
  -29.7169  -19.1419   21.3526 C   0  0  0  0  0  0
  -29.7361  -16.6614   21.3616 C   0  0  0  0  0  0
  -28.3677  -16.7227   21.0732 C   0  0  0  0  0  0
  -30.4188  -17.9007   21.5541 C   0  0  0  0  0  0
  -30.1388  -20.4687   21.8639 C   0  0  0  0  0  0
  -29.0373  -22.8942   19.1987 C   0  0  0  0  0  0
  -30.0149  -24.1736   21.1728 C   0  0  0  0  0  0
  -29.9296  -21.7392   19.7027 C   0  0  0  0  0  0
  -29.5604  -22.9028   21.9144 C   0  0  0  0  0  0
  -29.4410  -24.3031   19.7439 C   0  0  0  0  0  0
  -30.3096  -25.4218   17.7324 C   0  0  0  0  0  0
  -28.1994  -25.2411   19.6864 C   0  0  0  0  0  0
  -29.9335  -21.6435   21.1904 N   0  0  0  0  0  0
  -30.2442  -15.3369   21.6216 N   0  0  0  0  0  0
  -30.5842  -20.5596   23.1164 N   0  3  0  0  0  0
  -30.5533  -24.8042   18.9887 O   0  0  0  0  0  0
  -27.6430  -15.6129   21.2551 F   0  0  0  0  0  0
  -31.6857  -17.8999   22.0361 F   0  0  0  0  0  0
  -31.4896  -12.4769   19.1291 H   0  0  0  0  0  0
  -30.3666  -11.3372   19.8056 H   0  0  0  0  0  0
  -29.7708  -11.8334   17.4262 H   0  0  0  0  0  0
  -29.6471  -13.5348   17.7882 H   0  0  0  0  0  0
  -27.8641  -11.2911   18.8229 H   0  0  0  0  0  0
  -27.3757  -12.6082   17.7922 H   0  0  0  0  0  0
  -27.7060  -14.2128   19.5245 H   0  0  0  0  0  0
  -28.7236  -11.9119   21.2870 H   0  0  0  0  0  0
  -28.4624  -13.5001   21.9114 H   0  0  0  0  0  0
  -25.2742   -9.5534   22.4809 H   0  0  0  0  0  0
  -23.9921   -7.4529   22.7503 H   0  0  0  0  0  0
  -21.0818   -8.8765   19.8968 H   0  0  0  0  0  0
  -22.3764  -10.9592   19.6194 H   0  0  0  0  0  0
  -21.1997   -7.6107   23.9673 H   0  0  0  0  0  0
  -21.1493   -6.0524   25.9076 H   0  0  0  0  0  0
  -22.0603   -2.7553   23.2935 H   0  0  0  0  0  0
  -22.4089  -11.9834   22.4821 H   0  0  0  0  0  0
  -21.1073  -13.1203   22.2722 H   0  0  0  0  0  0
  -24.5656  -15.7972   20.4531 H   0  0  0  0  0  0
  -26.2503  -15.6026   20.2940 H   0  0  0  0  0  0
  -26.7191  -32.5492   23.1199 H   0  0  0  0  0  0
  -25.0166  -33.9787   25.0570 H   0  0  0  0  0  0
  -22.6966  -31.3202   21.4292 H   0  0  0  0  0  0
  -23.3768  -35.9603   23.3335 H   0  0  0  0  0  0
  -24.3544  -36.8864   22.2045 H   0  0  0  0  0  0
  -23.7216  -37.6511   23.6618 H   0  0  0  0  0  0
  -26.0685  -31.6030   20.6108 H   0  0  0  0  0  0
  -26.8294  -30.8686   21.9979 H   0  0  0  0  0  0
  -28.1068  -29.0738   21.1434 H   0  0  0  0  0  0
  -25.9214  -26.0001   18.9894 H   0  0  0  0  0  0
  -23.9408  -27.3343   19.0445 H   0  0  0  0  0  0
  -23.7470  -30.6392   19.4214 H   0  0  0  0  0  0
  -22.7378  -29.2909   19.8516 H   0  0  0  0  0  0
  -25.1272  -36.2015   25.0858 H   0  0  0  0  0  0
  -20.9981  -28.3235   24.1412 H   0  0  0  0  0  0
  -20.5716  -26.2272   23.3572 H   0  0  0  0  0  0
  -21.6662  -26.7454   22.1156 H   0  0  0  0  0  0
  -19.6911  -25.6293   21.1227 H   0  0  0  0  0  0
  -19.6716  -27.3209   20.6741 H   0  0  0  0  0  0
  -17.4217  -26.6657   21.4015 H   0  0  0  0  0  0
  -18.0348  -26.0057   22.9023 H   0  0  0  0  0  0
  -19.7877  -30.7281   24.2280 H   0  0  0  0  0  0
  -17.4954  -31.6254   24.5139 H   0  0  0  0  0  0
  -15.5314  -30.2953   23.7654 H   0  0  0  0  0  0
  -15.8677  -28.0829   22.7029 H   0  0  0  0  0  0
  -24.5841  -30.7119   25.7820 H   0  0  0  0  0  0
  -24.8923  -32.2874   26.4973 H   0  0  0  0  0  0
  -25.8000  -30.8830   27.0284 H   0  0  0  0  0  0
  -26.2907  -29.6824   24.1097 H   0  0  0  0  0  0
  -27.4122  -29.7246   25.4537 H   0  0  0  0  0  0
  -27.8719  -30.4455   23.9294 H   0  0  0  0  0  0
  -27.2713  -33.3591   26.2160 H   0  0  0  0  0  0
  -28.3839  -32.6863   25.0322 H   0  0  0  0  0  0
  -28.0781  -31.8382   26.5387 H   0  0  0  0  0  0
  -28.2643  -38.0078   24.7506 H   0  0  0  0  0  0
  -28.1039  -36.2616   24.6323 H   0  0  0  0  0  0
  -27.2259  -37.1480   25.8859 H   0  0  0  0  0  0
  -20.9392  -29.8868   21.6956 H   0  0  0  0  0  0
  -26.0198  -38.2899   24.1407 H   0  0  0  0  0  0
  -27.8443  -20.0342   20.6920 H   0  0  0  0  0  0
  -26.6631  -17.8885   20.4490 H   0  0  0  0  0  0
  -28.0095  -22.6563   19.4708 H   0  0  0  0  0  0
  -29.0264  -22.9062   18.1092 H   0  0  0  0  0  0
  -31.1076  -24.1687   21.1458 H   0  0  0  0  0  0
  -29.7517  -25.0622   21.7482 H   0  0  0  0  0  0
  -30.9557  -21.9090   19.3675 H   0  0  0  0  0  0
  -29.6227  -20.8116   19.2166 H   0  0  0  0  0  0
  -29.9609  -22.9479   22.9262 H   0  0  0  0  0  0
  -28.4718  -22.9275   22.0312 H   0  0  0  0  0  0
  -29.7827  -26.3716   17.8487 H   0  0  0  0  0  0
  -29.7531  -24.7848   17.0470 H   0  0  0  0  0  0
  -31.2759  -25.6431   17.2772 H   0  0  0  0  0  0
  -27.4219  -24.8021   20.3181 H   0  0  0  0  0  0
  -27.8227  -25.2040   18.6659 H   0  0  0  0  0  0
  -29.6110  -14.8244   22.2187 H   0  0  0  0  0  0
  -30.6097  -19.7456   23.7122 H   0  0  0  0  0  0
  -31.0179  -21.4055   23.4545 H   0  0  0  0  0  0
  1 25  1  0  0  0
  1 30  2  0  0  0
  1 86  1  0  0  0
  2  3  1  0  0  0
  2 25  1  0  0  0
  2 91  1  0  0  0
  2 92  1  0  0  0
  3  4  1  0  0  0
  3 93  1  0  0  0
  3 94  1  0  0  0
  4  5  1  0  0  0
  4 95  1  0  0  0
  4 96  1  0  0  0
  5  6  1  0  0  0
  5 26  1  0  0  0
  5 97  1  0  0  0
  6 25  1  0  0  0
  6 98  1  0  0  0
  6 99  1  0  0  0
  7  8  2  0  0  0
  7 26  1  0  0  0
  7 29  1  0  0  0
  8  9  1  0  0  0
  8 22  1  0  0  0
  9 10  1  0  0  0
  9 27  2  0  0  0
 10 11  2  0  0  0
 10 15  1  0  0  0
 11 12  1  0  0  0
 11100  1  0  0  0
 12 13  2  0  0  0
 12101  1  0  0  0
 13 14  1  0  0  0
 13 31  1  0  0  0
 14 15  2  0  0  0
 14102  1  0  0  0
 15103  1  0  0  0
 16 17  2  0  0  0
 16 21  1  0  0  0
 16 31  1  0  0  0
 17 18  1  0  0  0
 17104  1  0  0  0
 18 19  2  0  0  0
 18105  1  0  0  0
 19 20  1  0  0  0
 19 24  1  0  0  0
 20 21  2  0  0  0
 20106  1  0  0  0
 21 23  1  0  0  0
 22 28  1  0  0  0
 22 32  2  0  0  0
 26 27  1  0  0  0
 28107  1  0  0  0
 28108  1  0  0  0
 29109  1  0  0  0
 29110  1  0  0  0
 33 34  1  0  0  0
 33 66  1  0  0  0
 33 70  2  0  0  0
 34 36  1  0  0  0
 34 59  1  0  0  0
 34111  1  0  0  0
 35 44  2  0  0  0
 35 45  1  0  0  0
 35 68  1  0  0  0
 36 56  1  0  0  0
 36112  1  0  0  0
 37 39  1  0  0  0
 37 47  1  0  0  0
 37 66  1  0  0  0
 37113  1  0  0  0
 38 43  2  0  0  0
 38 46  1  0  0  0
 38 47  1  0  0  0
 39 64  1  0  0  0
 39 67  2  0  0  0
 40 52  1  0  0  0
 40 53  2  0  0  0
 40 58  1  0  0  0
 41114  1  0  0  0
 41115  1  0  0  0
 41116  1  0  0  0
 41 48  1  0  0  0
 42 43  1  0  0  0
 42 66  1  0  0  0
 42117  1  0  0  0
 42118  1  0  0  0
 43 44  1  0  0  0
 44119  1  0  0  0
 45 46  2  0  0  0
 45120  1  0  0  0
 46121  1  0  0  0
 47122  1  0  0  0
 47123  1  0  0  0
 48 56  1  0  0  0
 48 65  1  0  0  0
 48124  1  0  0  0
 49 50  1  0  0  0
 49 53  1  0  0  0
 49 64  1  0  0  0
 49125  1  0  0  0
 50 51  1  0  0  0
 50126  1  0  0  0
 50127  1  0  0  0
 51 52  1  0  0  0
 51128  1  0  0  0
 51129  1  0  0  0
 52130  1  0  0  0
 52131  1  0  0  0
 53 54  1  0  0  0
 54 55  2  0  0  0
 54132  1  0  0  0
 55 57  1  0  0  0
 55133  1  0  0  0
 56 69  2  0  0  0
 57 58  2  0  0  0
 57134  1  0  0  0
 58135  1  0  0  0
 59 60  1  0  0  0
 59 61  1  0  0  0
 59 62  1  0  0  0
 60136  1  0  0  0
 60137  1  0  0  0
 60138  1  0  0  0
 61139  1  0  0  0
 61140  1  0  0  0
 61141  1  0  0  0
 62142  1  0  0  0
 62143  1  0  0  0
 62144  1  0  0  0
 63 65  1  0  0  0
 63145  1  0  0  0
 63146  1  0  0  0
 63147  1  0  0  0
 64148  1  0  0  0
 65149  1  0  0  0
 68 84  1  0  0  0
 71 72  2  0  0  0
 71 73  1  0  0  0
 71150  1  0  0  0
 72 75  1  0  0  0
 72151  1  0  0  0
 73 76  2  0  0  0
 73 77  1  0  0  0
 74 75  2  0  0  0
 74 76  1  0  0  0
 74 86  1  0  0  0
 75 89  1  0  0  0
 76 90  1  0  0  0
 77 85  1  0  0  0
 77 87  2  0  0  0
 78 80  1  0  0  0
 78 82  1  0  0  0
 78152  1  0  0  0
 78153  1  0  0  0
 79 81  1  0  0  0
 79 82  1  0  0  0
 79154  1  0  0  0
 79155  1  0  0  0
 80 85  1  0  0  0
 80156  1  0  0  0
 80157  1  0  0  0
 81 85  1  0  0  0
 81158  1  0  0  0
 81159  1  0  0  0
 82 84  1  0  0  0
 82 88  1  0  0  0
 83 88  1  0  0  0
 83160  1  0  0  0
 83161  1  0  0  0
 83162  1  0  0  0
 84163  1  0  0  0
 84164  1  0  0  0
 86165  1  0  0  0
 87166  1  0  0  0
 87167  1  0  0  0
M  CHG  1  87   1
M  ISO  4   1 100  68 101  84 101  86 100
M  END
> <chiral flag>
0

> <version>
0

> <s_m_source_file>
/data/baiqing/PycharmProjects/Reinvent-master-3.2/result/LINK_invent/BTK/process_docking_weight1_custom_product_contain_oxygen_bond_distance_aromatic_linkinvent_7_9_3/rearranged_h_0159.sdf

> <i_m_source_file_index>
36

> <r_mmod_Potential_Energy-OPLS-2005>
-74.7842330932617

> <r_mmod_Stretch_Energy-OPLS-2005>
55.1735343933105

> <r_mmod_Bend_Energy-OPLS-2005>
138.691818237305

> <r_mmod_Torsional_Energy-OPLS-2005>
356.775177001953

> <r_mmod_Improper_Torsional_Energy-OPLS-2005>
13.7321062088013

> <r_mmod_Van_der_Waal_Energy-OPLS-2005>
194.981018066406

> <r_mmod_Electrostatic_Energy-OPLS-2005>
-432.945983886719

> <r_mmod_Solvation_Energy-OPLS-2005>
-422.743438720703

> <b_mmod_Minimization_Converged-OPLS-2005>
0

> <r_mmod_RMS_Derivative-OPLS-2005>
7.06955528259277

$$$$
36
                    3D
 Structure written by MMmdl.
160168  0  0  1  0            999 V2000
  -30.7020  -14.5515   20.5331 C   0  0  0  0  0  0
  -30.4133  -12.3450   19.4507 C   0  0  0  0  0  0
  -29.4957  -12.4976   18.2205 C   0  0  0  0  0  0
  -28.0191  -12.3508   18.6325 C   0  0  0  0  0  0
  -27.6517  -13.2202   19.8654 C   0  0  2  0  0  0
  -28.6942  -13.0747   20.9978 C   0  0  0  0  0  0
  -25.2541  -13.8188   20.5691 C   0  0  0  0  0  0
  -24.1815  -13.0445   20.9197 C   0  0  0  0  0  0
  -24.6390  -11.6918   20.8748 C   0  0  0  0  0  0
  -23.9066  -10.4295   21.0409 C   0  0  0  0  0  0
  -24.3618   -9.4208   21.9185 C   0  0  0  0  0  0
  -23.6292   -8.2244   22.0755 C   0  0  0  0  0  0
  -22.4275   -8.0282   21.3545 C   0  0  0  0  0  0
  -21.9911   -9.0256   20.4647 C   0  0  0  0  0  0
  -22.7239  -10.2135   20.3057 C   0  0  0  0  0  0
  -21.6853   -6.0735   22.5279 C   0  0  0  0  0  0
  -21.4014   -6.5640   23.8212 C   0  0  0  0  0  0
  -21.3659   -5.6793   24.9174 C   0  0  0  0  0  0
  -21.6044   -4.3056   24.7225 C   0  0  0  0  0  0
  -21.8819   -3.8147   23.4347 C   0  0  0  0  0  0
  -21.9192   -4.6963   22.3402 C   0  0  0  0  0  0
  -22.7837  -13.5232   21.1856 C   0  0  0  0  0  0
  -22.1661   -4.2149   21.0980 F   0  0  0  0  0  0
  -21.5629   -3.4540   25.7738 F   0  0  0  0  0  0
  -30.0162  -13.3744   20.4315 N   0  0  0  0  0  0
  -26.2976  -12.9380   20.3339 N   0  0  0  0  0  0
  -25.9320  -11.6530   20.5776 N   0  0  0  0  0  0
  -22.0482  -12.8220   22.0410 N   0  0  0  0  0  0
  -25.4249  -15.1909   20.4090 N   0  0  0  0  0  0
  -31.8491  -14.6473   20.0904 O   0  0  0  0  0  0
  -21.6640   -6.8878   21.4241 O   0  0  0  0  0  0
  -22.3522  -14.5539   20.6705 O   0  0  0  0  0  0
  -24.6195  -31.8638   23.2068 C   0  0  0  0  0  0
  -25.9069  -32.4798   23.8375 C   0  0  1  0  0  0
  -27.2244  -27.3701   20.1036 C   0  0  0  0  0  0
  -25.5909  -33.8599   24.2302 N   0  0  0  0  0  0
  -23.4099  -30.4877   21.5481 C   0  0  2  0  0  0
  -24.8547  -28.9497   20.1082 C   0  0  0  0  0  0
  -22.7438  -29.4636   22.4962 C   0  0  0  0  0  0
  -18.0275  -28.1381   22.8485 C   0  0  0  0  0  0
  -24.1487  -36.7304   23.2638 C   0  0  0  0  0  0
  -25.9448  -30.8079   21.3715 C   0  0  0  0  0  0
  -26.0167  -29.4388   20.7158 C   0  0  0  0  0  0
  -27.1992  -28.6541   20.7148 C   0  0  0  0  0  0
  -26.0450  -26.9235   19.4669 C   0  0  0  0  0  0
  -24.8671  -27.6941   19.4797 C   0  0  0  0  0  0
  -23.6204  -29.8233   20.1612 C   0  0  0  0  0  0
  -25.4111  -36.3098   24.0332 C   0  0  1  0  0  0
  -20.5869  -28.3671   23.1304 C   0  0  2  0  0  0
  -20.6764  -26.9403   22.5416 C   0  0  0  0  0  0
  -19.5745  -26.6383   21.5214 C   0  0  0  0  0  0
  -18.1921  -26.7925   22.1622 C   0  0  0  0  0  0
  -19.1526  -28.8844   23.2890 C   0  0  0  0  0  0
  -18.9454  -30.1447   23.8905 C   0  0  0  0  0  0
  -17.6456  -30.6585   24.0564 C   0  0  0  0  0  0
  -25.9045  -34.9464   23.5117 C   0  0  0  0  0  0
  -16.5347  -29.9085   23.6330 C   0  0  0  0  0  0
  -16.7264  -28.6504   23.0347 C   0  0  0  0  0  0
  -26.4482  -31.6596   25.0725 C   0  0  0  0  0  0
  -25.3734  -31.3714   26.1466 C   0  0  0  0  0  0
  -27.0322  -30.3031   24.6140 C   0  0  0  0  0  0
  -27.6052  -32.4325   25.7488 C   0  0  0  0  0  0
  -27.5579  -37.1805   24.8465 C   0  0  0  0  0  0
  -21.4160  -29.3031   22.3705 N   0  0  0  0  0  0
  -26.4294  -37.3787   23.9407 N   0  0  0  0  0  0
  -24.6764  -31.0691   22.0996 N   0  0  0  0  0  0
  -23.4188  -28.8181   23.3025 O   0  0  0  0  0  0
  -28.3793  -26.5955   20.1779 O   0  0  0  0  0  0
  -26.5611  -34.8921   22.4682 O   0  0  0  0  0  0
  -23.5375  -32.1415   23.7432 O   0  0  0  0  0  0
  -31.4472  -19.7233   21.1102 C   0  0  0  0  0  0
  -31.8587  -17.3193   21.2074 C   0  0  0  0  0  0
  -29.5848  -18.1519   20.9497 C   0  0  0  0  0  0
  -32.3392  -18.6425   21.2360 C   0  0  0  0  0  0
  -30.0566  -19.5082   20.9777 C   0  0  0  0  0  0
  -30.4826  -17.0329   21.0273 C   0  0  0  0  0  0
  -33.7678  -18.8929   21.4102 C   0  0  0  0  0  0
  -27.8895  -24.0477   20.2410 C   0  0  0  0  0  0
  -29.4261  -21.8965   20.4756 C   0  0  0  0  0  0
  -28.7936  -23.1622   21.1361 C   0  0  0  0  0  0
  -28.5030  -25.2924   19.5283 C   0  0  0  0  0  0
  -26.6586  -23.7700   20.1073 N   0  0  0  0  0  0
  -34.1932  -19.8347   22.2484 N   0  0  0  0  0  0
  -29.1754  -20.6598   20.9976 N   0  0  0  0  0  0
  -30.0178  -15.6516   20.9675 N   0  0  0  0  0  0
  -34.6649  -18.1798   20.7334 N   0  3  0  0  0  0
  -30.1754  -22.0435   19.5057 O   0  0  0  0  0  0
  -31.4601  -12.4238   19.1515 H   0  0  0  0  0  0
  -30.3076  -11.3506   19.8874 H   0  0  0  0  0  0
  -29.7486  -11.7515   17.4661 H   0  0  0  0  0  0
  -29.6555  -13.4715   17.7550 H   0  0  0  0  0  0
  -27.8448  -11.2979   18.8576 H   0  0  0  0  0  0
  -27.3666  -12.5923   17.7928 H   0  0  0  0  0  0
  -27.6739  -14.2566   19.5282 H   0  0  0  0  0  0
  -28.6845  -12.0608   21.4005 H   0  0  0  0  0  0
  -28.4526  -13.7309   21.8352 H   0  0  0  0  0  0
  -25.2763   -9.5684   22.4758 H   0  0  0  0  0  0
  -24.0002   -7.4635   22.7473 H   0  0  0  0  0  0
  -21.0843   -8.8774   19.8953 H   0  0  0  0  0  0
  -22.3699  -10.9673   19.6166 H   0  0  0  0  0  0
  -21.2007   -7.6148   23.9715 H   0  0  0  0  0  0
  -21.1480   -6.0524   25.9077 H   0  0  0  0  0  0
  -22.0599   -2.7609   23.2847 H   0  0  0  0  0  0
  -22.4098  -11.9877   22.4790 H   0  0  0  0  0  0
  -21.1100  -13.1243   22.2623 H   0  0  0  0  0  0
  -24.6542  -15.8429   20.5088 H   0  0  0  0  0  0
  -26.2675  -15.6270   20.0573 H   0  0  0  0  0  0
  -26.7131  -32.5487   23.1123 H   0  0  0  0  0  0
  -25.0060  -33.9757   25.0447 H   0  0  0  0  0  0
  -22.7012  -31.3065   21.4082 H   0  0  0  0  0  0
  -23.3749  -35.9638   23.3312 H   0  0  0  0  0  0
  -24.3576  -36.8914   22.2050 H   0  0  0  0  0  0
  -23.7241  -37.6510   23.6651 H   0  0  0  0  0  0
  -26.0690  -31.5726   20.6035 H   0  0  0  0  0  0
  -26.8285  -30.8575   21.9958 H   0  0  0  0  0  0
  -28.0911  -29.0219   21.2025 H   0  0  0  0  0  0
  -26.0024  -25.9692   18.9667 H   0  0  0  0  0  0
  -23.9757  -27.3136   19.0005 H   0  0  0  0  0  0
  -23.7336  -30.6003   19.4043 H   0  0  0  0  0  0
  -22.7417  -29.2488   19.8620 H   0  0  0  0  0  0
  -25.1290  -36.1961   25.0826 H   0  0  0  0  0  0
  -20.9956  -28.3239   24.1426 H   0  0  0  0  0  0
  -20.5670  -26.2281   23.3607 H   0  0  0  0  0  0
  -21.6633  -26.7441   22.1208 H   0  0  0  0  0  0
  -19.6911  -25.6299   21.1234 H   0  0  0  0  0  0
  -19.6687  -27.3201   20.6750 H   0  0  0  0  0  0
  -17.4194  -26.6673   21.4021 H   0  0  0  0  0  0
  -18.0320  -26.0065   22.9017 H   0  0  0  0  0  0
  -19.7931  -30.7254   24.2281 H   0  0  0  0  0  0
  -17.5014  -31.6267   24.5160 H   0  0  0  0  0  0
  -15.5349  -30.2990   23.7654 H   0  0  0  0  0  0
  -15.8662  -28.0828   22.7057 H   0  0  0  0  0  0
  -24.5909  -30.7062   25.7798 H   0  0  0  0  0  0
  -24.8925  -32.2873   26.4908 H   0  0  0  0  0  0
  -25.8076  -30.8882   27.0228 H   0  0  0  0  0  0
  -26.2879  -29.6785   24.1186 H   0  0  0  0  0  0
  -27.4068  -29.7280   25.4619 H   0  0  0  0  0  0
  -27.8728  -30.4338   23.9321 H   0  0  0  0  0  0
  -27.2668  -33.3620   26.2077 H   0  0  0  0  0  0
  -28.3851  -32.6894   25.0308 H   0  0  0  0  0  0
  -28.0731  -31.8445   26.5393 H   0  0  0  0  0  0
  -28.2603  -38.0096   24.7509 H   0  0  0  0  0  0
  -28.1071  -36.2628   24.6301 H   0  0  0  0  0  0
  -27.2296  -37.1468   25.8869 H   0  0  0  0  0  0
  -20.9331  -29.8760   21.6926 H   0  0  0  0  0  0
  -26.0185  -38.2867   24.1404 H   0  0  0  0  0  0
  -31.8431  -20.7288   21.1500 H   0  0  0  0  0  0
  -32.5778  -16.5255   21.3462 H   0  0  0  0  0  0
  -28.5238  -17.9705   20.8596 H   0  0  0  0  0  0
  -28.2297  -22.8605   22.0189 H   0  0  0  0  0  0
  -29.6100  -23.7786   21.5127 H   0  0  0  0  0  0
  -28.1238  -25.3476   18.5072 H   0  0  0  0  0  0
  -29.5712  -25.1086   19.4114 H   0  0  0  0  0  0
  -26.3835  -22.9472   20.6316 H   0  0  0  0  0  0
  -33.5186  -20.3328   22.8105 H   0  0  0  0  0  0
  -35.1693  -20.0418   22.3915 H   0  0  0  0  0  0
  -28.3804  -20.5884   21.6188 H   0  0  0  0  0  0
  -29.0466  -15.4919   21.1874 H   0  0  0  0  0  0
  -34.3411  -17.4969   20.0636 H   0  0  0  0  0  0
  -35.6581  -18.3200   20.8295 H   0  0  0  0  0  0
  1 25  1  0  0  0
  1 30  2  0  0  0
  1 85  1  0  0  0
  2  3  1  0  0  0
  2 25  1  0  0  0
  2 88  1  0  0  0
  2 89  1  0  0  0
  3  4  1  0  0  0
  3 90  1  0  0  0
  3 91  1  0  0  0
  4  5  1  0  0  0
  4 92  1  0  0  0
  4 93  1  0  0  0
  5  6  1  0  0  0
  5 26  1  0  0  0
  5 94  1  0  0  0
  6 25  1  0  0  0
  6 95  1  0  0  0
  6 96  1  0  0  0
  7  8  2  0  0  0
  7 26  1  0  0  0
  7 29  1  0  0  0
  8  9  1  0  0  0
  8 22  1  0  0  0
  9 10  1  0  0  0
  9 27  2  0  0  0
 10 11  2  0  0  0
 10 15  1  0  0  0
 11 12  1  0  0  0
 11 97  1  0  0  0
 12 13  2  0  0  0
 12 98  1  0  0  0
 13 14  1  0  0  0
 13 31  1  0  0  0
 14 15  2  0  0  0
 14 99  1  0  0  0
 15100  1  0  0  0
 16 17  2  0  0  0
 16 21  1  0  0  0
 16 31  1  0  0  0
 17 18  1  0  0  0
 17101  1  0  0  0
 18 19  2  0  0  0
 18102  1  0  0  0
 19 20  1  0  0  0
 19 24  1  0  0  0
 20 21  2  0  0  0
 20103  1  0  0  0
 21 23  1  0  0  0
 22 28  1  0  0  0
 22 32  2  0  0  0
 26 27  1  0  0  0
 28104  1  0  0  0
 28105  1  0  0  0
 29106  1  0  0  0
 29107  1  0  0  0
 33 34  1  0  0  0
 33 66  1  0  0  0
 33 70  2  0  0  0
 34 36  1  0  0  0
 34 59  1  0  0  0
 34108  1  0  0  0
 35 44  2  0  0  0
 35 45  1  0  0  0
 35 68  1  0  0  0
 36 56  1  0  0  0
 36109  1  0  0  0
 37 39  1  0  0  0
 37 47  1  0  0  0
 37 66  1  0  0  0
 37110  1  0  0  0
 38 43  2  0  0  0
 38 46  1  0  0  0
 38 47  1  0  0  0
 39 64  1  0  0  0
 39 67  2  0  0  0
 40 52  1  0  0  0
 40 53  2  0  0  0
 40 58  1  0  0  0
 41111  1  0  0  0
 41112  1  0  0  0
 41113  1  0  0  0
 41 48  1  0  0  0
 42 43  1  0  0  0
 42 66  1  0  0  0
 42114  1  0  0  0
 42115  1  0  0  0
 43 44  1  0  0  0
 44116  1  0  0  0
 45 46  2  0  0  0
 45117  1  0  0  0
 46118  1  0  0  0
 47119  1  0  0  0
 47120  1  0  0  0
 48 56  1  0  0  0
 48 65  1  0  0  0
 48121  1  0  0  0
 49 50  1  0  0  0
 49 53  1  0  0  0
 49 64  1  0  0  0
 49122  1  0  0  0
 50 51  1  0  0  0
 50123  1  0  0  0
 50124  1  0  0  0
 51 52  1  0  0  0
 51125  1  0  0  0
 51126  1  0  0  0
 52127  1  0  0  0
 52128  1  0  0  0
 53 54  1  0  0  0
 54 55  2  0  0  0
 54129  1  0  0  0
 55 57  1  0  0  0
 55130  1  0  0  0
 56 69  2  0  0  0
 57 58  2  0  0  0
 57131  1  0  0  0
 58132  1  0  0  0
 59 60  1  0  0  0
 59 61  1  0  0  0
 59 62  1  0  0  0
 60133  1  0  0  0
 60134  1  0  0  0
 60135  1  0  0  0
 61136  1  0  0  0
 61137  1  0  0  0
 61138  1  0  0  0
 62139  1  0  0  0
 62140  1  0  0  0
 62141  1  0  0  0
 63 65  1  0  0  0
 63142  1  0  0  0
 63143  1  0  0  0
 63144  1  0  0  0
 64145  1  0  0  0
 65146  1  0  0  0
 68 81  1  0  0  0
 71 74  2  0  0  0
 71 75  1  0  0  0
 71147  1  0  0  0
 72 74  1  0  0  0
 72 76  2  0  0  0
 72148  1  0  0  0
 73 75  2  0  0  0
 73 76  1  0  0  0
 73149  1  0  0  0
 74 77  1  0  0  0
 75 84  1  0  0  0
 76 85  1  0  0  0
 77 83  1  0  0  0
 77 86  2  0  0  0
 78 80  1  0  0  0
 78 81  1  0  0  0
 78 82  2  0  0  0
 79 80  1  0  0  0
 79 84  1  0  0  0
 79 87  2  0  0  0
 80150  1  0  0  0
 80151  1  0  0  0
 81152  1  0  0  0
 81153  1  0  0  0
 82154  1  0  0  0
 83155  1  0  0  0
 83156  1  0  0  0
 84157  1  0  0  0
 85158  1  0  0  0
 86159  1  0  0  0
 86160  1  0  0  0
M  CHG  1  86   1
M  ISO  4   1 100  68 101  81 101  85 100
M  END
> <chiral flag>
0

> <version>
0

> <s_m_source_file>
/data/baiqing/PycharmProjects/Reinvent-master-3.2/result/LINK_invent/BTK/process_docking_weight1_custom_product_contain_oxygen_bond_distance_aromatic_linkinvent_7_9_3/rearranged_h_0159.sdf

> <i_m_source_file_index>
37

> <r_mmod_Potential_Energy-OPLS-2005>
-327.859191894531

> <r_mmod_Stretch_Energy-OPLS-2005>
62.1731376647949

> <r_mmod_Bend_Energy-OPLS-2005>
127.290641784668

> <r_mmod_Torsional_Energy-OPLS-2005>
233.690185546875

> <r_mmod_Improper_Torsional_Energy-OPLS-2005>
5.02072048187256

> <r_mmod_Van_der_Waal_Energy-OPLS-2005>
159.727096557617

> <r_mmod_Electrostatic_Energy-OPLS-2005>
-466.981750488281

> <r_mmod_Solvation_Energy-OPLS-2005>
-477.105438232422

> <b_mmod_Minimization_Converged-OPLS-2005>
0

> <r_mmod_RMS_Derivative-OPLS-2005>
0.343372404575348

$$$$
37
                    3D
 Structure written by MMmdl.
164172  0  0  1  0            999 V2000
  -30.7409  -14.5220   20.4364 C   0  0  0  0  0  0
  -30.4037  -12.3134   19.4317 C   0  0  0  0  0  0
  -29.4868  -12.4671   18.2037 C   0  0  0  0  0  0
  -28.0118  -12.3299   18.6237 C   0  0  0  0  0  0
  -27.6464  -13.2183   19.8434 C   0  0  2  0  0  0
  -28.6979  -13.1132   20.9704 C   0  0  0  0  0  0
  -25.2569  -13.8166   20.5685 C   0  0  0  0  0  0
  -24.1841  -13.0439   20.9178 C   0  0  0  0  0  0
  -24.6399  -11.6905   20.8709 C   0  0  0  0  0  0
  -23.9076  -10.4291   21.0375 C   0  0  0  0  0  0
  -24.3626   -9.4216   21.9161 C   0  0  0  0  0  0
  -23.6303   -8.2251   22.0748 C   0  0  0  0  0  0
  -22.4280   -8.0274   21.3544 C   0  0  0  0  0  0
  -21.9913   -9.0244   20.4643 C   0  0  0  0  0  0
  -22.7239  -10.2126   20.3042 C   0  0  0  0  0  0
  -21.6857   -6.0729   22.5265 C   0  0  0  0  0  0
  -21.4013   -6.5636   23.8202 C   0  0  0  0  0  0
  -21.3672   -5.6787   24.9167 C   0  0  0  0  0  0
  -21.6042   -4.3046   24.7215 C   0  0  0  0  0  0
  -21.8823   -3.8139   23.4336 C   0  0  0  0  0  0
  -21.9212   -4.6959   22.3391 C   0  0  0  0  0  0
  -22.7867  -13.5242   21.1846 C   0  0  0  0  0  0
  -22.1677   -4.2144   21.0966 F   0  0  0  0  0  0
  -21.5639   -3.4531   25.7732 F   0  0  0  0  0  0
  -30.0165  -13.3707   20.3801 N   0  0  0  0  0  0
  -26.2982  -12.9356   20.3268 N   0  0  0  0  0  0
  -25.9335  -11.6507   20.5732 N   0  0  0  0  0  0
  -22.0526  -12.8226   22.0392 N   0  0  0  0  0  0
  -25.4277  -15.1891   20.4115 N   0  0  0  0  0  0
  -31.9539  -14.4829   20.2861 O   0  0  0  0  0  0
  -21.6657   -6.8858   21.4220 O   0  0  0  0  0  0
  -22.3547  -14.5554   20.6708 O   0  0  0  0  0  0
  -24.6169  -31.8636   23.2158 C   0  0  0  0  0  0
  -25.9054  -32.4815   23.8430 C   0  0  1  0  0  0
  -27.2215  -27.4280   20.1036 C   0  0  0  0  0  0
  -25.5908  -33.8620   24.2346 N   0  0  0  0  0  0
  -23.4044  -30.4914   21.5561 C   0  0  2  0  0  0
  -24.8480  -28.9597   20.1181 C   0  0  0  0  0  0
  -22.7402  -29.4656   22.5033 C   0  0  0  0  0  0
  -18.0245  -28.1399   22.8515 C   0  0  0  0  0  0
  -24.1468  -36.7291   23.2653 C   0  0  0  0  0  0
  -25.9340  -30.8307   21.3684 C   0  0  0  0  0  0
  -26.0114  -29.4682   20.7126 C   0  0  0  0  0  0
  -27.2062  -28.7096   20.7025 C   0  0  0  0  0  0
  -26.0454  -26.9396   19.4978 C   0  0  0  0  0  0
  -24.8593  -27.6938   19.5091 C   0  0  0  0  0  0
  -23.6118  -29.8270   20.1704 C   0  0  0  0  0  0
  -25.4098  -36.3117   24.0362 C   0  0  1  0  0  0
  -20.5842  -28.3681   23.1350 C   0  0  2  0  0  0
  -20.6741  -26.9426   22.5441 C   0  0  0  0  0  0
  -19.5737  -26.6399   21.5237 C   0  0  0  0  0  0
  -18.1904  -26.7949   22.1621 C   0  0  0  0  0  0
  -19.1495  -28.8862   23.2928 C   0  0  0  0  0  0
  -18.9410  -30.1459   23.8964 C   0  0  0  0  0  0
  -17.6414  -30.6617   24.0580 C   0  0  0  0  0  0
  -25.9022  -34.9480   23.5143 C   0  0  0  0  0  0
  -16.5304  -29.9117   23.6355 C   0  0  0  0  0  0
  -16.7227  -28.6519   23.0400 C   0  0  0  0  0  0
  -26.4492  -31.6620   25.0758 C   0  0  0  0  0  0
  -25.3746  -31.3703   26.1481 C   0  0  0  0  0  0
  -27.0348  -30.3079   24.6167 C   0  0  0  0  0  0
  -27.6080  -32.4349   25.7481 C   0  0  0  0  0  0
  -27.5580  -37.1787   24.8470 C   0  0  0  0  0  0
  -21.4129  -29.3038   22.3752 N   0  0  0  0  0  0
  -26.4276  -37.3810   23.9435 N   0  0  0  0  0  0
  -24.6706  -31.0751   22.1048 N   0  0  0  0  0  0
  -23.4159  -28.8172   23.3072 O   0  0  0  0  0  0
  -28.3465  -26.6351   20.1098 O   0  0  0  0  0  0
  -26.5575  -34.8930   22.4702 O   0  0  0  0  0  0
  -23.5365  -32.1362   23.7581 O   0  0  0  0  0  0
  -28.5647  -19.8562   21.5187 C   0  0  0  0  0  0
  -28.8187  -20.5793   20.3677 C   0  0  0  0  0  0
  -29.5812  -18.1875   20.3199 C   0  0  0  0  0  0
  -28.1947  -25.4036   20.7166 C   0  0  0  0  0  0
  -30.4518  -17.0046   20.0356 C   0  0  0  0  0  0
  -28.5592  -24.2338   20.1447 C   0  0  0  0  0  0
  -28.3665  -22.9550   20.8507 C   0  0  0  0  0  0
  -34.6770  -16.8535   17.3975 C   0  0  0  0  0  0
  -34.0459  -18.8229   18.8142 C   0  0  0  0  0  0
  -32.6942  -18.2484   16.7770 C   0  0  0  0  0  0
  -32.6055  -16.7246   18.8232 C   0  0  0  0  0  0
  -33.4918  -17.6624   17.9592 C   0  0  0  0  0  0
  -28.9828  -18.5078   21.4762 N   0  0  0  0  0  0
  -31.5052  -17.4611   19.4064 N   0  0  0  0  0  0
  -28.6874  -21.9063   20.0690 N   0  0  0  0  0  0
  -30.0403  -15.6843   20.3878 N   0  0  0  0  0  0
  -27.9523  -22.8280   22.0051 O   0  0  0  0  0  0
  -29.1020  -24.2461   18.9166 O   0  0  0  0  0  0
  -29.4489  -19.5114   19.1423 S   0  0  0  0  0  0
  -31.4493  -12.3747   19.1252 H   0  0  0  0  0  0
  -30.2810  -11.3295   19.8884 H   0  0  0  0  0  0
  -29.7336  -11.7150   17.4540 H   0  0  0  0  0  0
  -29.6484  -13.4372   17.7310 H   0  0  0  0  0  0
  -27.8407  -11.2799   18.8642 H   0  0  0  0  0  0
  -27.3573  -12.5550   17.7801 H   0  0  0  0  0  0
  -27.6544  -14.2439   19.4753 H   0  0  0  0  0  0
  -28.6805  -12.1209   21.4241 H   0  0  0  0  0  0
  -28.4832  -13.8233   21.7706 H   0  0  0  0  0  0
  -25.2763   -9.5706   22.4747 H   0  0  0  0  0  0
  -24.0017   -7.4648   22.7470 H   0  0  0  0  0  0
  -21.0846   -8.8743   19.8938 H   0  0  0  0  0  0
  -22.3670  -10.9668   19.6155 H   0  0  0  0  0  0
  -21.1974   -7.6141   23.9699 H   0  0  0  0  0  0
  -21.1501   -6.0515   25.9065 H   0  0  0  0  0  0
  -22.0596   -2.7602   23.2836 H   0  0  0  0  0  0
  -22.4167  -11.9903   22.4773 H   0  0  0  0  0  0
  -21.1136  -13.1210   22.2584 H   0  0  0  0  0  0
  -24.6556  -15.8379   20.5180 H   0  0  0  0  0  0
  -26.2732  -15.6338   20.0798 H   0  0  0  0  0  0
  -26.7123  -32.5495   23.1187 H   0  0  0  0  0  0
  -25.0087  -33.9769   25.0511 H   0  0  0  0  0  0
  -22.6967  -31.3113   21.4218 H   0  0  0  0  0  0
  -23.3760  -35.9593   23.3310 H   0  0  0  0  0  0
  -24.3565  -36.8900   22.2069 H   0  0  0  0  0  0
  -23.7165  -37.6480   23.6645 H   0  0  0  0  0  0
  -26.0415  -31.6001   20.6039 H   0  0  0  0  0  0
  -26.8240  -30.8812   21.9849 H   0  0  0  0  0  0
  -28.1025  -29.0937   21.1692 H   0  0  0  0  0  0
  -26.0435  -25.9651   19.0321 H   0  0  0  0  0  0
  -23.9643  -27.2920   19.0541 H   0  0  0  0  0  0
  -23.7225  -30.6009   19.4106 H   0  0  0  0  0  0
  -22.7342  -29.2494   19.8758 H   0  0  0  0  0  0
  -25.1278  -36.1987   25.0863 H   0  0  0  0  0  0
  -20.9914  -28.3204   24.1472 H   0  0  0  0  0  0
  -20.5654  -26.2270   23.3600 H   0  0  0  0  0  0
  -21.6607  -26.7482   22.1214 H   0  0  0  0  0  0
  -19.6888  -25.6314   21.1254 H   0  0  0  0  0  0
  -19.6701  -27.3226   20.6786 H   0  0  0  0  0  0
  -17.4176  -26.6756   21.4007 H   0  0  0  0  0  0
  -18.0278  -26.0076   22.8995 H   0  0  0  0  0  0
  -19.7875  -30.7271   24.2383 H   0  0  0  0  0  0
  -17.4952  -31.6326   24.5136 H   0  0  0  0  0  0
  -15.5305  -30.3031   23.7682 H   0  0  0  0  0  0
  -15.8601  -28.0841   22.7156 H   0  0  0  0  0  0
  -24.5953  -30.7036   25.7769 H   0  0  0  0  0  0
  -24.8899  -32.2838   26.4939 H   0  0  0  0  0  0
  -25.8074  -30.8832   27.0221 H   0  0  0  0  0  0
  -26.2903  -29.6787   24.1275 H   0  0  0  0  0  0
  -27.4169  -29.7397   25.4652 H   0  0  0  0  0  0
  -27.8717  -30.4432   23.9314 H   0  0  0  0  0  0
  -27.2756  -33.3678   26.2058 H   0  0  0  0  0  0
  -28.3870  -32.6854   25.0258 H   0  0  0  0  0  0
  -28.0772  -31.8459   26.5370 H   0  0  0  0  0  0
  -28.2592  -38.0090   24.7554 H   0  0  0  0  0  0
  -28.1077  -36.2624   24.6244 H   0  0  0  0  0  0
  -27.2299  -37.1382   25.8872 H   0  0  0  0  0  0
  -20.9282  -29.8696   21.6930 H   0  0  0  0  0  0
  -26.0171  -38.2887   24.1474 H   0  0  0  0  0  0
  -28.1516  -20.2345   22.4430 H   0  0  0  0  0  0
  -27.7461  -25.4794   21.6990 H   0  0  0  0  0  0
  -35.3158  -17.4668   16.7602 H   0  0  0  0  0  0
  -34.3384  -16.0092   16.7957 H   0  0  0  0  0  0
  -35.3054  -16.4516   18.1936 H   0  0  0  0  0  0
  -34.7141  -19.4626   18.2370 H   0  0  0  0  0  0
  -34.6031  -18.4568   19.6776 H   0  0  0  0  0  0
  -33.2471  -19.4615   19.1946 H   0  0  0  0  0  0
  -33.3323  -18.8502   16.1286 H   0  0  0  0  0  0
  -31.8859  -18.8960   17.1174 H   0  0  0  0  0  0
  -32.2505  -17.4649   16.1622 H   0  0  0  0  0  0
  -33.2469  -16.3312   19.6129 H   0  0  0  0  0  0
  -32.2448  -15.8913   18.2179 H   0  0  0  0  0  0
  -28.9721  -22.1956   19.1400 H   0  0  0  0  0  0
  -29.0642  -15.5875   20.6157 H   0  0  0  0  0  0
  -29.1465  -25.1554   18.6482 H   0  0  0  0  0  0
  1 25  1  0  0  0
  1 30  2  0  0  0
  1 86  1  0  0  0
  2  3  1  0  0  0
  2 25  1  0  0  0
  2 90  1  0  0  0
  2 91  1  0  0  0
  3  4  1  0  0  0
  3 92  1  0  0  0
  3 93  1  0  0  0
  4  5  1  0  0  0
  4 94  1  0  0  0
  4 95  1  0  0  0
  5  6  1  0  0  0
  5 26  1  0  0  0
  5 96  1  0  0  0
  6 25  1  0  0  0
  6 97  1  0  0  0
  6 98  1  0  0  0
  7  8  2  0  0  0
  7 26  1  0  0  0
  7 29  1  0  0  0
  8  9  1  0  0  0
  8 22  1  0  0  0
  9 10  1  0  0  0
  9 27  2  0  0  0
 10 11  2  0  0  0
 10 15  1  0  0  0
 11 12  1  0  0  0
 11 99  1  0  0  0
 12 13  2  0  0  0
 12100  1  0  0  0
 13 14  1  0  0  0
 13 31  1  0  0  0
 14 15  2  0  0  0
 14101  1  0  0  0
 15102  1  0  0  0
 16 17  2  0  0  0
 16 21  1  0  0  0
 16 31  1  0  0  0
 17 18  1  0  0  0
 17103  1  0  0  0
 18 19  2  0  0  0
 18104  1  0  0  0
 19 20  1  0  0  0
 19 24  1  0  0  0
 20 21  2  0  0  0
 20105  1  0  0  0
 21 23  1  0  0  0
 22 28  1  0  0  0
 22 32  2  0  0  0
 26 27  1  0  0  0
 28106  1  0  0  0
 28107  1  0  0  0
 29108  1  0  0  0
 29109  1  0  0  0
 33 34  1  0  0  0
 33 66  1  0  0  0
 33 70  2  0  0  0
 34 36  1  0  0  0
 34 59  1  0  0  0
 34110  1  0  0  0
 35 44  2  0  0  0
 35 45  1  0  0  0
 35 68  1  0  0  0
 36 56  1  0  0  0
 36111  1  0  0  0
 37 39  1  0  0  0
 37 47  1  0  0  0
 37 66  1  0  0  0
 37112  1  0  0  0
 38 43  2  0  0  0
 38 46  1  0  0  0
 38 47  1  0  0  0
 39 64  1  0  0  0
 39 67  2  0  0  0
 40 52  1  0  0  0
 40 53  2  0  0  0
 40 58  1  0  0  0
 41113  1  0  0  0
 41114  1  0  0  0
 41115  1  0  0  0
 41 48  1  0  0  0
 42 43  1  0  0  0
 42 66  1  0  0  0
 42116  1  0  0  0
 42117  1  0  0  0
 43 44  1  0  0  0
 44118  1  0  0  0
 45 46  2  0  0  0
 45119  1  0  0  0
 46120  1  0  0  0
 47121  1  0  0  0
 47122  1  0  0  0
 48 56  1  0  0  0
 48 65  1  0  0  0
 48123  1  0  0  0
 49 50  1  0  0  0
 49 53  1  0  0  0
 49 64  1  0  0  0
 49124  1  0  0  0
 50 51  1  0  0  0
 50125  1  0  0  0
 50126  1  0  0  0
 51 52  1  0  0  0
 51127  1  0  0  0
 51128  1  0  0  0
 52129  1  0  0  0
 52130  1  0  0  0
 53 54  1  0  0  0
 54 55  2  0  0  0
 54131  1  0  0  0
 55 57  1  0  0  0
 55132  1  0  0  0
 56 69  2  0  0  0
 57 58  2  0  0  0
 57133  1  0  0  0
 58134  1  0  0  0
 59 60  1  0  0  0
 59 61  1  0  0  0
 59 62  1  0  0  0
 60135  1  0  0  0
 60136  1  0  0  0
 60137  1  0  0  0
 61138  1  0  0  0
 61139  1  0  0  0
 61140  1  0  0  0
 62141  1  0  0  0
 62142  1  0  0  0
 62143  1  0  0  0
 63 65  1  0  0  0
 63144  1  0  0  0
 63145  1  0  0  0
 63146  1  0  0  0
 64147  1  0  0  0
 65148  1  0  0  0
 68 74  1  0  0  0
 71 72  2  0  0  0
 71 83  1  0  0  0
 71149  1  0  0  0
 72 85  1  0  0  0
 72 89  1  0  0  0
 73 75  1  0  0  0
 73 83  2  0  0  0
 73 89  1  0  0  0
 74 76  2  0  0  0
 74150  1  0  0  0
 75 84  2  0  0  0
 75 86  1  0  0  0
 76 77  1  0  0  0
 76 88  1  0  0  0
 77 85  1  0  0  0
 77 87  2  0  0  0
 78151  1  0  0  0
 78152  1  0  0  0
 78153  1  0  0  0
 78 82  1  0  0  0
 79 82  1  0  0  0
 79154  1  0  0  0
 79155  1  0  0  0
 79156  1  0  0  0
 80 82  1  0  0  0
 80157  1  0  0  0
 80158  1  0  0  0
 80159  1  0  0  0
 81 82  1  0  0  0
 81 84  1  0  0  0
 81160  1  0  0  0
 81161  1  0  0  0
 85162  1  0  0  0
 86163  1  0  0  0
 88164  1  0  0  0
M  ISO  4   1 100  68 101  74 101  86 100
M  END
> <chiral flag>
0

> <version>
0

> <s_m_source_file>
/data/baiqing/PycharmProjects/Reinvent-master-3.2/result/LINK_invent/BTK/process_docking_weight1_custom_product_contain_oxygen_bond_distance_aromatic_linkinvent_7_9_3/rearranged_h_0159.sdf

> <i_m_source_file_index>
38

> <r_mmod_Potential_Energy-OPLS-2005>
-76.1765441894531

> <r_mmod_Stretch_Energy-OPLS-2005>
43.3559989929199

> <r_mmod_Bend_Energy-OPLS-2005>
170.945220947266

> <r_mmod_Torsional_Energy-OPLS-2005>
246.797805786133

> <r_mmod_Improper_Torsional_Energy-OPLS-2005>
7.61761331558228

> <r_mmod_Van_der_Waal_Energy-OPLS-2005>
150.460311889648

> <r_mmod_Electrostatic_Energy-OPLS-2005>
-515.2529296875

> <r_mmod_Solvation_Energy-OPLS-2005>
-217.23664855957

> <b_mmod_Minimization_Converged-OPLS-2005>
0

> <r_mmod_RMS_Derivative-OPLS-2005>
2.96648240089417

$$$$
38
                    3D
 Structure written by MMmdl.
153161  0  0  1  0            999 V2000
  -30.6079  -14.7153   20.4736 C   0  0  0  0  0  0
  -30.4329  -12.4345   19.4736 C   0  0  0  0  0  0
  -29.5102  -12.5115   18.2368 C   0  0  0  0  0  0
  -28.0345  -12.3402   18.6467 C   0  0  0  0  0  0
  -27.6458  -13.2278   19.8589 C   0  0  2  0  0  0
  -28.6891  -13.1322   20.9951 C   0  0  0  0  0  0
  -25.2522  -13.8193   20.5697 C   0  0  0  0  0  0
  -24.1806  -13.0443   20.9204 C   0  0  0  0  0  0
  -24.6391  -11.6919   20.8745 C   0  0  0  0  0  0
  -23.9067  -10.4295   21.0407 C   0  0  0  0  0  0
  -24.3618   -9.4211   21.9185 C   0  0  0  0  0  0
  -23.6293   -8.2246   22.0755 C   0  0  0  0  0  0
  -22.4276   -8.0282   21.3544 C   0  0  0  0  0  0
  -21.9912   -9.0255   20.4647 C   0  0  0  0  0  0
  -22.7239  -10.2135   20.3056 C   0  0  0  0  0  0
  -21.6854   -6.0736   22.5278 C   0  0  0  0  0  0
  -21.4015   -6.5640   23.8212 C   0  0  0  0  0  0
  -21.3660   -5.6792   24.9174 C   0  0  0  0  0  0
  -21.6045   -4.3055   24.7224 C   0  0  0  0  0  0
  -21.8819   -3.8147   23.4345 C   0  0  0  0  0  0
  -21.9193   -4.6964   22.3402 C   0  0  0  0  0  0
  -22.7827  -13.5228   21.1863 C   0  0  0  0  0  0
  -22.1660   -4.2151   21.0979 F   0  0  0  0  0  0
  -21.5631   -3.4538   25.7735 F   0  0  0  0  0  0
  -29.9968  -13.4831   20.4244 N   0  0  0  0  0  0
  -26.2950  -12.9392   20.3307 N   0  0  0  0  0  0
  -25.9322  -11.6538   20.5761 N   0  0  0  0  0  0
  -22.0471  -12.8219   22.0418 N   0  0  0  0  0  0
  -25.4219  -15.1918   20.4112 N   0  0  0  0  0  0
  -31.7722  -14.8285   20.0860 O   0  0  0  0  0  0
  -21.6640   -6.8878   21.4240 O   0  0  0  0  0  0
  -22.3516  -14.5536   20.6712 O   0  0  0  0  0  0
  -24.6299  -31.8551   23.1986 C   0  0  0  0  0  0
  -25.9135  -32.4750   23.8326 C   0  0  1  0  0  0
  -27.2277  -27.2789   20.1191 C   0  0  0  0  0  0
  -25.5938  -33.8553   24.2254 N   0  0  0  0  0  0
  -23.4248  -30.4770   21.5409 C   0  0  2  0  0  0
  -24.8716  -28.9221   20.1080 C   0  0  0  0  0  0
  -22.7487  -29.4604   22.4918 C   0  0  0  0  0  0
  -18.0288  -28.1388   22.8485 C   0  0  0  0  0  0
  -24.1487  -36.7278   23.2641 C   0  0  0  0  0  0
  -25.9676  -30.7725   21.3743 C   0  0  0  0  0  0
  -26.0395  -29.3959   20.7166 C   0  0  0  0  0  0
  -27.2152  -28.5841   20.7141 C   0  0  0  0  0  0
  -26.0324  -26.8596   19.4931 C   0  0  0  0  0  0
  -24.8721  -27.6615   19.4882 C   0  0  0  0  0  0
  -23.6410  -29.8077   20.1569 C   0  0  0  0  0  0
  -25.4114  -36.3066   24.0328 C   0  0  1  0  0  0
  -20.5889  -28.3697   23.1273 C   0  0  2  0  0  0
  -20.6774  -26.9415   22.5410 C   0  0  0  0  0  0
  -19.5751  -26.6384   21.5212 C   0  0  0  0  0  0
  -18.1931  -26.7932   22.1622 C   0  0  0  0  0  0
  -19.1541  -28.8860   23.2872 C   0  0  0  0  0  0
  -18.9464  -30.1461   23.8891 C   0  0  0  0  0  0
  -17.6463  -30.6590   24.0563 C   0  0  0  0  0  0
  -25.9056  -34.9438   23.5092 C   0  0  0  0  0  0
  -16.5354  -29.9087   23.6335 C   0  0  0  0  0  0
  -16.7275  -28.6506   23.0354 C   0  0  0  0  0  0
  -26.4507  -31.6577   25.0714 C   0  0  0  0  0  0
  -25.3737  -31.3723   26.1439 C   0  0  0  0  0  0
  -27.0365  -30.3001   24.6198 C   0  0  0  0  0  0
  -27.6060  -32.4322   25.7488 C   0  0  0  0  0  0
  -27.5574  -37.1794   24.8467 C   0  0  0  0  0  0
  -21.4197  -29.3042   22.3661 N   0  0  0  0  0  0
  -26.4287  -37.3768   23.9413 N   0  0  0  0  0  0
  -24.6931  -31.0530   22.0947 N   0  0  0  0  0  0
  -23.4192  -28.8156   23.3023 O   0  0  0  0  0  0
  -28.3561  -26.4371   20.2035 O   0  0  0  0  0  0
  -26.5623  -34.8917   22.4658 O   0  0  0  0  0  0
  -23.5455  -32.1364   23.7298 O   0  0  0  0  0  0
  -30.6517  -19.5071   20.3554 C   0  0  0  0  0  0
  -31.0064  -18.0972   20.4724 C   0  0  0  0  0  0
  -29.3189  -19.8116   20.4983 C   0  0  0  0  0  0
  -29.9375  -17.2112   20.6474 C   0  0  0  0  0  0
  -32.4193  -17.7400   20.5007 C   0  0  0  0  0  0
  -28.4016  -23.7755   20.4470 C   0  0  0  0  0  0
  -33.2277  -18.1704   19.2838 C   0  0  0  0  0  0
  -29.1120  -22.4110   19.9851 C   0  0  0  0  0  0
  -28.4656  -25.0945   19.5451 C   0  0  0  0  0  0
  -29.8150  -15.8098   20.7890 N   0  0  0  0  0  0
  -28.6292  -21.0867   20.5464 N   0  0  0  0  0  0
  -32.9917  -17.1633   21.4301 O   0  0  0  0  0  0
  -27.7779  -23.7908   21.5136 O   0  0  0  0  0  0
  -28.4808  -18.2545   20.7274 S   0  0  0  0  0  0
  -31.4750  -12.5537   19.1728 H   0  0  0  0  0  0
  -30.3709  -11.4502   19.9407 H   0  0  0  0  0  0
  -29.7875  -11.7469   17.5099 H   0  0  0  0  0  0
  -29.6431  -13.4719   17.7365 H   0  0  0  0  0  0
  -27.8824  -11.2891   18.8950 H   0  0  0  0  0  0
  -27.3794  -12.5488   17.7998 H   0  0  0  0  0  0
  -27.6488  -14.2548   19.4938 H   0  0  0  0  0  0
  -28.7151  -12.1246   21.4123 H   0  0  0  0  0  0
  -28.4249  -13.7929   21.8221 H   0  0  0  0  0  0
  -25.2762   -9.5688   22.4760 H   0  0  0  0  0  0
  -24.0004   -7.4637   22.7475 H   0  0  0  0  0  0
  -21.0844   -8.8771   19.8951 H   0  0  0  0  0  0
  -22.3696  -10.9673   19.6165 H   0  0  0  0  0  0
  -21.2005   -7.6148   23.9717 H   0  0  0  0  0  0
  -21.1484   -6.0521   25.9077 H   0  0  0  0  0  0
  -22.0597   -2.7608   23.2843 H   0  0  0  0  0  0
  -22.4087  -11.9878   22.4800 H   0  0  0  0  0  0
  -21.1091  -13.1246   22.2629 H   0  0  0  0  0  0
  -24.6506  -15.8419   20.5171 H   0  0  0  0  0  0
  -26.2631  -15.6316   20.0610 H   0  0  0  0  0  0
  -26.7201  -32.5398   23.1066 H   0  0  0  0  0  0
  -25.0106  -33.9690   25.0412 H   0  0  0  0  0  0
  -22.7208  -31.2989   21.3949 H   0  0  0  0  0  0
  -23.3753  -35.9606   23.3301 H   0  0  0  0  0  0
  -24.3577  -36.8904   22.2057 H   0  0  0  0  0  0
  -23.7237  -37.6476   23.6667 H   0  0  0  0  0  0
  -26.1043  -31.5340   20.6052 H   0  0  0  0  0  0
  -26.8464  -30.8211   22.0059 H   0  0  0  0  0  0
  -28.1104  -28.9425   21.2031 H   0  0  0  0  0  0
  -25.9534  -25.8883   19.0307 H   0  0  0  0  0  0
  -23.9737  -27.2899   19.0148 H   0  0  0  0  0  0
  -23.7629  -30.5830   19.3996 H   0  0  0  0  0  0
  -22.7593  -29.2399   19.8543 H   0  0  0  0  0  0
  -25.1297  -36.1909   25.0820 H   0  0  0  0  0  0
  -20.9980  -28.3279   24.1393 H   0  0  0  0  0  0
  -20.5674  -26.2308   23.3615 H   0  0  0  0  0  0
  -21.6642  -26.7441   22.1203 H   0  0  0  0  0  0
  -19.6914  -25.6294   21.1247 H   0  0  0  0  0  0
  -19.6693  -27.3190   20.6738 H   0  0  0  0  0  0
  -17.4200  -26.6683   21.4024 H   0  0  0  0  0  0
  -18.0330  -26.0072   22.9015 H   0  0  0  0  0  0
  -19.7941  -30.7281   24.2254 H   0  0  0  0  0  0
  -17.5019  -31.6270   24.5165 H   0  0  0  0  0  0
  -15.5356  -30.2989   23.7664 H   0  0  0  0  0  0
  -15.8673  -28.0825   22.7072 H   0  0  0  0  0  0
  -24.5921  -30.7059   25.7772 H   0  0  0  0  0  0
  -24.8919  -32.2890   26.4852 H   0  0  0  0  0  0
  -25.8063  -30.8916   27.0223 H   0  0  0  0  0  0
  -26.2951  -29.6734   24.1227 H   0  0  0  0  0  0
  -27.4063  -29.7277   25.4716 H   0  0  0  0  0  0
  -27.8818  -30.4287   23.9432 H   0  0  0  0  0  0
  -27.2669  -33.3632   26.2043 H   0  0  0  0  0  0
  -28.3880  -32.6864   25.0320 H   0  0  0  0  0  0
  -28.0714  -31.8461   26.5421 H   0  0  0  0  0  0
  -28.2591  -38.0091   24.7513 H   0  0  0  0  0  0
  -28.1071  -36.2624   24.6295 H   0  0  0  0  0  0
  -27.2293  -37.1443   25.8870 H   0  0  0  0  0  0
  -20.9383  -29.8754   21.6856 H   0  0  0  0  0  0
  -26.0162  -38.2840   24.1418 H   0  0  0  0  0  0
  -31.4175  -20.2592   20.2294 H   0  0  0  0  0  0
  -32.5910  -18.2233   18.4007 H   0  0  0  0  0  0
  -34.0248  -17.4538   19.0886 H   0  0  0  0  0  0
  -33.6729  -19.1501   19.4531 H   0  0  0  0  0  0
  -30.1744  -22.5149   20.2079 H   0  0  0  0  0  0
  -29.0397  -22.3628   18.8980 H   0  0  0  0  0  0
  -27.7561  -24.9915   18.7274 H   0  0  0  0  0  0
  -29.4424  -25.0771   19.0621 H   0  0  0  0  0  0
  -28.8909  -15.5154   21.0679 H   0  0  0  0  0  0
  -27.6353  -21.0827   20.7692 H   0  0  0  0  0  0
  1 25  1  0  0  0
  1 30  2  0  0  0
  1 80  1  0  0  0
  2  3  1  0  0  0
  2 25  1  0  0  0
  2 85  1  0  0  0
  2 86  1  0  0  0
  3  4  1  0  0  0
  3 87  1  0  0  0
  3 88  1  0  0  0
  4  5  1  0  0  0
  4 89  1  0  0  0
  4 90  1  0  0  0
  5  6  1  0  0  0
  5 26  1  0  0  0
  5 91  1  0  0  0
  6 25  1  0  0  0
  6 92  1  0  0  0
  6 93  1  0  0  0
  7  8  2  0  0  0
  7 26  1  0  0  0
  7 29  1  0  0  0
  8  9  1  0  0  0
  8 22  1  0  0  0
  9 10  1  0  0  0
  9 27  2  0  0  0
 10 11  2  0  0  0
 10 15  1  0  0  0
 11 12  1  0  0  0
 11 94  1  0  0  0
 12 13  2  0  0  0
 12 95  1  0  0  0
 13 14  1  0  0  0
 13 31  1  0  0  0
 14 15  2  0  0  0
 14 96  1  0  0  0
 15 97  1  0  0  0
 16 17  2  0  0  0
 16 21  1  0  0  0
 16 31  1  0  0  0
 17 18  1  0  0  0
 17 98  1  0  0  0
 18 19  2  0  0  0
 18 99  1  0  0  0
 19 20  1  0  0  0
 19 24  1  0  0  0
 20 21  2  0  0  0
 20100  1  0  0  0
 21 23  1  0  0  0
 22 28  1  0  0  0
 22 32  2  0  0  0
 26 27  1  0  0  0
 28101  1  0  0  0
 28102  1  0  0  0
 29103  1  0  0  0
 29104  1  0  0  0
 33 34  1  0  0  0
 33 66  1  0  0  0
 33 70  2  0  0  0
 34 36  1  0  0  0
 34 59  1  0  0  0
 34105  1  0  0  0
 35 44  2  0  0  0
 35 45  1  0  0  0
 35 68  1  0  0  0
 36 56  1  0  0  0
 36106  1  0  0  0
 37 39  1  0  0  0
 37 47  1  0  0  0
 37 66  1  0  0  0
 37107  1  0  0  0
 38 43  2  0  0  0
 38 46  1  0  0  0
 38 47  1  0  0  0
 39 64  1  0  0  0
 39 67  2  0  0  0
 40 52  1  0  0  0
 40 53  2  0  0  0
 40 58  1  0  0  0
 41108  1  0  0  0
 41109  1  0  0  0
 41110  1  0  0  0
 41 48  1  0  0  0
 42 43  1  0  0  0
 42 66  1  0  0  0
 42111  1  0  0  0
 42112  1  0  0  0
 43 44  1  0  0  0
 44113  1  0  0  0
 45 46  2  0  0  0
 45114  1  0  0  0
 46115  1  0  0  0
 47116  1  0  0  0
 47117  1  0  0  0
 48 56  1  0  0  0
 48 65  1  0  0  0
 48118  1  0  0  0
 49 50  1  0  0  0
 49 53  1  0  0  0
 49 64  1  0  0  0
 49119  1  0  0  0
 50 51  1  0  0  0
 50120  1  0  0  0
 50121  1  0  0  0
 51 52  1  0  0  0
 51122  1  0  0  0
 51123  1  0  0  0
 52124  1  0  0  0
 52125  1  0  0  0
 53 54  1  0  0  0
 54 55  2  0  0  0
 54126  1  0  0  0
 55 57  1  0  0  0
 55127  1  0  0  0
 56 69  2  0  0  0
 57 58  2  0  0  0
 57128  1  0  0  0
 58129  1  0  0  0
 59 60  1  0  0  0
 59 61  1  0  0  0
 59 62  1  0  0  0
 60130  1  0  0  0
 60131  1  0  0  0
 60132  1  0  0  0
 61133  1  0  0  0
 61134  1  0  0  0
 61135  1  0  0  0
 62136  1  0  0  0
 62137  1  0  0  0
 62138  1  0  0  0
 63 65  1  0  0  0
 63139  1  0  0  0
 63140  1  0  0  0
 63141  1  0  0  0
 64142  1  0  0  0
 65143  1  0  0  0
 68 79  1  0  0  0
 71 72  1  0  0  0
 71 73  2  0  0  0
 71144  1  0  0  0
 72 74  2  0  0  0
 72 75  1  0  0  0
 73 81  1  0  0  0
 73 84  1  0  0  0
 74 80  1  0  0  0
 74 84  1  0  0  0
 75 77  1  0  0  0
 75 82  2  0  0  0
 76 78  1  0  0  0
 76 79  1  0  0  0
 76 83  2  0  0  0
 77145  1  0  0  0
 77146  1  0  0  0
 77147  1  0  0  0
 78 81  1  0  0  0
 78148  1  0  0  0
 78149  1  0  0  0
 79150  1  0  0  0
 79151  1  0  0  0
 80152  1  0  0  0
 81153  1  0  0  0
M  ISO  4   1 100  68 101  79 101  80 100
M  END
> <chiral flag>
0

> <version>
0

> <s_m_source_file>
/data/baiqing/PycharmProjects/Reinvent-master-3.2/result/LINK_invent/BTK/process_docking_weight1_custom_product_contain_oxygen_bond_distance_aromatic_linkinvent_7_9_3/rearranged_h_0159.sdf

> <i_m_source_file_index>
39

> <r_mmod_Potential_Energy-OPLS-2005>
189.88932800293

> <r_mmod_Stretch_Energy-OPLS-2005>
107.616928100586

> <r_mmod_Bend_Energy-OPLS-2005>
185.40397644043

> <r_mmod_Torsional_Energy-OPLS-2005>
250.59455871582

> <r_mmod_Improper_Torsional_Energy-OPLS-2005>
5.62041282653809

> <r_mmod_Van_der_Waal_Energy-OPLS-2005>
114.869567871094

> <r_mmod_Electrostatic_Energy-OPLS-2005>
-279.435272216797

> <r_mmod_Solvation_Energy-OPLS-2005>
-265.311645507812

> <b_mmod_Minimization_Converged-OPLS-2005>
0

> <r_mmod_RMS_Derivative-OPLS-2005>
0.464967757463455

$$$$
39
                    3D
 Structure written by MMmdl.
152160  0  0  1  0            999 V2000
  -30.5677  -14.8214   20.4140 C   0  0  0  0  0  0
  -30.4460  -12.5009   19.4554 C   0  0  0  0  0  0
  -29.5107  -12.5009   18.2258 C   0  0  0  0  0  0
  -28.0432  -12.3047   18.6568 C   0  0  0  0  0  0
  -27.6369  -13.2263   19.8383 C   0  0  2  0  0  0
  -28.6910  -13.2073   20.9648 C   0  0  0  0  0  0
  -25.2517  -13.8166   20.5695 C   0  0  0  0  0  0
  -24.1797  -13.0414   20.9198 C   0  0  0  0  0  0
  -24.6388  -11.6891   20.8746 C   0  0  0  0  0  0
  -23.9065  -10.4277   21.0393 C   0  0  0  0  0  0
  -24.3614   -9.4193   21.9177 C   0  0  0  0  0  0
  -23.6290   -8.2234   22.0755 C   0  0  0  0  0  0
  -22.4273   -8.0277   21.3548 C   0  0  0  0  0  0
  -21.9905   -9.0244   20.4647 C   0  0  0  0  0  0
  -22.7235  -10.2119   20.3047 C   0  0  0  0  0  0
  -21.6852   -6.0732   22.5261 C   0  0  0  0  0  0
  -21.4034   -6.5635   23.8200 C   0  0  0  0  0  0
  -21.3655   -5.6786   24.9162 C   0  0  0  0  0  0
  -21.6041   -4.3049   24.7213 C   0  0  0  0  0  0
  -21.8825   -3.8142   23.4335 C   0  0  0  0  0  0
  -21.9201   -4.6960   22.3392 C   0  0  0  0  0  0
  -22.7837  -13.5205   21.1866 C   0  0  0  0  0  0
  -22.1664   -4.2142   21.0972 F   0  0  0  0  0  0
  -21.5622   -3.4532   25.7725 F   0  0  0  0  0  0
  -29.9728  -13.5781   20.3539 N   0  0  0  0  0  0
  -26.2929  -12.9359   20.3271 N   0  0  0  0  0  0
  -25.9317  -11.6510   20.5763 N   0  0  0  0  0  0
  -22.0486  -12.8187   22.0412 N   0  0  0  0  0  0
  -25.4186  -15.1913   20.4146 N   0  0  0  0  0  0
  -31.7884  -14.9153   20.2414 O   0  0  0  0  0  0
  -21.6642   -6.8872   21.4229 O   0  0  0  0  0  0
  -22.3520  -14.5499   20.6687 O   0  0  0  0  0  0
  -24.6326  -31.8543   23.1952 C   0  0  0  0  0  0
  -25.9141  -32.4774   23.8328 C   0  0  1  0  0  0
  -27.2164  -27.2263   20.1377 C   0  0  0  0  0  0
  -25.5944  -33.8581   24.2283 N   0  0  0  0  0  0
  -23.4331  -30.4732   21.5389 C   0  0  2  0  0  0
  -24.8803  -28.9107   20.1134 C   0  0  0  0  0  0
  -22.7526  -29.4582   22.4885 C   0  0  0  0  0  0
  -18.0294  -28.1408   22.8507 C   0  0  0  0  0  0
  -24.1474  -36.7261   23.2639 C   0  0  0  0  0  0
  -25.9796  -30.7583   21.3745 C   0  0  0  0  0  0
  -26.0531  -29.3712   20.7258 C   0  0  0  0  0  0
  -27.2267  -28.5438   20.7227 C   0  0  0  0  0  0
  -26.0207  -26.8367   19.5001 C   0  0  0  0  0  0
  -24.8685  -27.6528   19.4892 C   0  0  0  0  0  0
  -23.6558  -29.8079   20.1553 C   0  0  0  0  0  0
  -25.4115  -36.3082   24.0339 C   0  0  1  0  0  0
  -20.5915  -28.3713   23.1261 C   0  0  2  0  0  0
  -20.6790  -26.9431   22.5420 C   0  0  0  0  0  0
  -19.5782  -26.6412   21.5222 C   0  0  0  0  0  0
  -18.1947  -26.7965   22.1623 C   0  0  0  0  0  0
  -19.1559  -28.8877   23.2882 C   0  0  0  0  0  0
  -18.9483  -30.1464   23.8923 C   0  0  0  0  0  0
  -17.6491  -30.6621   24.0583 C   0  0  0  0  0  0
  -25.9059  -34.9451   23.5099 C   0  0  0  0  0  0
  -16.5369  -29.9126   23.6341 C   0  0  0  0  0  0
  -16.7285  -28.6533   23.0371 C   0  0  0  0  0  0
  -26.4507  -31.6601   25.0688 C   0  0  0  0  0  0
  -25.3728  -31.3765   26.1400 C   0  0  0  0  0  0
  -27.0347  -30.3046   24.6110 C   0  0  0  0  0  0
  -27.6084  -32.4287   25.7451 C   0  0  0  0  0  0
  -27.5570  -37.1787   24.8474 C   0  0  0  0  0  0
  -21.4217  -29.3063   22.3653 N   0  0  0  0  0  0
  -26.4297  -37.3778   23.9419 N   0  0  0  0  0  0
  -24.7027  -31.0468   22.0947 N   0  0  0  0  0  0
  -23.4225  -28.8104   23.2981 O   0  0  0  0  0  0
  -28.3062  -26.3173   20.1209 O   0  0  0  0  0  0
  -26.5608  -34.8924   22.4645 O   0  0  0  0  0  0
  -23.5462  -32.1337   23.7231 O   0  0  0  0  0  0
  -29.4461  -19.7514   20.5262 C   0  0  0  0  0  0
  -30.1144  -19.6630   21.7296 C   0  0  0  0  0  0
  -29.8995  -17.3922   20.5860 C   0  0  0  0  0  0
  -28.9488  -21.0595   19.8456 C   0  0  0  0  0  0
  -28.5827  -23.6114   19.8569 C   0  0  0  0  0  0
  -28.1401  -24.9095   20.6734 C   0  0  0  0  0  0
  -29.2946  -18.4364   19.9085 N   0  0  0  0  0  0
  -30.3418  -20.6660   22.6727 N   0  0  0  0  0  0
  -28.6635  -23.8295   18.5270 N   0  3  0  0  0  0
  -29.7334  -15.9366   20.2922 N   0  0  0  0  0  0
  -28.5673  -20.8514   18.5667 N   0  3  0  0  0  0
  -28.8515  -22.3435   20.4333 N   0  0  0  0  0  0
  -30.6909  -18.0138   22.0468 S   0  0  0  0  0  0
  -31.4805  -12.6580   19.1418 H   0  0  0  0  0  0
  -30.4238  -11.5356   19.9634 H   0  0  0  0  0  0
  -29.8026  -11.7179   17.5248 H   0  0  0  0  0  0
  -29.6095  -13.4459   17.6868 H   0  0  0  0  0  0
  -27.9283  -11.2609   18.9527 H   0  0  0  0  0  0
  -27.3716  -12.4559   17.8104 H   0  0  0  0  0  0
  -27.6120  -14.2346   19.4250 H   0  0  0  0  0  0
  -28.7543  -12.2245   21.4341 H   0  0  0  0  0  0
  -28.4239  -13.9161   21.7508 H   0  0  0  0  0  0
  -25.2765   -9.5673   22.4739 H   0  0  0  0  0  0
  -23.9996   -7.4636   22.7466 H   0  0  0  0  0  0
  -21.0846   -8.8753   19.8962 H   0  0  0  0  0  0
  -22.3689  -10.9648   19.6150 H   0  0  0  0  0  0
  -21.2033   -7.6144   23.9703 H   0  0  0  0  0  0
  -21.1468   -6.0519   25.9070 H   0  0  0  0  0  0
  -22.0610   -2.7604   23.2825 H   0  0  0  0  0  0
  -22.4121  -11.9848   22.4786 H   0  0  0  0  0  0
  -21.1115  -13.1212   22.2640 H   0  0  0  0  0  0
  -24.6428  -15.8341   20.5211 H   0  0  0  0  0  0
  -26.2625  -15.6455   20.0932 H   0  0  0  0  0  0
  -26.7174  -32.5431   23.1047 H   0  0  0  0  0  0
  -25.0186  -33.9753   25.0492 H   0  0  0  0  0  0
  -22.7346  -31.2987   21.3913 H   0  0  0  0  0  0
  -23.3783  -35.9541   23.3312 H   0  0  0  0  0  0
  -24.3594  -36.8865   22.2051 H   0  0  0  0  0  0
  -23.7179  -37.6446   23.6645 H   0  0  0  0  0  0
  -26.1074  -31.5098   20.5947 H   0  0  0  0  0  0
  -26.8619  -30.8225   21.9982 H   0  0  0  0  0  0
  -28.1296  -28.8964   21.2045 H   0  0  0  0  0  0
  -25.9721  -25.8786   19.0054 H   0  0  0  0  0  0
  -23.9712  -27.3021   18.9984 H   0  0  0  0  0  0
  -23.7946  -30.5858   19.4043 H   0  0  0  0  0  0
  -22.7732  -29.2490   19.8433 H   0  0  0  0  0  0
  -25.1308  -36.1915   25.0842 H   0  0  0  0  0  0
  -20.9993  -28.3264   24.1390 H   0  0  0  0  0  0
  -20.5703  -26.2318   23.3620 H   0  0  0  0  0  0
  -21.6656  -26.7489   22.1196 H   0  0  0  0  0  0
  -19.6950  -25.6312   21.1267 H   0  0  0  0  0  0
  -19.6721  -27.3209   20.6739 H   0  0  0  0  0  0
  -17.4230  -26.6716   21.4002 H   0  0  0  0  0  0
  -18.0324  -26.0135   22.9035 H   0  0  0  0  0  0
  -19.7964  -30.7279   24.2294 H   0  0  0  0  0  0
  -17.5058  -31.6321   24.5175 H   0  0  0  0  0  0
  -15.5364  -30.3059   23.7674 H   0  0  0  0  0  0
  -15.8681  -28.0877   22.7069 H   0  0  0  0  0  0
  -24.5956  -30.7050   25.7739 H   0  0  0  0  0  0
  -24.8862  -32.2928   26.4727 H   0  0  0  0  0  0
  -25.8041  -30.9044   27.0233 H   0  0  0  0  0  0
  -26.2890  -29.6795   24.1169 H   0  0  0  0  0  0
  -27.4138  -29.7296   25.4564 H   0  0  0  0  0  0
  -27.8725  -30.4421   23.9278 H   0  0  0  0  0  0
  -27.2791  -33.3660   26.1948 H   0  0  0  0  0  0
  -28.3938  -32.6702   25.0282 H   0  0  0  0  0  0
  -28.0676  -31.8434   26.5419 H   0  0  0  0  0  0
  -28.2582  -38.0078   24.7550 H   0  0  0  0  0  0
  -28.1070  -36.2623   24.6285 H   0  0  0  0  0  0
  -27.2318  -37.1408   25.8882 H   0  0  0  0  0  0
  -20.9357  -29.8841   21.6923 H   0  0  0  0  0  0
  -26.0180  -38.2841   24.1474 H   0  0  0  0  0  0
  -28.6906  -24.9018   21.6141 H   0  0  0  0  0  0
  -27.0964  -24.7663   20.9562 H   0  0  0  0  0  0
  -31.0769  -20.3893   23.3196 H   0  0  0  0  0  0
  -29.5290  -20.8070   23.2709 H   0  0  0  0  0  0
  -28.4543  -24.7571   18.1923 H   0  0  0  0  0  0
  -29.1471  -23.2021   17.9010 H   0  0  0  0  0  0
  -28.7912  -15.6884   20.0451 H   0  0  0  0  0  0
  -28.6840  -19.9004   18.2452 H   0  0  0  0  0  0
  -27.9028  -21.4332   18.0847 H   0  0  0  0  0  0
  -29.0372  -22.3525   21.4227 H   0  0  0  0  0  0
  1 25  1  0  0  0
  1 30  2  0  0  0
  1 80  1  0  0  0
  2  3  1  0  0  0
  2 25  1  0  0  0
  2 84  1  0  0  0
  2 85  1  0  0  0
  3  4  1  0  0  0
  3 86  1  0  0  0
  3 87  1  0  0  0
  4  5  1  0  0  0
  4 88  1  0  0  0
  4 89  1  0  0  0
  5  6  1  0  0  0
  5 26  1  0  0  0
  5 90  1  0  0  0
  6 25  1  0  0  0
  6 91  1  0  0  0
  6 92  1  0  0  0
  7  8  2  0  0  0
  7 26  1  0  0  0
  7 29  1  0  0  0
  8  9  1  0  0  0
  8 22  1  0  0  0
  9 10  1  0  0  0
  9 27  2  0  0  0
 10 11  2  0  0  0
 10 15  1  0  0  0
 11 12  1  0  0  0
 11 93  1  0  0  0
 12 13  2  0  0  0
 12 94  1  0  0  0
 13 14  1  0  0  0
 13 31  1  0  0  0
 14 15  2  0  0  0
 14 95  1  0  0  0
 15 96  1  0  0  0
 16 17  2  0  0  0
 16 21  1  0  0  0
 16 31  1  0  0  0
 17 18  1  0  0  0
 17 97  1  0  0  0
 18 19  2  0  0  0
 18 98  1  0  0  0
 19 20  1  0  0  0
 19 24  1  0  0  0
 20 21  2  0  0  0
 20 99  1  0  0  0
 21 23  1  0  0  0
 22 28  1  0  0  0
 22 32  2  0  0  0
 26 27  1  0  0  0
 28100  1  0  0  0
 28101  1  0  0  0
 29102  1  0  0  0
 29103  1  0  0  0
 33 34  1  0  0  0
 33 66  1  0  0  0
 33 70  2  0  0  0
 34 36  1  0  0  0
 34 59  1  0  0  0
 34104  1  0  0  0
 35 44  2  0  0  0
 35 45  1  0  0  0
 35 68  1  0  0  0
 36 56  1  0  0  0
 36105  1  0  0  0
 37 39  1  0  0  0
 37 47  1  0  0  0
 37 66  1  0  0  0
 37106  1  0  0  0
 38 43  2  0  0  0
 38 46  1  0  0  0
 38 47  1  0  0  0
 39 64  1  0  0  0
 39 67  2  0  0  0
 40 52  1  0  0  0
 40 53  2  0  0  0
 40 58  1  0  0  0
 41107  1  0  0  0
 41108  1  0  0  0
 41109  1  0  0  0
 41 48  1  0  0  0
 42 43  1  0  0  0
 42 66  1  0  0  0
 42110  1  0  0  0
 42111  1  0  0  0
 43 44  1  0  0  0
 44112  1  0  0  0
 45 46  2  0  0  0
 45113  1  0  0  0
 46114  1  0  0  0
 47115  1  0  0  0
 47116  1  0  0  0
 48 56  1  0  0  0
 48 65  1  0  0  0
 48117  1  0  0  0
 49 50  1  0  0  0
 49 53  1  0  0  0
 49 64  1  0  0  0
 49118  1  0  0  0
 50 51  1  0  0  0
 50119  1  0  0  0
 50120  1  0  0  0
 51 52  1  0  0  0
 51121  1  0  0  0
 51122  1  0  0  0
 52123  1  0  0  0
 52124  1  0  0  0
 53 54  1  0  0  0
 54 55  2  0  0  0
 54125  1  0  0  0
 55 57  1  0  0  0
 55126  1  0  0  0
 56 69  2  0  0  0
 57 58  2  0  0  0
 57127  1  0  0  0
 58128  1  0  0  0
 59 60  1  0  0  0
 59 61  1  0  0  0
 59 62  1  0  0  0
 60129  1  0  0  0
 60130  1  0  0  0
 60131  1  0  0  0
 61132  1  0  0  0
 61133  1  0  0  0
 61134  1  0  0  0
 62135  1  0  0  0
 62136  1  0  0  0
 62137  1  0  0  0
 63 65  1  0  0  0
 63138  1  0  0  0
 63139  1  0  0  0
 63140  1  0  0  0
 64141  1  0  0  0
 65142  1  0  0  0
 68 76  1  0  0  0
 71 72  2  0  0  0
 71 74  1  0  0  0
 71 77  1  0  0  0
 72 78  1  0  0  0
 72 83  1  0  0  0
 73 77  2  0  0  0
 73 80  1  0  0  0
 73 83  1  0  0  0
 74 81  2  0  0  0
 74 82  1  0  0  0
 75 76  1  0  0  0
 75 79  2  0  0  0
 75 82  1  0  0  0
 76143  1  0  0  0
 76144  1  0  0  0
 78145  1  0  0  0
 78146  1  0  0  0
 79147  1  0  0  0
 79148  1  0  0  0
 80149  1  0  0  0
 81150  1  0  0  0
 81151  1  0  0  0
 82152  1  0  0  0
M  CHG  2  79   1  81   1
M  ISO  4   1 100  68 101  76 101  80 100
M  END
> <chiral flag>
0

> <version>
0

> <s_m_source_file>
/data/baiqing/PycharmProjects/Reinvent-master-3.2/result/LINK_invent/BTK/process_docking_weight1_custom_product_contain_oxygen_bond_distance_aromatic_linkinvent_7_9_3/rearranged_h_0159.sdf

> <i_m_source_file_index>
40

> <r_mmod_Potential_Energy-OPLS-2005>
-258.800323486328

> <r_mmod_Stretch_Energy-OPLS-2005>
151.037811279297

> <r_mmod_Bend_Energy-OPLS-2005>
187.722579956055

> <r_mmod_Torsional_Energy-OPLS-2005>
274.249908447266

> <r_mmod_Improper_Torsional_Energy-OPLS-2005>
19.9544162750244

> <r_mmod_Van_der_Waal_Energy-OPLS-2005>
115.474212646484

> <r_mmod_Electrostatic_Energy-OPLS-2005>
16.9078617095947

> <r_mmod_Solvation_Energy-OPLS-2005>
-1142.45373535156

> <b_mmod_Minimization_Converged-OPLS-2005>
0

> <r_mmod_RMS_Derivative-OPLS-2005>
4.42563724517822

$$$$
40
                    3D
 Structure written by MMmdl.
162171  0  0  1  0            999 V2000
  -30.6855  -14.6019   20.5731 C   0  0  0  0  0  0
  -30.4296  -12.3987   19.4373 C   0  0  0  0  0  0
  -29.4954  -12.5156   18.2134 C   0  0  0  0  0  0
  -28.0203  -12.3386   18.6267 C   0  0  0  0  0  0
  -27.6549  -13.1885   19.8702 C   0  0  2  0  0  0
  -28.7105  -12.9875   20.9900 C   0  0  0  0  0  0
  -25.2555  -13.8112   20.5661 C   0  0  0  0  0  0
  -24.1806  -13.0409   20.9185 C   0  0  0  0  0  0
  -24.6354  -11.6875   20.8751 C   0  0  0  0  0  0
  -23.9023  -10.4273   21.0407 C   0  0  0  0  0  0
  -24.3592   -9.4191   21.9184 C   0  0  0  0  0  0
  -23.6276   -8.2226   22.0746 C   0  0  0  0  0  0
  -22.4254   -8.0272   21.3550 C   0  0  0  0  0  0
  -21.9885   -9.0236   20.4641 C   0  0  0  0  0  0
  -22.7205  -10.2117   20.3044 C   0  0  0  0  0  0
  -21.6839   -6.0736   22.5285 C   0  0  0  0  0  0
  -21.4015   -6.5638   23.8226 C   0  0  0  0  0  0
  -21.3653   -5.6785   24.9180 C   0  0  0  0  0  0
  -21.6034   -4.3049   24.7225 C   0  0  0  0  0  0
  -21.8818   -3.8149   23.4345 C   0  0  0  0  0  0
  -21.9190   -4.6967   22.3407 C   0  0  0  0  0  0
  -22.7841  -13.5223   21.1851 C   0  0  0  0  0  0
  -22.1651   -4.2164   21.0980 F   0  0  0  0  0  0
  -21.5623   -3.4526   25.7729 F   0  0  0  0  0  0
  -30.0036  -13.4094   20.4368 N   0  0  0  0  0  0
  -26.2979  -12.9246   20.3361 N   0  0  0  0  0  0
  -25.9276  -11.6433   20.5794 N   0  0  0  0  0  0
  -22.0482  -12.8225   22.0414 N   0  0  0  0  0  0
  -25.4220  -15.1831   20.4015 N   0  0  0  0  0  0
  -31.8329  -14.6669   20.1164 O   0  0  0  0  0  0
  -21.6622   -6.8867   21.4248 O   0  0  0  0  0  0
  -22.3531  -14.5537   20.6702 O   0  0  0  0  0  0
  -24.6196  -31.8648   23.2053 C   0  0  0  0  0  0
  -25.9071  -32.4806   23.8374 C   0  0  1  0  0  0
  -27.2368  -27.3889   20.1190 C   0  0  0  0  0  0
  -25.5907  -33.8606   24.2310 N   0  0  0  0  0  0
  -23.4109  -30.4858   21.5468 C   0  0  2  0  0  0
  -24.8604  -28.9435   20.1155 C   0  0  0  0  0  0
  -22.7440  -29.4649   22.4979 C   0  0  0  0  0  0
  -18.0280  -28.1383   22.8497 C   0  0  0  0  0  0
  -24.1486  -36.7308   23.2638 C   0  0  0  0  0  0
  -25.9437  -30.8182   21.3643 C   0  0  0  0  0  0
  -26.0229  -29.4480   20.7129 C   0  0  0  0  0  0
  -27.2172  -28.6825   20.7033 C   0  0  0  0  0  0
  -26.0585  -26.9112   19.5076 C   0  0  0  0  0  0
  -24.8763  -27.6772   19.5040 C   0  0  0  0  0  0
  -23.6228  -29.8140   20.1636 C   0  0  0  0  0  0
  -25.4107  -36.3104   24.0337 C   0  0  1  0  0  0
  -20.5876  -28.3681   23.1304 C   0  0  2  0  0  0
  -20.6773  -26.9410   22.5417 C   0  0  0  0  0  0
  -19.5745  -26.6389   21.5221 C   0  0  0  0  0  0
  -18.1925  -26.7928   22.1631 C   0  0  0  0  0  0
  -19.1532  -28.8849   23.2900 C   0  0  0  0  0  0
  -18.9455  -30.1455   23.8912 C   0  0  0  0  0  0
  -17.6452  -30.6589   24.0566 C   0  0  0  0  0  0
  -25.9041  -34.9471   23.5125 C   0  0  0  0  0  0
  -16.5343  -29.9089   23.6328 C   0  0  0  0  0  0
  -16.7268  -28.6505   23.0351 C   0  0  0  0  0  0
  -26.4478  -31.6594   25.0719 C   0  0  0  0  0  0
  -25.3733  -31.3706   26.1458 C   0  0  0  0  0  0
  -27.0310  -30.3030   24.6113 C   0  0  0  0  0  0
  -27.6062  -32.4309   25.7472 C   0  0  0  0  0  0
  -27.5585  -37.1801   24.8462 C   0  0  0  0  0  0
  -21.4166  -29.3039   22.3709 N   0  0  0  0  0  0
  -26.4292  -37.3794   23.9418 N   0  0  0  0  0  0
  -24.6766  -31.0711   22.0970 N   0  0  0  0  0  0
  -23.4185  -28.8195   23.3051 O   0  0  0  0  0  0
  -28.3791  -26.6037   20.1219 O   0  0  0  0  0  0
  -26.5610  -34.8930   22.4689 O   0  0  0  0  0  0
  -23.5374  -32.1415   23.7415 O   0  0  0  0  0  0
  -30.5880  -18.1857   20.2914 C   0  0  0  0  0  0
  -30.8126  -18.1325   18.9312 C   0  0  0  0  0  0
  -29.9678  -20.3389   19.6766 C   0  0  0  0  0  0
  -28.9485  -24.1370   19.9757 C   0  0  0  0  0  0
  -29.5325  -17.5197   23.3958 C   0  0  0  0  0  0
  -28.6919  -16.2836   23.0474 C   0  0  0  0  0  0
  -30.9338  -17.4319   22.7659 C   0  0  0  0  0  0
  -28.7301  -16.0484   21.5295 C   0  0  0  0  0  0
  -30.9052  -17.0296   21.2673 C   0  0  1  0  0  0
  -29.0517  -22.7207   20.6309 C   0  0  0  0  0  0
  -28.2445  -25.2923   20.7501 C   0  0  0  0  0  0
  -30.0783  -19.4585   20.6928 N   0  0  0  0  0  0
  -30.1132  -15.7583   21.0947 N   0  0  0  0  0  0
  -31.3192  -17.0768   18.1783 N   0  0  0  0  0  0
  -29.5619  -21.6879   19.7058 N   0  0  0  0  0  0
  -29.4129  -24.3179   18.8430 O   0  0  0  0  0  0
  -30.4265  -19.6353   18.1325 S   0  0  0  0  0  0
  -31.4662  -12.5184   19.1191 H   0  0  0  0  0  0
  -30.3816  -11.3942   19.8609 H   0  0  0  0  0  0
  -29.7629  -11.7719   17.4620 H   0  0  0  0  0  0
  -29.6309  -13.4902   17.7408 H   0  0  0  0  0  0
  -27.8566  -11.2817   18.8402 H   0  0  0  0  0  0
  -27.3612  -12.5837   17.7931 H   0  0  0  0  0  0
  -27.6826  -14.2176   19.5171 H   0  0  0  0  0  0
  -28.7474  -11.9312   21.2609 H   0  0  0  0  0  0
  -28.4753  -13.4731   21.9341 H   0  0  0  0  0  0
  -25.2742   -9.5685   22.4755 H   0  0  0  0  0  0
  -24.0006   -7.4612   22.7452 H   0  0  0  0  0  0
  -21.0820   -8.8733   19.8941 H   0  0  0  0  0  0
  -22.3659  -10.9653   19.6145 H   0  0  0  0  0  0
  -21.2008   -7.6147   23.9736 H   0  0  0  0  0  0
  -21.1476   -6.0511   25.9085 H   0  0  0  0  0  0
  -22.0607   -2.7618   23.2837 H   0  0  0  0  0  0
  -22.4092  -11.9883   22.4793 H   0  0  0  0  0  0
  -21.1105  -13.1269   22.2632 H   0  0  0  0  0  0
  -24.6556  -15.8358   20.5249 H   0  0  0  0  0  0
  -26.2734  -15.6303   20.0893 H   0  0  0  0  0  0
  -26.7144  -32.5503   23.1141 H   0  0  0  0  0  0
  -25.0055  -33.9760   25.0453 H   0  0  0  0  0  0
  -22.7018  -31.3045   21.4029 H   0  0  0  0  0  0
  -23.3756  -35.9631   23.3287 H   0  0  0  0  0  0
  -24.3589  -36.8939   22.2056 H   0  0  0  0  0  0
  -23.7223  -37.6501   23.6662 H   0  0  0  0  0  0
  -26.0600  -31.5803   20.5926 H   0  0  0  0  0  0
  -26.8295  -30.8734   21.9855 H   0  0  0  0  0  0
  -28.1145  -29.0699   21.1656 H   0  0  0  0  0  0
  -26.0530  -25.9409   19.0309 H   0  0  0  0  0  0
  -23.9857  -27.2843   19.0334 H   0  0  0  0  0  0
  -23.7327  -30.5869   19.4021 H   0  0  0  0  0  0
  -22.7465  -29.2343   19.8672 H   0  0  0  0  0  0
  -25.1282  -36.1966   25.0830 H   0  0  0  0  0  0
  -20.9966  -28.3247   24.1426 H   0  0  0  0  0  0
  -20.5686  -26.2288   23.3614 H   0  0  0  0  0  0
  -21.6641  -26.7457   22.1196 H   0  0  0  0  0  0
  -19.6904  -25.6301   21.1249 H   0  0  0  0  0  0
  -19.6679  -27.3208   20.6757 H   0  0  0  0  0  0
  -17.4195  -26.6688   21.4029 H   0  0  0  0  0  0
  -18.0318  -26.0066   22.9024 H   0  0  0  0  0  0
  -19.7931  -30.7276   24.2280 H   0  0  0  0  0  0
  -17.5005  -31.6266   24.5164 H   0  0  0  0  0  0
  -15.5346  -30.2989   23.7641 H   0  0  0  0  0  0
  -15.8672  -28.0827   22.7052 H   0  0  0  0  0  0
  -24.5892  -30.7080   25.7778 H   0  0  0  0  0  0
  -24.8943  -32.2860   26.4933 H   0  0  0  0  0  0
  -25.8067  -30.8836   27.0200 H   0  0  0  0  0  0
  -26.2853  -29.6781   24.1177 H   0  0  0  0  0  0
  -27.4082  -29.7280   25.4583 H   0  0  0  0  0  0
  -27.8693  -30.4345   23.9266 H   0  0  0  0  0  0
  -27.2700  -33.3616   26.2055 H   0  0  0  0  0  0
  -28.3858  -32.6852   25.0279 H   0  0  0  0  0  0
  -28.0739  -31.8422   26.5372 H   0  0  0  0  0  0
  -28.2588  -38.0115   24.7542 H   0  0  0  0  0  0
  -28.1098  -36.2649   24.6244 H   0  0  0  0  0  0
  -27.2313  -37.1395   25.8868 H   0  0  0  0  0  0
  -20.9340  -29.8747   21.6913 H   0  0  0  0  0  0
  -26.0179  -38.2871   24.1431 H   0  0  0  0  0  0
  -29.6056  -17.6401   24.4769 H   0  0  0  0  0  0
  -29.0251  -18.4112   23.0262 H   0  0  0  0  0  0
  -27.6631  -16.4314   23.3797 H   0  0  0  0  0  0
  -29.0662  -15.4061   23.5771 H   0  0  0  0  0  0
  -31.4951  -16.6742   23.3130 H   0  0  0  0  0  0
  -31.4844  -18.3629   22.9057 H   0  0  0  0  0  0
  -28.3769  -16.9490   21.0247 H   0  0  0  0  0  0
  -27.9770  -15.3343   21.2604 H   0  0  0  0  0  0
  -31.9563  -16.8095   21.0791 H   0  0  0  0  0  0
  -28.0645  -22.4269   20.9894 H   0  0  0  0  0  0
  -29.7038  -22.7827   21.5022 H   0  0  0  0  0  0
  -28.6802  -25.3475   21.7482 H   0  0  0  0  0  0
  -27.1983  -25.0200   20.8886 H   0  0  0  0  0  0
  -31.7266  -16.2516   18.6161 H   0  0  0  0  0  0
  -31.6348  -17.1964   17.2203 H   0  0  0  0  0  0
  -29.6497  -22.1170   18.7860 H   0  0  0  0  0  0
  1 25  1  0  0  0
  1 30  2  0  0  0
  1 83  1  0  0  0
  2  3  1  0  0  0
  2 25  1  0  0  0
  2 88  1  0  0  0
  2 89  1  0  0  0
  3  4  1  0  0  0
  3 90  1  0  0  0
  3 91  1  0  0  0
  4  5  1  0  0  0
  4 92  1  0  0  0
  4 93  1  0  0  0
  5  6  1  0  0  0
  5 26  1  0  0  0
  5 94  1  0  0  0
  6 25  1  0  0  0
  6 95  1  0  0  0
  6 96  1  0  0  0
  7  8  2  0  0  0
  7 26  1  0  0  0
  7 29  1  0  0  0
  8  9  1  0  0  0
  8 22  1  0  0  0
  9 10  1  0  0  0
  9 27  2  0  0  0
 10 11  2  0  0  0
 10 15  1  0  0  0
 11 12  1  0  0  0
 11 97  1  0  0  0
 12 13  2  0  0  0
 12 98  1  0  0  0
 13 14  1  0  0  0
 13 31  1  0  0  0
 14 15  2  0  0  0
 14 99  1  0  0  0
 15100  1  0  0  0
 16 17  2  0  0  0
 16 21  1  0  0  0
 16 31  1  0  0  0
 17 18  1  0  0  0
 17101  1  0  0  0
 18 19  2  0  0  0
 18102  1  0  0  0
 19 20  1  0  0  0
 19 24  1  0  0  0
 20 21  2  0  0  0
 20103  1  0  0  0
 21 23  1  0  0  0
 22 28  1  0  0  0
 22 32  2  0  0  0
 26 27  1  0  0  0
 28104  1  0  0  0
 28105  1  0  0  0
 29106  1  0  0  0
 29107  1  0  0  0
 33 34  1  0  0  0
 33 66  1  0  0  0
 33 70  2  0  0  0
 34 36  1  0  0  0
 34 59  1  0  0  0
 34108  1  0  0  0
 35 44  2  0  0  0
 35 45  1  0  0  0
 35 68  1  0  0  0
 36 56  1  0  0  0
 36109  1  0  0  0
 37 39  1  0  0  0
 37 47  1  0  0  0
 37 66  1  0  0  0
 37110  1  0  0  0
 38 43  2  0  0  0
 38 46  1  0  0  0
 38 47  1  0  0  0
 39 64  1  0  0  0
 39 67  2  0  0  0
 40 52  1  0  0  0
 40 53  2  0  0  0
 40 58  1  0  0  0
 41111  1  0  0  0
 41112  1  0  0  0
 41113  1  0  0  0
 41 48  1  0  0  0
 42 43  1  0  0  0
 42 66  1  0  0  0
 42114  1  0  0  0
 42115  1  0  0  0
 43 44  1  0  0  0
 44116  1  0  0  0
 45 46  2  0  0  0
 45117  1  0  0  0
 46118  1  0  0  0
 47119  1  0  0  0
 47120  1  0  0  0
 48 56  1  0  0  0
 48 65  1  0  0  0
 48121  1  0  0  0
 49 50  1  0  0  0
 49 53  1  0  0  0
 49 64  1  0  0  0
 49122  1  0  0  0
 50 51  1  0  0  0
 50123  1  0  0  0
 50124  1  0  0  0
 51 52  1  0  0  0
 51125  1  0  0  0
 51126  1  0  0  0
 52127  1  0  0  0
 52128  1  0  0  0
 53 54  1  0  0  0
 54 55  2  0  0  0
 54129  1  0  0  0
 55 57  1  0  0  0
 55130  1  0  0  0
 56 69  2  0  0  0
 57 58  2  0  0  0
 57131  1  0  0  0
 58132  1  0  0  0
 59 60  1  0  0  0
 59 61  1  0  0  0
 59 62  1  0  0  0
 60133  1  0  0  0
 60134  1  0  0  0
 60135  1  0  0  0
 61136  1  0  0  0
 61137  1  0  0  0
 61138  1  0  0  0
 62139  1  0  0  0
 62140  1  0  0  0
 62141  1  0  0  0
 63 65  1  0  0  0
 63142  1  0  0  0
 63143  1  0  0  0
 63144  1  0  0  0
 64145  1  0  0  0
 65146  1  0  0  0
 68 81  1  0  0  0
 71 72  2  0  0  0
 71 82  1  0  0  0
 71 79  1  0  0  0
 72 84  1  0  0  0
 72 87  1  0  0  0
 73 82  2  0  0  0
 73 85  1  0  0  0
 73 87  1  0  0  0
 74 80  1  0  0  0
 74 81  1  0  0  0
 74 86  2  0  0  0
 75 76  1  0  0  0
 75 77  1  0  0  0
 75147  1  0  0  0
 75148  1  0  0  0
 76 78  1  0  0  0
 76149  1  0  0  0
 76150  1  0  0  0
 77 79  1  0  0  0
 77151  1  0  0  0
 77152  1  0  0  0
 78 83  1  0  0  0
 78153  1  0  0  0
 78154  1  0  0  0
 79 83  1  0  0  0
 79155  1  0  0  0
 80 85  1  0  0  0
 80156  1  0  0  0
 80157  1  0  0  0
 81158  1  0  0  0
 81159  1  0  0  0
 84160  1  0  0  0
 84161  1  0  0  0
 85162  1  0  0  0
M  ISO  4   1 100  68 101  81 101  83 100
M  END
> <chiral flag>
0

> <version>
0

> <s_m_source_file>
/data/baiqing/PycharmProjects/Reinvent-master-3.2/result/LINK_invent/BTK/process_docking_weight1_custom_product_contain_oxygen_bond_distance_aromatic_linkinvent_7_9_3/rearranged_h_0159.sdf

> <i_m_source_file_index>
41

> <r_mmod_Potential_Energy-OPLS-2005>
196.667694091797

> <r_mmod_Stretch_Energy-OPLS-2005>
65.5143814086914

> <r_mmod_Bend_Energy-OPLS-2005>
163.660140991211

> <r_mmod_Torsional_Energy-OPLS-2005>
298.916107177734

> <r_mmod_Improper_Torsional_Energy-OPLS-2005>
3.78679609298706

> <r_mmod_Van_der_Waal_Energy-OPLS-2005>
140.881530761719

> <r_mmod_Electrostatic_Energy-OPLS-2005>
-280.525939941406

> <r_mmod_Solvation_Energy-OPLS-2005>
-223.402587890625

> <b_mmod_Minimization_Converged-OPLS-2005>
0

> <r_mmod_RMS_Derivative-OPLS-2005>
1.30446314811707

$$$$
41
                    3D
 Structure written by MMmdl.
161170  0  0  1  0            999 V2000
  -30.5485  -14.7797   20.4694 C   0  0  0  0  0  0
  -30.4528  -12.4790   19.4645 C   0  0  0  0  0  0
  -29.5164  -12.5180   18.2337 C   0  0  0  0  0  0
  -28.0426  -12.3292   18.6487 C   0  0  0  0  0  0
  -27.6461  -13.2209   19.8545 C   0  0  2  0  0  0
  -28.6933  -13.1290   20.9868 C   0  0  0  0  0  0
  -25.2538  -13.8165   20.5686 C   0  0  0  0  0  0
  -24.1816  -13.0426   20.9200 C   0  0  0  0  0  0
  -24.6394  -11.6900   20.8746 C   0  0  0  0  0  0
  -23.9064  -10.4287   21.0409 C   0  0  0  0  0  0
  -24.3615   -9.4203   21.9185 C   0  0  0  0  0  0
  -23.6291   -8.2238   22.0755 C   0  0  0  0  0  0
  -22.4273   -8.0279   21.3543 C   0  0  0  0  0  0
  -21.9907   -9.0252   20.4645 C   0  0  0  0  0  0
  -22.7237  -10.2132   20.3056 C   0  0  0  0  0  0
  -21.6851   -6.0734   22.5279 C   0  0  0  0  0  0
  -21.4013   -6.5639   23.8213 C   0  0  0  0  0  0
  -21.3660   -5.6791   24.9175 C   0  0  0  0  0  0
  -21.6042   -4.3053   24.7226 C   0  0  0  0  0  0
  -21.8820   -3.8145   23.4348 C   0  0  0  0  0  0
  -21.9193   -4.6961   22.3403 C   0  0  0  0  0  0
  -22.7840  -13.5222   21.1863 C   0  0  0  0  0  0
  -22.1661   -4.2147   21.0981 F   0  0  0  0  0  0
  -21.5630   -3.4537   25.7739 F   0  0  0  0  0  0
  -29.9906  -13.5184   20.4122 N   0  0  0  0  0  0
  -26.2959  -12.9348   20.3286 N   0  0  0  0  0  0
  -25.9322  -11.6504   20.5748 N   0  0  0  0  0  0
  -22.0481  -12.8216   22.0420 N   0  0  0  0  0  0
  -25.4228  -15.1892   20.4103 N   0  0  0  0  0  0
  -31.7287  -14.9504   20.1438 O   0  0  0  0  0  0
  -21.6638   -6.8874   21.4241 O   0  0  0  0  0  0
  -22.3528  -14.5532   20.6713 O   0  0  0  0  0  0
  -24.6338  -31.8527   23.1957 C   0  0  0  0  0  0
  -25.9149  -32.4743   23.8313 C   0  0  1  0  0  0
  -27.2243  -27.2380   20.1394 C   0  0  0  0  0  0
  -25.5939  -33.8545   24.2235 N   0  0  0  0  0  0
  -23.4325  -30.4738   21.5386 C   0  0  2  0  0  0
  -24.8813  -28.9123   20.1144 C   0  0  0  0  0  0
  -22.7515  -29.4592   22.4894 C   0  0  0  0  0  0
  -18.0295  -28.1401   22.8482 C   0  0  0  0  0  0
  -24.1490  -36.7273   23.2645 C   0  0  0  0  0  0
  -25.9796  -30.7594   21.3779 C   0  0  0  0  0  0
  -26.0536  -29.3779   20.7236 C   0  0  0  0  0  0
  -27.2292  -28.5551   20.7192 C   0  0  0  0  0  0
  -26.0297  -26.8460   19.4982 C   0  0  0  0  0  0
  -24.8753  -27.6552   19.4901 C   0  0  0  0  0  0
  -23.6538  -29.8034   20.1569 C   0  0  0  0  0  0
  -25.4119  -36.3060   24.0328 C   0  0  1  0  0  0
  -20.5899  -28.3709   23.1261 C   0  0  2  0  0  0
  -20.6781  -26.9425   22.5406 C   0  0  0  0  0  0
  -19.5757  -26.6385   21.5210 C   0  0  0  0  0  0
  -18.1936  -26.7941   22.1621 C   0  0  0  0  0  0
  -19.1550  -28.8868   23.2869 C   0  0  0  0  0  0
  -18.9472  -30.1466   23.8893 C   0  0  0  0  0  0
  -17.6474  -30.6596   24.0564 C   0  0  0  0  0  0
  -25.9061  -34.9434   23.5083 C   0  0  0  0  0  0
  -16.5363  -29.9098   23.6335 C   0  0  0  0  0  0
  -16.7281  -28.6516   23.0352 C   0  0  0  0  0  0
  -26.4508  -31.6587   25.0715 C   0  0  0  0  0  0
  -25.3720  -31.3750   26.1427 C   0  0  0  0  0  0
  -27.0365  -30.3003   24.6223 C   0  0  0  0  0  0
  -27.6052  -32.4334   25.7494 C   0  0  0  0  0  0
  -27.5575  -37.1794   24.8468 C   0  0  0  0  0  0
  -21.4218  -29.3053   22.3644 N   0  0  0  0  0  0
  -26.4288  -37.3763   23.9412 N   0  0  0  0  0  0
  -24.7010  -31.0475   22.0938 N   0  0  0  0  0  0
  -23.4202  -28.8126   23.3000 O   0  0  0  0  0  0
  -28.3272  -26.3450   20.1518 O   0  0  0  0  0  0
  -26.5630  -34.8916   22.4651 O   0  0  0  0  0  0
  -23.5480  -32.1347   23.7242 O   0  0  0  0  0  0
  -29.7001  -18.4082   19.9174 C   0  0  0  0  0  0
  -29.2928  -17.8862   22.0457 C   0  0  0  0  0  0
  -29.6862  -17.3038   20.8724 C   0  0  0  0  0  0
  -29.3054  -19.6239   20.5173 C   0  0  0  0  0  0
  -28.9744  -21.0274   19.9937 C   0  0  0  0  0  0
  -31.0120  -23.7092   21.3655 C   0  0  0  0  0  0
  -30.5655  -24.2000   19.9801 C   0  0  0  0  0  0
  -30.1714  -22.4534   21.6528 C   0  0  0  0  0  0
  -29.1171  -23.7136   19.8543 C   0  0  2  0  0  0
  -28.4547  -20.0863   22.8777 C   0  0  0  0  0  0
  -28.1426  -24.8704   20.4777 C   0  0  0  0  0  0
  -29.0310  -19.2489   21.8414 N   0  0  0  0  0  0
  -29.2607  -22.3100   20.5100 N   0  0  0  0  0  0
  -29.6532  -15.8226   20.6905 N   0  0  0  0  0  0
  -28.3112  -21.0057   18.8294 N   0  3  0  0  0  0
  -31.4864  -12.6436   19.1553 H   0  0  0  0  0  0
  -30.4331  -11.4955   19.9365 H   0  0  0  0  0  0
  -29.8044  -11.7487   17.5160 H   0  0  0  0  0  0
  -29.6300  -13.4733   17.7182 H   0  0  0  0  0  0
  -27.9056  -11.2787   18.9077 H   0  0  0  0  0  0
  -27.3829  -12.5216   17.8018 H   0  0  0  0  0  0
  -27.6433  -14.2450   19.4816 H   0  0  0  0  0  0
  -28.7418  -12.1154   21.3879 H   0  0  0  0  0  0
  -28.4198  -13.7712   21.8258 H   0  0  0  0  0  0
  -25.2761   -9.5679   22.4760 H   0  0  0  0  0  0
  -24.0000   -7.4627   22.7474 H   0  0  0  0  0  0
  -21.0837   -8.8769   19.8951 H   0  0  0  0  0  0
  -22.3694  -10.9670   19.6164 H   0  0  0  0  0  0
  -21.2004   -7.6146   23.9716 H   0  0  0  0  0  0
  -21.1481   -6.0521   25.9077 H   0  0  0  0  0  0
  -22.0599   -2.7607   23.2849 H   0  0  0  0  0  0
  -22.4094  -11.9874   22.4803 H   0  0  0  0  0  0
  -21.1099  -13.1243   22.2624 H   0  0  0  0  0  0
  -24.6503  -15.8373   20.5181 H   0  0  0  0  0  0
  -26.2638  -15.6344   20.0661 H   0  0  0  0  0  0
  -26.7212  -32.5382   23.1051 H   0  0  0  0  0  0
  -25.0089  -33.9680   25.0381 H   0  0  0  0  0  0
  -22.7305  -31.2966   21.3880 H   0  0  0  0  0  0
  -23.3757  -35.9600   23.3301 H   0  0  0  0  0  0
  -24.3578  -36.8897   22.2059 H   0  0  0  0  0  0
  -23.7238  -37.6471   23.6670 H   0  0  0  0  0  0
  -26.1191  -31.5181   20.6066 H   0  0  0  0  0  0
  -26.8564  -30.8110   22.0113 H   0  0  0  0  0  0
  -28.1294  -28.9107   21.2000 H   0  0  0  0  0  0
  -25.9714  -25.8928   18.9941 H   0  0  0  0  0  0
  -23.9803  -27.2954   19.0015 H   0  0  0  0  0  0
  -23.7834  -30.5776   19.3996 H   0  0  0  0  0  0
  -22.7716  -29.2390   19.8496 H   0  0  0  0  0  0
  -25.1306  -36.1901   25.0820 H   0  0  0  0  0  0
  -20.9990  -28.3291   24.1382 H   0  0  0  0  0  0
  -20.5678  -26.2321   23.3615 H   0  0  0  0  0  0
  -21.6650  -26.7445   22.1201 H   0  0  0  0  0  0
  -19.6924  -25.6291   21.1251 H   0  0  0  0  0  0
  -19.6704  -27.3183   20.6734 H   0  0  0  0  0  0
  -17.4208  -26.6683   21.4027 H   0  0  0  0  0  0
  -18.0342  -26.0090   22.9024 H   0  0  0  0  0  0
  -19.7951  -30.7278   24.2261 H   0  0  0  0  0  0
  -17.5037  -31.6278   24.5166 H   0  0  0  0  0  0
  -15.5368  -30.3004   23.7670 H   0  0  0  0  0  0
  -15.8677  -28.0840   22.7071 H   0  0  0  0  0  0
  -24.5910  -30.7083   25.7757 H   0  0  0  0  0  0
  -24.8895  -32.2925   26.4808 H   0  0  0  0  0  0
  -25.8028  -30.8965   27.0229 H   0  0  0  0  0  0
  -26.2962  -29.6738   24.1234 H   0  0  0  0  0  0
  -27.4033  -29.7285   25.4756 H   0  0  0  0  0  0
  -27.8841  -30.4281   23.9483 H   0  0  0  0  0  0
  -27.2660  -33.3651   26.2034 H   0  0  0  0  0  0
  -28.3885  -32.6864   25.0336 H   0  0  0  0  0  0
  -28.0691  -31.8479   26.5442 H   0  0  0  0  0  0
  -28.2591  -38.0093   24.7506 H   0  0  0  0  0  0
  -28.1070  -36.2620   24.6301 H   0  0  0  0  0  0
  -27.2289  -37.1443   25.8870 H   0  0  0  0  0  0
  -20.9401  -29.8790   21.6860 H   0  0  0  0  0  0
  -26.0162  -38.2834   24.1417 H   0  0  0  0  0  0
  -29.8911  -18.3126   18.8575 H   0  0  0  0  0  0
  -29.0807  -17.4380   23.0083 H   0  0  0  0  0  0
  -30.8099  -24.4677   22.1231 H   0  0  0  0  0  0
  -32.0819  -23.4990   21.3909 H   0  0  0  0  0  0
  -31.1771  -23.7418   19.2011 H   0  0  0  0  0  0
  -30.6705  -25.2808   19.8769 H   0  0  0  0  0  0
  -29.6096  -22.5704   22.5784 H   0  0  0  0  0  0
  -30.8098  -21.5747   21.7410 H   0  0  0  0  0  0
  -28.8801  -23.6009   18.7968 H   0  0  0  0  0  0
  -27.7862  -19.4944   23.5037 H   0  0  0  0  0  0
  -27.8687  -20.8945   22.4411 H   0  0  0  0  0  0
  -29.2428  -20.4935   23.5108 H   0  0  0  0  0  0
  -28.1929  -24.7990   21.5642 H   0  0  0  0  0  0
  -27.1242  -24.5667   20.2445 H   0  0  0  0  0  0
  -28.7552  -15.4304   20.9298 H   0  0  0  0  0  0
  -28.0714  -20.1189   18.4118 H   0  0  0  0  0  0
  -28.0136  -21.8432   18.3562 H   0  0  0  0  0  0
  1 25  1  0  0  0
  1 30  2  0  0  0
  1 84  1  0  0  0
  2  3  1  0  0  0
  2 25  1  0  0  0
  2 86  1  0  0  0
  2 87  1  0  0  0
  3  4  1  0  0  0
  3 88  1  0  0  0
  3 89  1  0  0  0
  4  5  1  0  0  0
  4 90  1  0  0  0
  4 91  1  0  0  0
  5  6  1  0  0  0
  5 26  1  0  0  0
  5 92  1  0  0  0
  6 25  1  0  0  0
  6 93  1  0  0  0
  6 94  1  0  0  0
  7  8  2  0  0  0
  7 26  1  0  0  0
  7 29  1  0  0  0
  8  9  1  0  0  0
  8 22  1  0  0  0
  9 10  1  0  0  0
  9 27  2  0  0  0
 10 11  2  0  0  0
 10 15  1  0  0  0
 11 12  1  0  0  0
 11 95  1  0  0  0
 12 13  2  0  0  0
 12 96  1  0  0  0
 13 14  1  0  0  0
 13 31  1  0  0  0
 14 15  2  0  0  0
 14 97  1  0  0  0
 15 98  1  0  0  0
 16 17  2  0  0  0
 16 21  1  0  0  0
 16 31  1  0  0  0
 17 18  1  0  0  0
 17 99  1  0  0  0
 18 19  2  0  0  0
 18100  1  0  0  0
 19 20  1  0  0  0
 19 24  1  0  0  0
 20 21  2  0  0  0
 20101  1  0  0  0
 21 23  1  0  0  0
 22 28  1  0  0  0
 22 32  2  0  0  0
 26 27  1  0  0  0
 28102  1  0  0  0
 28103  1  0  0  0
 29104  1  0  0  0
 29105  1  0  0  0
 33 34  1  0  0  0
 33 66  1  0  0  0
 33 70  2  0  0  0
 34 36  1  0  0  0
 34 59  1  0  0  0
 34106  1  0  0  0
 35 44  2  0  0  0
 35 45  1  0  0  0
 35 68  1  0  0  0
 36 56  1  0  0  0
 36107  1  0  0  0
 37 39  1  0  0  0
 37 47  1  0  0  0
 37 66  1  0  0  0
 37108  1  0  0  0
 38 43  2  0  0  0
 38 46  1  0  0  0
 38 47  1  0  0  0
 39 64  1  0  0  0
 39 67  2  0  0  0
 40 52  1  0  0  0
 40 53  2  0  0  0
 40 58  1  0  0  0
 41109  1  0  0  0
 41110  1  0  0  0
 41111  1  0  0  0
 41 48  1  0  0  0
 42 43  1  0  0  0
 42 66  1  0  0  0
 42112  1  0  0  0
 42113  1  0  0  0
 43 44  1  0  0  0
 44114  1  0  0  0
 45 46  2  0  0  0
 45115  1  0  0  0
 46116  1  0  0  0
 47117  1  0  0  0
 47118  1  0  0  0
 48 56  1  0  0  0
 48 65  1  0  0  0
 48119  1  0  0  0
 49 50  1  0  0  0
 49 53  1  0  0  0
 49 64  1  0  0  0
 49120  1  0  0  0
 50 51  1  0  0  0
 50121  1  0  0  0
 50122  1  0  0  0
 51 52  1  0  0  0
 51123  1  0  0  0
 51124  1  0  0  0
 52125  1  0  0  0
 52126  1  0  0  0
 53 54  1  0  0  0
 54 55  2  0  0  0
 54127  1  0  0  0
 55 57  1  0  0  0
 55128  1  0  0  0
 56 69  2  0  0  0
 57 58  2  0  0  0
 57129  1  0  0  0
 58130  1  0  0  0
 59 60  1  0  0  0
 59 61  1  0  0  0
 59 62  1  0  0  0
 60131  1  0  0  0
 60132  1  0  0  0
 60133  1  0  0  0
 61134  1  0  0  0
 61135  1  0  0  0
 61136  1  0  0  0
 62137  1  0  0  0
 62138  1  0  0  0
 62139  1  0  0  0
 63 65  1  0  0  0
 63140  1  0  0  0
 63141  1  0  0  0
 63142  1  0  0  0
 64143  1  0  0  0
 65144  1  0  0  0
 68 81  1  0  0  0
 71 73  1  0  0  0
 71 74  2  0  0  0
 71145  1  0  0  0
 72 73  2  0  0  0
 72 82  1  0  0  0
 72146  1  0  0  0
 73 84  1  0  0  0
 74 75  1  0  0  0
 74 82  1  0  0  0
 75 83  1  0  0  0
 75 85  2  0  0  0
 76 77  1  0  0  0
 76 78  1  0  0  0
 76147  1  0  0  0
 76148  1  0  0  0
 77 79  1  0  0  0
 77149  1  0  0  0
 77150  1  0  0  0
 78 83  1  0  0  0
 78151  1  0  0  0
 78152  1  0  0  0
 79 81  1  0  0  0
 79 83  1  0  0  0
 79153  1  0  0  0
 80 82  1  0  0  0
 80154  1  0  0  0
 80155  1  0  0  0
 80156  1  0  0  0
 81157  1  0  0  0
 81158  1  0  0  0
 84159  1  0  0  0
 85160  1  0  0  0
 85161  1  0  0  0
M  CHG  1  85   1
M  ISO  4   1 100  68 101  81 101  84 100
M  END
> <chiral flag>
0

> <version>
0

> <s_m_source_file>
/data/baiqing/PycharmProjects/Reinvent-master-3.2/result/LINK_invent/BTK/process_docking_weight1_custom_product_contain_oxygen_bond_distance_aromatic_linkinvent_7_9_3/rearranged_h_0159.sdf

> <i_m_source_file_index>
42

> <r_mmod_Potential_Energy-OPLS-2005>
274.77734375

> <r_mmod_Stretch_Energy-OPLS-2005>
140.220855712891

> <r_mmod_Bend_Energy-OPLS-2005>
240.391891479492

> <r_mmod_Torsional_Energy-OPLS-2005>
343.411560058594

> <r_mmod_Improper_Torsional_Energy-OPLS-2005>
11.7615575790405

> <r_mmod_Van_der_Waal_Energy-OPLS-2005>
112.386894226074

> <r_mmod_Electrostatic_Energy-OPLS-2005>
-221.170944213867

> <r_mmod_Solvation_Energy-OPLS-2005>
-450.862274169922

> <b_mmod_Minimization_Converged-OPLS-2005>
0

> <r_mmod_RMS_Derivative-OPLS-2005>
0.722952842712402

$$$$
42
                    3D
 Structure written by MMmdl.
159168  0  0  1  0            999 V2000
  -30.6519  -14.6229   20.4693 C   0  0  0  0  0  0
  -30.4348  -12.3751   19.4596 C   0  0  0  0  0  0
  -29.5097  -12.4882   18.2296 C   0  0  0  0  0  0
  -28.0299  -12.3329   18.6376 C   0  0  0  0  0  0
  -27.6526  -13.2149   19.8578 C   0  0  2  0  0  0
  -28.6968  -13.0909   20.9895 C   0  0  0  0  0  0
  -25.2570  -13.8150   20.5663 C   0  0  0  0  0  0
  -24.1836  -13.0432   20.9188 C   0  0  0  0  0  0
  -24.6405  -11.6910   20.8733 C   0  0  0  0  0  0
  -23.9074  -10.4288   21.0367 C   0  0  0  0  0  0
  -24.3624   -9.4201   21.9146 C   0  0  0  0  0  0
  -23.6310   -8.2233   22.0742 C   0  0  0  0  0  0
  -22.4291   -8.0279   21.3528 C   0  0  0  0  0  0
  -21.9916   -9.0250   20.4632 C   0  0  0  0  0  0
  -22.7235  -10.2131   20.3024 C   0  0  0  0  0  0
  -21.6869   -6.0730   22.5273 C   0  0  0  0  0  0
  -21.4014   -6.5635   23.8208 C   0  0  0  0  0  0
  -21.3667   -5.6788   24.9172 C   0  0  0  0  0  0
  -21.6054   -4.3055   24.7211 C   0  0  0  0  0  0
  -21.8815   -3.8147   23.4333 C   0  0  0  0  0  0
  -21.9205   -4.6956   22.3388 C   0  0  0  0  0  0
  -22.7862  -13.5239   21.1846 C   0  0  0  0  0  0
  -22.1650   -4.2129   21.0963 F   0  0  0  0  0  0
  -21.5662   -3.4542   25.7720 F   0  0  0  0  0  0
  -30.0182  -13.4092   20.4252 N   0  0  0  0  0  0
  -26.2991  -12.9333   20.3284 N   0  0  0  0  0  0
  -25.9338  -11.6497   20.5763 N   0  0  0  0  0  0
  -22.0499  -12.8244   22.0398 N   0  0  0  0  0  0
  -25.4337  -15.1853   20.4077 N   0  0  0  0  0  0
  -31.8079  -14.7719   20.0680 O   0  0  0  0  0  0
  -21.6660   -6.8876   21.4237 O   0  0  0  0  0  0
  -22.3546  -14.5547   20.6694 O   0  0  0  0  0  0
  -24.6234  -31.8595   23.1987 C   0  0  0  0  0  0
  -25.9096  -32.4782   23.8324 C   0  0  1  0  0  0
  -27.2651  -27.3856   20.1074 C   0  0  0  0  0  0
  -25.5893  -33.8574   24.2261 N   0  0  0  0  0  0
  -23.4197  -30.4764   21.5344 C   0  0  2  0  0  0
  -24.8737  -28.9267   20.1085 C   0  0  0  0  0  0
  -22.7476  -29.4626   22.4896 C   0  0  0  0  0  0
  -18.0298  -28.1390   22.8495 C   0  0  0  0  0  0
  -24.1496  -36.7314   23.2639 C   0  0  0  0  0  0
  -25.9507  -30.8069   21.3641 C   0  0  0  0  0  0
  -26.0289  -29.4369   20.7109 C   0  0  0  0  0  0
  -27.2209  -28.6723   20.7033 C   0  0  0  0  0  0
  -26.0902  -26.8928   19.4997 C   0  0  0  0  0  0
  -24.9014  -27.6571   19.4969 C   0  0  0  0  0  0
  -23.6374  -29.7961   20.1543 C   0  0  0  0  0  0
  -25.4112  -36.3091   24.0340 C   0  0  1  0  0  0
  -20.5896  -28.3704   23.1264 C   0  0  2  0  0  0
  -20.6773  -26.9424   22.5414 C   0  0  0  0  0  0
  -19.5748  -26.6391   21.5223 C   0  0  0  0  0  0
  -18.1926  -26.7940   22.1632 C   0  0  0  0  0  0
  -19.1538  -28.8863   23.2885 C   0  0  0  0  0  0
  -18.9466  -30.1455   23.8921 C   0  0  0  0  0  0
  -17.6462  -30.6606   24.0582 C   0  0  0  0  0  0
  -25.9038  -34.9458   23.5101 C   0  0  0  0  0  0
  -16.5359  -29.9111   23.6329 C   0  0  0  0  0  0
  -16.7279  -28.6523   23.0353 C   0  0  0  0  0  0
  -26.4470  -31.6588   25.0702 C   0  0  0  0  0  0
  -25.3708  -31.3774   26.1457 C   0  0  0  0  0  0
  -27.0296  -30.3006   24.6167 C   0  0  0  0  0  0
  -27.6045  -32.4328   25.7440 C   0  0  0  0  0  0
  -27.5588  -37.1809   24.8455 C   0  0  0  0  0  0
  -21.4190  -29.3049   22.3649 N   0  0  0  0  0  0
  -26.4288  -37.3790   23.9410 N   0  0  0  0  0  0
  -24.6822  -31.0641   22.0907 N   0  0  0  0  0  0
  -23.4189  -28.8176   23.2991 O   0  0  0  0  0  0
  -28.4430  -26.6540   20.1895 O   0  0  0  0  0  0
  -26.5610  -34.8928   22.4682 O   0  0  0  0  0  0
  -23.5403  -32.1333   23.7359 O   0  0  0  0  0  0
  -30.2454  -18.2298   20.5836 C   0  0  0  0  0  0
  -29.3422  -19.2564   18.5892 C   0  0  0  0  0  0
  -29.1853  -16.9523   18.8351 C   0  0  0  0  0  0
  -30.0107  -19.4242   19.8161 C   0  0  0  0  0  0
  -29.8217  -16.9558   20.0909 C   0  0  0  0  0  0
  -28.6529  -25.3913   19.6371 C   0  0  0  0  0  0
  -28.6412  -24.2309   20.3532 C   0  0  0  0  0  0
  -29.1407  -22.9480   19.7547 C   0  0  0  0  0  0
  -30.8132  -21.0465   22.5052 C   0  0  0  0  0  0
  -31.6310  -20.8298   21.2455 C   0  0  0  0  0  0
  -29.7560  -22.0522   22.0489 C   0  0  0  0  0  0
  -30.5665  -20.8538   20.1449 C   0  0  2  0  0  0
  -28.9421  -18.0609   18.1064 N   0  0  0  0  0  0
  -29.6296  -21.9500   20.5838 N   0  0  0  0  0  0
  -29.9010  -15.7032   20.8250 N   0  0  0  0  0  0
  -29.1988  -22.7984   18.5301 O   0  0  0  0  0  0
  -28.1799  -24.3040   21.6096 O   0  0  0  0  0  0
  -31.4766  -12.4919   19.1546 H   0  0  0  0  0  0
  -30.3705  -11.3841   19.9105 H   0  0  0  0  0  0
  -29.7742  -11.7244   17.4960 H   0  0  0  0  0  0
  -29.6613  -13.4521   17.7432 H   0  0  0  0  0  0
  -27.8646  -11.2836   18.8818 H   0  0  0  0  0  0
  -27.3778  -12.5485   17.7912 H   0  0  0  0  0  0
  -27.6647  -14.2440   19.5037 H   0  0  0  0  0  0
  -28.7021  -12.0791   21.3988 H   0  0  0  0  0  0
  -28.4482  -13.7522   21.8208 H   0  0  0  0  0  0
  -25.2755   -9.5706   22.4728 H   0  0  0  0  0  0
  -24.0034   -7.4637   22.7467 H   0  0  0  0  0  0
  -21.0850   -8.8779   19.8941 H   0  0  0  0  0  0
  -22.3684  -10.9686   19.6155 H   0  0  0  0  0  0
  -21.1976   -7.6150   23.9706 H   0  0  0  0  0  0
  -21.1505   -6.0510   25.9080 H   0  0  0  0  0  0
  -22.0586   -2.7610   23.2833 H   0  0  0  0  0  0
  -22.4150  -11.9918   22.4794 H   0  0  0  0  0  0
  -21.1113  -13.1239   22.2605 H   0  0  0  0  0  0
  -24.6763  -15.8489   20.5244 H   0  0  0  0  0  0
  -26.2878  -15.6150   20.0761 H   0  0  0  0  0  0
  -26.7165  -32.5488   23.1087 H   0  0  0  0  0  0
  -25.0042  -33.9677   25.0395 H   0  0  0  0  0  0
  -22.7166  -31.2972   21.3800 H   0  0  0  0  0  0
  -23.3756  -35.9651   23.3296 H   0  0  0  0  0  0
  -24.3581  -36.8943   22.2053 H   0  0  0  0  0  0
  -23.7248  -37.6519   23.6651 H   0  0  0  0  0  0
  -26.0773  -31.5718   20.5966 H   0  0  0  0  0  0
  -26.8322  -30.8554   21.9933 H   0  0  0  0  0  0
  -28.1120  -29.0617   21.1760 H   0  0  0  0  0  0
  -26.0918  -25.9138   19.0419 H   0  0  0  0  0  0
  -24.0141  -27.2557   19.0276 H   0  0  0  0  0  0
  -23.7554  -30.5614   19.3868 H   0  0  0  0  0  0
  -22.7660  -29.2096   19.8624 H   0  0  0  0  0  0
  -25.1300  -36.1939   25.0835 H   0  0  0  0  0  0
  -20.9997  -28.3293   24.1380 H   0  0  0  0  0  0
  -20.5654  -26.2334   23.3625 H   0  0  0  0  0  0
  -21.6637  -26.7441   22.1213 H   0  0  0  0  0  0
  -19.6900  -25.6297   21.1254 H   0  0  0  0  0  0
  -19.6677  -27.3203   20.6747 H   0  0  0  0  0  0
  -17.4202  -26.6715   21.4030 H   0  0  0  0  0  0
  -18.0309  -26.0068   22.9011 H   0  0  0  0  0  0
  -19.7941  -30.7267   24.2304 H   0  0  0  0  0  0
  -17.5026  -31.6276   24.5184 H   0  0  0  0  0  0
  -15.5358  -30.3029   23.7622 H   0  0  0  0  0  0
  -15.8677  -28.0859   22.7031 H   0  0  0  0  0  0
  -24.5824  -30.7194   25.7794 H   0  0  0  0  0  0
  -24.8972  -32.2973   26.4901 H   0  0  0  0  0  0
  -25.8022  -30.8912   27.0218 H   0  0  0  0  0  0
  -26.2860  -29.6767   24.1222 H   0  0  0  0  0  0
  -27.3990  -29.7278   25.4673 H   0  0  0  0  0  0
  -27.8723  -30.4273   23.9384 H   0  0  0  0  0  0
  -27.2662  -33.3621   26.2043 H   0  0  0  0  0  0
  -28.3821  -32.6927   25.0242 H   0  0  0  0  0  0
  -28.0765  -31.8456   26.5327 H   0  0  0  0  0  0
  -28.2620  -38.0094   24.7510 H   0  0  0  0  0  0
  -28.1071  -36.2633   24.6273 H   0  0  0  0  0  0
  -27.2312  -37.1471   25.8856 H   0  0  0  0  0  0
  -20.9361  -29.8781   21.6881 H   0  0  0  0  0  0
  -26.0191  -38.2878   24.1389 H   0  0  0  0  0  0
  -30.7627  -18.2738   21.5301 H   0  0  0  0  0  0
  -29.1669  -20.1047   17.9448 H   0  0  0  0  0  0
  -28.8244  -16.0290   18.4086 H   0  0  0  0  0  0
  -28.9308  -25.4531   18.5939 H   0  0  0  0  0  0
  -31.4154  -21.4134   23.3387 H   0  0  0  0  0  0
  -30.3365  -20.1172   22.8199 H   0  0  0  0  0  0
  -32.2645  -19.9439   21.2450 H   0  0  0  0  0  0
  -32.2958  -21.6867   21.1136 H   0  0  0  0  0  0
  -30.1305  -23.0412   22.3133 H   0  0  0  0  0  0
  -28.7926  -21.8926   22.5379 H   0  0  0  0  0  0
  -31.0748  -21.1829   19.2346 H   0  0  0  0  0  0
  -29.0223  -15.4254   21.2408 H   0  0  0  0  0  0
  -27.9516  -25.2126   21.7583 H   0  0  0  0  0  0
  1 25  1  0  0  0
  1 30  2  0  0  0
  1 85  1  0  0  0
  2  3  1  0  0  0
  2 25  1  0  0  0
  2 88  1  0  0  0
  2 89  1  0  0  0
  3  4  1  0  0  0
  3 90  1  0  0  0
  3 91  1  0  0  0
  4  5  1  0  0  0
  4 92  1  0  0  0
  4 93  1  0  0  0
  5  6  1  0  0  0
  5 26  1  0  0  0
  5 94  1  0  0  0
  6 25  1  0  0  0
  6 95  1  0  0  0
  6 96  1  0  0  0
  7  8  2  0  0  0
  7 26  1  0  0  0
  7 29  1  0  0  0
  8  9  1  0  0  0
  8 22  1  0  0  0
  9 10  1  0  0  0
  9 27  2  0  0  0
 10 11  2  0  0  0
 10 15  1  0  0  0
 11 12  1  0  0  0
 11 97  1  0  0  0
 12 13  2  0  0  0
 12 98  1  0  0  0
 13 14  1  0  0  0
 13 31  1  0  0  0
 14 15  2  0  0  0
 14 99  1  0  0  0
 15100  1  0  0  0
 16 17  2  0  0  0
 16 21  1  0  0  0
 16 31  1  0  0  0
 17 18  1  0  0  0
 17101  1  0  0  0
 18 19  2  0  0  0
 18102  1  0  0  0
 19 20  1  0  0  0
 19 24  1  0  0  0
 20 21  2  0  0  0
 20103  1  0  0  0
 21 23  1  0  0  0
 22 28  1  0  0  0
 22 32  2  0  0  0
 26 27  1  0  0  0
 28104  1  0  0  0
 28105  1  0  0  0
 29106  1  0  0  0
 29107  1  0  0  0
 33 34  1  0  0  0
 33 66  1  0  0  0
 33 70  2  0  0  0
 34 36  1  0  0  0
 34 59  1  0  0  0
 34108  1  0  0  0
 35 44  2  0  0  0
 35 45  1  0  0  0
 35 68  1  0  0  0
 36 56  1  0  0  0
 36109  1  0  0  0
 37 39  1  0  0  0
 37 47  1  0  0  0
 37 66  1  0  0  0
 37110  1  0  0  0
 38 43  2  0  0  0
 38 46  1  0  0  0
 38 47  1  0  0  0
 39 64  1  0  0  0
 39 67  2  0  0  0
 40 52  1  0  0  0
 40 53  2  0  0  0
 40 58  1  0  0  0
 41111  1  0  0  0
 41112  1  0  0  0
 41113  1  0  0  0
 41 48  1  0  0  0
 42 43  1  0  0  0
 42 66  1  0  0  0
 42114  1  0  0  0
 42115  1  0  0  0
 43 44  1  0  0  0
 44116  1  0  0  0
 45 46  2  0  0  0
 45117  1  0  0  0
 46118  1  0  0  0
 47119  1  0  0  0
 47120  1  0  0  0
 48 56  1  0  0  0
 48 65  1  0  0  0
 48121  1  0  0  0
 49 50  1  0  0  0
 49 53  1  0  0  0
 49 64  1  0  0  0
 49122  1  0  0  0
 50 51  1  0  0  0
 50123  1  0  0  0
 50124  1  0  0  0
 51 52  1  0  0  0
 51125  1  0  0  0
 51126  1  0  0  0
 52127  1  0  0  0
 52128  1  0  0  0
 53 54  1  0  0  0
 54 55  2  0  0  0
 54129  1  0  0  0
 55 57  1  0  0  0
 55130  1  0  0  0
 56 69  2  0  0  0
 57 58  2  0  0  0
 57131  1  0  0  0
 58132  1  0  0  0
 59 60  1  0  0  0
 59 61  1  0  0  0
 59 62  1  0  0  0
 60133  1  0  0  0
 60134  1  0  0  0
 60135  1  0  0  0
 61136  1  0  0  0
 61137  1  0  0  0
 61138  1  0  0  0
 62139  1  0  0  0
 62140  1  0  0  0
 62141  1  0  0  0
 63 65  1  0  0  0
 63142  1  0  0  0
 63143  1  0  0  0
 63144  1  0  0  0
 64145  1  0  0  0
 65146  1  0  0  0
 68 76  1  0  0  0
 71 74  2  0  0  0
 71 75  1  0  0  0
 71147  1  0  0  0
 72 74  1  0  0  0
 72 83  2  0  0  0
 72148  1  0  0  0
 73 75  2  0  0  0
 73 83  1  0  0  0
 73149  1  0  0  0
 74 82  1  0  0  0
 75 85  1  0  0  0
 76 77  2  0  0  0
 76150  1  0  0  0
 77 78  1  0  0  0
 77 87  1  0  0  0
 78 84  1  0  0  0
 78 86  2  0  0  0
 79 80  1  0  0  0
 79 81  1  0  0  0
 79151  1  0  0  0
 79152  1  0  0  0
 80 82  1  0  0  0
 80153  1  0  0  0
 80154  1  0  0  0
 81 84  1  0  0  0
 81155  1  0  0  0
 81156  1  0  0  0
 82 84  1  0  0  0
 82157  1  0  0  0
 85158  1  0  0  0
 87159  1  0  0  0
M  ISO  4   1 100  68 101  76 101  85 100
M  END
> <chiral flag>
0

> <version>
0

> <s_m_source_file>
/data/baiqing/PycharmProjects/Reinvent-master-3.2/result/LINK_invent/BTK/process_docking_weight1_custom_product_contain_oxygen_bond_distance_aromatic_linkinvent_7_9_3/rearranged_h_0159.sdf

> <i_m_source_file_index>
43

> <r_mmod_Potential_Energy-OPLS-2005>
39.8376655578613

> <r_mmod_Stretch_Energy-OPLS-2005>
69.2379913330078

> <r_mmod_Bend_Energy-OPLS-2005>
168.132995605469

> <r_mmod_Torsional_Energy-OPLS-2005>
338.553649902344

> <r_mmod_Improper_Torsional_Energy-OPLS-2005>
10.7573480606079

> <r_mmod_Van_der_Waal_Energy-OPLS-2005>
153.302520751953

> <r_mmod_Electrostatic_Energy-OPLS-2005>
-502.286651611328

> <r_mmod_Solvation_Energy-OPLS-2005>
-235.216201782227

> <b_mmod_Minimization_Converged-OPLS-2005>
0

> <r_mmod_RMS_Derivative-OPLS-2005>
4.82562017440796

$$$$
43
                    3D
 Structure written by MMmdl.
158166  0  0  1  0            999 V2000
  -30.5918  -14.7605   20.4596 C   0  0  0  0  0  0
  -30.4349  -12.4628   19.4825 C   0  0  0  0  0  0
  -29.5144  -12.5147   18.2424 C   0  0  0  0  0  0
  -28.0392  -12.3349   18.6518 C   0  0  0  0  0  0
  -27.6430  -13.2314   19.8560 C   0  0  2  0  0  0
  -28.6852  -13.1595   20.9940 C   0  0  0  0  0  0
  -25.2514  -13.8195   20.5705 C   0  0  0  0  0  0
  -24.1796  -13.0442   20.9203 C   0  0  0  0  0  0
  -24.6380  -11.6919   20.8738 C   0  0  0  0  0  0
  -23.9050  -10.4299   21.0398 C   0  0  0  0  0  0
  -24.3606   -9.4216   21.9177 C   0  0  0  0  0  0
  -23.6289   -8.2248   22.0747 C   0  0  0  0  0  0
  -22.4275   -8.0279   21.3538 C   0  0  0  0  0  0
  -21.9902   -9.0248   20.4640 C   0  0  0  0  0  0
  -22.7220  -10.2134   20.3049 C   0  0  0  0  0  0
  -21.6853   -6.0732   22.5280 C   0  0  0  0  0  0
  -21.4011   -6.5636   23.8210 C   0  0  0  0  0  0
  -21.3664   -5.6791   24.9174 C   0  0  0  0  0  0
  -21.6048   -4.3052   24.7227 C   0  0  0  0  0  0
  -21.8820   -3.8142   23.4347 C   0  0  0  0  0  0
  -21.9192   -4.6959   22.3402 C   0  0  0  0  0  0
  -22.7816  -13.5229   21.1874 C   0  0  0  0  0  0
  -22.1660   -4.2142   21.0979 F   0  0  0  0  0  0
  -21.5632   -3.4539   25.7741 F   0  0  0  0  0  0
  -29.9889  -13.5209   20.4216 N   0  0  0  0  0  0
  -26.2937  -12.9401   20.3297 N   0  0  0  0  0  0
  -25.9310  -11.6544   20.5739 N   0  0  0  0  0  0
  -22.0466  -12.8212   22.0427 N   0  0  0  0  0  0
  -25.4222  -15.1917   20.4130 N   0  0  0  0  0  0
  -31.7675  -14.8749   20.1022 O   0  0  0  0  0  0
  -21.6640   -6.8874   21.4242 O   0  0  0  0  0  0
  -22.3503  -14.5543   20.6728 O   0  0  0  0  0  0
  -24.6326  -31.8554   23.1977 C   0  0  0  0  0  0
  -25.9141  -32.4753   23.8335 C   0  0  1  0  0  0
  -27.2172  -27.2444   20.1485 C   0  0  0  0  0  0
  -25.5934  -33.8554   24.2255 N   0  0  0  0  0  0
  -23.4307  -30.4758   21.5412 C   0  0  2  0  0  0
  -24.8812  -28.9188   20.1126 C   0  0  0  0  0  0
  -22.7509  -29.4589   22.4904 C   0  0  0  0  0  0
  -18.0297  -28.1393   22.8492 C   0  0  0  0  0  0
  -24.1488  -36.7267   23.2643 C   0  0  0  0  0  0
  -25.9780  -30.7604   21.3839 C   0  0  0  0  0  0
  -26.0512  -29.3792   20.7324 C   0  0  0  0  0  0
  -27.2238  -28.5536   20.7413 C   0  0  0  0  0  0
  -26.0374  -26.8674   19.4739 C   0  0  0  0  0  0
  -24.8798  -27.6701   19.4720 C   0  0  0  0  0  0
  -23.6520  -29.8079   20.1580 C   0  0  0  0  0  0
  -25.4120  -36.3068   24.0329 C   0  0  1  0  0  0
  -20.5904  -28.3702   23.1269 C   0  0  2  0  0  0
  -20.6776  -26.9419   22.5409 C   0  0  0  0  0  0
  -19.5752  -26.6394   21.5209 C   0  0  0  0  0  0
  -18.1935  -26.7937   22.1628 C   0  0  0  0  0  0
  -19.1551  -28.8867   23.2875 C   0  0  0  0  0  0
  -18.9469  -30.1468   23.8896 C   0  0  0  0  0  0
  -17.6464  -30.6596   24.0563 C   0  0  0  0  0  0
  -25.9059  -34.9436   23.5090 C   0  0  0  0  0  0
  -16.5358  -29.9091   23.6333 C   0  0  0  0  0  0
  -16.7280  -28.6505   23.0360 C   0  0  0  0  0  0
  -26.4507  -31.6581   25.0725 C   0  0  0  0  0  0
  -25.3720  -31.3727   26.1434 C   0  0  0  0  0  0
  -27.0355  -30.2995   24.6217 C   0  0  0  0  0  0
  -27.6057  -32.4325   25.7499 C   0  0  0  0  0  0
  -27.5577  -37.1799   24.8476 C   0  0  0  0  0  0
  -21.4217  -29.3037   22.3643 N   0  0  0  0  0  0
  -26.4294  -37.3766   23.9412 N   0  0  0  0  0  0
  -24.6991  -31.0502   22.0964 N   0  0  0  0  0  0
  -23.4199  -28.8141   23.3017 O   0  0  0  0  0  0
  -28.2902  -26.3165   20.1641 O   0  0  0  0  0  0
  -26.5635  -34.8908   22.4662 O   0  0  0  0  0  0
  -23.5470  -32.1393   23.7256 O   0  0  0  0  0  0
  -29.2687  -18.4242   21.0413 C   0  0  0  0  0  0
  -30.4214  -20.0433   19.6937 C   0  0  0  0  0  0
  -30.9127  -17.7510   19.4344 C   0  0  0  0  0  0
  -29.4719  -19.8316   20.7093 C   0  0  0  0  0  0
  -30.0039  -17.3292   20.4318 C   0  0  0  0  0  0
  -28.8229  -21.0033   21.4795 C   0  0  0  0  0  0
  -26.8293  -24.7847   21.5685 C   0  0  0  0  0  0
  -29.2063  -25.3412   22.0918 C   0  0  0  0  0  0
  -28.7065  -23.5687   20.2912 C   0  0  0  0  0  0
  -28.2330  -25.0089   20.9463 C   0  0  0  0  0  0
  -31.1072  -19.0459   19.0743 N   0  0  0  0  0  0
  -28.4101  -20.6666   22.7129 N   0  0  0  0  0  0
  -29.8137  -15.8782   20.7528 N   0  0  0  0  0  0
  -28.5657  -22.3671   21.2448 N   0  3  0  0  0  0
  -31.4765  -12.5878   19.1820 H   0  0  0  0  0  0
  -30.3804  -11.4839   19.9603 H   0  0  0  0  0  0
  -29.8003  -11.7439   17.5258 H   0  0  0  0  0  0
  -29.6403  -13.4708   17.7313 H   0  0  0  0  0  0
  -27.8952  -11.2850   18.9098 H   0  0  0  0  0  0
  -27.3839  -12.5308   17.8018 H   0  0  0  0  0  0
  -27.6396  -14.2549   19.4803 H   0  0  0  0  0  0
  -28.7211  -12.1570   21.4232 H   0  0  0  0  0  0
  -28.4134  -13.8288   21.8112 H   0  0  0  0  0  0
  -25.2754   -9.5704   22.4744 H   0  0  0  0  0  0
  -24.0007   -7.4644   22.7465 H   0  0  0  0  0  0
  -21.0833   -8.8758   19.8941 H   0  0  0  0  0  0
  -22.3670  -10.9669   19.6153 H   0  0  0  0  0  0
  -21.1999   -7.6143   23.9711 H   0  0  0  0  0  0
  -21.1486   -6.0520   25.9076 H   0  0  0  0  0  0
  -22.0595   -2.7605   23.2849 H   0  0  0  0  0  0
  -22.4091  -11.9871   22.4802 H   0  0  0  0  0  0
  -21.1079  -13.1215   22.2642 H   0  0  0  0  0  0
  -24.6525  -15.8446   20.5157 H   0  0  0  0  0  0
  -26.2656  -15.6277   20.0643 H   0  0  0  0  0  0
  -26.7200  -32.5405   23.1072 H   0  0  0  0  0  0
  -25.0075  -33.9697   25.0396 H   0  0  0  0  0  0
  -22.7266  -31.2976   21.3935 H   0  0  0  0  0  0
  -23.3755  -35.9592   23.3310 H   0  0  0  0  0  0
  -24.3570  -36.8886   22.2055 H   0  0  0  0  0  0
  -23.7227  -37.6462   23.6663 H   0  0  0  0  0  0
  -26.1215  -31.5166   20.6108 H   0  0  0  0  0  0
  -26.8528  -30.8122   22.0197 H   0  0  0  0  0  0
  -28.1187  -28.8990   21.2398 H   0  0  0  0  0  0
  -25.9998  -25.9119   18.9704 H   0  0  0  0  0  0
  -23.9886  -27.3161   18.9736 H   0  0  0  0  0  0
  -23.7767  -30.5836   19.4015 H   0  0  0  0  0  0
  -22.7702  -29.2408   19.8532 H   0  0  0  0  0  0
  -25.1301  -36.1917   25.0821 H   0  0  0  0  0  0
  -21.0000  -28.3284   24.1385 H   0  0  0  0  0  0
  -20.5671  -26.2315   23.3618 H   0  0  0  0  0  0
  -21.6644  -26.7432   22.1207 H   0  0  0  0  0  0
  -19.6907  -25.6302   21.1251 H   0  0  0  0  0  0
  -19.6690  -27.3190   20.6732 H   0  0  0  0  0  0
  -17.4201  -26.6686   21.4034 H   0  0  0  0  0  0
  -18.0338  -26.0078   22.9029 H   0  0  0  0  0  0
  -19.7942  -30.7290   24.2264 H   0  0  0  0  0  0
  -17.5016  -31.6277   24.5161 H   0  0  0  0  0  0
  -15.5354  -30.2991   23.7663 H   0  0  0  0  0  0
  -15.8679  -28.0822   22.7082 H   0  0  0  0  0  0
  -24.5903  -30.7069   25.7753 H   0  0  0  0  0  0
  -24.8899  -32.2889   26.4854 H   0  0  0  0  0  0
  -25.8034  -30.8910   27.0216 H   0  0  0  0  0  0
  -26.2945  -29.6737   24.1228 H   0  0  0  0  0  0
  -27.4016  -29.7264   25.4749 H   0  0  0  0  0  0
  -27.8834  -30.4262   23.9478 H   0  0  0  0  0  0
  -27.2665  -33.3629   26.2068 H   0  0  0  0  0  0
  -28.3875  -32.6886   25.0329 H   0  0  0  0  0  0
  -28.0714  -31.8453   26.5426 H   0  0  0  0  0  0
  -28.2621  -38.0075   24.7496 H   0  0  0  0  0  0
  -28.1052  -36.2603   24.6342 H   0  0  0  0  0  0
  -27.2290  -37.1492   25.8881 H   0  0  0  0  0  0
  -20.9415  -29.8747   21.6833 H   0  0  0  0  0  0
  -26.0173  -38.2845   24.1387 H   0  0  0  0  0  0
  -28.5568  -18.1761   21.8143 H   0  0  0  0  0  0
  -30.6598  -21.0484   19.3788 H   0  0  0  0  0  0
  -31.4931  -17.0391   18.8682 H   0  0  0  0  0  0
  -26.4546  -25.6729   22.0792 H   0  0  0  0  0  0
  -26.8348  -24.0019   22.3245 H   0  0  0  0  0  0
  -26.0978  -24.4901   20.8167 H   0  0  0  0  0  0
  -29.2710  -24.5412   22.8298 H   0  0  0  0  0  0
  -28.8998  -26.2437   22.6224 H   0  0  0  0  0  0
  -30.2119  -25.5151   21.7092 H   0  0  0  0  0  0
  -28.1182  -23.3638   19.3965 H   0  0  0  0  0  0
  -29.7436  -23.6349   19.9615 H   0  0  0  0  0  0
  -28.0139  -21.3182   23.3740 H   0  0  0  0  0  0
  -28.5586  -19.7353   23.0702 H   0  0  0  0  0  0
  -28.9223  -15.6439   21.1653 H   0  0  0  0  0  0
  -27.9864  -22.7334   21.9824 H   0  0  0  0  0  0
  1 25  1  0  0  0
  1 30  2  0  0  0
  1 83  1  0  0  0
  2  3  1  0  0  0
  2 25  1  0  0  0
  2 85  1  0  0  0
  2 86  1  0  0  0
  3  4  1  0  0  0
  3 87  1  0  0  0
  3 88  1  0  0  0
  4  5  1  0  0  0
  4 89  1  0  0  0
  4 90  1  0  0  0
  5  6  1  0  0  0
  5 26  1  0  0  0
  5 91  1  0  0  0
  6 25  1  0  0  0
  6 92  1  0  0  0
  6 93  1  0  0  0
  7  8  2  0  0  0
  7 26  1  0  0  0
  7 29  1  0  0  0
  8  9  1  0  0  0
  8 22  1  0  0  0
  9 10  1  0  0  0
  9 27  2  0  0  0
 10 11  2  0  0  0
 10 15  1  0  0  0
 11 12  1  0  0  0
 11 94  1  0  0  0
 12 13  2  0  0  0
 12 95  1  0  0  0
 13 14  1  0  0  0
 13 31  1  0  0  0
 14 15  2  0  0  0
 14 96  1  0  0  0
 15 97  1  0  0  0
 16 17  2  0  0  0
 16 21  1  0  0  0
 16 31  1  0  0  0
 17 18  1  0  0  0
 17 98  1  0  0  0
 18 19  2  0  0  0
 18 99  1  0  0  0
 19 20  1  0  0  0
 19 24  1  0  0  0
 20 21  2  0  0  0
 20100  1  0  0  0
 21 23  1  0  0  0
 22 28  1  0  0  0
 22 32  2  0  0  0
 26 27  1  0  0  0
 28101  1  0  0  0
 28102  1  0  0  0
 29103  1  0  0  0
 29104  1  0  0  0
 33 34  1  0  0  0
 33 66  1  0  0  0
 33 70  2  0  0  0
 34 36  1  0  0  0
 34 59  1  0  0  0
 34105  1  0  0  0
 35 44  2  0  0  0
 35 45  1  0  0  0
 35 68  1  0  0  0
 36 56  1  0  0  0
 36106  1  0  0  0
 37 39  1  0  0  0
 37 47  1  0  0  0
 37 66  1  0  0  0
 37107  1  0  0  0
 38 43  2  0  0  0
 38 46  1  0  0  0
 38 47  1  0  0  0
 39 64  1  0  0  0
 39 67  2  0  0  0
 40 52  1  0  0  0
 40 53  2  0  0  0
 40 58  1  0  0  0
 41108  1  0  0  0
 41109  1  0  0  0
 41110  1  0  0  0
 41 48  1  0  0  0
 42 43  1  0  0  0
 42 66  1  0  0  0
 42111  1  0  0  0
 42112  1  0  0  0
 43 44  1  0  0  0
 44113  1  0  0  0
 45 46  2  0  0  0
 45114  1  0  0  0
 46115  1  0  0  0
 47116  1  0  0  0
 47117  1  0  0  0
 48 56  1  0  0  0
 48 65  1  0  0  0
 48118  1  0  0  0
 49 50  1  0  0  0
 49 53  1  0  0  0
 49 64  1  0  0  0
 49119  1  0  0  0
 50 51  1  0  0  0
 50120  1  0  0  0
 50121  1  0  0  0
 51 52  1  0  0  0
 51122  1  0  0  0
 51123  1  0  0  0
 52124  1  0  0  0
 52125  1  0  0  0
 53 54  1  0  0  0
 54 55  2  0  0  0
 54126  1  0  0  0
 55 57  1  0  0  0
 55127  1  0  0  0
 56 69  2  0  0  0
 57 58  2  0  0  0
 57128  1  0  0  0
 58129  1  0  0  0
 59 60  1  0  0  0
 59 61  1  0  0  0
 59 62  1  0  0  0
 60130  1  0  0  0
 60131  1  0  0  0
 60132  1  0  0  0
 61133  1  0  0  0
 61134  1  0  0  0
 61135  1  0  0  0
 62136  1  0  0  0
 62137  1  0  0  0
 62138  1  0  0  0
 63 65  1  0  0  0
 63139  1  0  0  0
 63140  1  0  0  0
 63141  1  0  0  0
 64142  1  0  0  0
 65143  1  0  0  0
 68 80  1  0  0  0
 71 74  2  0  0  0
 71 75  1  0  0  0
 71144  1  0  0  0
 72 74  1  0  0  0
 72 81  2  0  0  0
 72145  1  0  0  0
 73 75  2  0  0  0
 73 81  1  0  0  0
 73146  1  0  0  0
 74 76  1  0  0  0
 75 83  1  0  0  0
 76 82  1  0  0  0
 76 84  2  0  0  0
 77147  1  0  0  0
 77148  1  0  0  0
 77149  1  0  0  0
 77 80  1  0  0  0
 78 80  1  0  0  0
 78150  1  0  0  0
 78151  1  0  0  0
 78152  1  0  0  0
 79 80  1  0  0  0
 79 84  1  0  0  0
 79153  1  0  0  0
 79154  1  0  0  0
 82155  1  0  0  0
 82156  1  0  0  0
 83157  1  0  0  0
 84158  1  0  0  0
M  CHG  1  84   1
M  ISO  4   1 100  68 101  80 101  83 100
M  END
> <chiral flag>
0

> <version>
0

> <s_m_source_file>
/data/baiqing/PycharmProjects/Reinvent-master-3.2/result/LINK_invent/BTK/process_docking_weight1_custom_product_contain_oxygen_bond_distance_aromatic_linkinvent_7_9_3/rearranged_h_0159.sdf

> <i_m_source_file_index>
44

> <r_mmod_Potential_Energy-OPLS-2005>
13.3559846878052

> <r_mmod_Stretch_Energy-OPLS-2005>
144.50895690918

> <r_mmod_Bend_Energy-OPLS-2005>
242.46923828125

> <r_mmod_Torsional_Energy-OPLS-2005>
251.848434448242

> <r_mmod_Improper_Torsional_Energy-OPLS-2005>
4.28176069259644

> <r_mmod_Van_der_Waal_Energy-OPLS-2005>
145.332611083984

> <r_mmod_Electrostatic_Energy-OPLS-2005>
-376.69140625

> <r_mmod_Solvation_Energy-OPLS-2005>
-492.873901367188

> <b_mmod_Minimization_Converged-OPLS-2005>
0

> <r_mmod_RMS_Derivative-OPLS-2005>
1.34135127067566

$$$$
44
                    3D
 Structure written by MMmdl.
159167  0  0  1  0            999 V2000
  -30.6061  -14.8026   20.4447 C   0  0  0  0  0  0
  -30.4455  -12.4983   19.4701 C   0  0  0  0  0  0
  -29.5142  -12.5101   18.2362 C   0  0  0  0  0  0
  -28.0425  -12.3283   18.6557 C   0  0  0  0  0  0
  -27.6406  -13.2391   19.8464 C   0  0  2  0  0  0
  -28.6935  -13.2022   20.9765 C   0  0  0  0  0  0
  -25.2493  -13.8217   20.5727 C   0  0  0  0  0  0
  -24.1804  -13.0444   20.9267 C   0  0  0  0  0  0
  -24.6407  -11.6928   20.8769 C   0  0  0  0  0  0
  -23.9073  -10.4292   21.0415 C   0  0  0  0  0  0
  -24.3614   -9.4205   21.9190 C   0  0  0  0  0  0
  -23.6290   -8.2240   22.0750 C   0  0  0  0  0  0
  -22.4270   -8.0274   21.3540 C   0  0  0  0  0  0
  -21.9915   -9.0250   20.4637 C   0  0  0  0  0  0
  -22.7245  -10.2134   20.3060 C   0  0  0  0  0  0
  -21.6848   -6.0734   22.5272 C   0  0  0  0  0  0
  -21.4003   -6.5633   23.8207 C   0  0  0  0  0  0
  -21.3664   -5.6786   24.9176 C   0  0  0  0  0  0
  -21.6057   -4.3049   24.7221 C   0  0  0  0  0  0
  -21.8817   -3.8140   23.4335 C   0  0  0  0  0  0
  -21.9190   -4.6964   22.3394 C   0  0  0  0  0  0
  -22.7817  -13.5216   21.1907 C   0  0  0  0  0  0
  -22.1661   -4.2146   21.0975 F   0  0  0  0  0  0
  -21.5640   -3.4536   25.7737 F   0  0  0  0  0  0
  -29.9888  -13.5694   20.3865 N   0  0  0  0  0  0
  -26.2925  -12.9436   20.3278 N   0  0  0  0  0  0
  -25.9337  -11.6569   20.5748 N   0  0  0  0  0  0
  -22.0452  -12.8190   22.0447 N   0  0  0  0  0  0
  -25.4156  -15.1934   20.4116 N   0  0  0  0  0  0
  -31.8126  -14.8906   20.1899 O   0  0  0  0  0  0
  -21.6633   -6.8872   21.4230 O   0  0  0  0  0  0
  -22.3496  -14.5524   20.6765 O   0  0  0  0  0  0
  -24.6362  -31.8522   23.1931 C   0  0  0  0  0  0
  -25.9159  -32.4726   23.8317 C   0  0  1  0  0  0
  -27.2303  -27.2322   20.1027 C   0  0  0  0  0  0
  -25.5942  -33.8522   24.2217 N   0  0  0  0  0  0
  -23.4350  -30.4722   21.5416 C   0  0  2  0  0  0
  -24.8773  -28.9210   20.1089 C   0  0  0  0  0  0
  -22.7550  -29.4561   22.4894 C   0  0  0  0  0  0
  -18.0300  -28.1378   22.8474 C   0  0  0  0  0  0
  -24.1484  -36.7272   23.2643 C   0  0  0  0  0  0
  -25.9833  -30.7555   21.3756 C   0  0  0  0  0  0
  -26.0532  -29.3773   20.7114 C   0  0  0  0  0  0
  -27.2250  -28.5467   20.6964 C   0  0  0  0  0  0
  -26.0070  -26.8433   19.5076 C   0  0  0  0  0  0
  -24.8602  -27.6588   19.5023 C   0  0  0  0  0  0
  -23.6506  -29.8108   20.1567 C   0  0  0  0  0  0
  -25.4109  -36.3029   24.0334 C   0  0  1  0  0  0
  -20.5905  -28.3686   23.1255 C   0  0  2  0  0  0
  -20.6788  -26.9408   22.5391 C   0  0  0  0  0  0
  -19.5760  -26.6385   21.5188 C   0  0  0  0  0  0
  -18.1938  -26.7919   22.1614 C   0  0  0  0  0  0
  -19.1556  -28.8860   23.2857 C   0  0  0  0  0  0
  -18.9489  -30.1462   23.8886 C   0  0  0  0  0  0
  -17.6491  -30.6589   24.0558 C   0  0  0  0  0  0
  -25.9066  -34.9406   23.5069 C   0  0  0  0  0  0
  -16.5374  -29.9091   23.6324 C   0  0  0  0  0  0
  -16.7292  -28.6505   23.0342 C   0  0  0  0  0  0
  -26.4497  -31.6580   25.0738 C   0  0  0  0  0  0
  -25.3678  -31.3777   26.1423 C   0  0  0  0  0  0
  -27.0354  -30.3004   24.6240 C   0  0  0  0  0  0
  -27.6056  -32.4323   25.7473 C   0  0  0  0  0  0
  -27.5571  -37.1783   24.8472 C   0  0  0  0  0  0
  -21.4237  -29.3032   22.3662 N   0  0  0  0  0  0
  -26.4267  -37.3755   23.9417 N   0  0  0  0  0  0
  -24.7062  -31.0424   22.0954 N   0  0  0  0  0  0
  -23.4216  -28.8058   23.3013 O   0  0  0  0  0  0
  -28.3737  -26.3782   20.1909 O   0  0  0  0  0  0
  -26.5646  -34.8910   22.4641 O   0  0  0  0  0  0
  -23.5509  -32.1336   23.7225 O   0  0  0  0  0  0
  -29.1065  -18.3436   20.2192 C   0  0  0  0  0  0
  -29.6621  -19.6772   20.4887 C   0  0  0  0  0  0
  -30.0195  -17.3255   20.5180 C   0  0  0  0  0  0
  -30.9074  -19.2988   20.9755 C   0  0  0  0  0  0
  -28.9743  -21.1076   20.4650 C   0  0  0  0  0  0
  -29.9879  -25.4583   18.8556 C   0  0  0  0  0  0
  -27.7584  -24.5151   18.4553 C   0  0  0  0  0  0
  -30.8783  -22.4406   19.5439 C   0  0  0  0  0  0
  -28.9831  -23.7544   20.5750 C   0  0  0  0  0  0
  -28.6916  -25.0211   19.5660 C   0  0  0  0  0  0
  -31.8747  -20.1009   21.5665 N   0  0  0  0  0  0
  -29.7886  -15.9303   20.5139 N   0  0  0  0  0  0
  -29.5438  -22.3575   20.1512 N   0  0  0  0  0  0
  -27.7767  -21.1011   20.7679 O   0  0  0  0  0  0
  -31.1579  -17.9336   20.9597 O   0  0  0  0  0  0
  -31.4814  -12.6439   19.1558 H   0  0  0  0  0  0
  -30.4174  -11.5300   19.9746 H   0  0  0  0  0  0
  -29.8025  -11.7192   17.5436 H   0  0  0  0  0  0
  -29.6304  -13.4491   17.6941 H   0  0  0  0  0  0
  -27.9098  -11.2826   18.9356 H   0  0  0  0  0  0
  -27.3810  -12.5012   17.8065 H   0  0  0  0  0  0
  -27.6196  -14.2539   19.4484 H   0  0  0  0  0  0
  -28.7425  -12.2102   21.4281 H   0  0  0  0  0  0
  -28.4216  -13.8906   21.7774 H   0  0  0  0  0  0
  -25.2756   -9.5685   22.4780 H   0  0  0  0  0  0
  -23.9998   -7.4627   22.7470 H   0  0  0  0  0  0
  -21.0849   -8.8765   19.8934 H   0  0  0  0  0  0
  -22.3692  -10.9679   19.6169 H   0  0  0  0  0  0
  -21.1979   -7.6144   23.9709 H   0  0  0  0  0  0
  -21.1501   -6.0521   25.9080 H   0  0  0  0  0  0
  -22.0594   -2.7606   23.2840 H   0  0  0  0  0  0
  -22.4047  -11.9828   22.4819 H   0  0  0  0  0  0
  -21.1063  -13.1206   22.2665 H   0  0  0  0  0  0
  -24.6411  -15.8406   20.5102 H   0  0  0  0  0  0
  -26.2414  -15.6258   20.0185 H   0  0  0  0  0  0
  -26.7222  -32.5334   23.1063 H   0  0  0  0  0  0
  -25.0080  -33.9651   25.0346 H   0  0  0  0  0  0
  -22.7355  -31.2978   21.3971 H   0  0  0  0  0  0
  -23.3738  -35.9606   23.3306 H   0  0  0  0  0  0
  -24.3588  -36.8896   22.2060 H   0  0  0  0  0  0
  -23.7236  -37.6476   23.6670 H   0  0  0  0  0  0
  -26.1233  -31.5207   20.6128 H   0  0  0  0  0  0
  -26.8619  -30.8022   22.0083 H   0  0  0  0  0  0
  -28.1282  -28.8957   21.1772 H   0  0  0  0  0  0
  -25.8536  -25.8800   19.0691 H   0  0  0  0  0  0
  -23.9539  -27.2845   19.0458 H   0  0  0  0  0  0
  -23.7854  -30.5930   19.4078 H   0  0  0  0  0  0
  -22.7671  -29.2542   19.8396 H   0  0  0  0  0  0
  -25.1275  -36.1888   25.0837 H   0  0  0  0  0  0
  -20.9993  -28.3269   24.1390 H   0  0  0  0  0  0
  -20.5677  -26.2320   23.3611 H   0  0  0  0  0  0
  -21.6656  -26.7452   22.1191 H   0  0  0  0  0  0
  -19.6942  -25.6293   21.1240 H   0  0  0  0  0  0
  -19.6681  -27.3192   20.6710 H   0  0  0  0  0  0
  -17.4207  -26.6667   21.4020 H   0  0  0  0  0  0
  -18.0360  -26.0039   22.9004 H   0  0  0  0  0  0
  -19.7969  -30.7262   24.2253 H   0  0  0  0  0  0
  -17.5049  -31.6268   24.5167 H   0  0  0  0  0  0
  -15.5367  -30.2995   23.7666 H   0  0  0  0  0  0
  -15.8678  -28.0837   22.7048 H   0  0  0  0  0  0
  -24.5913  -30.7045   25.7780 H   0  0  0  0  0  0
  -24.8782  -32.2949   26.4710 H   0  0  0  0  0  0
  -25.7958  -30.9096   27.0288 H   0  0  0  0  0  0
  -26.2963  -29.6737   24.1238 H   0  0  0  0  0  0
  -27.4007  -29.7280   25.4766 H   0  0  0  0  0  0
  -27.8832  -30.4296   23.9507 H   0  0  0  0  0  0
  -27.2738  -33.3701   26.1933 H   0  0  0  0  0  0
  -28.3914  -32.6750   25.0317 H   0  0  0  0  0  0
  -28.0643  -31.8511   26.5480 H   0  0  0  0  0  0
  -28.2570  -38.0098   24.7520 H   0  0  0  0  0  0
  -28.1087  -36.2623   24.6281 H   0  0  0  0  0  0
  -27.2306  -37.1416   25.8883 H   0  0  0  0  0  0
  -20.9447  -29.8787   21.6878 H   0  0  0  0  0  0
  -26.0146  -38.2820   24.1447 H   0  0  0  0  0  0
  -28.0993  -18.1585   19.8783 H   0  0  0  0  0  0
  -30.7993  -25.6239   19.5642 H   0  0  0  0  0  0
  -29.8385  -26.3939   18.3147 H   0  0  0  0  0  0
  -30.3314  -24.7481   18.1074 H   0  0  0  0  0  0
  -26.8421  -24.0845   18.8570 H   0  0  0  0  0  0
  -27.5165  -25.2937   17.7319 H   0  0  0  0  0  0
  -28.2320  -23.7089   17.8945 H   0  0  0  0  0  0
  -31.4304  -21.5091   19.5138 H   0  0  0  0  0  0
  -31.5100  -23.1623   20.0630 H   0  0  0  0  0  0
  -30.8006  -22.7386   18.5020 H   0  0  0  0  0  0
  -28.0593  -23.5832   21.1251 H   0  0  0  0  0  0
  -29.6712  -24.1205   21.3382 H   0  0  0  0  0  0
  -31.8154  -21.1066   21.6519 H   0  0  0  0  0  0
  -32.7706  -19.7440   21.8837 H   0  0  0  0  0  0
  -28.8131  -15.6886   20.5361 H   0  0  0  0  0  0
  1 25  1  0  0  0
  1 30  2  0  0  0
  1 82  1  0  0  0
  2  3  1  0  0  0
  2 25  1  0  0  0
  2 86  1  0  0  0
  2 87  1  0  0  0
  3  4  1  0  0  0
  3 88  1  0  0  0
  3 89  1  0  0  0
  4  5  1  0  0  0
  4 90  1  0  0  0
  4 91  1  0  0  0
  5  6  1  0  0  0
  5 26  1  0  0  0
  5 92  1  0  0  0
  6 25  1  0  0  0
  6 93  1  0  0  0
  6 94  1  0  0  0
  7  8  2  0  0  0
  7 26  1  0  0  0
  7 29  1  0  0  0
  8  9  1  0  0  0
  8 22  1  0  0  0
  9 10  1  0  0  0
  9 27  2  0  0  0
 10 11  2  0  0  0
 10 15  1  0  0  0
 11 12  1  0  0  0
 11 95  1  0  0  0
 12 13  2  0  0  0
 12 96  1  0  0  0
 13 14  1  0  0  0
 13 31  1  0  0  0
 14 15  2  0  0  0
 14 97  1  0  0  0
 15 98  1  0  0  0
 16 17  2  0  0  0
 16 21  1  0  0  0
 16 31  1  0  0  0
 17 18  1  0  0  0
 17 99  1  0  0  0
 18 19  2  0  0  0
 18100  1  0  0  0
 19 20  1  0  0  0
 19 24  1  0  0  0
 20 21  2  0  0  0
 20101  1  0  0  0
 21 23  1  0  0  0
 22 28  1  0  0  0
 22 32  2  0  0  0
 26 27  1  0  0  0
 28102  1  0  0  0
 28103  1  0  0  0
 29104  1  0  0  0
 29105  1  0  0  0
 33 34  1  0  0  0
 33 66  1  0  0  0
 33 70  2  0  0  0
 34 36  1  0  0  0
 34 59  1  0  0  0
 34106  1  0  0  0
 35 44  2  0  0  0
 35 45  1  0  0  0
 35 68  1  0  0  0
 36 56  1  0  0  0
 36107  1  0  0  0
 37 39  1  0  0  0
 37 47  1  0  0  0
 37 66  1  0  0  0
 37108  1  0  0  0
 38 43  2  0  0  0
 38 46  1  0  0  0
 38 47  1  0  0  0
 39 64  1  0  0  0
 39 67  2  0  0  0
 40 52  1  0  0  0
 40 53  2  0  0  0
 40 58  1  0  0  0
 41109  1  0  0  0
 41110  1  0  0  0
 41111  1  0  0  0
 41 48  1  0  0  0
 42 43  1  0  0  0
 42 66  1  0  0  0
 42112  1  0  0  0
 42113  1  0  0  0
 43 44  1  0  0  0
 44114  1  0  0  0
 45 46  2  0  0  0
 45115  1  0  0  0
 46116  1  0  0  0
 47117  1  0  0  0
 47118  1  0  0  0
 48 56  1  0  0  0
 48 65  1  0  0  0
 48119  1  0  0  0
 49 50  1  0  0  0
 49 53  1  0  0  0
 49 64  1  0  0  0
 49120  1  0  0  0
 50 51  1  0  0  0
 50121  1  0  0  0
 50122  1  0  0  0
 51 52  1  0  0  0
 51123  1  0  0  0
 51124  1  0  0  0
 52125  1  0  0  0
 52126  1  0  0  0
 53 54  1  0  0  0
 54 55  2  0  0  0
 54127  1  0  0  0
 55 57  1  0  0  0
 55128  1  0  0  0
 56 69  2  0  0  0
 57 58  2  0  0  0
 57129  1  0  0  0
 58130  1  0  0  0
 59 60  1  0  0  0
 59 61  1  0  0  0
 59 62  1  0  0  0
 60131  1  0  0  0
 60132  1  0  0  0
 60133  1  0  0  0
 61134  1  0  0  0
 61135  1  0  0  0
 61136  1  0  0  0
 62137  1  0  0  0
 62138  1  0  0  0
 62139  1  0  0  0
 63 65  1  0  0  0
 63140  1  0  0  0
 63141  1  0  0  0
 63142  1  0  0  0
 64143  1  0  0  0
 65144  1  0  0  0
 68 80  1  0  0  0
 71 72  1  0  0  0
 71 73  2  0  0  0
 71145  1  0  0  0
 72 74  2  0  0  0
 72 75  1  0  0  0
 73 82  1  0  0  0
 73 85  1  0  0  0
 74 81  1  0  0  0
 74 85  1  0  0  0
 75 83  1  0  0  0
 75 84  2  0  0  0
 76146  1  0  0  0
 76147  1  0  0  0
 76148  1  0  0  0
 76 80  1  0  0  0
 77 80  1  0  0  0
 77149  1  0  0  0
 77150  1  0  0  0
 77151  1  0  0  0
 78 83  1  0  0  0
 78152  1  0  0  0
 78153  1  0  0  0
 78154  1  0  0  0
 79 80  1  0  0  0
 79 83  1  0  0  0
 79155  1  0  0  0
 79156  1  0  0  0
 81157  1  0  0  0
 81158  1  0  0  0
 82159  1  0  0  0
M  ISO  4   1 100  68 101  80 101  82 100
M  END
> <chiral flag>
0

> <version>
0

> <s_m_source_file>
/data/baiqing/PycharmProjects/Reinvent-master-3.2/result/LINK_invent/BTK/process_docking_weight1_custom_product_contain_oxygen_bond_distance_aromatic_linkinvent_7_9_3/rearranged_h_0159.sdf

> <i_m_source_file_index>
45

> <r_mmod_Potential_Energy-OPLS-2005>
314.607116699219

> <r_mmod_Stretch_Energy-OPLS-2005>
158.490631103516

> <r_mmod_Bend_Energy-OPLS-2005>
270.649017333984

> <r_mmod_Torsional_Energy-OPLS-2005>
264.982635498047

> <r_mmod_Improper_Torsional_Energy-OPLS-2005>
9.24309062957764

> <r_mmod_Van_der_Waal_Energy-OPLS-2005>
127.174674987793

> <r_mmod_Electrostatic_Energy-OPLS-2005>
-381.889923095703

> <r_mmod_Solvation_Energy-OPLS-2005>
-239.369232177734

> <b_mmod_Minimization_Converged-OPLS-2005>
0

> <r_mmod_RMS_Derivative-OPLS-2005>
4.66035556793213

$$$$
45
                    3D
 Structure written by MMmdl.
155163  0  0  1  0            999 V2000
  -30.5573  -15.1657   20.3611 C   0  0  0  0  0  0
  -30.4266  -12.7461   19.5024 C   0  0  0  0  0  0
  -29.5251  -12.5512   18.2633 C   0  0  0  0  0  0
  -28.0705  -12.3075   18.6984 C   0  0  0  0  0  0
  -27.6160  -13.2766   19.8196 C   0  0  2  0  0  0
  -28.6627  -13.4450   20.9441 C   0  0  0  0  0  0
  -25.2453  -13.8242   20.5750 C   0  0  0  0  0  0
  -24.1796  -13.0432   20.9260 C   0  0  0  0  0  0
  -24.6422  -11.6919   20.8778 C   0  0  0  0  0  0
  -23.9105  -10.4277   21.0429 C   0  0  0  0  0  0
  -24.3645   -9.4192   21.9203 C   0  0  0  0  0  0
  -23.6310   -8.2230   22.0750 C   0  0  0  0  0  0
  -22.4293   -8.0272   21.3520 C   0  0  0  0  0  0
  -21.9928   -9.0269   20.4639 C   0  0  0  0  0  0
  -22.7278  -10.2135   20.3073 C   0  0  0  0  0  0
  -21.6856   -6.0749   22.5268 C   0  0  0  0  0  0
  -21.4024   -6.5650   23.8207 C   0  0  0  0  0  0
  -21.3658   -5.6802   24.9163 C   0  0  0  0  0  0
  -21.6049   -4.3076   24.7222 C   0  0  0  0  0  0
  -21.8825   -3.8159   23.4350 C   0  0  0  0  0  0
  -21.9199   -4.6966   22.3403 C   0  0  0  0  0  0
  -22.7804  -13.5195   21.1902 C   0  0  0  0  0  0
  -22.1679   -4.2139   21.0982 F   0  0  0  0  0  0
  -21.5609   -3.4564   25.7746 F   0  0  0  0  0  0
  -29.8937  -13.9163   20.2903 N   0  0  0  0  0  0
  -26.2871  -12.9520   20.3233 N   0  0  0  0  0  0
  -25.9377  -11.6616   20.5747 N   0  0  0  0  0  0
  -22.0431  -12.8193   22.0437 N   0  0  0  0  0  0
  -25.4124  -15.1948   20.4149 N   0  0  0  0  0  0
  -31.7771  -15.0625   20.1806 O   0  0  0  0  0  0
  -21.6622   -6.8895   21.4228 O   0  0  0  0  0  0
  -22.3490  -14.5518   20.6759 O   0  0  0  0  0  0
  -24.6562  -31.8305   23.1801 C   0  0  0  0  0  0
  -25.9274  -32.4631   23.8235 C   0  0  1  0  0  0
  -27.2044  -26.9993   20.1588 C   0  0  0  0  0  0
  -25.5977  -33.8441   24.2132 N   0  0  0  0  0  0
  -23.4641  -30.4469   21.5299 C   0  0  2  0  0  0
  -24.9162  -28.8523   20.1057 C   0  0  0  0  0  0
  -22.7643  -29.4460   22.4831 C   0  0  0  0  0  0
  -18.0315  -28.1388   22.8463 C   0  0  0  0  0  0
  -24.1500  -36.7203   23.2643 C   0  0  0  0  0  0
  -26.0320  -30.6589   21.4008 C   0  0  0  0  0  0
  -26.0991  -29.2582   20.7399 C   0  0  0  0  0  0
  -27.2390  -28.3473   20.7483 C   0  0  0  0  0  0
  -25.9974  -26.7344   19.4761 C   0  0  0  0  0  0
  -24.8882  -27.6131   19.4520 C   0  0  0  0  0  0
  -23.7003  -29.7728   20.1490 C   0  0  0  0  0  0
  -25.4134  -36.2990   24.0312 C   0  0  1  0  0  0
  -20.5940  -28.3726   23.1217 C   0  0  2  0  0  0
  -20.6797  -26.9419   22.5406 C   0  0  0  0  0  0
  -19.5759  -26.6368   21.5211 C   0  0  0  0  0  0
  -18.1941  -26.7924   22.1620 C   0  0  0  0  0  0
  -19.1577  -28.8870   23.2823 C   0  0  0  0  0  0
  -18.9490  -30.1471   23.8855 C   0  0  0  0  0  0
  -17.6476  -30.6583   24.0536 C   0  0  0  0  0  0
  -25.9096  -34.9377   23.5033 C   0  0  0  0  0  0
  -16.5374  -29.9063   23.6337 C   0  0  0  0  0  0
  -16.7300  -28.6487   23.0360 C   0  0  0  0  0  0
  -26.4556  -31.6545   25.0719 C   0  0  0  0  0  0
  -25.3714  -31.3752   26.1401 C   0  0  0  0  0  0
  -27.0411  -30.2916   24.6374 C   0  0  0  0  0  0
  -27.6112  -32.4302   25.7480 C   0  0  0  0  0  0
  -27.5565  -37.1773   24.8468 C   0  0  0  0  0  0
  -21.4316  -29.3011   22.3591 N   0  0  0  0  0  0
  -26.4280  -37.3713   23.9398 N   0  0  0  0  0  0
  -24.7392  -31.0043   22.0904 N   0  0  0  0  0  0
  -23.4230  -28.8016   23.3023 O   0  0  0  0  0  0
  -28.2037  -25.9194   20.2288 O   0  0  0  0  0  0
  -26.5679  -34.8907   22.4611 O   0  0  0  0  0  0
  -23.5650  -32.1251   23.6953 O   0  0  0  0  0  0
  -28.8263  -22.9742   20.3014 C   0  0  0  0  0  0
  -28.6943  -17.1882   20.7573 C   0  0  0  0  0  0
  -30.7907  -17.7475   19.8257 C   0  0  0  0  0  0
  -28.5309  -18.8215   21.1005 C   0  0  0  0  0  0
  -30.1334  -19.1988   19.3644 C   0  0  1  0  0  0
  -29.4826  -19.0667   17.9689 C   0  0  0  0  0  0
  -28.4291  -21.3419   19.9649 C   0  0  0  0  0  0
  -27.8651  -24.3613   19.9590 C   0  0  0  0  0  0
  -29.9803  -16.5249   20.2756 N   0  0  0  0  0  0
  -29.2544  -19.9680   20.3580 N   0  3  1  0  0  0
  -29.9152  -23.1671   20.8561 O   0  0  0  0  0  0
  -31.4592  -12.9013   19.1768 H   0  0  0  0  0  0
  -30.4449  -11.8401   20.1114 H   0  0  0  0  0  0
  -29.8894  -11.7218   17.6518 H   0  0  0  0  0  0
  -29.5715  -13.4428   17.6375 H   0  0  0  0  0  0
  -28.0053  -11.2772   19.0555 H   0  0  0  0  0  0
  -27.3983  -12.3766   17.8404 H   0  0  0  0  0  0
  -27.5333  -14.2479   19.3310 H   0  0  0  0  0  0
  -28.8212  -12.5194   21.4981 H   0  0  0  0  0  0
  -28.3263  -14.1841   21.6702 H   0  0  0  0  0  0
  -25.2773   -9.5692   22.4805 H   0  0  0  0  0  0
  -24.0021   -7.4638   22.7493 H   0  0  0  0  0  0
  -21.0846   -8.8823   19.8980 H   0  0  0  0  0  0
  -22.3745  -10.9689   19.6225 H   0  0  0  0  0  0
  -21.2030   -7.6168   23.9719 H   0  0  0  0  0  0
  -21.1468   -6.0523   25.9076 H   0  0  0  0  0  0
  -22.0614   -2.7618   23.2831 H   0  0  0  0  0  0
  -22.4042  -11.9848   22.4822 H   0  0  0  0  0  0
  -21.1071  -13.1276   22.2643 H   0  0  0  0  0  0
  -24.6460  -15.8508   20.5167 H   0  0  0  0  0  0
  -26.2516  -15.6151   20.0377 H   0  0  0  0  0  0
  -26.7327  -32.5198   23.0948 H   0  0  0  0  0  0
  -25.0140  -33.9509   25.0290 H   0  0  0  0  0  0
  -22.7718  -31.2781   21.3676 H   0  0  0  0  0  0
  -23.3774  -35.9524   23.3314 H   0  0  0  0  0  0
  -24.3588  -36.8826   22.2056 H   0  0  0  0  0  0
  -23.7264  -37.6402   23.6676 H   0  0  0  0  0  0
  -26.2046  -31.4082   20.6268 H   0  0  0  0  0  0
  -26.8969  -30.7093   22.0507 H   0  0  0  0  0  0
  -28.1345  -28.6477   21.2748 H   0  0  0  0  0  0
  -25.8741  -25.7892   18.9701 H   0  0  0  0  0  0
  -23.9915  -27.3017   18.9336 H   0  0  0  0  0  0
  -23.8504  -30.5485   19.3957 H   0  0  0  0  0  0
  -22.8098  -29.2271   19.8306 H   0  0  0  0  0  0
  -25.1353  -36.1785   25.0808 H   0  0  0  0  0  0
  -21.0009  -28.3286   24.1340 H   0  0  0  0  0  0
  -20.5656  -26.2326   23.3624 H   0  0  0  0  0  0
  -21.6666  -26.7384   22.1212 H   0  0  0  0  0  0
  -19.6920  -25.6257   21.1262 H   0  0  0  0  0  0
  -19.6709  -27.3159   20.6716 H   0  0  0  0  0  0
  -17.4220  -26.6654   21.4020 H   0  0  0  0  0  0
  -18.0351  -26.0085   22.9036 H   0  0  0  0  0  0
  -19.7958  -30.7297   24.2205 H   0  0  0  0  0  0
  -17.5030  -31.6270   24.5128 H   0  0  0  0  0  0
  -15.5358  -30.2944   23.7702 H   0  0  0  0  0  0
  -15.8701  -28.0790   22.7096 H   0  0  0  0  0  0
  -24.5905  -30.7092   25.7706 H   0  0  0  0  0  0
  -24.8873  -32.2929   26.4746 H   0  0  0  0  0  0
  -25.7985  -30.8964   27.0217 H   0  0  0  0  0  0
  -26.3036  -29.6638   24.1341 H   0  0  0  0  0  0
  -27.3932  -29.7239   25.4990 H   0  0  0  0  0  0
  -27.9016  -30.4123   23.9791 H   0  0  0  0  0  0
  -27.2748  -33.3638   26.2000 H   0  0  0  0  0  0
  -28.3942  -32.6784   25.0301 H   0  0  0  0  0  0
  -28.0764  -31.8436   26.5403 H   0  0  0  0  0  0
  -28.2607  -38.0048   24.7489 H   0  0  0  0  0  0
  -28.1048  -36.2569   24.6349 H   0  0  0  0  0  0
  -27.2285  -37.1512   25.8879 H   0  0  0  0  0  0
  -20.9565  -29.8708   21.6740 H   0  0  0  0  0  0
  -26.0135  -38.2783   24.1369 H   0  0  0  0  0  0
  -27.9482  -16.9490   20.0003 H   0  0  0  0  0  0
  -28.3651  -16.6370   21.6398 H   0  0  0  0  0  0
  -31.5144  -17.9479   20.6186 H   0  0  0  0  0  0
  -31.4035  -17.4077   18.9908 H   0  0  0  0  0  0
  -28.8097  -18.9479   22.1461 H   0  0  0  0  0  0
  -27.4666  -19.0484   21.0853 H   0  0  0  0  0  0
  -30.9884  -19.8626   19.2118 H   0  0  0  0  0  0
  -28.5824  -18.4526   17.9940 H   0  0  0  0  0  0
  -30.1801  -18.6084   17.2628 H   0  0  0  0  0  0
  -29.2306  -20.0369   17.5432 H   0  0  0  0  0  0
  -28.1899  -21.3023   18.9030 H   0  0  0  0  0  0
  -27.4582  -21.2290   20.4429 H   0  0  0  0  0  0
  -26.9179  -24.1728   20.4652 H   0  0  0  0  0  0
  -27.6345  -24.2878   18.8964 H   0  0  0  0  0  0
  -29.8965  -20.3186   21.0547 H   0  0  0  0  0  0
  1 25  1  0  0  0
  1 30  2  0  0  0
  1 79  1  0  0  0
  2  3  1  0  0  0
  2 25  1  0  0  0
  2 82  1  0  0  0
  2 83  1  0  0  0
  3  4  1  0  0  0
  3 84  1  0  0  0
  3 85  1  0  0  0
  4  5  1  0  0  0
  4 86  1  0  0  0
  4 87  1  0  0  0
  5  6  1  0  0  0
  5 26  1  0  0  0
  5 88  1  0  0  0
  6 25  1  0  0  0
  6 89  1  0  0  0
  6 90  1  0  0  0
  7  8  2  0  0  0
  7 26  1  0  0  0
  7 29  1  0  0  0
  8  9  1  0  0  0
  8 22  1  0  0  0
  9 10  1  0  0  0
  9 27  2  0  0  0
 10 11  2  0  0  0
 10 15  1  0  0  0
 11 12  1  0  0  0
 11 91  1  0  0  0
 12 13  2  0  0  0
 12 92  1  0  0  0
 13 14  1  0  0  0
 13 31  1  0  0  0
 14 15  2  0  0  0
 14 93  1  0  0  0
 15 94  1  0  0  0
 16 17  2  0  0  0
 16 21  1  0  0  0
 16 31  1  0  0  0
 17 18  1  0  0  0
 17 95  1  0  0  0
 18 19  2  0  0  0
 18 96  1  0  0  0
 19 20  1  0  0  0
 19 24  1  0  0  0
 20 21  2  0  0  0
 20 97  1  0  0  0
 21 23  1  0  0  0
 22 28  1  0  0  0
 22 32  2  0  0  0
 26 27  1  0  0  0
 28 98  1  0  0  0
 28 99  1  0  0  0
 29100  1  0  0  0
 29101  1  0  0  0
 33 34  1  0  0  0
 33 66  1  0  0  0
 33 70  2  0  0  0
 34 36  1  0  0  0
 34 59  1  0  0  0
 34102  1  0  0  0
 35 44  2  0  0  0
 35 45  1  0  0  0
 35 68  1  0  0  0
 36 56  1  0  0  0
 36103  1  0  0  0
 37 39  1  0  0  0
 37 47  1  0  0  0
 37 66  1  0  0  0
 37104  1  0  0  0
 38 43  2  0  0  0
 38 46  1  0  0  0
 38 47  1  0  0  0
 39 64  1  0  0  0
 39 67  2  0  0  0
 40 52  1  0  0  0
 40 53  2  0  0  0
 40 58  1  0  0  0
 41105  1  0  0  0
 41106  1  0  0  0
 41107  1  0  0  0
 41 48  1  0  0  0
 42 43  1  0  0  0
 42 66  1  0  0  0
 42108  1  0  0  0
 42109  1  0  0  0
 43 44  1  0  0  0
 44110  1  0  0  0
 45 46  2  0  0  0
 45111  1  0  0  0
 46112  1  0  0  0
 47113  1  0  0  0
 47114  1  0  0  0
 48 56  1  0  0  0
 48 65  1  0  0  0
 48115  1  0  0  0
 49 50  1  0  0  0
 49 53  1  0  0  0
 49 64  1  0  0  0
 49116  1  0  0  0
 50 51  1  0  0  0
 50117  1  0  0  0
 50118  1  0  0  0
 51 52  1  0  0  0
 51119  1  0  0  0
 51120  1  0  0  0
 52121  1  0  0  0
 52122  1  0  0  0
 53 54  1  0  0  0
 54 55  2  0  0  0
 54123  1  0  0  0
 55 57  1  0  0  0
 55124  1  0  0  0
 56 69  2  0  0  0
 57 58  2  0  0  0
 57125  1  0  0  0
 58126  1  0  0  0
 59 60  1  0  0  0
 59 61  1  0  0  0
 59 62  1  0  0  0
 60127  1  0  0  0
 60128  1  0  0  0
 60129  1  0  0  0
 61130  1  0  0  0
 61131  1  0  0  0
 61132  1  0  0  0
 62133  1  0  0  0
 62134  1  0  0  0
 62135  1  0  0  0
 63 65  1  0  0  0
 63136  1  0  0  0
 63137  1  0  0  0
 63138  1  0  0  0
 64139  1  0  0  0
 65140  1  0  0  0
 68 78  1  0  0  0
 71 77  1  0  0  0
 71 78  1  0  0  0
 71 81  2  0  0  0
 72 74  1  0  0  0
 72 79  1  0  0  0
 72141  1  0  0  0
 72142  1  0  0  0
 73 75  1  0  0  0
 73 79  1  0  0  0
 73143  1  0  0  0
 73144  1  0  0  0
 74 80  1  0  0  0
 74145  1  0  0  0
 74146  1  0  0  0
 75 76  1  0  0  0
 75 80  1  0  0  0
 75147  1  0  0  0
 76148  1  0  0  0
 76149  1  0  0  0
 76150  1  0  0  0
 77151  1  0  0  0
 77152  1  0  0  0
 77 80  1  0  0  0
 78153  1  0  0  0
 78154  1  0  0  0
 80155  1  0  0  0
M  CHG  1  80   1
M  ISO  4   1 100  68 101  78 101  79 100
M  END
> <chiral flag>
0

> <version>
0

> <s_m_source_file>
/data/baiqing/PycharmProjects/Reinvent-master-3.2/result/LINK_invent/BTK/process_docking_weight1_custom_product_contain_oxygen_bond_distance_aromatic_linkinvent_7_9_3/rearranged_h_0159.sdf

> <i_m_source_file_index>
46

> <r_mmod_Potential_Energy-OPLS-2005>
983.164916992188

> <r_mmod_Stretch_Energy-OPLS-2005>
419.680358886719

> <r_mmod_Bend_Energy-OPLS-2005>
427.96630859375

> <r_mmod_Torsional_Energy-OPLS-2005>
384.239715576172

> <r_mmod_Improper_Torsional_Energy-OPLS-2005>
9.87580871582031

> <r_mmod_Van_der_Waal_Energy-OPLS-2005>
115.549278259277

> <r_mmod_Electrostatic_Energy-OPLS-2005>
-255.820343017578

> <r_mmod_Solvation_Energy-OPLS-2005>
-477.199951171875

> <b_mmod_Minimization_Converged-OPLS-2005>
0

> <r_mmod_RMS_Derivative-OPLS-2005>
5.03568649291992

$$$$
46
                    3D
 Structure written by MMmdl.
155163  0  0  1  0            999 V2000
  -30.5888  -14.7545   20.4473 C   0  0  0  0  0  0
  -30.4358  -12.4605   19.4820 C   0  0  0  0  0  0
  -29.5211  -12.5360   18.2384 C   0  0  0  0  0  0
  -28.0430  -12.3529   18.6394 C   0  0  0  0  0  0
  -27.6438  -13.2363   19.8528 C   0  0  2  0  0  0
  -28.6830  -13.1522   20.9923 C   0  0  0  0  0  0
  -25.2506  -13.8202   20.5688 C   0  0  0  0  0  0
  -24.1793  -13.0440   20.9181 C   0  0  0  0  0  0
  -24.6380  -11.6919   20.8705 C   0  0  0  0  0  0
  -23.9057  -10.4293   21.0396 C   0  0  0  0  0  0
  -24.3604   -9.4211   21.9162 C   0  0  0  0  0  0
  -23.6302   -8.2243   22.0731 C   0  0  0  0  0  0
  -22.4279   -8.0265   21.3531 C   0  0  0  0  0  0
  -21.9916   -9.0239   20.4643 C   0  0  0  0  0  0
  -22.7229  -10.2120   20.3055 C   0  0  0  0  0  0
  -21.6860   -6.0727   22.5277 C   0  0  0  0  0  0
  -21.4015   -6.5635   23.8205 C   0  0  0  0  0  0
  -21.3649   -5.6785   24.9168 C   0  0  0  0  0  0
  -21.6064   -4.3052   24.7214 C   0  0  0  0  0  0
  -21.8817   -3.8141   23.4333 C   0  0  0  0  0  0
  -21.9192   -4.6959   22.3394 C   0  0  0  0  0  0
  -22.7805  -13.5233   21.1839 C   0  0  0  0  0  0
  -22.1663   -4.2149   21.0977 F   0  0  0  0  0  0
  -21.5627   -3.4538   25.7725 F   0  0  0  0  0  0
  -29.9894  -13.5116   20.4275 N   0  0  0  0  0  0
  -26.2930  -12.9420   20.3231 N   0  0  0  0  0  0
  -25.9308  -11.6548   20.5659 N   0  0  0  0  0  0
  -22.0449  -12.8250   22.0418 N   0  0  0  0  0  0
  -25.4210  -15.1926   20.4127 N   0  0  0  0  0  0
  -31.7627  -14.8682   20.0804 O   0  0  0  0  0  0
  -21.6650   -6.8865   21.4231 O   0  0  0  0  0  0
  -22.3495  -14.5531   20.6673 O   0  0  0  0  0  0
  -24.6300  -31.8567   23.2009 C   0  0  0  0  0  0
  -25.9119  -32.4763   23.8365 C   0  0  1  0  0  0
  -27.2246  -27.2703   20.1324 C   0  0  0  0  0  0
  -25.5915  -33.8566   24.2264 N   0  0  0  0  0  0
  -23.4272  -30.4788   21.5437 C   0  0  2  0  0  0
  -24.8785  -28.9337   20.1112 C   0  0  0  0  0  0
  -22.7493  -29.4604   22.4922 C   0  0  0  0  0  0
  -18.0281  -28.1395   22.8483 C   0  0  0  0  0  0
  -24.1483  -36.7299   23.2638 C   0  0  0  0  0  0
  -25.9748  -30.7717   21.3834 C   0  0  0  0  0  0
  -26.0487  -29.3951   20.7268 C   0  0  0  0  0  0
  -27.2226  -28.5739   20.7331 C   0  0  0  0  0  0
  -26.0350  -26.8914   19.4649 C   0  0  0  0  0  0
  -24.8771  -27.6890   19.4691 C   0  0  0  0  0  0
  -23.6452  -29.8131   20.1607 C   0  0  0  0  0  0
  -25.4106  -36.3079   24.0324 C   0  0  1  0  0  0
  -20.5888  -28.3701   23.1278 C   0  0  2  0  0  0
  -20.6770  -26.9417   22.5427 C   0  0  0  0  0  0
  -19.5760  -26.6387   21.5219 C   0  0  0  0  0  0
  -18.1932  -26.7940   22.1620 C   0  0  0  0  0  0
  -19.1538  -28.8864   23.2874 C   0  0  0  0  0  0
  -18.9457  -30.1463   23.8883 C   0  0  0  0  0  0
  -17.6462  -30.6591   24.0563 C   0  0  0  0  0  0
  -25.9039  -34.9443   23.5093 C   0  0  0  0  0  0
  -16.5350  -29.9087   23.6337 C   0  0  0  0  0  0
  -16.7272  -28.6513   23.0346 C   0  0  0  0  0  0
  -26.4474  -31.6598   25.0763 C   0  0  0  0  0  0
  -25.3680  -31.3784   26.1478 C   0  0  0  0  0  0
  -27.0298  -30.2990   24.6285 C   0  0  0  0  0  0
  -27.6031  -32.4336   25.7526 C   0  0  0  0  0  0
  -27.5577  -37.1800   24.8452 C   0  0  0  0  0  0
  -21.4204  -29.3036   22.3654 N   0  0  0  0  0  0
  -26.4283  -37.3777   23.9403 N   0  0  0  0  0  0
  -24.6958  -31.0548   22.0982 N   0  0  0  0  0  0
  -23.4202  -28.8147   23.3016 O   0  0  0  0  0  0
  -28.3068  -26.3581   20.2202 O   0  0  0  0  0  0
  -26.5626  -34.8915   22.4661 O   0  0  0  0  0  0
  -23.5447  -32.1375   23.7313 O   0  0  0  0  0  0
  -29.8028  -17.0974   18.5873 C   0  0  0  0  0  0
  -29.5675  -18.5122   20.5462 C   0  0  0  0  0  0
  -29.6783  -18.2275   17.7490 C   0  0  0  0  0  0
  -29.7659  -17.1760   19.9912 C   0  0  0  0  0  0
  -29.4206  -19.7207   19.7357 C   0  0  0  0  0  0
  -29.4903  -19.5258   18.3174 C   0  0  0  0  0  0
  -29.7612  -18.0056   16.2735 C   0  0  0  0  0  0
  -28.9288  -23.7218   20.4149 C   0  0  0  0  0  0
  -28.5916  -22.2183   19.8683 C   0  0  0  0  0  0
  -28.0346  -24.9220   19.8526 C   0  0  0  0  0  0
  -29.7280  -16.8828   15.6856 N   0  0  0  0  0  0
  -29.3864  -20.6312   17.4648 N   0  0  0  0  0  0
  -29.3161  -21.1096   20.3024 N   0  0  0  0  0  0
  -29.8226  -15.8821   20.7262 N   0  0  0  0  0  0
  -29.8320  -23.9275   21.2362 O   0  0  0  0  0  0
  -27.6594  -22.0962   19.0670 O   0  0  0  0  0  0
  -31.4794  -12.5871   19.1896 H   0  0  0  0  0  0
  -30.3758  -11.4746   19.9480 H   0  0  0  0  0  0
  -29.8160  -11.7847   17.5056 H   0  0  0  0  0  0
  -29.6472  -13.5033   17.7470 H   0  0  0  0  0  0
  -27.8938  -11.2994   18.8818 H   0  0  0  0  0  0
  -27.3934  -12.5650   17.7884 H   0  0  0  0  0  0
  -27.6436  -14.2626   19.4847 H   0  0  0  0  0  0
  -28.7097  -12.1484   21.4191 H   0  0  0  0  0  0
  -28.4125  -13.8238   21.8074 H   0  0  0  0  0  0
  -25.2747   -9.5720   22.4712 H   0  0  0  0  0  0
  -24.0023   -7.4659   22.7459 H   0  0  0  0  0  0
  -21.0839   -8.8766   19.8962 H   0  0  0  0  0  0
  -22.3685  -10.9648   19.6158 H   0  0  0  0  0  0
  -21.2011   -7.6145   23.9728 H   0  0  0  0  0  0
  -21.1477   -6.0499   25.9078 H   0  0  0  0  0  0
  -22.0610   -2.7604   23.2835 H   0  0  0  0  0  0
  -22.4055  -11.9923   22.4851 H   0  0  0  0  0  0
  -21.1043  -13.1263   22.2557 H   0  0  0  0  0  0
  -24.6509  -15.8463   20.5095 H   0  0  0  0  0  0
  -26.2785  -15.6327   20.1051 H   0  0  0  0  0  0
  -26.7196  -32.5424   23.1127 H   0  0  0  0  0  0
  -25.0018  -33.9719   25.0378 H   0  0  0  0  0  0
  -22.7230  -31.2998   21.3975 H   0  0  0  0  0  0
  -23.3750  -35.9625   23.3281 H   0  0  0  0  0  0
  -24.3580  -36.8947   22.2058 H   0  0  0  0  0  0
  -23.7230  -37.6487   23.6678 H   0  0  0  0  0  0
  -26.1145  -31.5320   20.6139 H   0  0  0  0  0  0
  -26.8510  -30.8234   22.0178 H   0  0  0  0  0  0
  -28.1094  -28.9185   21.2463 H   0  0  0  0  0  0
  -25.9560  -25.9523   18.9394 H   0  0  0  0  0  0
  -23.9867  -27.3306   18.9716 H   0  0  0  0  0  0
  -23.7587  -30.5858   19.3999 H   0  0  0  0  0  0
  -22.7693  -29.2339   19.8643 H   0  0  0  0  0  0
  -25.1290  -36.1926   25.0819 H   0  0  0  0  0  0
  -20.9987  -28.3293   24.1401 H   0  0  0  0  0  0
  -20.5682  -26.2304   23.3631 H   0  0  0  0  0  0
  -21.6634  -26.7454   22.1215 H   0  0  0  0  0  0
  -19.6918  -25.6300   21.1245 H   0  0  0  0  0  0
  -19.6707  -27.3201   20.6759 H   0  0  0  0  0  0
  -17.4211  -26.6704   21.4007 H   0  0  0  0  0  0
  -18.0313  -26.0085   22.9018 H   0  0  0  0  0  0
  -19.7924  -30.7285   24.2248 H   0  0  0  0  0  0
  -17.5008  -31.6268   24.5177 H   0  0  0  0  0  0
  -15.5345  -30.2987   23.7671 H   0  0  0  0  0  0
  -15.8672  -28.0841   22.7055 H   0  0  0  0  0  0
  -24.5885  -30.7085   25.7837 H   0  0  0  0  0  0
  -24.8827  -32.2963   26.4812 H   0  0  0  0  0  0
  -25.7988  -30.9056   27.0315 H   0  0  0  0  0  0
  -26.2892  -29.6765   24.1255 H   0  0  0  0  0  0
  -27.3866  -29.7245   25.4846 H   0  0  0  0  0  0
  -27.8828  -30.4215   23.9605 H   0  0  0  0  0  0
  -27.2646  -33.3659   26.2062 H   0  0  0  0  0  0
  -28.3861  -32.6859   25.0362 H   0  0  0  0  0  0
  -28.0673  -31.8487   26.5479 H   0  0  0  0  0  0
  -28.2584  -38.0108   24.7506 H   0  0  0  0  0  0
  -28.1082  -36.2637   24.6254 H   0  0  0  0  0  0
  -27.2309  -37.1428   25.8861 H   0  0  0  0  0  0
  -20.9389  -29.8719   21.6823 H   0  0  0  0  0  0
  -26.0166  -38.2849   24.1410 H   0  0  0  0  0  0
  -29.9201  -16.1260   18.1324 H   0  0  0  0  0  0
  -29.5238  -18.6155   21.6205 H   0  0  0  0  0  0
  -29.8636  -18.8992   15.6521 H   0  0  0  0  0  0
  -27.0262  -24.6610   20.1725 H   0  0  0  0  0  0
  -28.0513  -24.8553   18.7652 H   0  0  0  0  0  0
  -29.6202  -16.1197   16.3432 H   0  0  0  0  0  0
  -29.0981  -20.4351   16.5124 H   0  0  0  0  0  0
  -28.7670  -21.3414   17.8568 H   0  0  0  0  0  0
  -29.9061  -21.3018   21.1002 H   0  0  0  0  0  0
  -28.9894  -15.6831   21.2609 H   0  0  0  0  0  0
  1 25  1  0  0  0
  1 30  2  0  0  0
  1 84  1  0  0  0
  2  3  1  0  0  0
  2 25  1  0  0  0
  2 87  1  0  0  0
  2 88  1  0  0  0
  3  4  1  0  0  0
  3 89  1  0  0  0
  3 90  1  0  0  0
  4  5  1  0  0  0
  4 91  1  0  0  0
  4 92  1  0  0  0
  5  6  1  0  0  0
  5 26  1  0  0  0
  5 93  1  0  0  0
  6 25  1  0  0  0
  6 94  1  0  0  0
  6 95  1  0  0  0
  7  8  2  0  0  0
  7 26  1  0  0  0
  7 29  1  0  0  0
  8  9  1  0  0  0
  8 22  1  0  0  0
  9 10  1  0  0  0
  9 27  2  0  0  0
 10 11  2  0  0  0
 10 15  1  0  0  0
 11 12  1  0  0  0
 11 96  1  0  0  0
 12 13  2  0  0  0
 12 97  1  0  0  0
 13 14  1  0  0  0
 13 31  1  0  0  0
 14 15  2  0  0  0
 14 98  1  0  0  0
 15 99  1  0  0  0
 16 17  2  0  0  0
 16 21  1  0  0  0
 16 31  1  0  0  0
 17 18  1  0  0  0
 17100  1  0  0  0
 18 19  2  0  0  0
 18101  1  0  0  0
 19 20  1  0  0  0
 19 24  1  0  0  0
 20 21  2  0  0  0
 20102  1  0  0  0
 21 23  1  0  0  0
 22 28  1  0  0  0
 22 32  2  0  0  0
 26 27  1  0  0  0
 28103  1  0  0  0
 28104  1  0  0  0
 29105  1  0  0  0
 29106  1  0  0  0
 33 34  1  0  0  0
 33 66  1  0  0  0
 33 70  2  0  0  0
 34 36  1  0  0  0
 34 59  1  0  0  0
 34107  1  0  0  0
 35 44  2  0  0  0
 35 45  1  0  0  0
 35 68  1  0  0  0
 36 56  1  0  0  0
 36108  1  0  0  0
 37 39  1  0  0  0
 37 47  1  0  0  0
 37 66  1  0  0  0
 37109  1  0  0  0
 38 43  2  0  0  0
 38 46  1  0  0  0
 38 47  1  0  0  0
 39 64  1  0  0  0
 39 67  2  0  0  0
 40 52  1  0  0  0
 40 53  2  0  0  0
 40 58  1  0  0  0
 41110  1  0  0  0
 41111  1  0  0  0
 41112  1  0  0  0
 41 48  1  0  0  0
 42 43  1  0  0  0
 42 66  1  0  0  0
 42113  1  0  0  0
 42114  1  0  0  0
 43 44  1  0  0  0
 44115  1  0  0  0
 45 46  2  0  0  0
 45116  1  0  0  0
 46117  1  0  0  0
 47118  1  0  0  0
 47119  1  0  0  0
 48 56  1  0  0  0
 48 65  1  0  0  0
 48120  1  0  0  0
 49 50  1  0  0  0
 49 53  1  0  0  0
 49 64  1  0  0  0
 49121  1  0  0  0
 50 51  1  0  0  0
 50122  1  0  0  0
 50123  1  0  0  0
 51 52  1  0  0  0
 51124  1  0  0  0
 51125  1  0  0  0
 52126  1  0  0  0
 52127  1  0  0  0
 53 54  1  0  0  0
 54 55  2  0  0  0
 54128  1  0  0  0
 55 57  1  0  0  0
 55129  1  0  0  0
 56 69  2  0  0  0
 57 58  2  0  0  0
 57130  1  0  0  0
 58131  1  0  0  0
 59 60  1  0  0  0
 59 61  1  0  0  0
 59 62  1  0  0  0
 60132  1  0  0  0
 60133  1  0  0  0
 60134  1  0  0  0
 61135  1  0  0  0
 61136  1  0  0  0
 61137  1  0  0  0
 62138  1  0  0  0
 62139  1  0  0  0
 62140  1  0  0  0
 63 65  1  0  0  0
 63141  1  0  0  0
 63142  1  0  0  0
 63143  1  0  0  0
 64144  1  0  0  0
 65145  1  0  0  0
 68 80  1  0  0  0
 71 73  2  0  0  0
 71 74  1  0  0  0
 71146  1  0  0  0
 72 74  2  0  0  0
 72 75  1  0  0  0
 72147  1  0  0  0
 73 76  1  0  0  0
 73 77  1  0  0  0
 74 84  1  0  0  0
 75 76  2  0  0  0
 75 83  1  0  0  0
 76 82  1  0  0  0
 77 81  2  0  0  0
 77148  1  0  0  0
 78 79  1  0  0  0
 78 80  1  0  0  0
 78 85  2  0  0  0
 79 83  1  0  0  0
 79 86  2  0  0  0
 80149  1  0  0  0
 80150  1  0  0  0
 81151  1  0  0  0
 82152  1  0  0  0
 82153  1  0  0  0
 83154  1  0  0  0
 84155  1  0  0  0
M  ISO  4   1 100  68 101  80 101  84 100
M  END
> <chiral flag>
0

> <version>
0

> <s_m_source_file>
/data/baiqing/PycharmProjects/Reinvent-master-3.2/result/LINK_invent/BTK/process_docking_weight1_custom_product_contain_oxygen_bond_distance_aromatic_linkinvent_7_9_3/rearranged_h_0159.sdf

> <i_m_source_file_index>
47

> <r_mmod_Potential_Energy-OPLS-2005>
212.322448730469

> <r_mmod_Stretch_Energy-OPLS-2005>
137.636199951172

> <r_mmod_Bend_Energy-OPLS-2005>
162.973724365234

> <r_mmod_Torsional_Energy-OPLS-2005>
272.655303955078

> <r_mmod_Improper_Torsional_Energy-OPLS-2005>
11.3283128738403

> <r_mmod_Van_der_Waal_Energy-OPLS-2005>
169.098190307617

> <r_mmod_Electrostatic_Energy-OPLS-2005>
-363.607513427734

> <r_mmod_Solvation_Energy-OPLS-2005>
-265.643127441406

> <b_mmod_Minimization_Converged-OPLS-2005>
0

> <r_mmod_RMS_Derivative-OPLS-2005>
3.5020534992218

$$$$
47
                    3D
 Structure written by MMmdl.
160168  0  0  1  0            999 V2000
  -30.6582  -14.5648   20.5167 C   0  0  0  0  0  0
  -30.4575  -12.3565   19.4293 C   0  0  0  0  0  0
  -29.5117  -12.4697   18.2148 C   0  0  0  0  0  0
  -28.0449  -12.2753   18.6468 C   0  0  0  0  0  0
  -27.6615  -13.1822   19.8490 C   0  0  2  0  0  0
  -28.7038  -13.0291   20.9826 C   0  0  0  0  0  0
  -25.2718  -13.8261   20.5703 C   0  0  0  0  0  0
  -24.1888  -13.0564   20.9051 C   0  0  0  0  0  0
  -24.6361  -11.7027   20.8663 C   0  0  0  0  0  0
  -23.9024  -10.4421   21.0361 C   0  0  0  0  0  0
  -24.3615   -9.4335   21.9134 C   0  0  0  0  0  0
  -23.6348   -8.2333   22.0719 C   0  0  0  0  0  0
  -22.4319   -8.0352   21.3521 C   0  0  0  0  0  0
  -21.9920   -9.0304   20.4644 C   0  0  0  0  0  0
  -22.7174  -10.2218   20.3037 C   0  0  0  0  0  0
  -21.6855   -6.0796   22.5254 C   0  0  0  0  0  0
  -21.3994   -6.5674   23.8189 C   0  0  0  0  0  0
  -21.3628   -5.6799   24.9138 C   0  0  0  0  0  0
  -21.6033   -4.3073   24.7161 C   0  0  0  0  0  0
  -21.8863   -3.8173   23.4286 C   0  0  0  0  0  0
  -21.9216   -4.7019   22.3354 C   0  0  0  0  0  0
  -22.7911  -13.5378   21.1682 C   0  0  0  0  0  0
  -22.1689   -4.2206   21.0940 F   0  0  0  0  0  0
  -21.5625   -3.4551   25.7682 F   0  0  0  0  0  0
  -30.0346  -13.3534   20.4329 N   0  0  0  0  0  0
  -26.3045  -12.9301   20.3193 N   0  0  0  0  0  0
  -25.9259  -11.6529   20.5665 N   0  0  0  0  0  0
  -22.0493  -12.8390   22.0235 N   0  0  0  0  0  0
  -25.4669  -15.2058   20.4580 N   0  0  0  0  0  0
  -31.7952  -14.7567   20.0766 O   0  0  0  0  0  0
  -21.6660   -6.8963   21.4241 O   0  0  0  0  0  0
  -22.3645  -14.5670   20.6493 O   0  0  0  0  0  0
  -24.6177  -31.8611   23.1994 C   0  0  0  0  0  0
  -25.9032  -32.4784   23.8306 C   0  0  1  0  0  0
  -27.2508  -27.3883   20.1282 C   0  0  0  0  0  0
  -25.5885  -33.8565   24.2246 N   0  0  0  0  0  0
  -23.4140  -30.4793   21.5391 C   0  0  2  0  0  0
  -24.8650  -28.9363   20.1119 C   0  0  0  0  0  0
  -22.7439  -29.4631   22.4939 C   0  0  0  0  0  0
  -18.0310  -28.1387   22.8487 C   0  0  0  0  0  0
  -24.1499  -36.7272   23.2653 C   0  0  0  0  0  0
  -25.9445  -30.8102   21.3660 C   0  0  0  0  0  0
  -26.0233  -29.4447   20.7101 C   0  0  0  0  0  0
  -27.2195  -28.6839   20.7052 C   0  0  0  0  0  0
  -26.0689  -26.9004   19.5242 C   0  0  0  0  0  0
  -24.8884  -27.6672   19.5079 C   0  0  0  0  0  0
  -23.6231  -29.7953   20.1589 C   0  0  0  0  0  0
  -25.4127  -36.3074   24.0349 C   0  0  1  0  0  0
  -20.5905  -28.3675   23.1295 C   0  0  2  0  0  0
  -20.6817  -26.9401   22.5429 C   0  0  0  0  0  0
  -19.5795  -26.6381   21.5212 C   0  0  0  0  0  0
  -18.1958  -26.7947   22.1594 C   0  0  0  0  0  0
  -19.1562  -28.8845   23.2894 C   0  0  0  0  0  0
  -18.9489  -30.1452   23.8893 C   0  0  0  0  0  0
  -17.6484  -30.6598   24.0562 C   0  0  0  0  0  0
  -25.9049  -34.9448   23.5096 C   0  0  0  0  0  0
  -16.5369  -29.9088   23.6349 C   0  0  0  0  0  0
  -16.7297  -28.6516   23.0358 C   0  0  0  0  0  0
  -26.4446  -31.6635   25.0682 C   0  0  0  0  0  0
  -25.3689  -31.3790   26.1421 C   0  0  0  0  0  0
  -27.0289  -30.3065   24.6152 C   0  0  0  0  0  0
  -27.6011  -32.4397   25.7416 C   0  0  0  0  0  0
  -27.5609  -37.1788   24.8455 C   0  0  0  0  0  0
  -21.4177  -29.2995   22.3658 N   0  0  0  0  0  0
  -26.4304  -37.3784   23.9422 N   0  0  0  0  0  0
  -24.6763  -31.0683   22.0893 N   0  0  0  0  0  0
  -23.4195  -28.8203   23.3032 O   0  0  0  0  0  0
  -28.4206  -26.6365   20.1602 O   0  0  0  0  0  0
  -26.5630  -34.8936   22.4664 O   0  0  0  0  0  0
  -23.5366  -32.1326   23.7391 O   0  0  0  0  0  0
  -28.5764  -19.1920   19.1161 C   0  0  0  0  0  0
  -28.8714  -16.7695   19.1104 C   0  0  0  0  0  0
  -29.9097  -18.1136   20.8611 C   0  0  0  0  0  0
  -28.3032  -17.9294   18.5513 C   0  0  0  0  0  0
  -29.4200  -19.3150   20.2507 C   0  0  0  0  0  0
  -29.6258  -16.8260   20.3057 C   0  0  0  0  0  0
  -27.3706  -17.8055   17.4286 C   0  0  0  0  0  0
  -29.5015  -23.0215   21.2186 C   0  0  0  0  0  0
  -29.5991  -21.8407   20.2356 C   0  0  0  0  0  0
  -29.6367  -24.4732   20.6798 C   0  0  0  0  0  0
  -28.2921  -25.2035   20.3603 C   0  0  0  0  0  0
  -29.3156  -22.8639   22.4671 N   0  0  0  0  0  0
  -26.1411  -18.3071   17.5055 N   0  0  0  0  0  0
  -29.6731  -20.6149   20.8320 N   0  0  0  0  0  0
  -29.9127  -15.5900   20.9952 N   0  0  0  0  0  0
  -27.7219  -17.1562   16.3213 N   0  3  0  0  0  0
  -29.6467  -22.0194   19.0177 O   0  0  0  0  0  0
  -31.4860  -12.5131   19.1052 H   0  0  0  0  0  0
  -30.4416  -11.3501   19.8551 H   0  0  0  0  0  0
  -29.7892  -11.7234   17.4671 H   0  0  0  0  0  0
  -29.6309  -13.4440   17.7353 H   0  0  0  0  0  0
  -27.9318  -11.2271   18.9372 H   0  0  0  0  0  0
  -27.3752  -12.4252   17.8021 H   0  0  0  0  0  0
  -27.6888  -14.2030   19.4866 H   0  0  0  0  0  0
  -28.7023  -12.0030   21.3594 H   0  0  0  0  0  0
  -28.4430  -13.6577   21.8347 H   0  0  0  0  0  0
  -25.2829   -9.5839   22.4600 H   0  0  0  0  0  0
  -24.0088   -7.4773   22.7449 H   0  0  0  0  0  0
  -21.0802   -8.8788   19.9028 H   0  0  0  0  0  0
  -22.3600  -10.9716   19.6106 H   0  0  0  0  0  0
  -21.1951   -7.6183   23.9698 H   0  0  0  0  0  0
  -21.1374   -6.0509   25.9035 H   0  0  0  0  0  0
  -22.0670   -2.7636   23.2717 H   0  0  0  0  0  0
  -22.4189  -12.0200   22.4839 H   0  0  0  0  0  0
  -21.1051  -13.1394   22.2293 H   0  0  0  0  0  0
  -24.7301  -15.8683   20.6798 H   0  0  0  0  0  0
  -26.3658  -15.6594   20.3622 H   0  0  0  0  0  0
  -26.7084  -32.5492   23.1049 H   0  0  0  0  0  0
  -25.0067  -33.9700   25.0428 H   0  0  0  0  0  0
  -22.7101  -31.3007   21.3887 H   0  0  0  0  0  0
  -23.3803  -35.9563   23.3278 H   0  0  0  0  0  0
  -24.3614  -36.8903   22.2075 H   0  0  0  0  0  0
  -23.7201  -37.6448   23.6680 H   0  0  0  0  0  0
  -26.0883  -31.5776   20.6056 H   0  0  0  0  0  0
  -26.8168  -30.8380   22.0059 H   0  0  0  0  0  0
  -28.1097  -29.0772   21.1773 H   0  0  0  0  0  0
  -26.0427  -25.9255   19.0623 H   0  0  0  0  0  0
  -23.9979  -27.2731   19.0375 H   0  0  0  0  0  0
  -23.7167  -30.5484   19.3766 H   0  0  0  0  0  0
  -22.7530  -29.1935   19.8919 H   0  0  0  0  0  0
  -25.1322  -36.1910   25.0856 H   0  0  0  0  0  0
  -21.0026  -28.3238   24.1398 H   0  0  0  0  0  0
  -20.5701  -26.2273   23.3631 H   0  0  0  0  0  0
  -21.6692  -26.7435   22.1219 H   0  0  0  0  0  0
  -19.6963  -25.6269   21.1264 H   0  0  0  0  0  0
  -19.6786  -27.3191   20.6744 H   0  0  0  0  0  0
  -17.4278  -26.6747   21.3945 H   0  0  0  0  0  0
  -18.0307  -26.0065   22.8962 H   0  0  0  0  0  0
  -19.7966  -30.7289   24.2249 H   0  0  0  0  0  0
  -17.5047  -31.6289   24.5144 H   0  0  0  0  0  0
  -15.5366  -30.2991   23.7696 H   0  0  0  0  0  0
  -15.8712  -28.0840   22.7058 H   0  0  0  0  0  0
  -24.5813  -30.7206   25.7739 H   0  0  0  0  0  0
  -24.8945  -32.2975   26.4892 H   0  0  0  0  0  0
  -25.7991  -30.8905   27.0173 H   0  0  0  0  0  0
  -26.2845  -29.6813   24.1195 H   0  0  0  0  0  0
  -27.4004  -29.7344   25.4672 H   0  0  0  0  0  0
  -27.8717  -30.4370   23.9350 H   0  0  0  0  0  0
  -27.2576  -33.3636   26.2089 H   0  0  0  0  0  0
  -28.3714  -32.7081   25.0172 H   0  0  0  0  0  0
  -28.0806  -31.8498   26.5238 H   0  0  0  0  0  0
  -28.2608  -38.0111   24.7574 H   0  0  0  0  0  0
  -28.1123  -36.2659   24.6178 H   0  0  0  0  0  0
  -27.2351  -37.1303   25.8860 H   0  0  0  0  0  0
  -20.9390  -29.8603   21.6763 H   0  0  0  0  0  0
  -26.0182  -38.2850   24.1475 H   0  0  0  0  0  0
  -28.1134  -20.0652   18.6736 H   0  0  0  0  0  0
  -28.6503  -15.8264   18.6399 H   0  0  0  0  0  0
  -30.4862  -18.1734   21.7756 H   0  0  0  0  0  0
  -30.2912  -24.4823   19.8096 H   0  0  0  0  0  0
  -30.1764  -25.0477   21.4324 H   0  0  0  0  0  0
  -27.6009  -25.0308   21.1893 H   0  0  0  0  0  0
  -27.8607  -24.7476   19.4693 H   0  0  0  0  0  0
  -29.2111  -21.8921   22.7344 H   0  0  0  0  0  0
  -25.8524  -18.7784   18.3490 H   0  0  0  0  0  0
  -25.4191  -18.0819   16.8369 H   0  0  0  0  0  0
  -29.9000  -20.6328   21.8137 H   0  0  0  0  0  0
  -29.1259  -15.2440   21.5265 H   0  0  0  0  0  0
  -28.6780  -16.8562   16.2122 H   0  0  0  0  0  0
  -27.1073  -17.0733   15.5267 H   0  0  0  0  0  0
  1 25  1  0  0  0
  1 30  2  0  0  0
  1 85  1  0  0  0
  2  3  1  0  0  0
  2 25  1  0  0  0
  2 88  1  0  0  0
  2 89  1  0  0  0
  3  4  1  0  0  0
  3 90  1  0  0  0
  3 91  1  0  0  0
  4  5  1  0  0  0
  4 92  1  0  0  0
  4 93  1  0  0  0
  5  6  1  0  0  0
  5 26  1  0  0  0
  5 94  1  0  0  0
  6 25  1  0  0  0
  6 95  1  0  0  0
  6 96  1  0  0  0
  7  8  2  0  0  0
  7 26  1  0  0  0
  7 29  1  0  0  0
  8  9  1  0  0  0
  8 22  1  0  0  0
  9 10  1  0  0  0
  9 27  2  0  0  0
 10 11  2  0  0  0
 10 15  1  0  0  0
 11 12  1  0  0  0
 11 97  1  0  0  0
 12 13  2  0  0  0
 12 98  1  0  0  0
 13 14  1  0  0  0
 13 31  1  0  0  0
 14 15  2  0  0  0
 14 99  1  0  0  0
 15100  1  0  0  0
 16 17  2  0  0  0
 16 21  1  0  0  0
 16 31  1  0  0  0
 17 18  1  0  0  0
 17101  1  0  0  0
 18 19  2  0  0  0
 18102  1  0  0  0
 19 20  1  0  0  0
 19 24  1  0  0  0
 20 21  2  0  0  0
 20103  1  0  0  0
 21 23  1  0  0  0
 22 28  1  0  0  0
 22 32  2  0  0  0
 26 27  1  0  0  0
 28104  1  0  0  0
 28105  1  0  0  0
 29106  1  0  0  0
 29107  1  0  0  0
 33 34  1  0  0  0
 33 66  1  0  0  0
 33 70  2  0  0  0
 34 36  1  0  0  0
 34 59  1  0  0  0
 34108  1  0  0  0
 35 44  2  0  0  0
 35 45  1  0  0  0
 35 68  1  0  0  0
 36 56  1  0  0  0
 36109  1  0  0  0
 37 39  1  0  0  0
 37 47  1  0  0  0
 37 66  1  0  0  0
 37110  1  0  0  0
 38 43  2  0  0  0
 38 46  1  0  0  0
 38 47  1  0  0  0
 39 64  1  0  0  0
 39 67  2  0  0  0
 40 52  1  0  0  0
 40 53  2  0  0  0
 40 58  1  0  0  0
 41111  1  0  0  0
 41112  1  0  0  0
 41113  1  0  0  0
 41 48  1  0  0  0
 42 43  1  0  0  0
 42 66  1  0  0  0
 42114  1  0  0  0
 42115  1  0  0  0
 43 44  1  0  0  0
 44116  1  0  0  0
 45 46  2  0  0  0
 45117  1  0  0  0
 46118  1  0  0  0
 47119  1  0  0  0
 47120  1  0  0  0
 48 56  1  0  0  0
 48 65  1  0  0  0
 48121  1  0  0  0
 49 50  1  0  0  0
 49 53  1  0  0  0
 49 64  1  0  0  0
 49122  1  0  0  0
 50 51  1  0  0  0
 50123  1  0  0  0
 50124  1  0  0  0
 51 52  1  0  0  0
 51125  1  0  0  0
 51126  1  0  0  0
 52127  1  0  0  0
 52128  1  0  0  0
 53 54  1  0  0  0
 54 55  2  0  0  0
 54129  1  0  0  0
 55 57  1  0  0  0
 55130  1  0  0  0
 56 69  2  0  0  0
 57 58  2  0  0  0
 57131  1  0  0  0
 58132  1  0  0  0
 59 60  1  0  0  0
 59 61  1  0  0  0
 59 62  1  0  0  0
 60133  1  0  0  0
 60134  1  0  0  0
 60135  1  0  0  0
 61136  1  0  0  0
 61137  1  0  0  0
 61138  1  0  0  0
 62139  1  0  0  0
 62140  1  0  0  0
 62141  1  0  0  0
 63 65  1  0  0  0
 63142  1  0  0  0
 63143  1  0  0  0
 63144  1  0  0  0
 64145  1  0  0  0
 65146  1  0  0  0
 68 81  1  0  0  0
 71 74  2  0  0  0
 71 75  1  0  0  0
 71147  1  0  0  0
 72 74  1  0  0  0
 72 76  2  0  0  0
 72148  1  0  0  0
 73 75  2  0  0  0
 73 76  1  0  0  0
 73149  1  0  0  0
 74 77  1  0  0  0
 75 84  1  0  0  0
 76 85  1  0  0  0
 77 83  1  0  0  0
 77 86  2  0  0  0
 78 79  1  0  0  0
 78 80  1  0  0  0
 78 82  2  0  0  0
 79 84  1  0  0  0
 79 87  2  0  0  0
 80 81  1  0  0  0
 80150  1  0  0  0
 80151  1  0  0  0
 81152  1  0  0  0
 81153  1  0  0  0
 82154  1  0  0  0
 83155  1  0  0  0
 83156  1  0  0  0
 84157  1  0  0  0
 85158  1  0  0  0
 86159  1  0  0  0
 86160  1  0  0  0
M  CHG  1  86   1
M  ISO  4   1 100  68 101  81 101  85 100
M  END
> <chiral flag>
0

> <version>
0

> <s_m_source_file>
/data/baiqing/PycharmProjects/Reinvent-master-3.2/result/LINK_invent/BTK/process_docking_weight1_custom_product_contain_oxygen_bond_distance_aromatic_linkinvent_7_9_3/rearranged_h_0159.sdf

> <i_m_source_file_index>
48

> <r_mmod_Potential_Energy-OPLS-2005>
-323.122009277344

> <r_mmod_Stretch_Energy-OPLS-2005>
56.468074798584

> <r_mmod_Bend_Energy-OPLS-2005>
107.764717102051

> <r_mmod_Torsional_Energy-OPLS-2005>
286.274139404297

> <r_mmod_Improper_Torsional_Energy-OPLS-2005>
8.57377338409424

> <r_mmod_Van_der_Waal_Energy-OPLS-2005>
147.061264038086

> <r_mmod_Electrostatic_Energy-OPLS-2005>
-465.642272949219

> <r_mmod_Solvation_Energy-OPLS-2005>
-492.681549072266

> <b_mmod_Minimization_Converged-OPLS-2005>
0

> <r_mmod_RMS_Derivative-OPLS-2005>
7.23067092895508

$$$$
48
                    3D
 Structure written by MMmdl.
162171  0  0  1  0            999 V2000
  -30.6606  -14.5437   20.5006 C   0  0  0  0  0  0
  -30.4317  -12.3314   19.4272 C   0  0  0  0  0  0
  -29.5021  -12.5052   18.2067 C   0  0  0  0  0  0
  -28.0217  -12.3636   18.6180 C   0  0  0  0  0  0
  -27.6621  -13.2094   19.8691 C   0  0  2  0  0  0
  -28.7098  -13.0206   20.9915 C   0  0  0  0  0  0
  -25.2612  -13.8166   20.5686 C   0  0  0  0  0  0
  -24.1864  -13.0444   20.9194 C   0  0  0  0  0  0
  -24.6427  -11.6904   20.8757 C   0  0  0  0  0  0
  -23.9082  -10.4293   21.0408 C   0  0  0  0  0  0
  -24.3635   -9.4212   21.9189 C   0  0  0  0  0  0
  -23.6310   -8.2247   22.0756 C   0  0  0  0  0  0
  -22.4284   -8.0294   21.3555 C   0  0  0  0  0  0
  -21.9922   -9.0263   20.4642 C   0  0  0  0  0  0
  -22.7259  -10.2139   20.3042 C   0  0  0  0  0  0
  -21.6852   -6.0743   22.5287 C   0  0  0  0  0  0
  -21.4002   -6.5644   23.8221 C   0  0  0  0  0  0
  -21.3656   -5.6790   24.9182 C   0  0  0  0  0  0
  -21.6048   -4.3059   24.7221 C   0  0  0  0  0  0
  -21.8818   -3.8152   23.4347 C   0  0  0  0  0  0
  -21.9196   -4.6974   22.3406 C   0  0  0  0  0  0
  -22.7886  -13.5252   21.1860 C   0  0  0  0  0  0
  -22.1660   -4.2163   21.0982 F   0  0  0  0  0  0
  -21.5642   -3.4540   25.7728 F   0  0  0  0  0  0
  -30.0330  -13.3332   20.4290 N   0  0  0  0  0  0
  -26.3050  -12.9330   20.3355 N   0  0  0  0  0  0
  -25.9355  -11.6500   20.5773 N   0  0  0  0  0  0
  -22.0497  -12.8245   22.0393 N   0  0  0  0  0  0
  -25.4345  -15.1881   20.4064 N   0  0  0  0  0  0
  -31.8142  -14.7096   20.0945 O   0  0  0  0  0  0
  -21.6655   -6.8896   21.4241 O   0  0  0  0  0  0
  -22.3577  -14.5565   20.6723 O   0  0  0  0  0  0
  -24.6166  -31.8613   23.2077 C   0  0  0  0  0  0
  -25.9048  -32.4788   23.8351 C   0  0  1  0  0  0
  -27.2361  -27.3808   20.0680 C   0  0  0  0  0  0
  -25.5915  -33.8600   24.2254 N   0  0  0  0  0  0
  -23.4042  -30.4848   21.5558 C   0  0  2  0  0  0
  -24.8497  -28.9489   20.1138 C   0  0  0  0  0  0
  -22.7389  -29.4616   22.5065 C   0  0  0  0  0  0
  -18.0239  -28.1324   22.8555 C   0  0  0  0  0  0
  -24.1470  -36.7255   23.2660 C   0  0  0  0  0  0
  -25.9410  -30.8087   21.3706 C   0  0  0  0  0  0
  -26.0177  -29.4398   20.7100 C   0  0  0  0  0  0
  -27.2060  -28.6606   20.6947 C   0  0  0  0  0  0
  -26.0330  -26.9124   19.4890 C   0  0  0  0  0  0
  -24.8552  -27.6813   19.5086 C   0  0  0  0  0  0
  -23.6087  -29.8152   20.1721 C   0  0  0  0  0  0
  -25.4095  -36.3062   24.0329 C   0  0  1  0  0  0
  -20.5842  -28.3574   23.1382 C   0  0  2  0  0  0
  -20.6732  -26.9316   22.5460 C   0  0  0  0  0  0
  -19.5710  -26.6328   21.5259 C   0  0  0  0  0  0
  -18.1873  -26.7893   22.1629 C   0  0  0  0  0  0
  -19.1501  -28.8772   23.2961 C   0  0  0  0  0  0
  -18.9447  -30.1414   23.8904 C   0  0  0  0  0  0
  -17.6448  -30.6574   24.0541 C   0  0  0  0  0  0
  -25.9029  -34.9461   23.5058 C   0  0  0  0  0  0
  -16.5328  -29.9041   23.6386 C   0  0  0  0  0  0
  -16.7229  -28.6451   23.0426 C   0  0  0  0  0  0
  -26.4447  -31.6621   25.0723 C   0  0  0  0  0  0
  -25.3731  -31.3812   26.1513 C   0  0  0  0  0  0
  -27.0281  -30.3047   24.6154 C   0  0  0  0  0  0
  -27.5980  -32.4395   25.7493 C   0  0  0  0  0  0
  -27.5552  -37.1751   24.8457 C   0  0  0  0  0  0
  -21.4121  -29.2956   22.3794 N   0  0  0  0  0  0
  -26.4245  -37.3770   23.9437 N   0  0  0  0  0  0
  -24.6729  -31.0652   22.1015 N   0  0  0  0  0  0
  -23.4155  -28.8177   23.3128 O   0  0  0  0  0  0
  -28.3992  -26.6076   20.0715 O   0  0  0  0  0  0
  -26.5583  -34.8929   22.4616 O   0  0  0  0  0  0
  -23.5343  -32.1413   23.7439 O   0  0  0  0  0  0
  -29.3632  -17.8828   21.4212 C   0  0  0  0  0  0
  -30.0215  -19.1079   21.0772 C   0  0  0  0  0  0
  -30.0730  -16.9145   20.7622 C   0  0  0  0  0  0
  -30.3345  -23.7497   19.7855 C   0  0  0  0  0  0
  -27.9027  -23.4336   20.3623 C   0  0  0  0  0  0
  -30.5663  -22.2258   20.0421 C   0  0  0  0  0  0
  -28.2098  -21.9216   20.6166 C   0  0  0  0  0  0
  -28.8821  -24.0948   19.3636 C   0  0  1  0  0  0
  -31.1735  -20.5928   22.7145 C   0  0  0  0  0  0
  -28.6283  -25.6213   19.0184 C   0  0  0  0  0  0
  -29.9255  -20.4496   21.8159 C   0  0  1  0  0  0
  -30.9582  -18.8803   20.1553 N   0  0  0  0  0  0
  -29.8740  -15.5694   20.9051 N   0  0  0  0  0  0
  -29.6147  -21.7278   21.0711 N   0  3  1  0  0  0
  -31.0083  -17.4868   19.9566 O   0  0  0  0  0  0
  -28.6933  -23.4528   18.2091 F   0  0  0  0  0  0
  -31.4758  -12.4343   19.1266 H   0  0  0  0  0  0
  -30.3384  -11.3251   19.8394 H   0  0  0  0  0  0
  -29.7469  -11.7702   17.4382 H   0  0  0  0  0  0
  -29.6656  -13.4845   17.7530 H   0  0  0  0  0  0
  -27.8334  -11.3084   18.8164 H   0  0  0  0  0  0
  -27.3723  -12.6331   17.7845 H   0  0  0  0  0  0
  -27.6915  -14.2523   19.5536 H   0  0  0  0  0  0
  -28.7026  -11.9932   21.3600 H   0  0  0  0  0  0
  -28.4746  -13.6418   21.8569 H   0  0  0  0  0  0
  -25.2775   -9.5702   22.4769 H   0  0  0  0  0  0
  -24.0030   -7.4631   22.7462 H   0  0  0  0  0  0
  -21.0861   -8.8775   19.8937 H   0  0  0  0  0  0
  -22.3729  -10.9677   19.6143 H   0  0  0  0  0  0
  -21.1964   -7.6143   23.9733 H   0  0  0  0  0  0
  -21.1481   -6.0514   25.9094 H   0  0  0  0  0  0
  -22.0597   -2.7609   23.2833 H   0  0  0  0  0  0
  -22.4079  -11.9888   22.4772 H   0  0  0  0  0  0
  -21.1116  -13.1292   22.2554 H   0  0  0  0  0  0
  -24.6678  -15.8443   20.5180 H   0  0  0  0  0  0
  -26.2792  -15.6264   20.0599 H   0  0  0  0  0  0
  -26.7120  -32.5444   23.1111 H   0  0  0  0  0  0
  -25.0164  -33.9778   25.0462 H   0  0  0  0  0  0
  -22.6955  -31.3033   21.4166 H   0  0  0  0  0  0
  -23.3750  -35.9569   23.3313 H   0  0  0  0  0  0
  -24.3584  -36.8864   22.2080 H   0  0  0  0  0  0
  -23.7203  -37.6441   23.6686 H   0  0  0  0  0  0
  -26.0599  -31.5813   20.6093 H   0  0  0  0  0  0
  -26.8261  -30.8539   21.9942 H   0  0  0  0  0  0
  -28.1012  -29.0400   21.1690 H   0  0  0  0  0  0
  -25.9662  -25.9357   19.0338 H   0  0  0  0  0  0
  -23.9546  -27.2827   19.0623 H   0  0  0  0  0  0
  -23.6865  -30.5871   19.4052 H   0  0  0  0  0  0
  -22.7339  -29.2223   19.8976 H   0  0  0  0  0  0
  -25.1288  -36.1872   25.0820 H   0  0  0  0  0  0
  -20.9920  -28.3067   24.1505 H   0  0  0  0  0  0
  -20.5633  -26.2153   23.3624 H   0  0  0  0  0  0
  -21.6597  -26.7360   22.1233 H   0  0  0  0  0  0
  -19.6853  -25.6244   21.1261 H   0  0  0  0  0  0
  -19.6670  -27.3177   20.6829 H   0  0  0  0  0  0
  -17.4182  -26.6780   21.3973 H   0  0  0  0  0  0
  -18.0133  -25.9977   22.8935 H   0  0  0  0  0  0
  -19.7931  -30.7256   24.2221 H   0  0  0  0  0  0
  -17.5007  -31.6302   24.5048 H   0  0  0  0  0  0
  -15.5324  -30.2935   23.7739 H   0  0  0  0  0  0
  -15.8625  -28.0761   22.7160 H   0  0  0  0  0  0
  -24.5965  -30.7007   25.8006 H   0  0  0  0  0  0
  -24.8857  -32.2994   26.4803 H   0  0  0  0  0  0
  -25.8143  -30.9225   27.0373 H   0  0  0  0  0  0
  -26.2848  -29.6834   24.1148 H   0  0  0  0  0  0
  -27.3965  -29.7252   25.4629 H   0  0  0  0  0  0
  -27.8705  -30.4346   23.9363 H   0  0  0  0  0  0
  -27.2537  -33.3722   26.1978 H   0  0  0  0  0  0
  -28.3836  -32.6916   25.0363 H   0  0  0  0  0  0
  -28.0586  -31.8604   26.5505 H   0  0  0  0  0  0
  -28.2536  -38.0081   24.7536 H   0  0  0  0  0  0
  -28.1047  -36.2605   24.6184 H   0  0  0  0  0  0
  -27.2288  -37.1274   25.8863 H   0  0  0  0  0  0
  -20.9218  -29.8661   21.7055 H   0  0  0  0  0  0
  -26.0093  -38.2804   24.1535 H   0  0  0  0  0  0
  -28.5745  -17.7345   22.1449 H   0  0  0  0  0  0
  -31.0237  -24.0910   19.0123 H   0  0  0  0  0  0
  -30.5923  -24.3134   20.6823 H   0  0  0  0  0  0
  -27.9449  -23.9705   21.3091 H   0  0  0  0  0  0
  -26.8776  -23.5427   20.0059 H   0  0  0  0  0  0
  -31.5976  -22.0671   20.3593 H   0  0  0  0  0  0
  -30.4415  -21.6651   19.1138 H   0  0  0  0  0  0
  -28.0364  -21.3337   19.7131 H   0  0  0  0  0  0
  -27.5141  -21.5397   21.3643 H   0  0  0  0  0  0
  -31.2724  -19.7206   23.3617 H   0  0  0  0  0  0
  -31.1322  -21.4645   23.3655 H   0  0  0  0  0  0
  -32.0922  -20.6466   22.1298 H   0  0  0  0  0  0
  -27.8720  -25.6736   18.2373 H   0  0  0  0  0  0
  -29.5140  -25.9756   18.4891 H   0  0  0  0  0  0
  -29.1007  -20.3511   22.5251 H   0  0  0  0  0  0
  -28.9848  -15.2987   21.2878 H   0  0  0  0  0  0
  -29.7091  -22.3963   21.8191 H   0  0  0  0  0  0
  1 25  1  0  0  0
  1 30  2  0  0  0
  1 83  1  0  0  0
  2  3  1  0  0  0
  2 25  1  0  0  0
  2 87  1  0  0  0
  2 88  1  0  0  0
  3  4  1  0  0  0
  3 89  1  0  0  0
  3 90  1  0  0  0
  4  5  1  0  0  0
  4 91  1  0  0  0
  4 92  1  0  0  0
  5  6  1  0  0  0
  5 26  1  0  0  0
  5 93  1  0  0  0
  6 25  1  0  0  0
  6 94  1  0  0  0
  6 95  1  0  0  0
  7  8  2  0  0  0
  7 26  1  0  0  0
  7 29  1  0  0  0
  8  9  1  0  0  0
  8 22  1  0  0  0
  9 10  1  0  0  0
  9 27  2  0  0  0
 10 11  2  0  0  0
 10 15  1  0  0  0
 11 12  1  0  0  0
 11 96  1  0  0  0
 12 13  2  0  0  0
 12 97  1  0  0  0
 13 14  1  0  0  0
 13 31  1  0  0  0
 14 15  2  0  0  0
 14 98  1  0  0  0
 15 99  1  0  0  0
 16 17  2  0  0  0
 16 21  1  0  0  0
 16 31  1  0  0  0
 17 18  1  0  0  0
 17100  1  0  0  0
 18 19  2  0  0  0
 18101  1  0  0  0
 19 20  1  0  0  0
 19 24  1  0  0  0
 20 21  2  0  0  0
 20102  1  0  0  0
 21 23  1  0  0  0
 22 28  1  0  0  0
 22 32  2  0  0  0
 26 27  1  0  0  0
 28103  1  0  0  0
 28104  1  0  0  0
 29105  1  0  0  0
 29106  1  0  0  0
 33 34  1  0  0  0
 33 66  1  0  0  0
 33 70  2  0  0  0
 34 36  1  0  0  0
 34 59  1  0  0  0
 34107  1  0  0  0
 35 44  2  0  0  0
 35 45  1  0  0  0
 35 68  1  0  0  0
 36 56  1  0  0  0
 36108  1  0  0  0
 37 39  1  0  0  0
 37 47  1  0  0  0
 37 66  1  0  0  0
 37109  1  0  0  0
 38 43  2  0  0  0
 38 46  1  0  0  0
 38 47  1  0  0  0
 39 64  1  0  0  0
 39 67  2  0  0  0
 40 52  1  0  0  0
 40 53  2  0  0  0
 40 58  1  0  0  0
 41110  1  0  0  0
 41111  1  0  0  0
 41112  1  0  0  0
 41 48  1  0  0  0
 42 43  1  0  0  0
 42 66  1  0  0  0
 42113  1  0  0  0
 42114  1  0  0  0
 43 44  1  0  0  0
 44115  1  0  0  0
 45 46  2  0  0  0
 45116  1  0  0  0
 46117  1  0  0  0
 47118  1  0  0  0
 47119  1  0  0  0
 48 56  1  0  0  0
 48 65  1  0  0  0
 48120  1  0  0  0
 49 50  1  0  0  0
 49 53  1  0  0  0
 49 64  1  0  0  0
 49121  1  0  0  0
 50 51  1  0  0  0
 50122  1  0  0  0
 50123  1  0  0  0
 51 52  1  0  0  0
 51124  1  0  0  0
 51125  1  0  0  0
 52126  1  0  0  0
 52127  1  0  0  0
 53 54  1  0  0  0
 54 55  2  0  0  0
 54128  1  0  0  0
 55 57  1  0  0  0
 55129  1  0  0  0
 56 69  2  0  0  0
 57 58  2  0  0  0
 57130  1  0  0  0
 58131  1  0  0  0
 59 60  1  0  0  0
 59 61  1  0  0  0
 59 62  1  0  0  0
 60132  1  0  0  0
 60133  1  0  0  0
 60134  1  0  0  0
 61135  1  0  0  0
 61136  1  0  0  0
 61137  1  0  0  0
 62138  1  0  0  0
 62139  1  0  0  0
 62140  1  0  0  0
 63 65  1  0  0  0
 63141  1  0  0  0
 63142  1  0  0  0
 63143  1  0  0  0
 64144  1  0  0  0
 65145  1  0  0  0
 68 80  1  0  0  0
 71 72  1  0  0  0
 71 73  2  0  0  0
 71146  1  0  0  0
 72 81  1  0  0  0
 72 82  2  0  0  0
 73 83  1  0  0  0
 73 85  1  0  0  0
 74 76  1  0  0  0
 74 78  1  0  0  0
 74147  1  0  0  0
 74148  1  0  0  0
 75 77  1  0  0  0
 75 78  1  0  0  0
 75149  1  0  0  0
 75150  1  0  0  0
 76151  1  0  0  0
 76152  1  0  0  0
 76 84  1  0  0  0
 77 84  1  0  0  0
 77153  1  0  0  0
 77154  1  0  0  0
 78 80  1  0  0  0
 78 86  1  0  0  0
 79155  1  0  0  0
 79156  1  0  0  0
 79157  1  0  0  0
 79 81  1  0  0  0
 80158  1  0  0  0
 80159  1  0  0  0
 81 84  1  0  0  0
 81160  1  0  0  0
 82 85  1  0  0  0
 83161  1  0  0  0
 84162  1  0  0  0
M  CHG  1  84   1
M  ISO  4   1 100  68 101  80 101  83 100
M  END
> <chiral flag>
0

> <version>
0

> <s_m_source_file>
/data/baiqing/PycharmProjects/Reinvent-master-3.2/result/LINK_invent/BTK/process_docking_weight1_custom_product_contain_oxygen_bond_distance_aromatic_linkinvent_7_9_3/rearranged_h_0159.sdf

> <i_m_source_file_index>
49

> <r_mmod_Potential_Energy-OPLS-2005>
-236.314407348633

> <r_mmod_Stretch_Energy-OPLS-2005>
52.3099822998047

> <r_mmod_Bend_Energy-OPLS-2005>
151.77294921875

> <r_mmod_Torsional_Energy-OPLS-2005>
249.058624267578

> <r_mmod_Improper_Torsional_Energy-OPLS-2005>
5.24936246871948

> <r_mmod_Van_der_Waal_Energy-OPLS-2005>
129.86784362793

> <r_mmod_Electrostatic_Energy-OPLS-2005>
-382.05859375

> <r_mmod_Solvation_Energy-OPLS-2005>
-466.256896972656

> <b_mmod_Minimization_Converged-OPLS-2005>
0

> <r_mmod_RMS_Derivative-OPLS-2005>
3.53325724601746

$$$$
49
                    3D
 Structure written by MMmdl.
161169  0  0  1  0            999 V2000
  -30.6785  -14.5015   20.5829 C   0  0  0  0  0  0
  -30.4332  -12.3313   19.4248 C   0  0  0  0  0  0
  -29.5000  -12.5139   18.2094 C   0  0  0  0  0  0
  -28.0211  -12.3695   18.6202 C   0  0  0  0  0  0
  -27.6642  -13.2067   19.8762 C   0  0  2  0  0  0
  -28.7039  -12.9845   20.9976 C   0  0  0  0  0  0
  -25.2592  -13.8158   20.5656 C   0  0  0  0  0  0
  -24.1848  -13.0439   20.9170 C   0  0  0  0  0  0
  -24.6392  -11.6898   20.8727 C   0  0  0  0  0  0
  -23.9052  -10.4303   21.0397 C   0  0  0  0  0  0
  -24.3600   -9.4205   21.9166 C   0  0  0  0  0  0
  -23.6274   -8.2251   22.0753 C   0  0  0  0  0  0
  -22.4257   -8.0291   21.3575 C   0  0  0  0  0  0
  -21.9891   -9.0262   20.4675 C   0  0  0  0  0  0
  -22.7223  -10.2133   20.3062 C   0  0  0  0  0  0
  -21.6876   -6.0730   22.5264 C   0  0  0  0  0  0
  -21.4009   -6.5611   23.8206 C   0  0  0  0  0  0
  -21.3659   -5.6765   24.9163 C   0  0  0  0  0  0
  -21.6036   -4.3034   24.7217 C   0  0  0  0  0  0
  -21.8828   -3.8145   23.4346 C   0  0  0  0  0  0
  -21.9194   -4.6960   22.3392 C   0  0  0  0  0  0
  -22.7875  -13.5266   21.1826 C   0  0  0  0  0  0
  -22.1679   -4.2139   21.0978 F   0  0  0  0  0  0
  -21.5624   -3.4515   25.7739 F   0  0  0  0  0  0
  -30.0369  -13.3077   20.4547 N   0  0  0  0  0  0
  -26.3032  -12.9341   20.3353 N   0  0  0  0  0  0
  -25.9319  -11.6487   20.5741 N   0  0  0  0  0  0
  -22.0515  -12.8288   22.0399 N   0  0  0  0  0  0
  -25.4292  -15.1862   20.3979 N   0  0  0  0  0  0
  -31.7772  -14.7306   20.0654 O   0  0  0  0  0  0
  -21.6649   -6.8873   21.4243 O   0  0  0  0  0  0
  -22.3580  -14.5579   20.6669 O   0  0  0  0  0  0
  -24.6145  -31.8654   23.2082 C   0  0  0  0  0  0
  -25.9032  -32.4807   23.8375 C   0  0  1  0  0  0
  -27.2448  -27.4159   20.1176 C   0  0  0  0  0  0
  -25.5868  -33.8605   24.2299 N   0  0  0  0  0  0
  -23.4054  -30.4860   21.5470 C   0  0  2  0  0  0
  -24.8593  -28.9422   20.1241 C   0  0  0  0  0  0
  -22.7404  -29.4647   22.4979 C   0  0  0  0  0  0
  -18.0287  -28.1388   22.8494 C   0  0  0  0  0  0
  -24.1476  -36.7311   23.2632 C   0  0  0  0  0  0
  -25.9356  -30.8233   21.3674 C   0  0  0  0  0  0
  -26.0173  -29.4512   20.7274 C   0  0  0  0  0  0
  -27.2135  -28.6920   20.7316 C   0  0  0  0  0  0
  -26.0752  -26.9259   19.5044 C   0  0  0  0  0  0
  -24.8828  -27.6756   19.5117 C   0  0  0  0  0  0
  -23.6201  -29.8113   20.1655 C   0  0  0  0  0  0
  -25.4084  -36.3099   24.0352 C   0  0  1  0  0  0
  -20.5871  -28.3665   23.1292 C   0  0  2  0  0  0
  -20.6756  -26.9384   22.5421 C   0  0  0  0  0  0
  -19.5743  -26.6397   21.5197 C   0  0  0  0  0  0
  -18.1928  -26.7933   22.1626 C   0  0  0  0  0  0
  -19.1533  -28.8846   23.2888 C   0  0  0  0  0  0
  -18.9462  -30.1448   23.8896 C   0  0  0  0  0  0
  -17.6472  -30.6583   24.0576 C   0  0  0  0  0  0
  -25.9010  -34.9459   23.5118 C   0  0  0  0  0  0
  -16.5365  -29.9077   23.6334 C   0  0  0  0  0  0
  -16.7276  -28.6495   23.0351 C   0  0  0  0  0  0
  -26.4451  -31.6603   25.0723 C   0  0  0  0  0  0
  -25.3752  -31.3803   26.1529 C   0  0  0  0  0  0
  -27.0206  -30.2991   24.6129 C   0  0  0  0  0  0
  -27.6044  -32.4317   25.7449 C   0  0  0  0  0  0
  -27.5582  -37.1768   24.8440 C   0  0  0  0  0  0
  -21.4134  -29.3035   22.3703 N   0  0  0  0  0  0
  -26.4261  -37.3794   23.9462 N   0  0  0  0  0  0
  -24.6696  -31.0759   22.0983 N   0  0  0  0  0  0
  -23.4171  -28.8196   23.3031 O   0  0  0  0  0  0
  -28.3939  -26.6589   20.0190 O   0  0  0  0  0  0
  -26.5581  -34.8915   22.4684 O   0  0  0  0  0  0
  -23.5335  -32.1419   23.7451 O   0  0  0  0  0  0
  -29.8094  -18.9031   19.7875 C   0  0  0  0  0  0
  -30.4078  -17.6846   22.2401 C   0  0  0  0  0  0
  -30.1223  -19.7315   20.8935 C   0  0  0  0  0  0
  -30.1164  -16.8627   21.1254 C   0  0  0  0  0  0
  -29.8073  -17.4914   19.8970 C   0  0  0  0  0  0
  -30.4189  -19.0963   22.1274 C   0  0  0  0  0  0
  -30.1901  -21.2115   20.7270 C   0  0  0  0  0  0
  -28.8621  -24.4161   21.0045 C   0  0  0  0  0  0
  -31.1402  -23.2477   24.0652 C   0  0  0  0  0  0
  -28.8333  -25.9614   21.2014 C   0  0  0  0  0  0
  -29.9180  -23.5603   21.8004 C   0  0  1  0  0  0
  -29.9595  -23.8952   23.3215 C   0  0  0  0  0  0
  -30.0116  -15.4435   21.2809 N   0  0  0  0  0  0
  -29.7188  -22.0779   21.6546 N   0  0  0  0  0  0
  -30.7667  -21.7186   19.6328 N   0  3  0  0  0  0
  -28.0822  -23.8914   20.2042 O   0  0  0  0  0  0
  -29.4654  -16.7392   18.8225 F   0  0  0  0  0  0
  -30.7349  -19.8353   23.2184 F   0  0  0  0  0  0
  -30.0869  -25.2017   23.5318 F   0  0  0  0  0  0
  -28.8189  -23.4979   23.8881 F   0  0  0  0  0  0
  -31.4764  -12.4437   19.1222 H   0  0  0  0  0  0
  -30.3493  -11.3215   19.8224 H   0  0  0  0  0  0
  -29.7484  -11.7911   17.4299 H   0  0  0  0  0  0
  -29.6653  -13.4984   17.7671 H   0  0  0  0  0  0
  -27.8339  -11.3152   18.8193 H   0  0  0  0  0  0
  -27.3750  -12.6454   17.7862 H   0  0  0  0  0  0
  -27.7102  -14.2545   19.5770 H   0  0  0  0  0  0
  -28.6905  -11.9469   21.3285 H   0  0  0  0  0  0
  -28.4475  -13.5676   21.8839 H   0  0  0  0  0  0
  -25.2756   -9.5682   22.4743 H   0  0  0  0  0  0
  -24.0008   -7.4639   22.7459 H   0  0  0  0  0  0
  -21.0829   -8.8790   19.8977 H   0  0  0  0  0  0
  -22.3678  -10.9679   19.6182 H   0  0  0  0  0  0
  -21.2005   -7.6124   23.9705 H   0  0  0  0  0  0
  -21.1466   -6.0496   25.9065 H   0  0  0  0  0  0
  -22.0602   -2.7603   23.2854 H   0  0  0  0  0  0
  -22.4092  -11.9952   22.4823 H   0  0  0  0  0  0
  -21.1158  -13.1391   22.2595 H   0  0  0  0  0  0
  -24.6464  -15.8292   20.4558 H   0  0  0  0  0  0
  -26.2586  -15.6106   20.0046 H   0  0  0  0  0  0
  -26.7105  -32.5529   23.1141 H   0  0  0  0  0  0
  -25.0012  -33.9743   25.0438 H   0  0  0  0  0  0
  -22.6921  -31.3015   21.4015 H   0  0  0  0  0  0
  -23.3717  -35.9658   23.3296 H   0  0  0  0  0  0
  -24.3579  -36.8914   22.2044 H   0  0  0  0  0  0
  -23.7243  -37.6526   23.6638 H   0  0  0  0  0  0
  -26.0461  -31.5821   20.5933 H   0  0  0  0  0  0
  -26.8214  -30.8849   21.9878 H   0  0  0  0  0  0
  -28.1081  -29.0892   21.1885 H   0  0  0  0  0  0
  -26.0920  -25.9602   19.0195 H   0  0  0  0  0  0
  -23.9957  -27.2738   19.0414 H   0  0  0  0  0  0
  -23.7298  -30.5799   19.3990 H   0  0  0  0  0  0
  -22.7464  -29.2319   19.8665 H   0  0  0  0  0  0
  -25.1248  -36.1938   25.0841 H   0  0  0  0  0  0
  -20.9976  -28.3245   24.1408 H   0  0  0  0  0  0
  -20.5615  -26.2268   23.3619 H   0  0  0  0  0  0
  -21.6627  -26.7404   22.1236 H   0  0  0  0  0  0
  -19.6870  -25.6310   21.1220 H   0  0  0  0  0  0
  -19.6662  -27.3207   20.6719 H   0  0  0  0  0  0
  -17.4182  -26.6676   21.4042 H   0  0  0  0  0  0
  -18.0327  -26.0074   22.9022 H   0  0  0  0  0  0
  -19.7930  -30.7254   24.2263 H   0  0  0  0  0  0
  -17.5026  -31.6260   24.5186 H   0  0  0  0  0  0
  -15.5355  -30.2977   23.7646 H   0  0  0  0  0  0
  -15.8682  -28.0816   22.7067 H   0  0  0  0  0  0
  -24.5810  -30.7258   25.7948 H   0  0  0  0  0  0
  -24.9114  -32.3028   26.5024 H   0  0  0  0  0  0
  -25.8148  -30.8941   27.0250 H   0  0  0  0  0  0
  -26.2707  -29.6814   24.1185 H   0  0  0  0  0  0
  -27.3891  -29.7193   25.4605 H   0  0  0  0  0  0
  -27.8611  -30.4217   23.9294 H   0  0  0  0  0  0
  -27.2670  -33.3623   26.2026 H   0  0  0  0  0  0
  -28.3832  -32.6881   25.0256 H   0  0  0  0  0  0
  -28.0728  -31.8460   26.5371 H   0  0  0  0  0  0
  -28.2543  -38.0105   24.7564 H   0  0  0  0  0  0
  -28.1117  -36.2659   24.6133 H   0  0  0  0  0  0
  -27.2355  -37.1292   25.8843 H   0  0  0  0  0  0
  -20.9291  -29.8728   21.6913 H   0  0  0  0  0  0
  -26.0138  -38.2853   24.1529 H   0  0  0  0  0  0
  -29.5644  -19.3462   18.8302 H   0  0  0  0  0  0
  -30.6266  -17.2372   23.2012 H   0  0  0  0  0  0
  -32.0938  -23.5918   23.6647 H   0  0  0  0  0  0
  -31.1278  -22.1622   24.0031 H   0  0  0  0  0  0
  -31.1266  -23.5103   25.1230 H   0  0  0  0  0  0
  -29.8382  -26.3108   21.4408 H   0  0  0  0  0  0
  -28.1950  -26.2038   22.0526 H   0  0  0  0  0  0
  -30.9016  -23.8027   21.3977 H   0  0  0  0  0  0
  -29.1881  -15.1156   21.7612 H   0  0  0  0  0  0
  -29.1123  -21.6732   22.3547 H   0  0  0  0  0  0
  -31.1934  -21.1032   18.9584 H   0  0  0  0  0  0
  -30.7407  -22.7016   19.4303 H   0  0  0  0  0  0
  1 25  1  0  0  0
  1 30  2  0  0  0
  1 83  1  0  0  0
  2  3  1  0  0  0
  2 25  1  0  0  0
  2 91  1  0  0  0
  2 92  1  0  0  0
  3  4  1  0  0  0
  3 93  1  0  0  0
  3 94  1  0  0  0
  4  5  1  0  0  0
  4 95  1  0  0  0
  4 96  1  0  0  0
  5  6  1  0  0  0
  5 26  1  0  0  0
  5 97  1  0  0  0
  6 25  1  0  0  0
  6 98  1  0  0  0
  6 99  1  0  0  0
  7  8  2  0  0  0
  7 26  1  0  0  0
  7 29  1  0  0  0
  8  9  1  0  0  0
  8 22  1  0  0  0
  9 10  1  0  0  0
  9 27  2  0  0  0
 10 11  2  0  0  0
 10 15  1  0  0  0
 11 12  1  0  0  0
 11100  1  0  0  0
 12 13  2  0  0  0
 12101  1  0  0  0
 13 14  1  0  0  0
 13 31  1  0  0  0
 14 15  2  0  0  0
 14102  1  0  0  0
 15103  1  0  0  0
 16 17  2  0  0  0
 16 21  1  0  0  0
 16 31  1  0  0  0
 17 18  1  0  0  0
 17104  1  0  0  0
 18 19  2  0  0  0
 18105  1  0  0  0
 19 20  1  0  0  0
 19 24  1  0  0  0
 20 21  2  0  0  0
 20106  1  0  0  0
 21 23  1  0  0  0
 22 28  1  0  0  0
 22 32  2  0  0  0
 26 27  1  0  0  0
 28107  1  0  0  0
 28108  1  0  0  0
 29109  1  0  0  0
 29110  1  0  0  0
 33 34  1  0  0  0
 33 66  1  0  0  0
 33 70  2  0  0  0
 34 36  1  0  0  0
 34 59  1  0  0  0
 34111  1  0  0  0
 35 44  2  0  0  0
 35 45  1  0  0  0
 35 68  1  0  0  0
 36 56  1  0  0  0
 36112  1  0  0  0
 37 39  1  0  0  0
 37 47  1  0  0  0
 37 66  1  0  0  0
 37113  1  0  0  0
 38 43  2  0  0  0
 38 46  1  0  0  0
 38 47  1  0  0  0
 39 64  1  0  0  0
 39 67  2  0  0  0
 40 52  1  0  0  0
 40 53  2  0  0  0
 40 58  1  0  0  0
 41114  1  0  0  0
 41115  1  0  0  0
 41116  1  0  0  0
 41 48  1  0  0  0
 42 43  1  0  0  0
 42 66  1  0  0  0
 42117  1  0  0  0
 42118  1  0  0  0
 43 44  1  0  0  0
 44119  1  0  0  0
 45 46  2  0  0  0
 45120  1  0  0  0
 46121  1  0  0  0
 47122  1  0  0  0
 47123  1  0  0  0
 48 56  1  0  0  0
 48 65  1  0  0  0
 48124  1  0  0  0
 49 50  1  0  0  0
 49 53  1  0  0  0
 49 64  1  0  0  0
 49125  1  0  0  0
 50 51  1  0  0  0
 50126  1  0  0  0
 50127  1  0  0  0
 51 52  1  0  0  0
 51128  1  0  0  0
 51129  1  0  0  0
 52130  1  0  0  0
 52131  1  0  0  0
 53 54  1  0  0  0
 54 55  2  0  0  0
 54132  1  0  0  0
 55 57  1  0  0  0
 55133  1  0  0  0
 56 69  2  0  0  0
 57 58  2  0  0  0
 57134  1  0  0  0
 58135  1  0  0  0
 59 60  1  0  0  0
 59 61  1  0  0  0
 59 62  1  0  0  0
 60136  1  0  0  0
 60137  1  0  0  0
 60138  1  0  0  0
 61139  1  0  0  0
 61140  1  0  0  0
 61141  1  0  0  0
 62142  1  0  0  0
 62143  1  0  0  0
 62144  1  0  0  0
 63 65  1  0  0  0
 63145  1  0  0  0
 63146  1  0  0  0
 63147  1  0  0  0
 64148  1  0  0  0
 65149  1  0  0  0
 68 80  1  0  0  0
 71 73  2  0  0  0
 71 75  1  0  0  0
 71150  1  0  0  0
 72 74  1  0  0  0
 72 76  2  0  0  0
 72151  1  0  0  0
 73 76  1  0  0  0
 73 77  1  0  0  0
 74 75  2  0  0  0
 74 83  1  0  0  0
 75 87  1  0  0  0
 76 88  1  0  0  0
 77 84  1  0  0  0
 77 85  2  0  0  0
 78 80  1  0  0  0
 78 81  1  0  0  0
 78 86  2  0  0  0
 79152  1  0  0  0
 79153  1  0  0  0
 79154  1  0  0  0
 79 82  1  0  0  0
 80155  1  0  0  0
 80156  1  0  0  0
 81 82  1  0  0  0
 81 84  1  0  0  0
 81157  1  0  0  0
 82 89  1  0  0  0
 82 90  1  0  0  0
 83158  1  0  0  0
 84159  1  0  0  0
 85160  1  0  0  0
 85161  1  0  0  0
M  CHG  1  85   1
M  ISO  4   1 100  68 101  80 101  83 100
M  END
> <chiral flag>
0

> <version>
0

> <s_m_source_file>
/data/baiqing/PycharmProjects/Reinvent-master-3.2/result/LINK_invent/BTK/process_docking_weight1_custom_product_contain_oxygen_bond_distance_aromatic_linkinvent_7_9_3/rearranged_h_0159.sdf

> <i_m_source_file_index>
50

> <r_mmod_Potential_Energy-OPLS-2005>
-378.447052001953

> <r_mmod_Stretch_Energy-OPLS-2005>
46.8617630004883

> <r_mmod_Bend_Energy-OPLS-2005>
102.120124816895

> <r_mmod_Torsional_Energy-OPLS-2005>
255.397888183594

> <r_mmod_Improper_Torsional_Energy-OPLS-2005>
4.38296794891357

> <r_mmod_Van_der_Waal_Energy-OPLS-2005>
148.331619262695

> <r_mmod_Electrostatic_Energy-OPLS-2005>
-504.662841796875

> <r_mmod_Solvation_Energy-OPLS-2005>
-445.399688720703

> <b_mmod_Minimization_Converged-OPLS-2005>
0

> <r_mmod_RMS_Derivative-OPLS-2005>
4.66604804992676

$$$$
50
                    3D
 Structure written by MMmdl.
151159  0  0  1  0            999 V2000
  -30.5906  -14.8036   20.4443 C   0  0  0  0  0  0
  -30.4421  -12.4889   19.4814 C   0  0  0  0  0  0
  -29.5189  -12.5058   18.2417 C   0  0  0  0  0  0
  -28.0469  -12.3196   18.6586 C   0  0  0  0  0  0
  -27.6428  -13.2325   19.8473 C   0  0  2  0  0  0
  -28.6879  -13.1911   20.9836 C   0  0  0  0  0  0
  -25.2534  -13.8188   20.5694 C   0  0  0  0  0  0
  -24.1819  -13.0435   20.9206 C   0  0  0  0  0  0
  -24.6404  -11.6908   20.8738 C   0  0  0  0  0  0
  -23.9071  -10.4283   21.0393 C   0  0  0  0  0  0
  -24.3616   -9.4205   21.9178 C   0  0  0  0  0  0
  -23.6285   -8.2246   22.0757 C   0  0  0  0  0  0
  -22.4270   -8.0277   21.3549 C   0  0  0  0  0  0
  -21.9909   -9.0249   20.4651 C   0  0  0  0  0  0
  -22.7239  -10.2126   20.3052 C   0  0  0  0  0  0
  -21.6855   -6.0726   22.5268 C   0  0  0  0  0  0
  -21.4015   -6.5635   23.8199 C   0  0  0  0  0  0
  -21.3656   -5.6793   24.9167 C   0  0  0  0  0  0
  -21.6038   -4.3053   24.7221 C   0  0  0  0  0  0
  -21.8823   -3.8142   23.4346 C   0  0  0  0  0  0
  -21.9197   -4.6955   22.3398 C   0  0  0  0  0  0
  -22.7842  -13.5219   21.1856 C   0  0  0  0  0  0
  -22.1665   -4.2141   21.0978 F   0  0  0  0  0  0
  -21.5627   -3.4533   25.7735 F   0  0  0  0  0  0
  -29.9836  -13.5610   20.3996 N   0  0  0  0  0  0
  -26.2951  -12.9392   20.3264 N   0  0  0  0  0  0
  -25.9342  -11.6538   20.5745 N   0  0  0  0  0  0
  -22.0480  -12.8214   22.0411 N   0  0  0  0  0  0
  -25.4246  -15.1909   20.4093 N   0  0  0  0  0  0
  -31.7825  -14.8952   20.1372 O   0  0  0  0  0  0
  -21.6644   -6.8871   21.4230 O   0  0  0  0  0  0
  -22.3533  -14.5524   20.6696 O   0  0  0  0  0  0
  -24.6344  -31.8546   23.1977 C   0  0  0  0  0  0
  -25.9159  -32.4763   23.8327 C   0  0  1  0  0  0
  -27.2284  -27.2360   20.1453 C   0  0  0  0  0  0
  -25.5948  -33.8571   24.2272 N   0  0  0  0  0  0
  -23.4349  -30.4752   21.5379 C   0  0  2  0  0  0
  -24.8863  -28.9137   20.1136 C   0  0  0  0  0  0
  -22.7533  -29.4594   22.4867 C   0  0  0  0  0  0
  -18.0296  -28.1424   22.8501 C   0  0  0  0  0  0
  -24.1484  -36.7289   23.2644 C   0  0  0  0  0  0
  -25.9807  -30.7620   21.3774 C   0  0  0  0  0  0
  -26.0571  -29.3767   20.7292 C   0  0  0  0  0  0
  -27.2300  -28.5503   20.7342 C   0  0  0  0  0  0
  -26.0373  -26.8479   19.4961 C   0  0  0  0  0  0
  -24.8824  -27.6568   19.4867 C   0  0  0  0  0  0
  -23.6595  -29.8060   20.1552 C   0  0  0  0  0  0
  -25.4106  -36.3081   24.0330 C   0  0  1  0  0  0
  -20.5907  -28.3732   23.1279 C   0  0  2  0  0  0
  -20.6776  -26.9438   22.5431 C   0  0  0  0  0  0
  -19.5741  -26.6397   21.5250 C   0  0  0  0  0  0
  -18.1919  -26.7966   22.1647 C   0  0  0  0  0  0
  -19.1552  -28.8889   23.2890 C   0  0  0  0  0  0
  -18.9473  -30.1490   23.8900 C   0  0  0  0  0  0
  -17.6472  -30.6613   24.0581 C   0  0  0  0  0  0
  -25.9052  -34.9449   23.5104 C   0  0  0  0  0  0
  -16.5366  -29.9130   23.6319 C   0  0  0  0  0  0
  -16.7284  -28.6551   23.0340 C   0  0  0  0  0  0
  -26.4510  -31.6594   25.0723 C   0  0  0  0  0  0
  -25.3728  -31.3794   26.1449 C   0  0  0  0  0  0
  -27.0363  -30.3016   24.6206 C   0  0  0  0  0  0
  -27.6049  -32.4335   25.7517 C   0  0  0  0  0  0
  -27.5565  -37.1799   24.8460 C   0  0  0  0  0  0
  -21.4224  -29.3092   22.3661 N   0  0  0  0  0  0
  -26.4270  -37.3786   23.9416 N   0  0  0  0  0  0
  -24.7026  -31.0499   22.0950 N   0  0  0  0  0  0
  -23.4218  -28.8083   23.2944 O   0  0  0  0  0  0
  -28.3178  -26.3241   20.1544 O   0  0  0  0  0  0
  -26.5616  -34.8918   22.4674 O   0  0  0  0  0  0
  -23.5488  -32.1370   23.7252 O   0  0  0  0  0  0
  -31.2097  -18.0048   20.2390 C   0  0  0  0  0  0
  -31.1327  -19.4557   20.1451 C   0  0  0  0  0  0
  -30.0297  -17.3332   20.4946 C   0  0  0  0  0  0
  -29.8913  -20.0433   20.2967 C   0  0  0  0  0  0
  -28.1243  -24.9224   20.4286 C   0  0  0  0  0  0
  -28.9687  -23.8530   20.1174 C   0  0  0  0  0  0
  -28.7240  -22.3797   20.4679 C   0  0  0  0  0  0
  -32.2960  -20.2020   19.9072 N   0  0  0  0  0  0
  -29.6990  -21.4402   20.1397 N   0  0  0  0  0  0
  -29.7921  -15.9379   20.6377 N   0  0  0  0  0  0
  -30.1793  -24.2590   19.3768 N   0  3  0  0  0  0
  -27.6964  -22.0028   21.0354 O   0  0  0  0  0  0
  -28.7824  -18.6545   20.6163 S   0  0  0  0  0  0
  -31.4809  -12.6250   19.1750 H   0  0  0  0  0  0
  -30.4048  -11.5186   19.9787 H   0  0  0  0  0  0
  -29.8121  -11.7222   17.5420 H   0  0  0  0  0  0
  -29.6354  -13.4513   17.7092 H   0  0  0  0  0  0
  -27.9187  -11.2733   18.9433 H   0  0  0  0  0  0
  -27.3861  -12.4856   17.8070 H   0  0  0  0  0  0
  -27.6306  -14.2474   19.4491 H   0  0  0  0  0  0
  -28.7399  -12.1976   21.4308 H   0  0  0  0  0  0
  -28.4137  -13.8739   21.7885 H   0  0  0  0  0  0
  -25.2757   -9.5682   22.4755 H   0  0  0  0  0  0
  -23.9985   -7.4644   22.7484 H   0  0  0  0  0  0
  -21.0840   -8.8775   19.8956 H   0  0  0  0  0  0
  -22.3696  -10.9669   19.6161 H   0  0  0  0  0  0
  -21.2007   -7.6142   23.9701 H   0  0  0  0  0  0
  -21.1471   -6.0523   25.9071 H   0  0  0  0  0  0
  -22.0604   -2.7603   23.2849 H   0  0  0  0  0  0
  -22.4099  -11.9864   22.4786 H   0  0  0  0  0  0
  -21.1097  -13.1250   22.2607 H   0  0  0  0  0  0
  -24.6558  -15.8433   20.5171 H   0  0  0  0  0  0
  -26.2588  -15.6241   20.0349 H   0  0  0  0  0  0
  -26.7216  -32.5423   23.1051 H   0  0  0  0  0  0
  -25.0086  -33.9711   25.0415 H   0  0  0  0  0  0
  -22.7335  -31.2974   21.3854 H   0  0  0  0  0  0
  -23.3747  -35.9622   23.3311 H   0  0  0  0  0  0
  -24.3557  -36.8914   22.2050 H   0  0  0  0  0  0
  -23.7229  -37.6488   23.6671 H   0  0  0  0  0  0
  -26.1110  -31.5128   20.5963 H   0  0  0  0  0  0
  -26.8631  -30.8283   22.0015 H   0  0  0  0  0  0
  -28.1256  -28.9025   21.2269 H   0  0  0  0  0  0
  -25.9912  -25.8859   19.0067 H   0  0  0  0  0  0
  -23.9869  -27.2965   18.9990 H   0  0  0  0  0  0
  -23.7988  -30.5845   19.4038 H   0  0  0  0  0  0
  -22.7775  -29.2483   19.8355 H   0  0  0  0  0  0
  -25.1282  -36.1912   25.0814 H   0  0  0  0  0  0
  -21.0018  -28.3319   24.1397 H   0  0  0  0  0  0
  -20.5699  -26.2341   23.3649 H   0  0  0  0  0  0
  -21.6628  -26.7450   22.1199 H   0  0  0  0  0  0
  -19.6892  -25.6315   21.1271 H   0  0  0  0  0  0
  -19.6678  -27.3202   20.6783 H   0  0  0  0  0  0
  -17.4199  -26.6750   21.4043 H   0  0  0  0  0  0
  -18.0274  -26.0119   22.9045 H   0  0  0  0  0  0
  -19.7951  -30.7319   24.2250 H   0  0  0  0  0  0
  -17.5031  -31.6277   24.5222 H   0  0  0  0  0  0
  -15.5374  -30.3040   23.7656 H   0  0  0  0  0  0
  -15.8677  -28.0895   22.7025 H   0  0  0  0  0  0
  -24.5876  -30.7161   25.7809 H   0  0  0  0  0  0
  -24.8939  -32.2993   26.4819 H   0  0  0  0  0  0
  -25.8019  -30.9013   27.0264 H   0  0  0  0  0  0
  -26.2963  -29.6757   24.1202 H   0  0  0  0  0  0
  -27.4049  -29.7274   25.4717 H   0  0  0  0  0  0
  -27.8825  -30.4323   23.9457 H   0  0  0  0  0  0
  -27.2653  -33.3659   26.2037 H   0  0  0  0  0  0
  -28.3896  -32.6853   25.0375 H   0  0  0  0  0  0
  -28.0663  -31.8488   26.5481 H   0  0  0  0  0  0
  -28.2585  -38.0098   24.7484 H   0  0  0  0  0  0
  -28.1061  -36.2617   24.6303 H   0  0  0  0  0  0
  -27.2283  -37.1445   25.8870 H   0  0  0  0  0  0
  -20.9408  -29.8911   21.6942 H   0  0  0  0  0  0
  -26.0151  -38.2866   24.1428 H   0  0  0  0  0  0
  -32.1565  -17.4977   20.1189 H   0  0  0  0  0  0
  -27.1972  -24.7546   20.9615 H   0  0  0  0  0  0
  -33.1577  -19.6640   19.9077 H   0  0  0  0  0  0
  -32.4130  -21.0256   20.4876 H   0  0  0  0  0  0
  -30.5195  -21.8392   19.7140 H   0  0  0  0  0  0
  -28.8386  -15.7014   20.8648 H   0  0  0  0  0  0
  -30.1129  -25.2339   19.1496 H   0  0  0  0  0  0
  -31.0087  -24.1363   19.9288 H   0  0  0  0  0  0
  -30.2694  -23.7554   18.5135 H   0  0  0  0  0  0
  1 25  1  0  0  0
  1 30  2  0  0  0
  1 80  1  0  0  0
  2  3  1  0  0  0
  2 25  1  0  0  0
  2 84  1  0  0  0
  2 85  1  0  0  0
  3  4  1  0  0  0
  3 86  1  0  0  0
  3 87  1  0  0  0
  4  5  1  0  0  0
  4 88  1  0  0  0
  4 89  1  0  0  0
  5  6  1  0  0  0
  5 26  1  0  0  0
  5 90  1  0  0  0
  6 25  1  0  0  0
  6 91  1  0  0  0
  6 92  1  0  0  0
  7  8  2  0  0  0
  7 26  1  0  0  0
  7 29  1  0  0  0
  8  9  1  0  0  0
  8 22  1  0  0  0
  9 10  1  0  0  0
  9 27  2  0  0  0
 10 11  2  0  0  0
 10 15  1  0  0  0
 11 12  1  0  0  0
 11 93  1  0  0  0
 12 13  2  0  0  0
 12 94  1  0  0  0
 13 14  1  0  0  0
 13 31  1  0  0  0
 14 15  2  0  0  0
 14 95  1  0  0  0
 15 96  1  0  0  0
 16 17  2  0  0  0
 16 21  1  0  0  0
 16 31  1  0  0  0
 17 18  1  0  0  0
 17 97  1  0  0  0
 18 19  2  0  0  0
 18 98  1  0  0  0
 19 20  1  0  0  0
 19 24  1  0  0  0
 20 21  2  0  0  0
 20 99  1  0  0  0
 21 23  1  0  0  0
 22 28  1  0  0  0
 22 32  2  0  0  0
 26 27  1  0  0  0
 28100  1  0  0  0
 28101  1  0  0  0
 29102  1  0  0  0
 29103  1  0  0  0
 33 34  1  0  0  0
 33 66  1  0  0  0
 33 70  2  0  0  0
 34 36  1  0  0  0
 34 59  1  0  0  0
 34104  1  0  0  0
 35 44  2  0  0  0
 35 45  1  0  0  0
 35 68  1  0  0  0
 36 56  1  0  0  0
 36105  1  0  0  0
 37 39  1  0  0  0
 37 47  1  0  0  0
 37 66  1  0  0  0
 37106  1  0  0  0
 38 43  2  0  0  0
 38 46  1  0  0  0
 38 47  1  0  0  0
 39 64  1  0  0  0
 39 67  2  0  0  0
 40 52  1  0  0  0
 40 53  2  0  0  0
 40 58  1  0  0  0
 41107  1  0  0  0
 41108  1  0  0  0
 41109  1  0  0  0
 41 48  1  0  0  0
 42 43  1  0  0  0
 42 66  1  0  0  0
 42110  1  0  0  0
 42111  1  0  0  0
 43 44  1  0  0  0
 44112  1  0  0  0
 45 46  2  0  0  0
 45113  1  0  0  0
 46114  1  0  0  0
 47115  1  0  0  0
 47116  1  0  0  0
 48 56  1  0  0  0
 48 65  1  0  0  0
 48117  1  0  0  0
 49 50  1  0  0  0
 49 53  1  0  0  0
 49 64  1  0  0  0
 49118  1  0  0  0
 50 51  1  0  0  0
 50119  1  0  0  0
 50120  1  0  0  0
 51 52  1  0  0  0
 51121  1  0  0  0
 51122  1  0  0  0
 52123  1  0  0  0
 52124  1  0  0  0
 53 54  1  0  0  0
 54 55  2  0  0  0
 54125  1  0  0  0
 55 57  1  0  0  0
 55126  1  0  0  0
 56 69  2  0  0  0
 57 58  2  0  0  0
 57127  1  0  0  0
 58128  1  0  0  0
 59 60  1  0  0  0
 59 61  1  0  0  0
 59 62  1  0  0  0
 60129  1  0  0  0
 60130  1  0  0  0
 60131  1  0  0  0
 61132  1  0  0  0
 61133  1  0  0  0
 61134  1  0  0  0
 62135  1  0  0  0
 62136  1  0  0  0
 62137  1  0  0  0
 63 65  1  0  0  0
 63138  1  0  0  0
 63139  1  0  0  0
 63140  1  0  0  0
 64141  1  0  0  0
 65142  1  0  0  0
 68 75  1  0  0  0
 71 72  1  0  0  0
 71 73  2  0  0  0
 71143  1  0  0  0
 72 74  2  0  0  0
 72 78  1  0  0  0
 73 80  1  0  0  0
 73 83  1  0  0  0
 74 79  1  0  0  0
 74 83  1  0  0  0
 75 76  2  0  0  0
 75144  1  0  0  0
 76 77  1  0  0  0
 76 81  1  0  0  0
 77 79  1  0  0  0
 77 82  2  0  0  0
 78145  1  0  0  0
 78146  1  0  0  0
 79147  1  0  0  0
 80148  1  0  0  0
 81149  1  0  0  0
 81150  1  0  0  0
 81151  1  0  0  0
M  CHG  1  81   1
M  ISO  4   1 100  68 101  75 101  80 100
M  END
> <chiral flag>
0

> <version>
0

> <s_m_source_file>
/data/baiqing/PycharmProjects/Reinvent-master-3.2/result/LINK_invent/BTK/process_docking_weight1_custom_product_contain_oxygen_bond_distance_aromatic_linkinvent_7_9_3/rearranged_h_0159.sdf

> <i_m_source_file_index>
51

> <r_mmod_Potential_Energy-OPLS-2005>
-273.453857421875

> <r_mmod_Stretch_Energy-OPLS-2005>
132.528854370117

> <r_mmod_Bend_Energy-OPLS-2005>
196.819320678711

> <r_mmod_Torsional_Energy-OPLS-2005>
219.240478515625

> <r_mmod_Improper_Torsional_Energy-OPLS-2005>
9.76424407958984

> <r_mmod_Van_der_Waal_Energy-OPLS-2005>
116.919250488281

> <r_mmod_Electrostatic_Energy-OPLS-2005>
-498.463928222656

> <r_mmod_Solvation_Energy-OPLS-2005>
-556.264404296875

> <b_mmod_Minimization_Converged-OPLS-2005>
0

> <r_mmod_RMS_Derivative-OPLS-2005>
2.24333786964417

$$$$
51
                    3D
 Structure written by MMmdl.
156164  0  0  1  0            999 V2000
  -30.6730  -14.5624   20.4737 C   0  0  0  0  0  0
  -30.4326  -12.3342   19.4526 C   0  0  0  0  0  0
  -29.5064  -12.4611   18.2235 C   0  0  0  0  0  0
  -28.0274  -12.3332   18.6356 C   0  0  0  0  0  0
  -27.6587  -13.2098   19.8637 C   0  0  2  0  0  0
  -28.7025  -13.0647   20.9956 C   0  0  0  0  0  0
  -25.2597  -13.8162   20.5652 C   0  0  0  0  0  0
  -24.1843  -13.0445   20.9156 C   0  0  0  0  0  0
  -24.6407  -11.6914   20.8744 C   0  0  0  0  0  0
  -23.9080  -10.4301   21.0423 C   0  0  0  0  0  0
  -24.3626   -9.4204   21.9189 C   0  0  0  0  0  0
  -23.6295   -8.2248   22.0756 C   0  0  0  0  0  0
  -22.4276   -8.0297   21.3553 C   0  0  0  0  0  0
  -21.9908   -9.0282   20.4657 C   0  0  0  0  0  0
  -22.7250  -10.2152   20.3070 C   0  0  0  0  0  0
  -21.6854   -6.0735   22.5270 C   0  0  0  0  0  0
  -21.4018   -6.5633   23.8202 C   0  0  0  0  0  0
  -21.3650   -5.6785   24.9165 C   0  0  0  0  0  0
  -21.6052   -4.3046   24.7220 C   0  0  0  0  0  0
  -21.8823   -3.8145   23.4328 C   0  0  0  0  0  0
  -21.9195   -4.6965   22.3384 C   0  0  0  0  0  0
  -22.7865  -13.5253   21.1825 C   0  0  0  0  0  0
  -22.1662   -4.2151   21.0963 F   0  0  0  0  0  0
  -21.5631   -3.4525   25.7726 F   0  0  0  0  0  0
  -30.0265  -13.3621   20.4286 N   0  0  0  0  0  0
  -26.3026  -12.9314   20.3332 N   0  0  0  0  0  0
  -25.9334  -11.6480   20.5777 N   0  0  0  0  0  0
  -22.0522  -12.8273   22.0395 N   0  0  0  0  0  0
  -25.4400  -15.1873   20.4076 N   0  0  0  0  0  0
  -31.8419  -14.6929   20.1037 O   0  0  0  0  0  0
  -21.6648   -6.8890   21.4236 O   0  0  0  0  0  0
  -22.3565  -14.5577   20.6702 O   0  0  0  0  0  0
  -24.6202  -31.8628   23.2056 C   0  0  0  0  0  0
  -25.9078  -32.4786   23.8370 C   0  0  1  0  0  0
  -27.2294  -27.3719   20.0843 C   0  0  0  0  0  0
  -25.5905  -33.8583   24.2300 N   0  0  0  0  0  0
  -23.4100  -30.4843   21.5487 C   0  0  2  0  0  0
  -24.8532  -28.9431   20.1099 C   0  0  0  0  0  0
  -22.7447  -29.4621   22.4987 C   0  0  0  0  0  0
  -18.0275  -28.1385   22.8490 C   0  0  0  0  0  0
  -24.1485  -36.7300   23.2636 C   0  0  0  0  0  0
  -25.9446  -30.8044   21.3697 C   0  0  0  0  0  0
  -26.0167  -29.4349   20.7129 C   0  0  0  0  0  0
  -27.2018  -28.6531   20.7029 C   0  0  0  0  0  0
  -26.0413  -26.9110   19.4748 C   0  0  0  0  0  0
  -24.8636  -27.6828   19.4892 C   0  0  0  0  0  0
  -23.6194  -29.8178   20.1631 C   0  0  0  0  0  0
  -25.4105  -36.3087   24.0329 C   0  0  1  0  0  0
  -20.5868  -28.3666   23.1311 C   0  0  2  0  0  0
  -20.6760  -26.9395   22.5431 C   0  0  0  0  0  0
  -19.5741  -26.6382   21.5218 C   0  0  0  0  0  0
  -18.1911  -26.7935   22.1617 C   0  0  0  0  0  0
  -19.1530  -28.8845   23.2890 C   0  0  0  0  0  0
  -18.9451  -30.1448   23.8905 C   0  0  0  0  0  0
  -17.6453  -30.6587   24.0561 C   0  0  0  0  0  0
  -25.9034  -34.9452   23.5120 C   0  0  0  0  0  0
  -16.5344  -29.9083   23.6327 C   0  0  0  0  0  0
  -16.7264  -28.6498   23.0353 C   0  0  0  0  0  0
  -26.4487  -31.6577   25.0717 C   0  0  0  0  0  0
  -25.3754  -31.3703   26.1475 C   0  0  0  0  0  0
  -27.0300  -30.3003   24.6118 C   0  0  0  0  0  0
  -27.6066  -32.4302   25.7464 C   0  0  0  0  0  0
  -27.5580  -37.1799   24.8460 C   0  0  0  0  0  0
  -21.4172  -29.3019   22.3728 N   0  0  0  0  0  0
  -26.4288  -37.3778   23.9409 N   0  0  0  0  0  0
  -24.6768  -31.0673   22.0986 N   0  0  0  0  0  0
  -23.4202  -28.8167   23.3050 O   0  0  0  0  0  0
  -28.3908  -26.6041   20.1299 O   0  0  0  0  0  0
  -26.5609  -34.8916   22.4689 O   0  0  0  0  0  0
  -23.5383  -32.1413   23.7419 O   0  0  0  0  0  0
  -29.5097  -18.9788   18.0403 C   0  0  0  0  0  0
  -29.7000  -16.5923   18.4670 C   0  0  0  0  0  0
  -29.7762  -18.1679   20.3309 C   0  0  0  0  0  0
  -29.5454  -17.6570   17.5547 C   0  0  0  0  0  0
  -29.6304  -19.2622   19.4178 C   0  0  0  0  0  0
  -29.8195  -16.8136   19.8586 C   0  0  0  0  0  0
  -29.4319  -17.4192   16.0982 C   0  0  0  0  0  0
  -29.0775  -22.9251   19.5882 C   0  0  0  0  0  0
  -28.3058  -24.0369   19.8067 C   0  0  0  0  0  0
  -28.7476  -21.5390   19.9888 C   0  0  0  0  0  0
  -28.5946  -25.4603   19.2514 C   0  0  0  0  0  0
  -29.6093  -16.3091   15.5157 N   0  0  0  0  0  0
  -29.7530  -20.6550   19.7694 N   0  0  0  0  0  0
  -29.9086  -15.6595   20.7276 N   0  0  0  0  0  0
  -27.6718  -21.1979   20.4864 O   0  0  0  0  0  0
  -27.1593  -24.0265   20.5060 O   0  0  0  0  0  0
  -31.4766  -12.4331   19.1488 H   0  0  0  0  0  0
  -30.3482  -11.3428   19.9004 H   0  0  0  0  0  0
  -29.7541  -11.6901   17.4939 H   0  0  0  0  0  0
  -29.6725  -13.4104   17.7208 H   0  0  0  0  0  0
  -27.8470  -11.2824   18.8643 H   0  0  0  0  0  0
  -27.3798  -12.5721   17.7914 H   0  0  0  0  0  0
  -27.6839  -14.2445   19.5257 H   0  0  0  0  0  0
  -28.6882  -12.0506   21.3968 H   0  0  0  0  0  0
  -28.4659  -13.7212   21.8348 H   0  0  0  0  0  0
  -25.2774   -9.5666   22.4749 H   0  0  0  0  0  0
  -24.0003   -7.4631   22.7459 H   0  0  0  0  0  0
  -21.0841   -8.8816   19.8960 H   0  0  0  0  0  0
  -22.3721  -10.9703   19.6185 H   0  0  0  0  0  0
  -21.2007   -7.6137   23.9696 H   0  0  0  0  0  0
  -21.1473   -6.0521   25.9068 H   0  0  0  0  0  0
  -22.0616   -2.7613   23.2829 H   0  0  0  0  0  0
  -22.4128  -11.9921   22.4757 H   0  0  0  0  0  0
  -21.1164  -13.1331   22.2628 H   0  0  0  0  0  0
  -24.6852  -15.8548   20.5148 H   0  0  0  0  0  0
  -26.3016  -15.6158   20.0915 H   0  0  0  0  0  0
  -26.7140  -32.5471   23.1111 H   0  0  0  0  0  0
  -25.0059  -33.9737   25.0454 H   0  0  0  0  0  0
  -22.6996  -31.3020   21.4091 H   0  0  0  0  0  0
  -23.3738  -35.9644   23.3309 H   0  0  0  0  0  0
  -24.3588  -36.8914   22.2052 H   0  0  0  0  0  0
  -23.7245  -37.6505   23.6658 H   0  0  0  0  0  0
  -26.0706  -31.5686   20.6020 H   0  0  0  0  0  0
  -26.8277  -30.8537   21.9945 H   0  0  0  0  0  0
  -28.0985  -29.0233   21.1800 H   0  0  0  0  0  0
  -25.9954  -25.9397   19.0053 H   0  0  0  0  0  0
  -23.9676  -27.2978   19.0225 H   0  0  0  0  0  0
  -23.7352  -30.5926   19.4046 H   0  0  0  0  0  0
  -22.7391  -29.2453   19.8635 H   0  0  0  0  0  0
  -25.1282  -36.1945   25.0819 H   0  0  0  0  0  0
  -20.9939  -28.3235   24.1437 H   0  0  0  0  0  0
  -20.5641  -26.2273   23.3621 H   0  0  0  0  0  0
  -21.6632  -26.7426   22.1235 H   0  0  0  0  0  0
  -19.6893  -25.6294   21.1233 H   0  0  0  0  0  0
  -19.6672  -27.3200   20.6748 H   0  0  0  0  0  0
  -17.4186  -26.6701   21.4004 H   0  0  0  0  0  0
  -18.0280  -26.0067   22.8998 H   0  0  0  0  0  0
  -19.7925  -30.7258   24.2273 H   0  0  0  0  0  0
  -17.5006  -31.6264   24.5168 H   0  0  0  0  0  0
  -15.5342  -30.2979   23.7648 H   0  0  0  0  0  0
  -15.8666  -28.0806   22.7076 H   0  0  0  0  0  0
  -24.5926  -30.7034   25.7836 H   0  0  0  0  0  0
  -24.8949  -32.2864   26.4921 H   0  0  0  0  0  0
  -25.8128  -30.8892   27.0233 H   0  0  0  0  0  0
  -26.2832  -29.6761   24.1190 H   0  0  0  0  0  0
  -27.4060  -29.7239   25.4581 H   0  0  0  0  0  0
  -27.8684  -30.4287   23.9267 H   0  0  0  0  0  0
  -27.2686  -33.3593   26.2062 H   0  0  0  0  0  0
  -28.3850  -32.6877   25.0268 H   0  0  0  0  0  0
  -28.0755  -31.8417   26.5357 H   0  0  0  0  0  0
  -28.2604  -38.0092   24.7506 H   0  0  0  0  0  0
  -28.1074  -36.2626   24.6281 H   0  0  0  0  0  0
  -27.2316  -37.1445   25.8871 H   0  0  0  0  0  0
  -20.9353  -29.8748   21.6947 H   0  0  0  0  0  0
  -26.0172  -38.2856   24.1420 H   0  0  0  0  0  0
  -29.4122  -19.7933   17.3348 H   0  0  0  0  0  0
  -29.7143  -15.5827   18.0851 H   0  0  0  0  0  0
  -29.8842  -18.3732   21.3874 H   0  0  0  0  0  0
  -29.1721  -18.2926   15.4933 H   0  0  0  0  0  0
  -29.9921  -23.0734   19.0314 H   0  0  0  0  0  0
  -28.0673  -25.5905   18.3065 H   0  0  0  0  0  0
  -29.6482  -25.4857   18.9719 H   0  0  0  0  0  0
  -29.8563  -15.5696   16.1632 H   0  0  0  0  0  0
  -30.6079  -21.0930   19.4544 H   0  0  0  0  0  0
  -29.0663  -15.4602   21.2473 H   0  0  0  0  0  0
  -26.9979  -23.1267   20.7757 H   0  0  0  0  0  0
  1 25  1  0  0  0
  1 30  2  0  0  0
  1 84  1  0  0  0
  2  3  1  0  0  0
  2 25  1  0  0  0
  2 87  1  0  0  0
  2 88  1  0  0  0
  3  4  1  0  0  0
  3 89  1  0  0  0
  3 90  1  0  0  0
  4  5  1  0  0  0
  4 91  1  0  0  0
  4 92  1  0  0  0
  5  6  1  0  0  0
  5 26  1  0  0  0
  5 93  1  0  0  0
  6 25  1  0  0  0
  6 94  1  0  0  0
  6 95  1  0  0  0
  7  8  2  0  0  0
  7 26  1  0  0  0
  7 29  1  0  0  0
  8  9  1  0  0  0
  8 22  1  0  0  0
  9 10  1  0  0  0
  9 27  2  0  0  0
 10 11  2  0  0  0
 10 15  1  0  0  0
 11 12  1  0  0  0
 11 96  1  0  0  0
 12 13  2  0  0  0
 12 97  1  0  0  0
 13 14  1  0  0  0
 13 31  1  0  0  0
 14 15  2  0  0  0
 14 98  1  0  0  0
 15 99  1  0  0  0
 16 17  2  0  0  0
 16 21  1  0  0  0
 16 31  1  0  0  0
 17 18  1  0  0  0
 17100  1  0  0  0
 18 19  2  0  0  0
 18101  1  0  0  0
 19 20  1  0  0  0
 19 24  1  0  0  0
 20 21  2  0  0  0
 20102  1  0  0  0
 21 23  1  0  0  0
 22 28  1  0  0  0
 22 32  2  0  0  0
 26 27  1  0  0  0
 28103  1  0  0  0
 28104  1  0  0  0
 29105  1  0  0  0
 29106  1  0  0  0
 33 34  1  0  0  0
 33 66  1  0  0  0
 33 70  2  0  0  0
 34 36  1  0  0  0
 34 59  1  0  0  0
 34107  1  0  0  0
 35 44  2  0  0  0
 35 45  1  0  0  0
 35 68  1  0  0  0
 36 56  1  0  0  0
 36108  1  0  0  0
 37 39  1  0  0  0
 37 47  1  0  0  0
 37 66  1  0  0  0
 37109  1  0  0  0
 38 43  2  0  0  0
 38 46  1  0  0  0
 38 47  1  0  0  0
 39 64  1  0  0  0
 39 67  2  0  0  0
 40 52  1  0  0  0
 40 53  2  0  0  0
 40 58  1  0  0  0
 41110  1  0  0  0
 41111  1  0  0  0
 41112  1  0  0  0
 41 48  1  0  0  0
 42 43  1  0  0  0
 42 66  1  0  0  0
 42113  1  0  0  0
 42114  1  0  0  0
 43 44  1  0  0  0
 44115  1  0  0  0
 45 46  2  0  0  0
 45116  1  0  0  0
 46117  1  0  0  0
 47118  1  0  0  0
 47119  1  0  0  0
 48 56  1  0  0  0
 48 65  1  0  0  0
 48120  1  0  0  0
 49 50  1  0  0  0
 49 53  1  0  0  0
 49 64  1  0  0  0
 49121  1  0  0  0
 50 51  1  0  0  0
 50122  1  0  0  0
 50123  1  0  0  0
 51 52  1  0  0  0
 51124  1  0  0  0
 51125  1  0  0  0
 52126  1  0  0  0
 52127  1  0  0  0
 53 54  1  0  0  0
 54 55  2  0  0  0
 54128  1  0  0  0
 55 57  1  0  0  0
 55129  1  0  0  0
 56 69  2  0  0  0
 57 58  2  0  0  0
 57130  1  0  0  0
 58131  1  0  0  0
 59 60  1  0  0  0
 59 61  1  0  0  0
 59 62  1  0  0  0
 60132  1  0  0  0
 60133  1  0  0  0
 60134  1  0  0  0
 61135  1  0  0  0
 61136  1  0  0  0
 61137  1  0  0  0
 62138  1  0  0  0
 62139  1  0  0  0
 62140  1  0  0  0
 63 65  1  0  0  0
 63141  1  0  0  0
 63142  1  0  0  0
 63143  1  0  0  0
 64144  1  0  0  0
 65145  1  0  0  0
 68 81  1  0  0  0
 71 74  2  0  0  0
 71 75  1  0  0  0
 71146  1  0  0  0
 72 74  1  0  0  0
 72 76  2  0  0  0
 72147  1  0  0  0
 73 75  2  0  0  0
 73 76  1  0  0  0
 73148  1  0  0  0
 74 77  1  0  0  0
 75 83  1  0  0  0
 76 84  1  0  0  0
 77 82  2  0  0  0
 77149  1  0  0  0
 78 79  2  0  0  0
 78 80  1  0  0  0
 78150  1  0  0  0
 79 81  1  0  0  0
 79 86  1  0  0  0
 80 83  1  0  0  0
 80 85  2  0  0  0
 81151  1  0  0  0
 81152  1  0  0  0
 82153  1  0  0  0
 83154  1  0  0  0
 84155  1  0  0  0
 86156  1  0  0  0
M  ISO  4   1 100  68 101  81 101  84 100
M  END
> <chiral flag>
0

> <version>
0

> <s_m_source_file>
/data/baiqing/PycharmProjects/Reinvent-master-3.2/result/LINK_invent/BTK/process_docking_weight1_custom_product_contain_oxygen_bond_distance_aromatic_linkinvent_7_9_3/rearranged_h_0159.sdf

> <i_m_source_file_index>
52

> <r_mmod_Potential_Energy-OPLS-2005>
13.6013851165771

> <r_mmod_Stretch_Energy-OPLS-2005>
56.4399337768555

> <r_mmod_Bend_Energy-OPLS-2005>
122.53987121582

> <r_mmod_Torsional_Energy-OPLS-2005>
280.763549804688

> <r_mmod_Improper_Torsional_Energy-OPLS-2005>
10.1598567962646

> <r_mmod_Van_der_Waal_Energy-OPLS-2005>
145.135299682617

> <r_mmod_Electrostatic_Energy-OPLS-2005>
-370.461181640625

> <r_mmod_Solvation_Energy-OPLS-2005>
-260.663360595703

> <b_mmod_Minimization_Converged-OPLS-2005>
0

> <r_mmod_RMS_Derivative-OPLS-2005>
2.93774890899658

$$$$
52
                    3D
 Structure written by MMmdl.
151159  0  0  1  0            999 V2000
  -30.5995  -14.8049   20.4651 C   0  0  0  0  0  0
  -30.4413  -12.4956   19.4934 C   0  0  0  0  0  0
  -29.5166  -12.5124   18.2538 C   0  0  0  0  0  0
  -28.0507  -12.3085   18.6748 C   0  0  0  0  0  0
  -27.6414  -13.2297   19.8525 C   0  0  2  0  0  0
  -28.6822  -13.1980   20.9943 C   0  0  0  0  0  0
  -25.2504  -13.8185   20.5681 C   0  0  0  0  0  0
  -24.1796  -13.0442   20.9214 C   0  0  0  0  0  0
  -24.6377  -11.6920   20.8745 C   0  0  0  0  0  0
  -23.9056  -10.4300   21.0413 C   0  0  0  0  0  0
  -24.3601   -9.4222   21.9198 C   0  0  0  0  0  0
  -23.6278   -8.2252   22.0757 C   0  0  0  0  0  0
  -22.4274   -8.0268   21.3531 C   0  0  0  0  0  0
  -21.9909   -9.0257   20.4651 C   0  0  0  0  0  0
  -22.7230  -10.2141   20.3067 C   0  0  0  0  0  0
  -21.6856   -6.0728   22.5284 C   0  0  0  0  0  0
  -21.4014   -6.5635   23.8213 C   0  0  0  0  0  0
  -21.3657   -5.6787   24.9172 C   0  0  0  0  0  0
  -21.6039   -4.3045   24.7229 C   0  0  0  0  0  0
  -21.8820   -3.8143   23.4350 C   0  0  0  0  0  0
  -21.9195   -4.6957   22.3404 C   0  0  0  0  0  0
  -22.7821  -13.5246   21.1884 C   0  0  0  0  0  0
  -22.1664   -4.2137   21.0981 F   0  0  0  0  0  0
  -21.5636   -3.4534   25.7751 F   0  0  0  0  0  0
  -29.9842  -13.5661   20.4161 N   0  0  0  0  0  0
  -26.2935  -12.9393   20.3307 N   0  0  0  0  0  0
  -25.9311  -11.6544   20.5765 N   0  0  0  0  0  0
  -22.0465  -12.8232   22.0418 N   0  0  0  0  0  0
  -25.4221  -15.1893   20.4068 N   0  0  0  0  0  0
  -31.7856  -14.8899   20.1281 O   0  0  0  0  0  0
  -21.6632   -6.8864   21.4236 O   0  0  0  0  0  0
  -22.3524  -14.5575   20.6746 O   0  0  0  0  0  0
  -24.6329  -31.8551   23.1943 C   0  0  0  0  0  0
  -25.9137  -32.4774   23.8277 C   0  0  1  0  0  0
  -27.2263  -27.2410   20.1436 C   0  0  0  0  0  0
  -25.5922  -33.8574   24.2229 N   0  0  0  0  0  0
  -23.4311  -30.4737   21.5389 C   0  0  2  0  0  0
  -24.8804  -28.9130   20.1125 C   0  0  0  0  0  0
  -22.7519  -29.4584   22.4894 C   0  0  0  0  0  0
  -18.0305  -28.1402   22.8474 C   0  0  0  0  0  0
  -24.1503  -36.7283   23.2638 C   0  0  0  0  0  0
  -25.9755  -30.7641   21.3709 C   0  0  0  0  0  0
  -26.0519  -29.3787   20.7244 C   0  0  0  0  0  0
  -27.2260  -28.5548   20.7314 C   0  0  0  0  0  0
  -26.0323  -26.8493   19.5000 C   0  0  0  0  0  0
  -24.8767  -27.6553   19.4897 C   0  0  0  0  0  0
  -23.6511  -29.8021   20.1580 C   0  0  0  0  0  0
  -25.4137  -36.3084   24.0329 C   0  0  1  0  0  0
  -20.5903  -28.3697   23.1287 C   0  0  2  0  0  0
  -20.6802  -26.9416   22.5425 C   0  0  0  0  0  0
  -19.5788  -26.6400   21.5215 C   0  0  0  0  0  0
  -18.1944  -26.7935   22.1607 C   0  0  0  0  0  0
  -19.1551  -28.8870   23.2878 C   0  0  0  0  0  0
  -18.9473  -30.1454   23.8933 C   0  0  0  0  0  0
  -17.6470  -30.6606   24.0551 C   0  0  0  0  0  0
  -25.9072  -34.9462   23.5093 C   0  0  0  0  0  0
  -16.5361  -29.9102   23.6331 C   0  0  0  0  0  0
  -16.7283  -28.6517   23.0361 C   0  0  0  0  0  0
  -26.4493  -31.6594   25.0648 C   0  0  0  0  0  0
  -25.3690  -31.3753   26.1346 C   0  0  0  0  0  0
  -27.0330  -30.3026   24.6081 C   0  0  0  0  0  0
  -27.6048  -32.4317   25.7441 C   0  0  0  0  0  0
  -27.5594  -37.1802   24.8471 C   0  0  0  0  0  0
  -21.4219  -29.3038   22.3677 N   0  0  0  0  0  0
  -26.4307  -37.3785   23.9428 N   0  0  0  0  0  0
  -24.7002  -31.0494   22.0931 N   0  0  0  0  0  0
  -23.4223  -28.8121   23.2980 O   0  0  0  0  0  0
  -28.3200  -26.3370   20.1570 O   0  0  0  0  0  0
  -26.5641  -34.8930   22.4664 O   0  0  0  0  0  0
  -23.5482  -32.1360   23.7259 O   0  0  0  0  0  0
  -31.1273  -19.4111   20.0687 C   0  0  0  0  0  0
  -29.9201  -20.0594   20.3272 C   0  0  0  0  0  0
  -30.0126  -17.4091   20.5613 C   0  0  0  0  0  0
  -28.1235  -24.9290   20.3892 C   0  0  0  0  0  0
  -29.0115  -23.8768   20.1567 C   0  0  0  0  0  0
  -28.7350  -22.3960   20.4502 C   0  0  0  0  0  0
  -32.4028  -20.0828   19.6425 C   0  0  0  0  0  0
  -31.1658  -17.9905   20.1994 N   0  0  0  0  0  0
  -29.7451  -21.4662   20.2076 N   0  0  0  0  0  0
  -29.8164  -15.9313   20.7241 N   0  0  0  0  0  0
  -30.3011  -24.3031   19.5686 N   0  3  0  0  0  0
  -27.6529  -22.0076   20.8991 O   0  0  0  0  0  0
  -28.7787  -18.7382   20.7862 S   0  0  0  0  0  0
  -31.4801  -12.6330   19.1863 H   0  0  0  0  0  0
  -30.4046  -11.5258   19.9947 H   0  0  0  0  0  0
  -29.8177  -11.7357   17.5499 H   0  0  0  0  0  0
  -29.6139  -13.4612   17.7251 H   0  0  0  0  0  0
  -27.9457  -11.2671   18.9782 H   0  0  0  0  0  0
  -27.3810  -12.4454   17.8266 H   0  0  0  0  0  0
  -27.6276  -14.2425   19.4499 H   0  0  0  0  0  0
  -28.7303  -12.2079   21.4521 H   0  0  0  0  0  0
  -28.3982  -13.8833   21.7961 H   0  0  0  0  0  0
  -25.2739   -9.5704   22.4779 H   0  0  0  0  0  0
  -23.9990   -7.4652   22.7483 H   0  0  0  0  0  0
  -21.0839   -8.8778   19.8955 H   0  0  0  0  0  0
  -22.3685  -10.9680   19.6174 H   0  0  0  0  0  0
  -21.1994   -7.6142   23.9712 H   0  0  0  0  0  0
  -21.1480   -6.0514   25.9070 H   0  0  0  0  0  0
  -22.0595   -2.7605   23.2864 H   0  0  0  0  0  0
  -22.4046  -11.9849   22.4762 H   0  0  0  0  0  0
  -21.1090  -13.1266   22.2647 H   0  0  0  0  0  0
  -24.6518  -15.8422   20.5027 H   0  0  0  0  0  0
  -26.2587  -15.6230   20.0393 H   0  0  0  0  0  0
  -26.7183  -32.5441   23.0997 H   0  0  0  0  0  0
  -25.0027  -33.9719   25.0346 H   0  0  0  0  0  0
  -22.7264  -31.2952   21.3889 H   0  0  0  0  0  0
  -23.3775  -35.9605   23.3311 H   0  0  0  0  0  0
  -24.3575  -36.8905   22.2042 H   0  0  0  0  0  0
  -23.7226  -37.6478   23.6659 H   0  0  0  0  0  0
  -26.0947  -31.5182   20.5916 H   0  0  0  0  0  0
  -26.8631  -30.8303   21.9881 H   0  0  0  0  0  0
  -28.1244  -28.9051   21.2195 H   0  0  0  0  0  0
  -25.9796  -25.8858   19.0155 H   0  0  0  0  0  0
  -23.9800  -27.2936   19.0024 H   0  0  0  0  0  0
  -23.7737  -30.5763   19.4011 H   0  0  0  0  0  0
  -22.7699  -29.2353   19.8523 H   0  0  0  0  0  0
  -25.1316  -36.1923   25.0817 H   0  0  0  0  0  0
  -20.9985  -28.3298   24.1411 H   0  0  0  0  0  0
  -20.5747  -26.2289   23.3635 H   0  0  0  0  0  0
  -21.6666  -26.7498   22.1187 H   0  0  0  0  0  0
  -19.6976  -25.6321   21.1246 H   0  0  0  0  0  0
  -19.6757  -27.3221   20.6753 H   0  0  0  0  0  0
  -17.4227  -26.6696   21.3983 H   0  0  0  0  0  0
  -18.0309  -26.0072   22.8996 H   0  0  0  0  0  0
  -19.7956  -30.7221   24.2356 H   0  0  0  0  0  0
  -17.5043  -31.6298   24.5127 H   0  0  0  0  0  0
  -15.5372  -30.3017   23.7673 H   0  0  0  0  0  0
  -15.8659  -28.0860   22.7093 H   0  0  0  0  0  0
  -24.5898  -30.7086   25.7629 H   0  0  0  0  0  0
  -24.8822  -32.2920   26.4688 H   0  0  0  0  0  0
  -25.7936  -30.8957   27.0171 H   0  0  0  0  0  0
  -26.2882  -29.6767   24.1133 H   0  0  0  0  0  0
  -27.4097  -29.7280   25.4550 H   0  0  0  0  0  0
  -27.8726  -30.4353   23.9248 H   0  0  0  0  0  0
  -27.2704  -33.3669   26.1965 H   0  0  0  0  0  0
  -28.3891  -32.6805   25.0271 H   0  0  0  0  0  0
  -28.0658  -31.8433   26.5387 H   0  0  0  0  0  0
  -28.2602  -38.0097   24.7527 H   0  0  0  0  0  0
  -28.1075  -36.2629   24.6287 H   0  0  0  0  0  0
  -27.2307  -37.1464   25.8863 H   0  0  0  0  0  0
  -20.9399  -29.8751   21.6897 H   0  0  0  0  0  0
  -26.0187  -38.2868   24.1408 H   0  0  0  0  0  0
  -27.1459  -24.7350   20.8122 H   0  0  0  0  0  0
  -33.2717  -19.6645   20.1503 H   0  0  0  0  0  0
  -32.3984  -21.1497   19.8550 H   0  0  0  0  0  0
  -32.5642  -19.9699   18.5702 H   0  0  0  0  0  0
  -30.5865  -21.8961   19.8591 H   0  0  0  0  0  0
  -28.8818  -15.6894   21.0068 H   0  0  0  0  0  0
  -30.2600  -25.2817   19.3470 H   0  0  0  0  0  0
  -31.0597  -24.1740   20.2121 H   0  0  0  0  0  0
  -30.4954  -23.8157   18.7119 H   0  0  0  0  0  0
  1 25  1  0  0  0
  1 30  2  0  0  0
  1 80  1  0  0  0
  2  3  1  0  0  0
  2 25  1  0  0  0
  2 84  1  0  0  0
  2 85  1  0  0  0
  3  4  1  0  0  0
  3 86  1  0  0  0
  3 87  1  0  0  0
  4  5  1  0  0  0
  4 88  1  0  0  0
  4 89  1  0  0  0
  5  6  1  0  0  0
  5 26  1  0  0  0
  5 90  1  0  0  0
  6 25  1  0  0  0
  6 91  1  0  0  0
  6 92  1  0  0  0
  7  8  2  0  0  0
  7 26  1  0  0  0
  7 29  1  0  0  0
  8  9  1  0  0  0
  8 22  1  0  0  0
  9 10  1  0  0  0
  9 27  2  0  0  0
 10 11  2  0  0  0
 10 15  1  0  0  0
 11 12  1  0  0  0
 11 93  1  0  0  0
 12 13  2  0  0  0
 12 94  1  0  0  0
 13 14  1  0  0  0
 13 31  1  0  0  0
 14 15  2  0  0  0
 14 95  1  0  0  0
 15 96  1  0  0  0
 16 17  2  0  0  0
 16 21  1  0  0  0
 16 31  1  0  0  0
 17 18  1  0  0  0
 17 97  1  0  0  0
 18 19  2  0  0  0
 18 98  1  0  0  0
 19 20  1  0  0  0
 19 24  1  0  0  0
 20 21  2  0  0  0
 20 99  1  0  0  0
 21 23  1  0  0  0
 22 28  1  0  0  0
 22 32  2  0  0  0
 26 27  1  0  0  0
 28100  1  0  0  0
 28101  1  0  0  0
 29102  1  0  0  0
 29103  1  0  0  0
 33 34  1  0  0  0
 33 66  1  0  0  0
 33 70  2  0  0  0
 34 36  1  0  0  0
 34 59  1  0  0  0
 34104  1  0  0  0
 35 44  2  0  0  0
 35 45  1  0  0  0
 35 68  1  0  0  0
 36 56  1  0  0  0
 36105  1  0  0  0
 37 39  1  0  0  0
 37 47  1  0  0  0
 37 66  1  0  0  0
 37106  1  0  0  0
 38 43  2  0  0  0
 38 46  1  0  0  0
 38 47  1  0  0  0
 39 64  1  0  0  0
 39 67  2  0  0  0
 40 52  1  0  0  0
 40 53  2  0  0  0
 40 58  1  0  0  0
 41107  1  0  0  0
 41108  1  0  0  0
 41109  1  0  0  0
 41 48  1  0  0  0
 42 43  1  0  0  0
 42 66  1  0  0  0
 42110  1  0  0  0
 42111  1  0  0  0
 43 44  1  0  0  0
 44112  1  0  0  0
 45 46  2  0  0  0
 45113  1  0  0  0
 46114  1  0  0  0
 47115  1  0  0  0
 47116  1  0  0  0
 48 56  1  0  0  0
 48 65  1  0  0  0
 48117  1  0  0  0
 49 50  1  0  0  0
 49 53  1  0  0  0
 49 64  1  0  0  0
 49118  1  0  0  0
 50 51  1  0  0  0
 50119  1  0  0  0
 50120  1  0  0  0
 51 52  1  0  0  0
 51121  1  0  0  0
 51122  1  0  0  0
 52123  1  0  0  0
 52124  1  0  0  0
 53 54  1  0  0  0
 54 55  2  0  0  0
 54125  1  0  0  0
 55 57  1  0  0  0
 55126  1  0  0  0
 56 69  2  0  0  0
 57 58  2  0  0  0
 57127  1  0  0  0
 58128  1  0  0  0
 59 60  1  0  0  0
 59 61  1  0  0  0
 59 62  1  0  0  0
 60129  1  0  0  0
 60130  1  0  0  0
 60131  1  0  0  0
 61132  1  0  0  0
 61133  1  0  0  0
 61134  1  0  0  0
 62135  1  0  0  0
 62136  1  0  0  0
 62137  1  0  0  0
 63 65  1  0  0  0
 63138  1  0  0  0
 63139  1  0  0  0
 63140  1  0  0  0
 64141  1  0  0  0
 65142  1  0  0  0
 68 74  1  0  0  0
 71 72  2  0  0  0
 71 77  1  0  0  0
 71 78  1  0  0  0
 72 79  1  0  0  0
 72 83  1  0  0  0
 73 78  2  0  0  0
 73 80  1  0  0  0
 73 83  1  0  0  0
 74 75  2  0  0  0
 74143  1  0  0  0
 75 76  1  0  0  0
 75 81  1  0  0  0
 76 79  1  0  0  0
 76 82  2  0  0  0
 77144  1  0  0  0
 77145  1  0  0  0
 77146  1  0  0  0
 79147  1  0  0  0
 80148  1  0  0  0
 81149  1  0  0  0
 81150  1  0  0  0
 81151  1  0  0  0
M  CHG  1  81   1
M  ISO  4   1 100  68 101  74 101  80 100
M  END
> <chiral flag>
0

> <version>
0

> <s_m_source_file>
/data/baiqing/PycharmProjects/Reinvent-master-3.2/result/LINK_invent/BTK/process_docking_weight1_custom_product_contain_oxygen_bond_distance_aromatic_linkinvent_7_9_3/rearranged_h_0159.sdf

> <i_m_source_file_index>
53

> <r_mmod_Potential_Energy-OPLS-2005>
-281.077484130859

> <r_mmod_Stretch_Energy-OPLS-2005>
132.105422973633

> <r_mmod_Bend_Energy-OPLS-2005>
194.229797363281

> <r_mmod_Torsional_Energy-OPLS-2005>
197.158782958984

> <r_mmod_Improper_Torsional_Energy-OPLS-2005>
3.95440578460693

> <r_mmod_Van_der_Waal_Energy-OPLS-2005>
115.83177947998

> <r_mmod_Electrostatic_Energy-OPLS-2005>
-445.330169677734

> <r_mmod_Solvation_Energy-OPLS-2005>
-583.040405273438

> <b_mmod_Minimization_Converged-OPLS-2005>
0

> <r_mmod_RMS_Derivative-OPLS-2005>
3.99239468574524

$$$$
53
                    3D
 Structure written by MMmdl.
156164  0  0  1  0            999 V2000
  -30.6920  -14.6472   20.5015 C   0  0  0  0  0  0
  -30.4344  -12.4151   19.4331 C   0  0  0  0  0  0
  -29.4995  -12.5061   18.2096 C   0  0  0  0  0  0
  -28.0245  -12.3326   18.6228 C   0  0  0  0  0  0
  -27.6454  -13.2244   19.8348 C   0  0  2  0  0  0
  -28.6971  -13.1303   20.9610 C   0  0  0  0  0  0
  -25.2534  -13.8171   20.5595 C   0  0  0  0  0  0
  -24.1799  -13.0446   20.9121 C   0  0  0  0  0  0
  -24.6391  -11.6917   20.8698 C   0  0  0  0  0  0
  -23.9079  -10.4284   21.0375 C   0  0  0  0  0  0
  -24.3646   -9.4190   21.9146 C   0  0  0  0  0  0
  -23.6309   -8.2235   22.0750 C   0  0  0  0  0  0
  -22.4283   -8.0281   21.3539 C   0  0  0  0  0  0
  -21.9919   -9.0244   20.4626 C   0  0  0  0  0  0
  -22.7259  -10.2113   20.3017 C   0  0  0  0  0  0
  -21.6874   -6.0730   22.5262 C   0  0  0  0  0  0
  -21.4014   -6.5629   23.8196 C   0  0  0  0  0  0
  -21.3662   -5.6776   24.9149 C   0  0  0  0  0  0
  -21.6065   -4.3049   24.7203 C   0  0  0  0  0  0
  -21.8826   -3.8141   23.4331 C   0  0  0  0  0  0
  -21.9187   -4.6949   22.3384 C   0  0  0  0  0  0
  -22.7813  -13.5215   21.1804 C   0  0  0  0  0  0
  -22.1657   -4.2130   21.0968 F   0  0  0  0  0  0
  -21.5649   -3.4535   25.7723 F   0  0  0  0  0  0
  -30.0139  -13.4588   20.3845 N   0  0  0  0  0  0
  -26.2958  -12.9367   20.3167 N   0  0  0  0  0  0
  -25.9326  -11.6533   20.5711 N   0  0  0  0  0  0
  -22.0488  -12.8198   22.0392 N   0  0  0  0  0  0
  -25.4241  -15.1897   20.4000 N   0  0  0  0  0  0
  -31.8794  -14.7455   20.1930 O   0  0  0  0  0  0
  -21.6653   -6.8881   21.4227 O   0  0  0  0  0  0
  -22.3471  -14.5504   20.6646 O   0  0  0  0  0  0
  -24.6212  -31.8619   23.1979 C   0  0  0  0  0  0
  -25.9056  -32.4815   23.8333 C   0  0  1  0  0  0
  -27.2333  -27.3444   20.1101 C   0  0  0  0  0  0
  -25.5883  -33.8608   24.2281 N   0  0  0  0  0  0
  -23.4147  -30.4820   21.5404 C   0  0  2  0  0  0
  -24.8649  -28.9395   20.1098 C   0  0  0  0  0  0
  -22.7450  -29.4602   22.4897 C   0  0  0  0  0  0
  -18.0266  -28.1400   22.8451 C   0  0  0  0  0  0
  -24.1505  -36.7322   23.2640 C   0  0  0  0  0  0
  -25.9545  -30.8054   21.3555 C   0  0  0  0  0  0
  -26.0315  -29.4291   20.7104 C   0  0  0  0  0  0
  -27.2157  -28.6390   20.7052 C   0  0  0  0  0  0
  -26.0364  -26.8980   19.4930 C   0  0  0  0  0  0
  -24.8688  -27.6783   19.4950 C   0  0  0  0  0  0
  -23.6312  -29.8156   20.1540 C   0  0  0  0  0  0
  -25.4118  -36.3117   24.0329 C   0  0  1  0  0  0
  -20.5880  -28.3657   23.1297 C   0  0  2  0  0  0
  -20.6776  -26.9371   22.5428 C   0  0  0  0  0  0
  -19.5764  -26.6381   21.5227 C   0  0  0  0  0  0
  -18.1915  -26.7927   22.1596 C   0  0  0  0  0  0
  -19.1523  -28.8830   23.2879 C   0  0  0  0  0  0
  -18.9478  -30.1428   23.8885 C   0  0  0  0  0  0
  -17.6485  -30.6591   24.0530 C   0  0  0  0  0  0
  -25.9065  -34.9485   23.5132 C   0  0  0  0  0  0
  -16.5356  -29.9093   23.6322 C   0  0  0  0  0  0
  -16.7267  -28.6527   23.0314 C   0  0  0  0  0  0
  -26.4466  -31.6605   25.0697 C   0  0  0  0  0  0
  -25.3694  -31.3732   26.1440 C   0  0  0  0  0  0
  -27.0247  -30.3037   24.6057 C   0  0  0  0  0  0
  -27.6049  -32.4309   25.7464 C   0  0  0  0  0  0
  -27.5583  -37.1808   24.8469 C   0  0  0  0  0  0
  -21.4161  -29.3023   22.3701 N   0  0  0  0  0  0
  -26.4297  -37.3797   23.9411 N   0  0  0  0  0  0
  -24.6837  -31.0643   22.0928 N   0  0  0  0  0  0
  -23.4217  -28.8158   23.2938 O   0  0  0  0  0  0
  -28.3752  -26.5340   20.1495 O   0  0  0  0  0  0
  -26.5646  -34.8927   22.4710 O   0  0  0  0  0  0
  -23.5388  -32.1412   23.7334 O   0  0  0  0  0  0
  -31.8137  -18.5031   19.6041 C   0  0  0  0  0  0
  -31.8418  -19.9073   19.3412 C   0  0  0  0  0  0
  -30.7796  -18.2871   20.4871 C   0  0  0  0  0  0
  -30.7950  -20.4823   20.0119 C   0  0  0  0  0  0
  -29.4266  -24.1836   20.2488 C   0  0  0  0  0  0
  -34.1586  -20.5619   18.9870 C   0  0  0  0  0  0
  -30.3980  -17.0779   21.3697 C   0  0  0  0  0  0
  -29.3020  -22.6138   20.1358 C   0  0  0  0  0  0
  -28.1806  -25.0877   19.9550 C   0  0  0  0  0  0
  -32.7660  -20.6003   18.5434 N   0  0  0  0  0  0
  -30.6037  -21.8888   20.1200 N   0  0  0  0  0  0
  -29.9617  -15.7612   20.7935 N   0  0  0  0  0  0
  -30.5155  -24.6880   20.5429 O   0  0  0  0  0  0
  -30.1200  -19.5082   20.7224 O   0  0  0  0  0  0
  -31.4701  -12.5454   19.1117 H   0  0  0  0  0  0
  -30.3871  -11.4304   19.9031 H   0  0  0  0  0  0
  -29.7719  -11.7487   17.4736 H   0  0  0  0  0  0
  -29.6276  -13.4744   17.7228 H   0  0  0  0  0  0
  -27.8700  -11.2805   18.8666 H   0  0  0  0  0  0
  -27.3712  -12.5420   17.7729 H   0  0  0  0  0  0
  -27.6520  -14.2479   19.4604 H   0  0  0  0  0  0
  -28.7147  -12.1231   21.3807 H   0  0  0  0  0  0
  -28.4366  -13.8001   21.7817 H   0  0  0  0  0  0
  -25.2825   -9.5646   22.4690 H   0  0  0  0  0  0
  -24.0005   -7.4639   22.7491 H   0  0  0  0  0  0
  -21.0858   -8.8770   19.8951 H   0  0  0  0  0  0
  -22.3749  -10.9634   19.6104 H   0  0  0  0  0  0
  -21.2014   -7.6135   23.9697 H   0  0  0  0  0  0
  -21.1480   -6.0506   25.9053 H   0  0  0  0  0  0
  -22.0613   -2.7606   23.2830 H   0  0  0  0  0  0
  -22.4161  -11.9858   22.4731 H   0  0  0  0  0  0
  -21.1079  -13.1135   22.2597 H   0  0  0  0  0  0
  -24.6665  -15.8513   20.5238 H   0  0  0  0  0  0
  -26.2771  -15.6291   20.0770 H   0  0  0  0  0  0
  -26.7085  -32.5448   23.1045 H   0  0  0  0  0  0
  -24.9982  -33.9772   25.0395 H   0  0  0  0  0  0
  -22.7086  -31.3018   21.3864 H   0  0  0  0  0  0
  -23.3785  -35.9643   23.3337 H   0  0  0  0  0  0
  -24.3606  -36.8922   22.2058 H   0  0  0  0  0  0
  -23.7277  -37.6533   23.6651 H   0  0  0  0  0  0
  -26.0709  -31.5564   20.5707 H   0  0  0  0  0  0
  -26.8462  -30.8745   21.9704 H   0  0  0  0  0  0
  -28.1111  -29.0078   21.1892 H   0  0  0  0  0  0
  -25.9761  -25.9353   19.0103 H   0  0  0  0  0  0
  -23.9685  -27.3045   19.0242 H   0  0  0  0  0  0
  -23.7428  -30.5924   19.3920 H   0  0  0  0  0  0
  -22.7538  -29.2409   19.8570 H   0  0  0  0  0  0
  -25.1315  -36.1966   25.0814 H   0  0  0  0  0  0
  -20.9930  -28.3203   24.1436 H   0  0  0  0  0  0
  -20.5705  -26.2223   23.3584 H   0  0  0  0  0  0
  -21.6618  -26.7438   22.1152 H   0  0  0  0  0  0
  -19.6941  -25.6329   21.1166 H   0  0  0  0  0  0
  -19.6728  -27.3248   20.6792 H   0  0  0  0  0  0
  -17.4187  -26.6638   21.3992 H   0  0  0  0  0  0
  -18.0286  -26.0152   22.9055 H   0  0  0  0  0  0
  -19.7973  -30.7225   24.2245 H   0  0  0  0  0  0
  -17.5066  -31.6238   24.5179 H   0  0  0  0  0  0
  -15.5371  -30.3017   23.7675 H   0  0  0  0  0  0
  -15.8636  -28.0867   22.7039 H   0  0  0  0  0  0
  -24.5887  -30.7042   25.7804 H   0  0  0  0  0  0
  -24.8850  -32.2903   26.4815 H   0  0  0  0  0  0
  -25.8046  -30.8982   27.0245 H   0  0  0  0  0  0
  -26.2778  -29.6837   24.1103 H   0  0  0  0  0  0
  -27.4067  -29.7214   25.4450 H   0  0  0  0  0  0
  -27.8578  -30.4354   23.9142 H   0  0  0  0  0  0
  -27.2683  -33.3625   26.1984 H   0  0  0  0  0  0
  -28.3860  -32.6829   25.0283 H   0  0  0  0  0  0
  -28.0678  -31.8456   26.5403 H   0  0  0  0  0  0
  -28.2616  -38.0101   24.7513 H   0  0  0  0  0  0
  -28.1069  -36.2636   24.6300 H   0  0  0  0  0  0
  -27.2289  -37.1456   25.8870 H   0  0  0  0  0  0
  -20.9362  -29.8882   21.7021 H   0  0  0  0  0  0
  -26.0215  -38.2872   24.1433 H   0  0  0  0  0  0
  -32.5103  -17.7532   19.2531 H   0  0  0  0  0  0
  -34.7640  -21.2346   18.3751 H   0  0  0  0  0  0
  -34.5915  -19.5642   18.9027 H   0  0  0  0  0  0
  -34.2770  -20.8959   20.0189 H   0  0  0  0  0  0
  -29.5883  -17.3987   22.0272 H   0  0  0  0  0  0
  -31.2299  -16.8852   22.0500 H   0  0  0  0  0  0
  -28.7517  -22.3905   19.2196 H   0  0  0  0  0  0
  -28.6882  -22.2455   20.9591 H   0  0  0  0  0  0
  -27.3531  -24.7383   20.5759 H   0  0  0  0  0  0
  -27.9056  -24.9092   18.9175 H   0  0  0  0  0  0
  -32.4433  -21.5248   18.2688 H   0  0  0  0  0  0
  -31.3618  -22.4451   19.7411 H   0  0  0  0  0  0
  -28.9657  -15.6089   20.8362 H   0  0  0  0  0  0
  1 25  1  0  0  0
  1 30  2  0  0  0
  1 82  1  0  0  0
  2  3  1  0  0  0
  2 25  1  0  0  0
  2 85  1  0  0  0
  2 86  1  0  0  0
  3  4  1  0  0  0
  3 87  1  0  0  0
  3 88  1  0  0  0
  4  5  1  0  0  0
  4 89  1  0  0  0
  4 90  1  0  0  0
  5  6  1  0  0  0
  5 26  1  0  0  0
  5 91  1  0  0  0
  6 25  1  0  0  0
  6 92  1  0  0  0
  6 93  1  0  0  0
  7  8  2  0  0  0
  7 26  1  0  0  0
  7 29  1  0  0  0
  8  9  1  0  0  0
  8 22  1  0  0  0
  9 10  1  0  0  0
  9 27  2  0  0  0
 10 11  2  0  0  0
 10 15  1  0  0  0
 11 12  1  0  0  0
 11 94  1  0  0  0
 12 13  2  0  0  0
 12 95  1  0  0  0
 13 14  1  0  0  0
 13 31  1  0  0  0
 14 15  2  0  0  0
 14 96  1  0  0  0
 15 97  1  0  0  0
 16 17  2  0  0  0
 16 21  1  0  0  0
 16 31  1  0  0  0
 17 18  1  0  0  0
 17 98  1  0  0  0
 18 19  2  0  0  0
 18 99  1  0  0  0
 19 20  1  0  0  0
 19 24  1  0  0  0
 20 21  2  0  0  0
 20100  1  0  0  0
 21 23  1  0  0  0
 22 28  1  0  0  0
 22 32  2  0  0  0
 26 27  1  0  0  0
 28101  1  0  0  0
 28102  1  0  0  0
 29103  1  0  0  0
 29104  1  0  0  0
 33 34  1  0  0  0
 33 66  1  0  0  0
 33 70  2  0  0  0
 34 36  1  0  0  0
 34 59  1  0  0  0
 34105  1  0  0  0
 35 44  2  0  0  0
 35 45  1  0  0  0
 35 68  1  0  0  0
 36 56  1  0  0  0
 36106  1  0  0  0
 37 39  1  0  0  0
 37 47  1  0  0  0
 37 66  1  0  0  0
 37107  1  0  0  0
 38 43  2  0  0  0
 38 46  1  0  0  0
 38 47  1  0  0  0
 39 64  1  0  0  0
 39 67  2  0  0  0
 40 52  1  0  0  0
 40 53  2  0  0  0
 40 58  1  0  0  0
 41108  1  0  0  0
 41109  1  0  0  0
 41110  1  0  0  0
 41 48  1  0  0  0
 42 43  1  0  0  0
 42 66  1  0  0  0
 42111  1  0  0  0
 42112  1  0  0  0
 43 44  1  0  0  0
 44113  1  0  0  0
 45 46  2  0  0  0
 45114  1  0  0  0
 46115  1  0  0  0
 47116  1  0  0  0
 47117  1  0  0  0
 48 56  1  0  0  0
 48 65  1  0  0  0
 48118  1  0  0  0
 49 50  1  0  0  0
 49 53  1  0  0  0
 49 64  1  0  0  0
 49119  1  0  0  0
 50 51  1  0  0  0
 50120  1  0  0  0
 50121  1  0  0  0
 51 52  1  0  0  0
 51122  1  0  0  0
 51123  1  0  0  0
 52124  1  0  0  0
 52125  1  0  0  0
 53 54  1  0  0  0
 54 55  2  0  0  0
 54126  1  0  0  0
 55 57  1  0  0  0
 55127  1  0  0  0
 56 69  2  0  0  0
 57 58  2  0  0  0
 57128  1  0  0  0
 58129  1  0  0  0
 59 60  1  0  0  0
 59 61  1  0  0  0
 59 62  1  0  0  0
 60130  1  0  0  0
 60131  1  0  0  0
 60132  1  0  0  0
 61133  1  0  0  0
 61134  1  0  0  0
 61135  1  0  0  0
 62136  1  0  0  0
 62137  1  0  0  0
 62138  1  0  0  0
 63 65  1  0  0  0
 63139  1  0  0  0
 63140  1  0  0  0
 63141  1  0  0  0
 64142  1  0  0  0
 65143  1  0  0  0
 68 79  1  0  0  0
 71 72  1  0  0  0
 71 73  2  0  0  0
 71144  1  0  0  0
 72 74  2  0  0  0
 72 80  1  0  0  0
 73 77  1  0  0  0
 73 84  1  0  0  0
 74 81  1  0  0  0
 74 84  1  0  0  0
 75 78  1  0  0  0
 75 79  1  0  0  0
 75 83  2  0  0  0
 76 80  1  0  0  0
 76145  1  0  0  0
 76146  1  0  0  0
 76147  1  0  0  0
 77 82  1  0  0  0
 77148  1  0  0  0
 77149  1  0  0  0
 78 81  1  0  0  0
 78150  1  0  0  0
 78151  1  0  0  0
 79152  1  0  0  0
 79153  1  0  0  0
 80154  1  0  0  0
 81155  1  0  0  0
 82156  1  0  0  0
M  ISO  4   1 100  68 101  79 101  82 100
M  END
> <chiral flag>
0

> <version>
0

> <s_m_source_file>
/data/baiqing/PycharmProjects/Reinvent-master-3.2/result/LINK_invent/BTK/process_docking_weight1_custom_product_contain_oxygen_bond_distance_aromatic_linkinvent_7_9_3/rearranged_h_0159.sdf

> <i_m_source_file_index>
54

> <r_mmod_Potential_Energy-OPLS-2005>
-74.4580001831055

> <r_mmod_Stretch_Energy-OPLS-2005>
69.445182800293

> <r_mmod_Bend_Energy-OPLS-2005>
150.219955444336

> <r_mmod_Torsional_Energy-OPLS-2005>
223.905868530273

> <r_mmod_Improper_Torsional_Energy-OPLS-2005>
12.4365177154541

> <r_mmod_Van_der_Waal_Energy-OPLS-2005>
119.289703369141

> <r_mmod_Electrostatic_Energy-OPLS-2005>
-428.622467041016

> <r_mmod_Solvation_Energy-OPLS-2005>
-269.150939941406

> <b_mmod_Minimization_Converged-OPLS-2005>
0

> <r_mmod_RMS_Derivative-OPLS-2005>
6.87577056884766

$$$$
54
                    3D
 Structure written by MMmdl.
152160  0  0  1  0            999 V2000
  -30.5922  -14.7686   20.4598 C   0  0  0  0  0  0
  -30.4335  -12.4706   19.4769 C   0  0  0  0  0  0
  -29.5088  -12.5247   18.2383 C   0  0  0  0  0  0
  -28.0349  -12.3451   18.6484 C   0  0  0  0  0  0
  -27.6422  -13.2372   19.8557 C   0  0  2  0  0  0
  -28.6869  -13.1636   20.9917 C   0  0  0  0  0  0
  -25.2515  -13.8205   20.5738 C   0  0  0  0  0  0
  -24.1804  -13.0440   20.9216 C   0  0  0  0  0  0
  -24.6397  -11.6922   20.8744 C   0  0  0  0  0  0
  -23.9073  -10.4290   21.0404 C   0  0  0  0  0  0
  -24.3630   -9.4205   21.9188 C   0  0  0  0  0  0
  -23.6301   -8.2243   22.0754 C   0  0  0  0  0  0
  -22.4285   -8.0280   21.3542 C   0  0  0  0  0  0
  -21.9917   -9.0255   20.4649 C   0  0  0  0  0  0
  -22.7242  -10.2133   20.3054 C   0  0  0  0  0  0
  -21.6854   -6.0743   22.5282 C   0  0  0  0  0  0
  -21.4021   -6.5650   23.8217 C   0  0  0  0  0  0
  -21.3660   -5.6802   24.9176 C   0  0  0  0  0  0
  -21.6033   -4.3065   24.7222 C   0  0  0  0  0  0
  -21.8820   -3.8157   23.4347 C   0  0  0  0  0  0
  -21.9198   -4.6971   22.3404 C   0  0  0  0  0  0
  -22.7826  -13.5217   21.1877 C   0  0  0  0  0  0
  -22.1668   -4.2164   21.0979 F   0  0  0  0  0  0
  -21.5618   -3.4541   25.7732 F   0  0  0  0  0  0
  -29.9904  -13.5272   20.4192 N   0  0  0  0  0  0
  -26.2942  -12.9423   20.3314 N   0  0  0  0  0  0
  -25.9327  -11.6557   20.5753 N   0  0  0  0  0  0
  -22.0478  -12.8195   22.0425 N   0  0  0  0  0  0
  -25.4217  -15.1932   20.4202 N   0  0  0  0  0  0
  -31.7668  -14.8815   20.0934 O   0  0  0  0  0  0
  -21.6648   -6.8880   21.4240 O   0  0  0  0  0  0
  -22.3506  -14.5530   20.6727 O   0  0  0  0  0  0
  -24.6319  -31.8515   23.1988 C   0  0  0  0  0  0
  -25.9139  -32.4728   23.8326 C   0  0  1  0  0  0
  -27.2278  -27.2448   20.1336 C   0  0  0  0  0  0
  -25.5925  -33.8531   24.2248 N   0  0  0  0  0  0
  -23.4294  -30.4747   21.5415 C   0  0  2  0  0  0
  -24.8803  -28.9194   20.1102 C   0  0  0  0  0  0
  -22.7493  -29.4591   22.4918 C   0  0  0  0  0  0
  -18.0269  -28.1378   22.8490 C   0  0  0  0  0  0
  -24.1490  -36.7270   23.2643 C   0  0  0  0  0  0
  -25.9770  -30.7594   21.3827 C   0  0  0  0  0  0
  -26.0505  -29.3806   20.7245 C   0  0  0  0  0  0
  -27.2230  -28.5559   20.7277 C   0  0  0  0  0  0
  -26.0353  -26.8629   19.4757 C   0  0  0  0  0  0
  -24.8794  -27.6685   19.4743 C   0  0  0  0  0  0
  -23.6495  -29.8062   20.1587 C   0  0  0  0  0  0
  -25.4114  -36.3055   24.0330 C   0  0  1  0  0  0
  -20.5873  -28.3695   23.1261 C   0  0  2  0  0  0
  -20.6744  -26.9411   22.5405 C   0  0  0  0  0  0
  -19.5728  -26.6385   21.5196 C   0  0  0  0  0  0
  -18.1912  -26.7917   22.1622 C   0  0  0  0  0  0
  -19.1525  -28.8855   23.2871 C   0  0  0  0  0  0
  -18.9457  -30.1458   23.8891 C   0  0  0  0  0  0
  -17.6458  -30.6589   24.0567 C   0  0  0  0  0  0
  -25.9050  -34.9424   23.5097 C   0  0  0  0  0  0
  -16.5348  -29.9087   23.6342 C   0  0  0  0  0  0
  -16.7258  -28.6502   23.0367 C   0  0  0  0  0  0
  -26.4514  -31.6542   25.0709 C   0  0  0  0  0  0
  -25.3746  -31.3667   26.1427 C   0  0  0  0  0  0
  -27.0351  -30.2949   24.6204 C   0  0  0  0  0  0
  -27.6067  -32.4276   25.7479 C   0  0  0  0  0  0
  -27.5575  -37.1793   24.8473 C   0  0  0  0  0  0
  -21.4195  -29.3040   22.3655 N   0  0  0  0  0  0
  -26.4292  -37.3753   23.9408 N   0  0  0  0  0  0
  -24.6982  -31.0470   22.0973 N   0  0  0  0  0  0
  -23.4186  -28.8134   23.3023 O   0  0  0  0  0  0
  -28.3271  -26.3478   20.2302 O   0  0  0  0  0  0
  -26.5631  -34.8916   22.4669 O   0  0  0  0  0  0
  -23.5466  -32.1344   23.7274 O   0  0  0  0  0  0
  -29.3120  -18.4034   20.9992 C   0  0  0  0  0  0
  -29.6980  -19.7008   20.3954 C   0  0  0  0  0  0
  -29.9507  -17.2531   20.4854 C   0  0  0  0  0  0
  -29.2488  -21.0818   20.9303 C   0  0  0  0  0  0
  -28.6333  -24.8489   18.3665 C   0  0  0  0  0  0
  -29.0663  -23.7543   20.6807 C   0  0  0  0  0  0
  -28.2329  -24.8823   19.8499 C   0  0  1  0  0  0
  -30.5681  -19.5453   19.4153 N   0  0  0  0  0  0
  -29.0029  -21.1520   22.2456 N   0  0  0  0  0  0
  -29.8145  -15.8792   20.7837 N   0  0  0  0  0  0
  -29.1427  -22.2743   20.2063 N   0  3  0  0  0  0
  -30.9770  -17.9009   19.2284 S   0  0  0  0  0  0
  -31.4730  -12.6008   19.1719 H   0  0  0  0  0  0
  -30.3841  -11.4911   19.9539 H   0  0  0  0  0  0
  -29.7903  -11.7556   17.5184 H   0  0  0  0  0  0
  -29.6328  -13.4818   17.7285 H   0  0  0  0  0  0
  -27.8902  -11.2948   18.9020 H   0  0  0  0  0  0
  -27.3773  -12.5461   17.8012 H   0  0  0  0  0  0
  -27.6341  -14.2615   19.4820 H   0  0  0  0  0  0
  -28.7232  -12.1618   21.4210 H   0  0  0  0  0  0
  -28.4162  -13.8354   21.8075 H   0  0  0  0  0  0
  -25.2770   -9.5687   22.4771 H   0  0  0  0  0  0
  -24.0014   -7.4633   22.7472 H   0  0  0  0  0  0
  -21.0845   -8.8754   19.8962 H   0  0  0  0  0  0
  -22.3683  -10.9667   19.6172 H   0  0  0  0  0  0
  -21.2019   -7.6163   23.9716 H   0  0  0  0  0  0
  -21.1482   -6.0540   25.9078 H   0  0  0  0  0  0
  -22.0599   -2.7620   23.2839 H   0  0  0  0  0  0
  -22.4111  -11.9851   22.4790 H   0  0  0  0  0  0
  -21.1095  -13.1211   22.2651 H   0  0  0  0  0  0
  -24.6576  -15.8484   20.5411 H   0  0  0  0  0  0
  -26.2707  -15.6332   20.0888 H   0  0  0  0  0  0
  -26.7195  -32.5374   23.1053 H   0  0  0  0  0  0
  -25.0039  -33.9651   25.0374 H   0  0  0  0  0  0
  -22.7264  -31.2967   21.3936 H   0  0  0  0  0  0
  -23.3755  -35.9598   23.3305 H   0  0  0  0  0  0
  -24.3586  -36.8892   22.2060 H   0  0  0  0  0  0
  -23.7248  -37.6478   23.6660 H   0  0  0  0  0  0
  -26.1187  -31.5220   20.6148 H   0  0  0  0  0  0
  -26.8524  -30.8045   22.0187 H   0  0  0  0  0  0
  -28.1136  -28.9026   21.2341 H   0  0  0  0  0  0
  -25.9558  -25.9178   18.9630 H   0  0  0  0  0  0
  -23.9879  -27.3076   18.9803 H   0  0  0  0  0  0
  -23.7701  -30.5807   19.4000 H   0  0  0  0  0  0
  -22.7684  -29.2361   19.8592 H   0  0  0  0  0  0
  -25.1302  -36.1898   25.0823 H   0  0  0  0  0  0
  -20.9961  -28.3262   24.1381 H   0  0  0  0  0  0
  -20.5584  -26.2321   23.3614 H   0  0  0  0  0  0
  -21.6622  -26.7397   22.1242 H   0  0  0  0  0  0
  -19.6896  -25.6292   21.1238 H   0  0  0  0  0  0
  -19.6654  -27.3185   20.6716 H   0  0  0  0  0  0
  -17.4171  -26.6656   21.4040 H   0  0  0  0  0  0
  -18.0342  -26.0041   22.9009 H   0  0  0  0  0  0
  -19.7936  -30.7275   24.2261 H   0  0  0  0  0  0
  -17.5013  -31.6270   24.5159 H   0  0  0  0  0  0
  -15.5350  -30.2994   23.7664 H   0  0  0  0  0  0
  -15.8656  -28.0827   22.7091 H   0  0  0  0  0  0
  -24.5965  -30.6963   25.7764 H   0  0  0  0  0  0
  -24.8887  -32.2817   26.4828 H   0  0  0  0  0  0
  -25.8083  -30.8887   27.0217 H   0  0  0  0  0  0
  -26.2931  -29.6692   24.1234 H   0  0  0  0  0  0
  -27.4032  -29.7225   25.4729 H   0  0  0  0  0  0
  -27.8816  -30.4212   23.9447 H   0  0  0  0  0  0
  -27.2683  -33.3592   26.2025 H   0  0  0  0  0  0
  -28.3892  -32.6789   25.0306 H   0  0  0  0  0  0
  -28.0707  -31.8406   26.5419 H   0  0  0  0  0  0
  -28.2596  -38.0084   24.7493 H   0  0  0  0  0  0
  -28.1069  -36.2613   24.6328 H   0  0  0  0  0  0
  -27.2286  -37.1477   25.8875 H   0  0  0  0  0  0
  -20.9375  -29.8765   21.6867 H   0  0  0  0  0  0
  -26.0173  -38.2827   24.1406 H   0  0  0  0  0  0
  -28.5882  -18.3782   21.8007 H   0  0  0  0  0  0
  -28.5126  -23.8522   17.9445 H   0  0  0  0  0  0
  -29.6747  -25.1457   18.2354 H   0  0  0  0  0  0
  -28.0222  -25.5273   17.7707 H   0  0  0  0  0  0
  -28.6921  -23.7586   21.7029 H   0  0  0  0  0  0
  -30.0990  -24.0961   20.7592 H   0  0  0  0  0  0
  -27.1972  -24.5597   19.9493 H   0  0  0  0  0  0
  -29.1620  -20.3382   22.8193 H   0  0  0  0  0  0
  -28.6813  -21.9880   22.7020 H   0  0  0  0  0  0
  -28.9335  -15.6307   21.2077 H   0  0  0  0  0  0
  -29.3626  -22.1653   19.2253 H   0  0  0  0  0  0
  1 25  1  0  0  0
  1 30  2  0  0  0
  1 80  1  0  0  0
  2  3  1  0  0  0
  2 25  1  0  0  0
  2 83  1  0  0  0
  2 84  1  0  0  0
  3  4  1  0  0  0
  3 85  1  0  0  0
  3 86  1  0  0  0
  4  5  1  0  0  0
  4 87  1  0  0  0
  4 88  1  0  0  0
  5  6  1  0  0  0
  5 26  1  0  0  0
  5 89  1  0  0  0
  6 25  1  0  0  0
  6 90  1  0  0  0
  6 91  1  0  0  0
  7  8  2  0  0  0
  7 26  1  0  0  0
  7 29  1  0  0  0
  8  9  1  0  0  0
  8 22  1  0  0  0
  9 10  1  0  0  0
  9 27  2  0  0  0
 10 11  2  0  0  0
 10 15  1  0  0  0
 11 12  1  0  0  0
 11 92  1  0  0  0
 12 13  2  0  0  0
 12 93  1  0  0  0
 13 14  1  0  0  0
 13 31  1  0  0  0
 14 15  2  0  0  0
 14 94  1  0  0  0
 15 95  1  0  0  0
 16 17  2  0  0  0
 16 21  1  0  0  0
 16 31  1  0  0  0
 17 18  1  0  0  0
 17 96  1  0  0  0
 18 19  2  0  0  0
 18 97  1  0  0  0
 19 20  1  0  0  0
 19 24  1  0  0  0
 20 21  2  0  0  0
 20 98  1  0  0  0
 21 23  1  0  0  0
 22 28  1  0  0  0
 22 32  2  0  0  0
 26 27  1  0  0  0
 28 99  1  0  0  0
 28100  1  0  0  0
 29101  1  0  0  0
 29102  1  0  0  0
 33 34  1  0  0  0
 33 66  1  0  0  0
 33 70  2  0  0  0
 34 36  1  0  0  0
 34 59  1  0  0  0
 34103  1  0  0  0
 35 44  2  0  0  0
 35 45  1  0  0  0
 35 68  1  0  0  0
 36 56  1  0  0  0
 36104  1  0  0  0
 37 39  1  0  0  0
 37 47  1  0  0  0
 37 66  1  0  0  0
 37105  1  0  0  0
 38 43  2  0  0  0
 38 46  1  0  0  0
 38 47  1  0  0  0
 39 64  1  0  0  0
 39 67  2  0  0  0
 40 52  1  0  0  0
 40 53  2  0  0  0
 40 58  1  0  0  0
 41106  1  0  0  0
 41107  1  0  0  0
 41108  1  0  0  0
 41 48  1  0  0  0
 42 43  1  0  0  0
 42 66  1  0  0  0
 42109  1  0  0  0
 42110  1  0  0  0
 43 44  1  0  0  0
 44111  1  0  0  0
 45 46  2  0  0  0
 45112  1  0  0  0
 46113  1  0  0  0
 47114  1  0  0  0
 47115  1  0  0  0
 48 56  1  0  0  0
 48 65  1  0  0  0
 48116  1  0  0  0
 49 50  1  0  0  0
 49 53  1  0  0  0
 49 64  1  0  0  0
 49117  1  0  0  0
 50 51  1  0  0  0
 50118  1  0  0  0
 50119  1  0  0  0
 51 52  1  0  0  0
 51120  1  0  0  0
 51121  1  0  0  0
 52122  1  0  0  0
 52123  1  0  0  0
 53 54  1  0  0  0
 54 55  2  0  0  0
 54124  1  0  0  0
 55 57  1  0  0  0
 55125  1  0  0  0
 56 69  2  0  0  0
 57 58  2  0  0  0
 57126  1  0  0  0
 58127  1  0  0  0
 59 60  1  0  0  0
 59 61  1  0  0  0
 59 62  1  0  0  0
 60128  1  0  0  0
 60129  1  0  0  0
 60130  1  0  0  0
 61131  1  0  0  0
 61132  1  0  0  0
 61133  1  0  0  0
 62134  1  0  0  0
 62135  1  0  0  0
 62136  1  0  0  0
 63 65  1  0  0  0
 63137  1  0  0  0
 63138  1  0  0  0
 63139  1  0  0  0
 64140  1  0  0  0
 65141  1  0  0  0
 68 77  1  0  0  0
 71 72  1  0  0  0
 71 73  2  0  0  0
 71142  1  0  0  0
 72 74  1  0  0  0
 72 78  2  0  0  0
 73 80  1  0  0  0
 73 82  1  0  0  0
 74 79  1  0  0  0
 74 81  2  0  0  0
 75143  1  0  0  0
 75144  1  0  0  0
 75145  1  0  0  0
 75 77  1  0  0  0
 76 77  1  0  0  0
 76 81  1  0  0  0
 76146  1  0  0  0
 76147  1  0  0  0
 77148  1  0  0  0
 78 82  1  0  0  0
 79149  1  0  0  0
 79150  1  0  0  0
 80151  1  0  0  0
 81152  1  0  0  0
M  CHG  1  81   1
M  ISO  4   1 100  68 101  77 101  80 100
M  END
> <chiral flag>
0

> <version>
0

> <s_m_source_file>
/data/baiqing/PycharmProjects/Reinvent-master-3.2/result/LINK_invent/BTK/process_docking_weight1_custom_product_contain_oxygen_bond_distance_aromatic_linkinvent_7_9_3/rearranged_h_0159.sdf

> <i_m_source_file_index>
55

> <r_mmod_Potential_Energy-OPLS-2005>
-118.260749816895

> <r_mmod_Stretch_Energy-OPLS-2005>
131.544998168945

> <r_mmod_Bend_Energy-OPLS-2005>
170.535446166992

> <r_mmod_Torsional_Energy-OPLS-2005>
213.688766479492

> <r_mmod_Improper_Torsional_Energy-OPLS-2005>
4.52123308181763

> <r_mmod_Van_der_Waal_Energy-OPLS-2005>
122.108184814453

> <r_mmod_Electrostatic_Energy-OPLS-2005>
-370.010070800781

> <r_mmod_Solvation_Energy-OPLS-2005>
-485.371398925781

> <b_mmod_Minimization_Converged-OPLS-2005>
0

> <r_mmod_RMS_Derivative-OPLS-2005>
1.77093863487244

$$$$
55
                    3D
 Structure written by MMmdl.
157166  0  0  1  0            999 V2000
  -30.7015  -14.4639   20.5902 C   0  0  0  0  0  0
  -30.4290  -12.3164   19.4045 C   0  0  0  0  0  0
  -29.4883  -12.4895   18.1951 C   0  0  0  0  0  0
  -28.0139  -12.3403   18.6203 C   0  0  0  0  0  0
  -27.6603  -13.1949   19.8664 C   0  0  2  0  0  0
  -28.7021  -12.9796   20.9848 C   0  0  0  0  0  0
  -25.2593  -13.8120   20.5611 C   0  0  0  0  0  0
  -24.1846  -13.0435   20.9174 C   0  0  0  0  0  0
  -24.6376  -11.6892   20.8752 C   0  0  0  0  0  0
  -23.9043  -10.4286   21.0413 C   0  0  0  0  0  0
  -24.3599   -9.4210   21.9198 C   0  0  0  0  0  0
  -23.6279   -8.2240   22.0757 C   0  0  0  0  0  0
  -22.4269   -8.0268   21.3533 C   0  0  0  0  0  0
  -21.9901   -9.0246   20.4643 C   0  0  0  0  0  0
  -22.7215  -10.2133   20.3057 C   0  0  0  0  0  0
  -21.6853   -6.0738   22.5272 C   0  0  0  0  0  0
  -21.4007   -6.5639   23.8205 C   0  0  0  0  0  0
  -21.3647   -5.6793   24.9170 C   0  0  0  0  0  0
  -21.6040   -4.3056   24.7228 C   0  0  0  0  0  0
  -21.8823   -3.8149   23.4346 C   0  0  0  0  0  0
  -21.9193   -4.6967   22.3397 C   0  0  0  0  0  0
  -22.7878  -13.5259   21.1841 C   0  0  0  0  0  0
  -22.1668   -4.2149   21.0974 F   0  0  0  0  0  0
  -21.5631   -3.4533   25.7743 F   0  0  0  0  0  0
  -30.0270  -13.2956   20.4252 N   0  0  0  0  0  0
  -26.3023  -12.9273   20.3327 N   0  0  0  0  0  0
  -25.9297  -11.6458   20.5782 N   0  0  0  0  0  0
  -22.0494  -12.8249   22.0362 N   0  0  0  0  0  0
  -25.4340  -15.1823   20.3875 N   0  0  0  0  0  0
  -31.8422  -14.6482   20.1510 O   0  0  0  0  0  0
  -21.6627   -6.8870   21.4228 O   0  0  0  0  0  0
  -22.3574  -14.5571   20.6675 O   0  0  0  0  0  0
  -24.6158  -31.8665   23.2068 C   0  0  0  0  0  0
  -25.9050  -32.4795   23.8375 C   0  0  1  0  0  0
  -27.2459  -27.4229   20.0815 C   0  0  0  0  0  0
  -25.5888  -33.8591   24.2320 N   0  0  0  0  0  0
  -23.4061  -30.4886   21.5472 C   0  0  2  0  0  0
  -24.8562  -28.9499   20.1136 C   0  0  0  0  0  0
  -22.7420  -29.4647   22.4967 C   0  0  0  0  0  0
  -18.0269  -28.1404   22.8475 C   0  0  0  0  0  0
  -24.1494  -36.7305   23.2637 C   0  0  0  0  0  0
  -25.9354  -30.8239   21.3654 C   0  0  0  0  0  0
  -26.0153  -29.4551   20.7174 C   0  0  0  0  0  0
  -27.2106  -28.6940   20.7069 C   0  0  0  0  0  0
  -26.0700  -26.9460   19.4597 C   0  0  0  0  0  0
  -24.8765  -27.6925   19.4882 C   0  0  0  0  0  0
  -23.6191  -29.8182   20.1643 C   0  0  0  0  0  0
  -25.4097  -36.3079   24.0353 C   0  0  1  0  0  0
  -20.5855  -28.3675   23.1312 C   0  0  2  0  0  0
  -20.6742  -26.9406   22.5424 C   0  0  0  0  0  0
  -19.5740  -26.6405   21.5219 C   0  0  0  0  0  0
  -18.1894  -26.7949   22.1608 C   0  0  0  0  0  0
  -19.1523  -28.8844   23.2890 C   0  0  0  0  0  0
  -18.9458  -30.1438   23.8921 C   0  0  0  0  0  0
  -17.6459  -30.6590   24.0583 C   0  0  0  0  0  0
  -25.9039  -34.9455   23.5129 C   0  0  0  0  0  0
  -16.5351  -29.9101   23.6343 C   0  0  0  0  0  0
  -16.7255  -28.6534   23.0332 C   0  0  0  0  0  0
  -26.4455  -31.6573   25.0712 C   0  0  0  0  0  0
  -25.3733  -31.3736   26.1486 C   0  0  0  0  0  0
  -27.0231  -30.3001   24.6074 C   0  0  0  0  0  0
  -27.6059  -32.4247   25.7462 C   0  0  0  0  0  0
  -27.5580  -37.1785   24.8451 C   0  0  0  0  0  0
  -21.4138  -29.3044   22.3716 N   0  0  0  0  0  0
  -26.4282  -37.3775   23.9425 N   0  0  0  0  0  0
  -24.6712  -31.0746   22.0988 N   0  0  0  0  0  0
  -23.4175  -28.8185   23.3015 O   0  0  0  0  0  0
  -28.4151  -26.6838   20.0510 O   0  0  0  0  0  0
  -26.5603  -34.8919   22.4687 O   0  0  0  0  0  0
  -23.5346  -32.1386   23.7474 O   0  0  0  0  0  0
  -29.0355  -18.5064   20.0917 C   0  0  0  0  0  0
  -28.8637  -19.8879   19.8340 C   0  0  0  0  0  0
  -30.6044  -20.4181   21.4364 C   0  0  0  0  0  0
  -31.4942  -16.9739   22.3677 C   0  0  0  0  0  0
  -30.0090  -18.0413   21.0049 C   0  0  0  0  0  0
  -30.7894  -19.0386   21.6653 C   0  0  0  0  0  0
  -29.6524  -20.8667   20.4936 C   0  0  0  0  0  0
  -30.4813  -16.7592   21.4719 C   0  0  0  0  0  0
  -28.8878  -22.9793   19.3121 C   0  0  0  0  0  0
  -28.4797  -24.9806   21.6595 C   0  0  0  0  0  0
  -29.0442  -24.5201   19.3185 C   0  0  0  0  0  0
  -31.6707  -18.3450   22.4806 N   0  0  0  0  0  0
  -29.5478  -22.2822   20.2673 N   0  0  0  0  0  0
  -29.9774  -15.4790   21.1042 N   0  0  0  0  0  0
  -28.1625  -25.2578   20.2611 N   0  0  0  0  0  0
  -28.1903  -22.4650   18.4321 O   0  0  0  0  0  0
  -31.4664  -12.4425   19.0915 H   0  0  0  0  0  0
  -30.3596  -11.3077   19.8092 H   0  0  0  0  0  0
  -29.7280  -11.7534   17.4264 H   0  0  0  0  0  0
  -29.6416  -13.4679   17.7363 H   0  0  0  0  0  0
  -27.8396  -11.2865   18.8395 H   0  0  0  0  0  0
  -27.3526  -12.5869   17.7884 H   0  0  0  0  0  0
  -27.7044  -14.2389   19.5576 H   0  0  0  0  0  0
  -28.6898  -11.9426   21.3223 H   0  0  0  0  0  0
  -28.4644  -13.5745   21.8676 H   0  0  0  0  0  0
  -25.2744   -9.5695   22.4773 H   0  0  0  0  0  0
  -23.9994   -7.4633   22.7474 H   0  0  0  0  0  0
  -21.0846   -8.8754   19.8943 H   0  0  0  0  0  0
  -22.3670  -10.9675   19.6165 H   0  0  0  0  0  0
  -21.1986   -7.6138   23.9709 H   0  0  0  0  0  0
  -21.1465   -6.0518   25.9073 H   0  0  0  0  0  0
  -22.0613   -2.7601   23.2844 H   0  0  0  0  0  0
  -22.4099  -11.9913   22.4783 H   0  0  0  0  0  0
  -21.1105  -13.1282   22.2554 H   0  0  0  0  0  0
  -24.6530  -15.8278   20.4353 H   0  0  0  0  0  0
  -26.2622  -15.5940   19.9767 H   0  0  0  0  0  0
  -26.7126  -32.5532   23.1150 H   0  0  0  0  0  0
  -24.9998  -33.9732   25.0434 H   0  0  0  0  0  0
  -22.6988  -31.3071   21.4018 H   0  0  0  0  0  0
  -23.3760  -35.9632   23.3242 H   0  0  0  0  0  0
  -24.3604  -36.8967   22.2055 H   0  0  0  0  0  0
  -23.7229  -37.6491   23.6685 H   0  0  0  0  0  0
  -26.0441  -31.5849   20.5908 H   0  0  0  0  0  0
  -26.8236  -30.8838   21.9826 H   0  0  0  0  0  0
  -28.1076  -29.0713   21.1759 H   0  0  0  0  0  0
  -26.0694  -25.9927   18.9503 H   0  0  0  0  0  0
  -23.9897  -27.2934   19.0167 H   0  0  0  0  0  0
  -23.7310  -30.5893   19.4007 H   0  0  0  0  0  0
  -22.7416  -29.2353   19.8730 H   0  0  0  0  0  0
  -25.1258  -36.1939   25.0853 H   0  0  0  0  0  0
  -20.9954  -28.3267   24.1432 H   0  0  0  0  0  0
  -20.5653  -26.2297   23.3628 H   0  0  0  0  0  0
  -21.6614  -26.7442   22.1225 H   0  0  0  0  0  0
  -19.6912  -25.6333   21.1195 H   0  0  0  0  0  0
  -19.6692  -27.3247   20.6766 H   0  0  0  0  0  0
  -17.4193  -26.6723   21.3988 H   0  0  0  0  0  0
  -18.0248  -26.0091   22.8997 H   0  0  0  0  0  0
  -19.7948  -30.7221   24.2335 H   0  0  0  0  0  0
  -17.5036  -31.6283   24.5151 H   0  0  0  0  0  0
  -15.5358  -30.3008   23.7656 H   0  0  0  0  0  0
  -15.8660  -28.0875   22.7017 H   0  0  0  0  0  0
  -24.5881  -30.7093   25.7847 H   0  0  0  0  0  0
  -24.8949  -32.2922   26.4906 H   0  0  0  0  0  0
  -25.8074  -30.8923   27.0265 H   0  0  0  0  0  0
  -26.2730  -29.6787   24.1155 H   0  0  0  0  0  0
  -27.4001  -29.7216   25.4507 H   0  0  0  0  0  0
  -27.8590  -30.4259   23.9187 H   0  0  0  0  0  0
  -27.2758  -33.3658   26.1881 H   0  0  0  0  0  0
  -28.3967  -32.6580   25.0321 H   0  0  0  0  0  0
  -28.0588  -31.8431   26.5509 H   0  0  0  0  0  0
  -28.2539  -38.0133   24.7535 H   0  0  0  0  0  0
  -28.1120  -36.2657   24.6197 H   0  0  0  0  0  0
  -27.2316  -37.1336   25.8859 H   0  0  0  0  0  0
  -20.9307  -29.8843   21.6990 H   0  0  0  0  0  0
  -26.0169  -38.2845   24.1486 H   0  0  0  0  0  0
  -28.4356  -17.7791   19.5635 H   0  0  0  0  0  0
  -28.1090  -20.1710   19.1156 H   0  0  0  0  0  0
  -31.2222  -21.1210   21.9804 H   0  0  0  0  0  0
  -32.0986  -16.2728   22.9316 H   0  0  0  0  0  0
  -27.9778  -24.0672   21.9848 H   0  0  0  0  0  0
  -28.1393  -25.7885   22.3078 H   0  0  0  0  0  0
  -29.5507  -24.8502   21.8196 H   0  0  0  0  0  0
  -28.8306  -24.8683   18.3059 H   0  0  0  0  0  0
  -30.0900  -24.7720   19.5050 H   0  0  0  0  0  0
  -32.3828  -18.7615   23.0700 H   0  0  0  0  0  0
  -30.0857  -22.8622   20.8952 H   0  0  0  0  0  0
  -28.9954  -15.3034   21.2553 H   0  0  0  0  0  0
  1 25  1  0  0  0
  1 30  2  0  0  0
  1 84  1  0  0  0
  2  3  1  0  0  0
  2 25  1  0  0  0
  2 87  1  0  0  0
  2 88  1  0  0  0
  3  4  1  0  0  0
  3 89  1  0  0  0
  3 90  1  0  0  0
  4  5  1  0  0  0
  4 91  1  0  0  0
  4 92  1  0  0  0
  5  6  1  0  0  0
  5 26  1  0  0  0
  5 93  1  0  0  0
  6 25  1  0  0  0
  6 94  1  0  0  0
  6 95  1  0  0  0
  7  8  2  0  0  0
  7 26  1  0  0  0
  7 29  1  0  0  0
  8  9  1  0  0  0
  8 22  1  0  0  0
  9 10  1  0  0  0
  9 27  2  0  0  0
 10 11  2  0  0  0
 10 15  1  0  0  0
 11 12  1  0  0  0
 11 96  1  0  0  0
 12 13  2  0  0  0
 12 97  1  0  0  0
 13 14  1  0  0  0
 13 31  1  0  0  0
 14 15  2  0  0  0
 14 98  1  0  0  0
 15 99  1  0  0  0
 16 17  2  0  0  0
 16 21  1  0  0  0
 16 31  1  0  0  0
 17 18  1  0  0  0
 17100  1  0  0  0
 18 19  2  0  0  0
 18101  1  0  0  0
 19 20  1  0  0  0
 19 24  1  0  0  0
 20 21  2  0  0  0
 20102  1  0  0  0
 21 23  1  0  0  0
 22 28  1  0  0  0
 22 32  2  0  0  0
 26 27  1  0  0  0
 28103  1  0  0  0
 28104  1  0  0  0
 29105  1  0  0  0
 29106  1  0  0  0
 33 34  1  0  0  0
 33 66  1  0  0  0
 33 70  2  0  0  0
 34 36  1  0  0  0
 34 59  1  0  0  0
 34107  1  0  0  0
 35 44  2  0  0  0
 35 45  1  0  0  0
 35 68  1  0  0  0
 36 56  1  0  0  0
 36108  1  0  0  0
 37 39  1  0  0  0
 37 47  1  0  0  0
 37 66  1  0  0  0
 37109  1  0  0  0
 38 43  2  0  0  0
 38 46  1  0  0  0
 38 47  1  0  0  0
 39 64  1  0  0  0
 39 67  2  0  0  0
 40 52  1  0  0  0
 40 53  2  0  0  0
 40 58  1  0  0  0
 41110  1  0  0  0
 41111  1  0  0  0
 41112  1  0  0  0
 41 48  1  0  0  0
 42 43  1  0  0  0
 42 66  1  0  0  0
 42113  1  0  0  0
 42114  1  0  0  0
 43 44  1  0  0  0
 44115  1  0  0  0
 45 46  2  0  0  0
 45116  1  0  0  0
 46117  1  0  0  0
 47118  1  0  0  0
 47119  1  0  0  0
 48 56  1  0  0  0
 48 65  1  0  0  0
 48120  1  0  0  0
 49 50  1  0  0  0
 49 53  1  0  0  0
 49 64  1  0  0  0
 49121  1  0  0  0
 50 51  1  0  0  0
 50122  1  0  0  0
 50123  1  0  0  0
 51 52  1  0  0  0
 51124  1  0  0  0
 51125  1  0  0  0
 52126  1  0  0  0
 52127  1  0  0  0
 53 54  1  0  0  0
 54 55  2  0  0  0
 54128  1  0  0  0
 55 57  1  0  0  0
 55129  1  0  0  0
 56 69  2  0  0  0
 57 58  2  0  0  0
 57130  1  0  0  0
 58131  1  0  0  0
 59 60  1  0  0  0
 59 61  1  0  0  0
 59 62  1  0  0  0
 60132  1  0  0  0
 60133  1  0  0  0
 60134  1  0  0  0
 61135  1  0  0  0
 61136  1  0  0  0
 61137  1  0  0  0
 62138  1  0  0  0
 62139  1  0  0  0
 62140  1  0  0  0
 63 65  1  0  0  0
 63141  1  0  0  0
 63142  1  0  0  0
 63143  1  0  0  0
 64144  1  0  0  0
 65145  1  0  0  0
 68 85  1  0  0  0
 71 72  2  0  0  0
 71 75  1  0  0  0
 71146  1  0  0  0
 72 77  1  0  0  0
 72147  1  0  0  0
 73 76  1  0  0  0
 73 77  2  0  0  0
 73148  1  0  0  0
 74 78  2  0  0  0
 74 82  1  0  0  0
 74149  1  0  0  0
 75 76  2  0  0  0
 75 78  1  0  0  0
 76 82  1  0  0  0
 77 83  1  0  0  0
 78 84  1  0  0  0
 79 81  1  0  0  0
 79 83  1  0  0  0
 79 86  2  0  0  0
 80 85  1  0  0  0
 80150  1  0  0  0
 80151  1  0  0  0
 80152  1  0  0  0
 81 85  1  0  0  0
 81153  1  0  0  0
 81154  1  0  0  0
 82155  1  0  0  0
 83156  1  0  0  0
 84157  1  0  0  0
M  ISO  4   1 100  68 101  84 100  85 101
M  END
> <chiral flag>
0

> <version>
0

> <s_m_source_file>
/data/baiqing/PycharmProjects/Reinvent-master-3.2/result/LINK_invent/BTK/process_docking_weight1_custom_product_contain_oxygen_bond_distance_aromatic_linkinvent_7_9_3/rearranged_h_0159.sdf

> <i_m_source_file_index>
56

> <r_mmod_Potential_Energy-OPLS-2005>
-58.1709175109863

> <r_mmod_Stretch_Energy-OPLS-2005>
39.424934387207

> <r_mmod_Bend_Energy-OPLS-2005>
110.568267822266

> <r_mmod_Torsional_Energy-OPLS-2005>
235.936965942383

> <r_mmod_Improper_Torsional_Energy-OPLS-2005>
4.37997102737427

> <r_mmod_Van_der_Waal_Energy-OPLS-2005>
151.118423461914

> <r_mmod_Electrostatic_Energy-OPLS-2005>
-357.404815673828

> <r_mmod_Solvation_Energy-OPLS-2005>
-256.129913330078

> <b_mmod_Minimization_Converged-OPLS-2005>
0

> <r_mmod_RMS_Derivative-OPLS-2005>
4.49261140823364

$$$$
56
                    3D
 Structure written by MMmdl.
151159  0  0  1  0            999 V2000
  -30.6142  -14.7590   20.4493 C   0  0  0  0  0  0
  -30.4350  -12.4652   19.4641 C   0  0  0  0  0  0
  -29.5108  -12.5016   18.2294 C   0  0  0  0  0  0
  -28.0370  -12.3285   18.6455 C   0  0  0  0  0  0
  -27.6402  -13.2343   19.8422 C   0  0  2  0  0  0
  -28.6888  -13.1832   20.9740 C   0  0  0  0  0  0
  -25.2517  -13.8216   20.5687 C   0  0  0  0  0  0
  -24.1809  -13.0453   20.9224 C   0  0  0  0  0  0
  -24.6397  -11.6935   20.8756 C   0  0  0  0  0  0
  -23.9062  -10.4311   21.0413 C   0  0  0  0  0  0
  -24.3622   -9.4222   21.9179 C   0  0  0  0  0  0
  -23.6296   -8.2261   22.0741 C   0  0  0  0  0  0
  -22.4279   -8.0299   21.3541 C   0  0  0  0  0  0
  -21.9911   -9.0263   20.4641 C   0  0  0  0  0  0
  -22.7236  -10.2142   20.3054 C   0  0  0  0  0  0
  -21.6862   -6.0734   22.5270 C   0  0  0  0  0  0
  -21.4020   -6.5634   23.8205 C   0  0  0  0  0  0
  -21.3660   -5.6778   24.9161 C   0  0  0  0  0  0
  -21.6050   -4.3045   24.7199 C   0  0  0  0  0  0
  -21.8828   -3.8138   23.4321 C   0  0  0  0  0  0
  -21.9197   -4.6960   22.3381 C   0  0  0  0  0  0
  -22.7827  -13.5235   21.1866 C   0  0  0  0  0  0
  -22.1673   -4.2148   21.0957 F   0  0  0  0  0  0
  -21.5624   -3.4526   25.7712 F   0  0  0  0  0  0
  -29.9829  -13.5367   20.3790 N   0  0  0  0  0  0
  -26.2939  -12.9423   20.3260 N   0  0  0  0  0  0
  -25.9335  -11.6562   20.5758 N   0  0  0  0  0  0
  -22.0466  -12.8235   22.0434 N   0  0  0  0  0  0
  -25.4191  -15.1934   20.4055 N   0  0  0  0  0  0
  -31.8162  -14.8419   20.1861 O   0  0  0  0  0  0
  -21.6656   -6.8878   21.4239 O   0  0  0  0  0  0
  -22.3508  -14.5525   20.6691 O   0  0  0  0  0  0
  -24.6352  -31.8538   23.1972 C   0  0  0  0  0  0
  -25.9164  -32.4747   23.8313 C   0  0  1  0  0  0
  -27.2125  -27.2364   20.1062 C   0  0  0  0  0  0
  -25.5953  -33.8551   24.2241 N   0  0  0  0  0  0
  -23.4302  -30.4801   21.5436 C   0  0  2  0  0  0
  -24.8715  -28.9264   20.1126 C   0  0  0  0  0  0
  -22.7516  -29.4604   22.4912 C   0  0  0  0  0  0
  -18.0290  -28.1396   22.8492 C   0  0  0  0  0  0
  -24.1493  -36.7271   23.2640 C   0  0  0  0  0  0
  -25.9812  -30.7596   21.3776 C   0  0  0  0  0  0
  -26.0501  -29.3806   20.7163 C   0  0  0  0  0  0
  -27.2210  -28.5505   20.7006 C   0  0  0  0  0  0
  -25.9888  -26.8485   19.5105 C   0  0  0  0  0  0
  -24.8464  -27.6669   19.5030 C   0  0  0  0  0  0
  -23.6479  -29.8207   20.1590 C   0  0  0  0  0  0
  -25.4112  -36.3058   24.0331 C   0  0  1  0  0  0
  -20.5898  -28.3705   23.1277 C   0  0  2  0  0  0
  -20.6792  -26.9427   22.5410 C   0  0  0  0  0  0
  -19.5764  -26.6395   21.5225 C   0  0  0  0  0  0
  -18.1943  -26.7936   22.1635 C   0  0  0  0  0  0
  -19.1546  -28.8868   23.2879 C   0  0  0  0  0  0
  -18.9473  -30.1469   23.8899 C   0  0  0  0  0  0
  -17.6476  -30.6601   24.0565 C   0  0  0  0  0  0
  -25.9062  -34.9437   23.5085 C   0  0  0  0  0  0
  -16.5361  -29.9102   23.6341 C   0  0  0  0  0  0
  -16.7282  -28.6519   23.0363 C   0  0  0  0  0  0
  -26.4511  -31.6575   25.0712 C   0  0  0  0  0  0
  -25.3724  -31.3756   26.1429 C   0  0  0  0  0  0
  -27.0351  -30.2983   24.6207 C   0  0  0  0  0  0
  -27.6053  -32.4308   25.7493 C   0  0  0  0  0  0
  -27.5569  -37.1795   24.8470 C   0  0  0  0  0  0
  -21.4222  -29.3050   22.3662 N   0  0  0  0  0  0
  -26.4277  -37.3762   23.9421 N   0  0  0  0  0  0
  -24.7025  -31.0486   22.0955 N   0  0  0  0  0  0
  -23.4217  -28.8146   23.3007 O   0  0  0  0  0  0
  -28.3160  -26.3358   20.1405 O   0  0  0  0  0  0
  -26.5628  -34.8914   22.4654 O   0  0  0  0  0  0
  -23.5488  -32.1362   23.7263 O   0  0  0  0  0  0
  -29.5734  -18.8261   18.8653 C   0  0  0  0  0  0
  -29.7162  -18.6317   20.2192 C   0  0  0  0  0  0
  -29.1599  -20.9715   20.1161 C   0  0  0  0  0  0
  -30.2897  -17.3341   20.9295 C   0  0  0  0  0  0
  -29.2139  -23.7619   20.3012 C   0  0  0  0  0  0
  -28.2100  -24.8888   19.6721 C   0  0  2  0  0  0
  -28.4261  -24.8931   18.1259 C   0  0  0  0  0  0
  -29.4205  -19.8763   20.9004 N   0  0  0  0  0  0
  -28.8079  -22.3080   20.5500 N   0  0  0  0  0  0
  -29.8480  -15.9028   20.6219 N   0  0  0  0  0  0
  -28.2405  -23.6680   17.6320 F   0  0  0  0  0  0
  -27.5955  -25.7050   17.4757 F   0  0  0  0  0  0
  -29.6742  -25.2718   17.8412 F   0  0  0  0  0  0
  -29.2074  -20.4999   18.4200 S   0  0  0  0  0  0
  -31.4741  -12.5959   19.1579 H   0  0  0  0  0  0
  -30.3855  -11.4921   19.9551 H   0  0  0  0  0  0
  -29.7928  -11.7198   17.5242 H   0  0  0  0  0  0
  -29.6398  -13.4496   17.7032 H   0  0  0  0  0  0
  -27.8976  -11.2810   18.9138 H   0  0  0  0  0  0
  -27.3781  -12.5139   17.7956 H   0  0  0  0  0  0
  -27.6292  -14.2536   19.4545 H   0  0  0  0  0  0
  -28.7321  -12.1919   21.4272 H   0  0  0  0  0  0
  -28.4272  -13.8753   21.7764 H   0  0  0  0  0  0
  -25.2777   -9.5704   22.4734 H   0  0  0  0  0  0
  -24.0014   -7.4653   22.7460 H   0  0  0  0  0  0
  -21.0837   -8.8771   19.8952 H   0  0  0  0  0  0
  -22.3695  -10.9668   19.6153 H   0  0  0  0  0  0
  -21.2027   -7.6143   23.9703 H   0  0  0  0  0  0
  -21.1479   -6.0506   25.9057 H   0  0  0  0  0  0
  -22.0612   -2.7603   23.2808 H   0  0  0  0  0  0
  -22.4081  -11.9910   22.4844 H   0  0  0  0  0  0
  -21.1068  -13.1250   22.2618 H   0  0  0  0  0  0
  -24.6452  -15.8415   20.4987 H   0  0  0  0  0  0
  -26.2531  -15.6277   20.0317 H   0  0  0  0  0  0
  -26.7223  -32.5381   23.1043 H   0  0  0  0  0  0
  -25.0114  -33.9682   25.0397 H   0  0  0  0  0  0
  -22.7255  -31.3029   21.4012 H   0  0  0  0  0  0
  -23.3753  -35.9608   23.3300 H   0  0  0  0  0  0
  -24.3581  -36.8888   22.2053 H   0  0  0  0  0  0
  -23.7249  -37.6476   23.6657 H   0  0  0  0  0  0
  -26.1202  -31.5213   20.6093 H   0  0  0  0  0  0
  -26.8583  -30.8067   22.0118 H   0  0  0  0  0  0
  -28.1231  -28.9001   21.1835 H   0  0  0  0  0  0
  -25.8590  -25.8841   19.0474 H   0  0  0  0  0  0
  -23.9400  -27.3050   19.0375 H   0  0  0  0  0  0
  -23.7803  -30.6006   19.4080 H   0  0  0  0  0  0
  -22.7632  -29.2638   19.8477 H   0  0  0  0  0  0
  -25.1295  -36.1892   25.0821 H   0  0  0  0  0  0
  -20.9985  -28.3281   24.1400 H   0  0  0  0  0  0
  -20.5722  -26.2316   23.3606 H   0  0  0  0  0  0
  -21.6654  -26.7480   22.1179 H   0  0  0  0  0  0
  -19.6919  -25.6311   21.1250 H   0  0  0  0  0  0
  -19.6684  -27.3212   20.6759 H   0  0  0  0  0  0
  -17.4205  -26.6686   21.4041 H   0  0  0  0  0  0
  -18.0337  -26.0089   22.9043 H   0  0  0  0  0  0
  -19.7954  -30.7282   24.2274 H   0  0  0  0  0  0
  -17.5035  -31.6286   24.5157 H   0  0  0  0  0  0
  -15.5364  -30.3005   23.7672 H   0  0  0  0  0  0
  -15.8682  -28.0837   22.7084 H   0  0  0  0  0  0
  -24.5902  -30.7091   25.7779 H   0  0  0  0  0  0
  -24.8916  -32.2950   26.4789 H   0  0  0  0  0  0
  -25.8036  -30.8988   27.0245 H   0  0  0  0  0  0
  -26.2950  -29.6727   24.1201 H   0  0  0  0  0  0
  -27.4006  -29.7233   25.4728 H   0  0  0  0  0  0
  -27.8839  -30.4243   23.9472 H   0  0  0  0  0  0
  -27.2661  -33.3630   26.2015 H   0  0  0  0  0  0
  -28.3902  -32.6825   25.0349 H   0  0  0  0  0  0
  -28.0669  -31.8459   26.5456 H   0  0  0  0  0  0
  -28.2592  -38.0086   24.7506 H   0  0  0  0  0  0
  -28.1058  -36.2621   24.6305 H   0  0  0  0  0  0
  -27.2292  -37.1453   25.8873 H   0  0  0  0  0  0
  -20.9403  -29.8770   21.6863 H   0  0  0  0  0  0
  -26.0149  -38.2836   24.1415 H   0  0  0  0  0  0
  -29.7379  -18.0948   18.0840 H   0  0  0  0  0  0
  -30.1466  -17.4536   22.0026 H   0  0  0  0  0  0
  -31.3724  -17.3588   20.8031 H   0  0  0  0  0  0
  -29.5265  -24.1423   21.2742 H   0  0  0  0  0  0
  -30.1323  -23.7434   19.7127 H   0  0  0  0  0  0
  -27.2082  -24.5278   19.9046 H   0  0  0  0  0  0
  -28.3976  -22.2410   21.4759 H   0  0  0  0  0  0
  -28.8559  -15.7460   20.7068 H   0  0  0  0  0  0
  1 25  1  0  0  0
  1 30  2  0  0  0
  1 80  1  0  0  0
  2  3  1  0  0  0
  2 25  1  0  0  0
  2 85  1  0  0  0
  2 86  1  0  0  0
  3  4  1  0  0  0
  3 87  1  0  0  0
  3 88  1  0  0  0
  4  5  1  0  0  0
  4 89  1  0  0  0
  4 90  1  0  0  0
  5  6  1  0  0  0
  5 26  1  0  0  0
  5 91  1  0  0  0
  6 25  1  0  0  0
  6 92  1  0  0  0
  6 93  1  0  0  0
  7  8  2  0  0  0
  7 26  1  0  0  0
  7 29  1  0  0  0
  8  9  1  0  0  0
  8 22  1  0  0  0
  9 10  1  0  0  0
  9 27  2  0  0  0
 10 11  2  0  0  0
 10 15  1  0  0  0
 11 12  1  0  0  0
 11 94  1  0  0  0
 12 13  2  0  0  0
 12 95  1  0  0  0
 13 14  1  0  0  0
 13 31  1  0  0  0
 14 15  2  0  0  0
 14 96  1  0  0  0
 15 97  1  0  0  0
 16 17  2  0  0  0
 16 21  1  0  0  0
 16 31  1  0  0  0
 17 18  1  0  0  0
 17 98  1  0  0  0
 18 19  2  0  0  0
 18 99  1  0  0  0
 19 20  1  0  0  0
 19 24  1  0  0  0
 20 21  2  0  0  0
 20100  1  0  0  0
 21 23  1  0  0  0
 22 28  1  0  0  0
 22 32  2  0  0  0
 26 27  1  0  0  0
 28101  1  0  0  0
 28102  1  0  0  0
 29103  1  0  0  0
 29104  1  0  0  0
 33 34  1  0  0  0
 33 66  1  0  0  0
 33 70  2  0  0  0
 34 36  1  0  0  0
 34 59  1  0  0  0
 34105  1  0  0  0
 35 44  2  0  0  0
 35 45  1  0  0  0
 35 68  1  0  0  0
 36 56  1  0  0  0
 36106  1  0  0  0
 37 39  1  0  0  0
 37 47  1  0  0  0
 37 66  1  0  0  0
 37107  1  0  0  0
 38 43  2  0  0  0
 38 46  1  0  0  0
 38 47  1  0  0  0
 39 64  1  0  0  0
 39 67  2  0  0  0
 40 52  1  0  0  0
 40 53  2  0  0  0
 40 58  1  0  0  0
 41108  1  0  0  0
 41109  1  0  0  0
 41110  1  0  0  0
 41 48  1  0  0  0
 42 43  1  0  0  0
 42 66  1  0  0  0
 42111  1  0  0  0
 42112  1  0  0  0
 43 44  1  0  0  0
 44113  1  0  0  0
 45 46  2  0  0  0
 45114  1  0  0  0
 46115  1  0  0  0
 47116  1  0  0  0
 47117  1  0  0  0
 48 56  1  0  0  0
 48 65  1  0  0  0
 48118  1  0  0  0
 49 50  1  0  0  0
 49 53  1  0  0  0
 49 64  1  0  0  0
 49119  1  0  0  0
 50 51  1  0  0  0
 50120  1  0  0  0
 50121  1  0  0  0
 51 52  1  0  0  0
 51122  1  0  0  0
 51123  1  0  0  0
 52124  1  0  0  0
 52125  1  0  0  0
 53 54  1  0  0  0
 54 55  2  0  0  0
 54126  1  0  0  0
 55 57  1  0  0  0
 55127  1  0  0  0
 56 69  2  0  0  0
 57 58  2  0  0  0
 57128  1  0  0  0
 58129  1  0  0  0
 59 60  1  0  0  0
 59 61  1  0  0  0
 59 62  1  0  0  0
 60130  1  0  0  0
 60131  1  0  0  0
 60132  1  0  0  0
 61133  1  0  0  0
 61134  1  0  0  0
 61135  1  0  0  0
 62136  1  0  0  0
 62137  1  0  0  0
 62138  1  0  0  0
 63 65  1  0  0  0
 63139  1  0  0  0
 63140  1  0  0  0
 63141  1  0  0  0
 64142  1  0  0  0
 65143  1  0  0  0
 68 76  1  0  0  0
 71 72  2  0  0  0
 71 84  1  0  0  0
 71144  1  0  0  0
 72 74  1  0  0  0
 72 78  1  0  0  0
 73 78  2  0  0  0
 73 79  1  0  0  0
 73 84  1  0  0  0
 74 80  1  0  0  0
 74145  1  0  0  0
 74146  1  0  0  0
 75 79  1  0  0  0
 75147  1  0  0  0
 75148  1  0  0  0
 75 76  1  0  0  0
 76 77  1  0  0  0
 76149  1  0  0  0
 77 81  1  0  0  0
 77 82  1  0  0  0
 77 83  1  0  0  0
 79150  1  0  0  0
 80151  1  0  0  0
M  ISO  4   1 100  68 101  76 101  80 100
M  END
> <chiral flag>
0

> <version>
0

> <s_m_source_file>
/data/baiqing/PycharmProjects/Reinvent-master-3.2/result/LINK_invent/BTK/process_docking_weight1_custom_product_contain_oxygen_bond_distance_aromatic_linkinvent_7_9_3/rearranged_h_0159.sdf

> <i_m_source_file_index>
57

> <r_mmod_Potential_Energy-OPLS-2005>
97.3193893432617

> <r_mmod_Stretch_Energy-OPLS-2005>
129.659790039062

> <r_mmod_Bend_Energy-OPLS-2005>
177.687149047852

> <r_mmod_Torsional_Energy-OPLS-2005>
217.474182128906

> <r_mmod_Improper_Torsional_Energy-OPLS-2005>
6.82589769363403

> <r_mmod_Van_der_Waal_Energy-OPLS-2005>
120.891067504883

> <r_mmod_Electrostatic_Energy-OPLS-2005>
-427.582702636719

> <r_mmod_Solvation_Energy-OPLS-2005>
-223.533966064453

> <b_mmod_Minimization_Converged-OPLS-2005>
0

> <r_mmod_RMS_Derivative-OPLS-2005>
2.43827962875366

$$$$
57
                    3D
 Structure written by MMmdl.
158167  0  0  1  0            999 V2000
  -30.6765  -14.5680   20.4619 C   0  0  0  0  0  0
  -30.4133  -12.3341   19.4606 C   0  0  0  0  0  0
  -29.5001  -12.4881   18.2265 C   0  0  0  0  0  0
  -28.0209  -12.3497   18.6338 C   0  0  0  0  0  0
  -27.6487  -13.2230   19.8621 C   0  0  2  0  0  0
  -28.6919  -13.0904   20.9947 C   0  0  0  0  0  0
  -25.2531  -13.8185   20.5709 C   0  0  0  0  0  0
  -24.1813  -13.0433   20.9202 C   0  0  0  0  0  0
  -24.6383  -11.6912   20.8739 C   0  0  0  0  0  0
  -23.9056  -10.4292   21.0394 C   0  0  0  0  0  0
  -24.3609   -9.4206   21.9167 C   0  0  0  0  0  0
  -23.6290   -8.2243   22.0738 C   0  0  0  0  0  0
  -22.4270   -8.0280   21.3538 C   0  0  0  0  0  0
  -21.9900   -9.0251   20.4639 C   0  0  0  0  0  0
  -22.7227  -10.2130   20.3045 C   0  0  0  0  0  0
  -21.6851   -6.0738   22.5284 C   0  0  0  0  0  0
  -21.4029   -6.5644   23.8221 C   0  0  0  0  0  0
  -21.3663   -5.6796   24.9177 C   0  0  0  0  0  0
  -21.6037   -4.3055   24.7222 C   0  0  0  0  0  0
  -21.8822   -3.8144   23.4345 C   0  0  0  0  0  0
  -21.9199   -4.6964   22.3406 C   0  0  0  0  0  0
  -22.7835  -13.5222   21.1851 C   0  0  0  0  0  0
  -22.1669   -4.2153   21.0978 F   0  0  0  0  0  0
  -21.5602   -3.4534   25.7728 F   0  0  0  0  0  0
  -30.0156  -13.3742   20.4268 N   0  0  0  0  0  0
  -26.2965  -12.9380   20.3334 N   0  0  0  0  0  0
  -25.9316  -11.6531   20.5766 N   0  0  0  0  0  0
  -22.0469  -12.8230   22.0413 N   0  0  0  0  0  0
  -25.4185  -15.1920   20.4151 N   0  0  0  0  0  0
  -31.8671  -14.6562   20.1533 O   0  0  0  0  0  0
  -21.6632   -6.8881   21.4247 O   0  0  0  0  0  0
  -22.3543  -14.5533   20.6700 O   0  0  0  0  0  0
  -24.6208  -31.8658   23.2080 C   0  0  0  0  0  0
  -25.9075  -32.4814   23.8397 C   0  0  1  0  0  0
  -27.2309  -27.3760   20.1072 C   0  0  0  0  0  0
  -25.5906  -33.8615   24.2325 N   0  0  0  0  0  0
  -23.4132  -30.4906   21.5504 C   0  0  2  0  0  0
  -24.8592  -28.9565   20.1133 C   0  0  0  0  0  0
  -22.7457  -29.4650   22.4964 C   0  0  0  0  0  0
  -18.0285  -28.1376   22.8491 C   0  0  0  0  0  0
  -24.1478  -36.7307   23.2639 C   0  0  0  0  0  0
  -25.9502  -30.8130   21.3719 C   0  0  0  0  0  0
  -26.0264  -29.4463   20.7127 C   0  0  0  0  0  0
  -27.2157  -28.6678   20.7015 C   0  0  0  0  0  0
  -26.0391  -26.9288   19.4835 C   0  0  0  0  0  0
  -24.8643  -27.6996   19.4923 C   0  0  0  0  0  0
  -23.6255  -29.8302   20.1637 C   0  0  0  0  0  0
  -25.4107  -36.3114   24.0340 C   0  0  1  0  0  0
  -20.5882  -28.3685   23.1286 C   0  0  2  0  0  0
  -20.6775  -26.9416   22.5407 C   0  0  0  0  0  0
  -19.5749  -26.6386   21.5210 C   0  0  0  0  0  0
  -18.1931  -26.7916   22.1633 C   0  0  0  0  0  0
  -19.1535  -28.8851   23.2882 C   0  0  0  0  0  0
  -18.9462  -30.1445   23.8908 C   0  0  0  0  0  0
  -17.6463  -30.6587   24.0570 C   0  0  0  0  0  0
  -25.9038  -34.9475   23.5133 C   0  0  0  0  0  0
  -16.5357  -29.9095   23.6315 C   0  0  0  0  0  0
  -16.7271  -28.6503   23.0358 C   0  0  0  0  0  0
  -26.4471  -31.6608   25.0744 C   0  0  0  0  0  0
  -25.3717  -31.3753   26.1482 C   0  0  0  0  0  0
  -27.0299  -30.3040   24.6156 C   0  0  0  0  0  0
  -27.6045  -32.4338   25.7503 C   0  0  0  0  0  0
  -27.5577  -37.1818   24.8470 C   0  0  0  0  0  0
  -21.4185  -29.3043   22.3695 N   0  0  0  0  0  0
  -26.4296  -37.3798   23.9406 N   0  0  0  0  0  0
  -24.6802  -31.0710   22.1010 N   0  0  0  0  0  0
  -23.4194  -28.8195   23.3040 O   0  0  0  0  0  0
  -28.3608  -26.5591   20.1620 O   0  0  0  0  0  0
  -26.5609  -34.8925   22.4698 O   0  0  0  0  0  0
  -23.5381  -32.1441   23.7428 O   0  0  0  0  0  0
  -30.7480  -18.0173   17.7532 C   0  0  0  0  0  0
  -30.6254  -16.8727   18.5583 C   0  0  0  0  0  0
  -29.6571  -18.2231   20.3668 C   0  0  0  0  0  0
  -30.3118  -19.2461   18.2638 C   0  0  0  0  0  0
  -29.7741  -19.3906   19.5412 C   0  0  0  0  0  0
  -30.0883  -16.9364   19.8733 C   0  0  0  0  0  0
  -29.2211  -24.1680   20.5431 C   0  0  0  0  0  0
  -30.3528  -20.5392   17.5265 C   0  0  0  0  0  0
  -29.6370  -21.4716   18.5032 C   0  0  0  0  0  0
  -28.7916  -22.8123   21.1896 C   0  0  0  0  0  0
  -28.0770  -25.1267   20.1060 C   0  0  0  0  0  0
  -29.6340  -21.4890   21.0011 C   0  0  0  0  0  0
  -29.3672  -20.7449   19.7558 N   0  0  0  0  0  0
  -29.9214  -15.6942   20.6158 N   0  0  0  0  0  0
  -30.4107  -24.4628   20.3860 O   0  0  0  0  0  0
  -31.4615  -12.4108   19.1668 H   0  0  0  0  0  0
  -30.2980  -11.3431   19.9047 H   0  0  0  0  0  0
  -29.7463  -11.7364   17.4766 H   0  0  0  0  0  0
  -29.6697  -13.4587   17.7567 H   0  0  0  0  0  0
  -27.8444  -11.2978   18.8624 H   0  0  0  0  0  0
  -27.3729  -12.5863   17.7895 H   0  0  0  0  0  0
  -27.6625  -14.2567   19.5185 H   0  0  0  0  0  0
  -28.6767  -12.0828   21.4146 H   0  0  0  0  0  0
  -28.4581  -13.7671   21.8182 H   0  0  0  0  0  0
  -25.2739   -9.5677   22.4768 H   0  0  0  0  0  0
  -23.9981   -7.4627   22.7465 H   0  0  0  0  0  0
  -21.0817   -8.8769   19.8959 H   0  0  0  0  0  0
  -22.3659  -10.9674   19.6170 H   0  0  0  0  0  0
  -21.2044   -7.6159   23.9736 H   0  0  0  0  0  0
  -21.1473   -6.0512   25.9082 H   0  0  0  0  0  0
  -22.0596   -2.7607   23.2841 H   0  0  0  0  0  0
  -22.4085  -11.9918   22.4851 H   0  0  0  0  0  0
  -21.1085  -13.1277   22.2603 H   0  0  0  0  0  0
  -24.6388  -15.8337   20.5164 H   0  0  0  0  0  0
  -26.2604  -15.6424   20.0801 H   0  0  0  0  0  0
  -26.7147  -32.5504   23.1158 H   0  0  0  0  0  0
  -25.0052  -33.9776   25.0469 H   0  0  0  0  0  0
  -22.7051  -31.3100   21.4112 H   0  0  0  0  0  0
  -23.3737  -35.9643   23.3331 H   0  0  0  0  0  0
  -24.3563  -36.8891   22.2048 H   0  0  0  0  0  0
  -23.7224  -37.6522   23.6630 H   0  0  0  0  0  0
  -26.0735  -31.5785   20.6047 H   0  0  0  0  0  0
  -26.8335  -30.8607   21.9975 H   0  0  0  0  0  0
  -28.1108  -29.0428   21.1783 H   0  0  0  0  0  0
  -25.9824  -25.9717   18.9865 H   0  0  0  0  0  0
  -23.9693  -27.3185   19.0199 H   0  0  0  0  0  0
  -23.7461  -30.6104   19.4115 H   0  0  0  0  0  0
  -22.7471  -29.2604   19.8558 H   0  0  0  0  0  0
  -25.1276  -36.1998   25.0834 H   0  0  0  0  0  0
  -20.9958  -28.3251   24.1412 H   0  0  0  0  0  0
  -20.5681  -26.2304   23.3606 H   0  0  0  0  0  0
  -21.6644  -26.7451   22.1198 H   0  0  0  0  0  0
  -19.6921  -25.6298   21.1238 H   0  0  0  0  0  0
  -19.6676  -27.3201   20.6741 H   0  0  0  0  0  0
  -17.4195  -26.6647   21.4043 H   0  0  0  0  0  0
  -18.0352  -26.0058   22.9034 H   0  0  0  0  0  0
  -19.7944  -30.7246   24.2298 H   0  0  0  0  0  0
  -17.5028  -31.6261   24.5183 H   0  0  0  0  0  0
  -15.5362  -30.3018   23.7618 H   0  0  0  0  0  0
  -15.8666  -28.0818   22.7089 H   0  0  0  0  0  0
  -24.5870  -30.7123   25.7818 H   0  0  0  0  0  0
  -24.8930  -32.2928   26.4919 H   0  0  0  0  0  0
  -25.8041  -30.8924   27.0253 H   0  0  0  0  0  0
  -26.2858  -29.6824   24.1159 H   0  0  0  0  0  0
  -27.3997  -29.7260   25.4635 H   0  0  0  0  0  0
  -27.8727  -30.4349   23.9364 H   0  0  0  0  0  0
  -27.2667  -33.3651   26.2061 H   0  0  0  0  0  0
  -28.3855  -32.6881   25.0327 H   0  0  0  0  0  0
  -28.0699  -31.8474   26.5435 H   0  0  0  0  0  0
  -28.2622  -38.0091   24.7489 H   0  0  0  0  0  0
  -28.1045  -36.2621   24.6332 H   0  0  0  0  0  0
  -27.2286  -37.1506   25.8874 H   0  0  0  0  0  0
  -20.9378  -29.8769   21.6897 H   0  0  0  0  0  0
  -26.0188  -38.2881   24.1399 H   0  0  0  0  0  0
  -31.1530  -17.9483   16.7540 H   0  0  0  0  0  0
  -30.9393  -15.9340   18.1253 H   0  0  0  0  0  0
  -29.2158  -18.3044   21.3496 H   0  0  0  0  0  0
  -29.8488  -20.4823   16.5604 H   0  0  0  0  0  0
  -31.3889  -20.8424   17.3703 H   0  0  0  0  0  0
  -28.6937  -21.8159   18.0789 H   0  0  0  0  0  0
  -30.2551  -22.3534   18.6770 H   0  0  0  0  0  0
  -27.7506  -22.6229   20.9336 H   0  0  0  0  0  0
  -28.7872  -23.0247   22.2586 H   0  0  0  0  0  0
  -27.2169  -24.9104   20.7411 H   0  0  0  0  0  0
  -27.8105  -24.8549   19.0847 H   0  0  0  0  0  0
  -29.4108  -20.8296   21.8415 H   0  0  0  0  0  0
  -30.7016  -21.7064   21.0731 H   0  0  0  0  0  0
  -29.0276  -15.5638   21.0649 H   0  0  0  0  0  0
  1 25  1  0  0  0
  1 30  2  0  0  0
  1 84  1  0  0  0
  2  3  1  0  0  0
  2 25  1  0  0  0
  2 86  1  0  0  0
  2 87  1  0  0  0
  3  4  1  0  0  0
  3 88  1  0  0  0
  3 89  1  0  0  0
  4  5  1  0  0  0
  4 90  1  0  0  0
  4 91  1  0  0  0
  5  6  1  0  0  0
  5 26  1  0  0  0
  5 92  1  0  0  0
  6 25  1  0  0  0
  6 93  1  0  0  0
  6 94  1  0  0  0
  7  8  2  0  0  0
  7 26  1  0  0  0
  7 29  1  0  0  0
  8  9  1  0  0  0
  8 22  1  0  0  0
  9 10  1  0  0  0
  9 27  2  0  0  0
 10 11  2  0  0  0
 10 15  1  0  0  0
 11 12  1  0  0  0
 11 95  1  0  0  0
 12 13  2  0  0  0
 12 96  1  0  0  0
 13 14  1  0  0  0
 13 31  1  0  0  0
 14 15  2  0  0  0
 14 97  1  0  0  0
 15 98  1  0  0  0
 16 17  2  0  0  0
 16 21  1  0  0  0
 16 31  1  0  0  0
 17 18  1  0  0  0
 17 99  1  0  0  0
 18 19  2  0  0  0
 18100  1  0  0  0
 19 20  1  0  0  0
 19 24  1  0  0  0
 20 21  2  0  0  0
 20101  1  0  0  0
 21 23  1  0  0  0
 22 28  1  0  0  0
 22 32  2  0  0  0
 26 27  1  0  0  0
 28102  1  0  0  0
 28103  1  0  0  0
 29104  1  0  0  0
 29105  1  0  0  0
 33 34  1  0  0  0
 33 66  1  0  0  0
 33 70  2  0  0  0
 34 36  1  0  0  0
 34 59  1  0  0  0
 34106  1  0  0  0
 35 44  2  0  0  0
 35 45  1  0  0  0
 35 68  1  0  0  0
 36 56  1  0  0  0
 36107  1  0  0  0
 37 39  1  0  0  0
 37 47  1  0  0  0
 37 66  1  0  0  0
 37108  1  0  0  0
 38 43  2  0  0  0
 38 46  1  0  0  0
 38 47  1  0  0  0
 39 64  1  0  0  0
 39 67  2  0  0  0
 40 52  1  0  0  0
 40 53  2  0  0  0
 40 58  1  0  0  0
 41109  1  0  0  0
 41110  1  0  0  0
 41111  1  0  0  0
 41 48  1  0  0  0
 42 43  1  0  0  0
 42 66  1  0  0  0
 42112  1  0  0  0
 42113  1  0  0  0
 43 44  1  0  0  0
 44114  1  0  0  0
 45 46  2  0  0  0
 45115  1  0  0  0
 46116  1  0  0  0
 47117  1  0  0  0
 47118  1  0  0  0
 48 56  1  0  0  0
 48 65  1  0  0  0
 48119  1  0  0  0
 49 50  1  0  0  0
 49 53  1  0  0  0
 49 64  1  0  0  0
 49120  1  0  0  0
 50 51  1  0  0  0
 50121  1  0  0  0
 50122  1  0  0  0
 51 52  1  0  0  0
 51123  1  0  0  0
 51124  1  0  0  0
 52125  1  0  0  0
 52126  1  0  0  0
 53 54  1  0  0  0
 54 55  2  0  0  0
 54127  1  0  0  0
 55 57  1  0  0  0
 55128  1  0  0  0
 56 69  2  0  0  0
 57 58  2  0  0  0
 57129  1  0  0  0
 58130  1  0  0  0
 59 60  1  0  0  0
 59 61  1  0  0  0
 59 62  1  0  0  0
 60131  1  0  0  0
 60132  1  0  0  0
 60133  1  0  0  0
 61134  1  0  0  0
 61135  1  0  0  0
 61136  1  0  0  0
 62137  1  0  0  0
 62138  1  0  0  0
 62139  1  0  0  0
 63 65  1  0  0  0
 63140  1  0  0  0
 63141  1  0  0  0
 63142  1  0  0  0
 64143  1  0  0  0
 65144  1  0  0  0
 68 81  1  0  0  0
 71 72  2  0  0  0
 71 74  1  0  0  0
 71145  1  0  0  0
 72 76  1  0  0  0
 72146  1  0  0  0
 73 75  1  0  0  0
 73 76  2  0  0  0
 73147  1  0  0  0
 74 75  2  0  0  0
 74 78  1  0  0  0
 75 83  1  0  0  0
 76 84  1  0  0  0
 77 80  1  0  0  0
 77 81  1  0  0  0
 77 85  2  0  0  0
 78 79  1  0  0  0
 78148  1  0  0  0
 78149  1  0  0  0
 79 83  1  0  0  0
 79150  1  0  0  0
 79151  1  0  0  0
 80 82  1  0  0  0
 80152  1  0  0  0
 80153  1  0  0  0
 81154  1  0  0  0
 81155  1  0  0  0
 82 83  1  0  0  0
 82156  1  0  0  0
 82157  1  0  0  0
 84158  1  0  0  0
M  ISO  4   1 100  68 101  81 101  84 100
M  END
> <chiral flag>
0

> <version>
0

> <s_m_source_file>
/data/baiqing/PycharmProjects/Reinvent-master-3.2/result/LINK_invent/BTK/process_docking_weight1_custom_product_contain_oxygen_bond_distance_aromatic_linkinvent_7_9_3/rearranged_h_0159.sdf

> <i_m_source_file_index>
58

> <r_mmod_Potential_Energy-OPLS-2005>
95.2107925415039

> <r_mmod_Stretch_Energy-OPLS-2005>
61.9740715026855

> <r_mmod_Bend_Energy-OPLS-2005>
162.721420288086

> <r_mmod_Torsional_Energy-OPLS-2005>
241.939712524414

> <r_mmod_Improper_Torsional_Energy-OPLS-2005>
10.4476165771484

> <r_mmod_Van_der_Waal_Energy-OPLS-2005>
147.974426269531

> <r_mmod_Electrostatic_Energy-OPLS-2005>
-312.719512939453

> <r_mmod_Solvation_Energy-OPLS-2005>
-250.757629394531

> <b_mmod_Minimization_Converged-OPLS-2005>
0

> <r_mmod_RMS_Derivative-OPLS-2005>
2.34992933273315

$$$$
58
                    3D
 Structure written by MMmdl.
158166  0  0  1  0            999 V2000
  -30.6403  -14.7223   20.4455 C   0  0  0  0  0  0
  -30.4167  -12.4394   19.4733 C   0  0  0  0  0  0
  -29.5021  -12.5117   18.2300 C   0  0  0  0  0  0
  -28.0262  -12.3406   18.6361 C   0  0  0  0  0  0
  -27.6362  -13.2345   19.8444 C   0  0  2  0  0  0
  -28.6794  -13.1702   20.9838 C   0  0  0  0  0  0
  -25.2496  -13.8207   20.5705 C   0  0  0  0  0  0
  -24.1799  -13.0435   20.9227 C   0  0  0  0  0  0
  -24.6392  -11.6926   20.8739 C   0  0  0  0  0  0
  -23.9066  -10.4305   21.0404 C   0  0  0  0  0  0
  -24.3640   -9.4220   21.9161 C   0  0  0  0  0  0
  -23.6312   -8.2258   22.0740 C   0  0  0  0  0  0
  -22.4287   -8.0300   21.3539 C   0  0  0  0  0  0
  -21.9922   -9.0260   20.4620 C   0  0  0  0  0  0
  -22.7249  -10.2138   20.3032 C   0  0  0  0  0  0
  -21.6869   -6.0749   22.5276 C   0  0  0  0  0  0
  -21.4025   -6.5644   23.8208 C   0  0  0  0  0  0
  -21.3652   -5.6785   24.9164 C   0  0  0  0  0  0
  -21.6037   -4.3050   24.7209 C   0  0  0  0  0  0
  -21.8826   -3.8157   23.4325 C   0  0  0  0  0  0
  -21.9203   -4.6979   22.3390 C   0  0  0  0  0  0
  -22.7827  -13.5212   21.1874 C   0  0  0  0  0  0
  -22.1675   -4.2167   21.0973 F   0  0  0  0  0  0
  -21.5618   -3.4526   25.7725 F   0  0  0  0  0  0
  -29.9861  -13.5083   20.4082 N   0  0  0  0  0  0
  -26.2896  -12.9408   20.3225 N   0  0  0  0  0  0
  -25.9317  -11.6550   20.5721 N   0  0  0  0  0  0
  -22.0507  -12.8158   22.0416 N   0  0  0  0  0  0
  -25.4208  -15.1932   20.4149 N   0  0  0  0  0  0
  -31.8266  -14.7848   20.1074 O   0  0  0  0  0  0
  -21.6657   -6.8896   21.4245 O   0  0  0  0  0  0
  -22.3504  -14.5517   20.6739 O   0  0  0  0  0  0
  -24.6316  -31.8580   23.1995 C   0  0  0  0  0  0
  -25.9149  -32.4771   23.8333 C   0  0  1  0  0  0
  -27.2166  -27.2580   20.1257 C   0  0  0  0  0  0
  -25.5962  -33.8576   24.2267 N   0  0  0  0  0  0
  -23.4271  -30.4802   21.5441 C   0  0  2  0  0  0
  -24.8748  -28.9319   20.1058 C   0  0  0  0  0  0
  -22.7500  -29.4620   22.4933 C   0  0  0  0  0  0
  -18.0288  -28.1389   22.8483 C   0  0  0  0  0  0
  -24.1497  -36.7284   23.2624 C   0  0  0  0  0  0
  -25.9750  -30.7645   21.3837 C   0  0  0  0  0  0
  -26.0442  -29.3875   20.7264 C   0  0  0  0  0  0
  -27.2137  -28.5609   20.7324 C   0  0  0  0  0  0
  -26.0297  -26.8893   19.4466 C   0  0  0  0  0  0
  -24.8749  -27.6933   19.4525 C   0  0  0  0  0  0
  -23.6429  -29.8136   20.1602 C   0  0  0  0  0  0
  -25.4128  -36.3092   24.0316 C   0  0  1  0  0  0
  -20.5892  -28.3711   23.1275 C   0  0  2  0  0  0
  -20.6794  -26.9435   22.5406 C   0  0  0  0  0  0
  -19.5761  -26.6385   21.5219 C   0  0  0  0  0  0
  -18.1935  -26.7927   22.1624 C   0  0  0  0  0  0
  -19.1541  -28.8867   23.2870 C   0  0  0  0  0  0
  -18.9460  -30.1468   23.8881 C   0  0  0  0  0  0
  -17.6462  -30.6595   24.0551 C   0  0  0  0  0  0
  -25.9074  -34.9454   23.5101 C   0  0  0  0  0  0
  -16.5354  -29.9086   23.6326 C   0  0  0  0  0  0
  -16.7278  -28.6503   23.0351 C   0  0  0  0  0  0
  -26.4471  -31.6592   25.0733 C   0  0  0  0  0  0
  -25.3647  -31.3776   26.1424 C   0  0  0  0  0  0
  -27.0295  -30.2995   24.6233 C   0  0  0  0  0  0
  -27.6036  -32.4307   25.7520 C   0  0  0  0  0  0
  -27.5593  -37.1802   24.8454 C   0  0  0  0  0  0
  -21.4208  -29.3056   22.3666 N   0  0  0  0  0  0
  -26.4309  -37.3790   23.9397 N   0  0  0  0  0  0
  -24.6970  -31.0519   22.0982 N   0  0  0  0  0  0
  -23.4208  -28.8156   23.3023 O   0  0  0  0  0  0
  -28.3076  -26.3571   20.2299 O   0  0  0  0  0  0
  -26.5627  -34.8929   22.4661 O   0  0  0  0  0  0
  -23.5468  -32.1418   23.7288 O   0  0  0  0  0  0
  -29.7580  -18.7416   22.1747 C   0  0  0  0  0  0
  -29.3936  -19.8149   20.0448 C   0  0  0  0  0  0
  -29.5149  -20.0041   22.7541 C   0  0  0  0  0  0
  -29.7227  -18.6032   20.7762 C   0  0  0  0  0  0
  -29.1614  -21.0779   20.7103 C   0  0  0  0  0  0
  -30.1743  -17.2854   20.1433 C   0  0  0  0  0  0
  -28.6640  -24.9294   18.3296 C   0  0  0  0  0  0
  -31.3574  -16.6257   17.9319 C   0  0  0  0  0  0
  -28.9405  -23.7213   20.5971 C   0  0  0  0  0  0
  -28.1991  -24.9189   19.7936 C   0  0  1  0  0  0
  -29.2385  -21.1330   22.0536 N   0  0  0  0  0  0
  -28.8318  -22.3118   20.0386 N   0  0  0  0  0  0
  -29.8967  -16.0057   20.6538 N   0  0  0  0  0  0
  -30.8803  -17.5132   19.0061 N   0  3  0  0  0  0
  -31.4603  -12.5399   19.1708 H   0  0  0  0  0  0
  -30.3404  -11.4600   19.9486 H   0  0  0  0  0  0
  -29.7795  -11.7500   17.4995 H   0  0  0  0  0  0
  -29.6392  -13.4745   17.7347 H   0  0  0  0  0  0
  -27.8669  -11.2902   18.8833 H   0  0  0  0  0  0
  -27.3746  -12.5475   17.7860 H   0  0  0  0  0  0
  -27.6254  -14.2538   19.4597 H   0  0  0  0  0  0
  -28.7072  -12.1748   21.4281 H   0  0  0  0  0  0
  -28.4153  -13.8554   21.7903 H   0  0  0  0  0  0
  -25.2803   -9.5709   22.4697 H   0  0  0  0  0  0
  -24.0027   -7.4658   22.7458 H   0  0  0  0  0  0
  -21.0851   -8.8770   19.8924 H   0  0  0  0  0  0
  -22.3712  -10.9665   19.6128 H   0  0  0  0  0  0
  -21.2032   -7.6156   23.9712 H   0  0  0  0  0  0
  -21.1455   -6.0524   25.9060 H   0  0  0  0  0  0
  -22.0615   -2.7623   23.2823 H   0  0  0  0  0  0
  -22.4196  -11.9810   22.4737 H   0  0  0  0  0  0
  -21.1121  -13.1129   22.2643 H   0  0  0  0  0  0
  -24.6594  -15.8498   20.5505 H   0  0  0  0  0  0
  -26.2440  -15.6280   20.0202 H   0  0  0  0  0  0
  -26.7208  -32.5398   23.1064 H   0  0  0  0  0  0
  -25.0127  -33.9715   25.0421 H   0  0  0  0  0  0
  -22.7225  -31.3024   21.3988 H   0  0  0  0  0  0
  -23.3789  -35.9588   23.3280 H   0  0  0  0  0  0
  -24.3591  -36.8929   22.2046 H   0  0  0  0  0  0
  -23.7219  -37.6465   23.6654 H   0  0  0  0  0  0
  -26.1155  -31.5203   20.6094 H   0  0  0  0  0  0
  -26.8520  -30.8156   22.0179 H   0  0  0  0  0  0
  -28.1002  -28.9039   21.2467 H   0  0  0  0  0  0
  -25.9481  -25.9609   18.9036 H   0  0  0  0  0  0
  -23.9841  -27.3490   18.9439 H   0  0  0  0  0  0
  -23.7582  -30.5878   19.4031 H   0  0  0  0  0  0
  -22.7626  -29.2409   19.8606 H   0  0  0  0  0  0
  -25.1305  -36.1953   25.0809 H   0  0  0  0  0  0
  -20.9969  -28.3299   24.1402 H   0  0  0  0  0  0
  -20.5727  -26.2318   23.3608 H   0  0  0  0  0  0
  -21.6654  -26.7472   22.1173 H   0  0  0  0  0  0
  -19.6935  -25.6288   21.1258 H   0  0  0  0  0  0
  -19.6700  -27.3183   20.6738 H   0  0  0  0  0  0
  -17.4205  -26.6677   21.4028 H   0  0  0  0  0  0
  -18.0337  -26.0072   22.9022 H   0  0  0  0  0  0
  -19.7938  -30.7286   24.2259 H   0  0  0  0  0  0
  -17.5010  -31.6268   24.5164 H   0  0  0  0  0  0
  -15.5351  -30.2981   23.7659 H   0  0  0  0  0  0
  -15.8677  -28.0812   22.7078 H   0  0  0  0  0  0
  -24.5859  -30.7089   25.7729 H   0  0  0  0  0  0
  -24.8764  -32.2956   26.4710 H   0  0  0  0  0  0
  -25.7912  -30.9039   27.0278 H   0  0  0  0  0  0
  -26.2885  -29.6781   24.1191 H   0  0  0  0  0  0
  -27.3882  -29.7232   25.4769 H   0  0  0  0  0  0
  -27.8809  -30.4237   23.9544 H   0  0  0  0  0  0
  -27.2663  -33.3622   26.2074 H   0  0  0  0  0  0
  -28.3869  -32.6845   25.0365 H   0  0  0  0  0  0
  -28.0667  -31.8425   26.5454 H   0  0  0  0  0  0
  -28.2586  -38.0121   24.7542 H   0  0  0  0  0  0
  -28.1123  -36.2659   24.6247 H   0  0  0  0  0  0
  -27.2305  -37.1405   25.8851 H   0  0  0  0  0  0
  -20.9428  -29.8762   21.6828 H   0  0  0  0  0  0
  -26.0202  -38.2875   24.1391 H   0  0  0  0  0  0
  -30.0212  -17.9050   22.8073 H   0  0  0  0  0  0
  -29.3421  -19.7780   18.9660 H   0  0  0  0  0  0
  -29.5718  -20.1173   23.8276 H   0  0  0  0  0  0
  -28.5092  -23.9676   17.8422 H   0  0  0  0  0  0
  -29.7267  -25.1642   18.2668 H   0  0  0  0  0  0
  -28.1322  -25.6799   17.7464 H   0  0  0  0  0  0
  -31.4430  -17.1854   16.9997 H   0  0  0  0  0  0
  -30.6660  -15.8012   17.7581 H   0  0  0  0  0  0
  -32.3473  -16.2257   18.1546 H   0  0  0  0  0  0
  -28.5690  -23.7097   21.6222 H   0  0  0  0  0  0
  -30.0033  -23.9564   20.6691 H   0  0  0  0  0  0
  -27.1566  -24.6137   19.8333 H   0  0  0  0  0  0
  -28.6833  -22.2587   19.0373 H   0  0  0  0  0  0
  -29.0183  -16.0033   21.1415 H   0  0  0  0  0  0
  -31.0655  -18.4933   18.8374 H   0  0  0  0  0  0
  1 25  1  0  0  0
  1 30  2  0  0  0
  1 83  1  0  0  0
  2  3  1  0  0  0
  2 25  1  0  0  0
  2 85  1  0  0  0
  2 86  1  0  0  0
  3  4  1  0  0  0
  3 87  1  0  0  0
  3 88  1  0  0  0
  4  5  1  0  0  0
  4 89  1  0  0  0
  4 90  1  0  0  0
  5  6  1  0  0  0
  5 26  1  0  0  0
  5 91  1  0  0  0
  6 25  1  0  0  0
  6 92  1  0  0  0
  6 93  1  0  0  0
  7  8  2  0  0  0
  7 26  1  0  0  0
  7 29  1  0  0  0
  8  9  1  0  0  0
  8 22  1  0  0  0
  9 10  1  0  0  0
  9 27  2  0  0  0
 10 11  2  0  0  0
 10 15  1  0  0  0
 11 12  1  0  0  0
 11 94  1  0  0  0
 12 13  2  0  0  0
 12 95  1  0  0  0
 13 14  1  0  0  0
 13 31  1  0  0  0
 14 15  2  0  0  0
 14 96  1  0  0  0
 15 97  1  0  0  0
 16 17  2  0  0  0
 16 21  1  0  0  0
 16 31  1  0  0  0
 17 18  1  0  0  0
 17 98  1  0  0  0
 18 19  2  0  0  0
 18 99  1  0  0  0
 19 20  1  0  0  0
 19 24  1  0  0  0
 20 21  2  0  0  0
 20100  1  0  0  0
 21 23  1  0  0  0
 22 28  1  0  0  0
 22 32  2  0  0  0
 26 27  1  0  0  0
 28101  1  0  0  0
 28102  1  0  0  0
 29103  1  0  0  0
 29104  1  0  0  0
 33 34  1  0  0  0
 33 66  1  0  0  0
 33 70  2  0  0  0
 34 36  1  0  0  0
 34 59  1  0  0  0
 34105  1  0  0  0
 35 44  2  0  0  0
 35 45  1  0  0  0
 35 68  1  0  0  0
 36 56  1  0  0  0
 36106  1  0  0  0
 37 39  1  0  0  0
 37 47  1  0  0  0
 37 66  1  0  0  0
 37107  1  0  0  0
 38 43  2  0  0  0
 38 46  1  0  0  0
 38 47  1  0  0  0
 39 64  1  0  0  0
 39 67  2  0  0  0
 40 52  1  0  0  0
 40 53  2  0  0  0
 40 58  1  0  0  0
 41108  1  0  0  0
 41109  1  0  0  0
 41110  1  0  0  0
 41 48  1  0  0  0
 42 43  1  0  0  0
 42 66  1  0  0  0
 42111  1  0  0  0
 42112  1  0  0  0
 43 44  1  0  0  0
 44113  1  0  0  0
 45 46  2  0  0  0
 45114  1  0  0  0
 46115  1  0  0  0
 47116  1  0  0  0
 47117  1  0  0  0
 48 56  1  0  0  0
 48 65  1  0  0  0
 48118  1  0  0  0
 49 50  1  0  0  0
 49 53  1  0  0  0
 49 64  1  0  0  0
 49119  1  0  0  0
 50 51  1  0  0  0
 50120  1  0  0  0
 50121  1  0  0  0
 51 52  1  0  0  0
 51122  1  0  0  0
 51123  1  0  0  0
 52124  1  0  0  0
 52125  1  0  0  0
 53 54  1  0  0  0
 54 55  2  0  0  0
 54126  1  0  0  0
 55 57  1  0  0  0
 55127  1  0  0  0
 56 69  2  0  0  0
 57 58  2  0  0  0
 57128  1  0  0  0
 58129  1  0  0  0
 59 60  1  0  0  0
 59 61  1  0  0  0
 59 62  1  0  0  0
 60130  1  0  0  0
 60131  1  0  0  0
 60132  1  0  0  0
 61133  1  0  0  0
 61134  1  0  0  0
 61135  1  0  0  0
 62136  1  0  0  0
 62137  1  0  0  0
 62138  1  0  0  0
 63 65  1  0  0  0
 63139  1  0  0  0
 63140  1  0  0  0
 63141  1  0  0  0
 64142  1  0  0  0
 65143  1  0  0  0
 68 80  1  0  0  0
 71 73  2  0  0  0
 71 74  1  0  0  0
 71144  1  0  0  0
 72 74  2  0  0  0
 72 75  1  0  0  0
 72145  1  0  0  0
 73 81  1  0  0  0
 73146  1  0  0  0
 74 76  1  0  0  0
 75 81  2  0  0  0
 75 82  1  0  0  0
 76 83  1  0  0  0
 76 84  2  0  0  0
 77147  1  0  0  0
 77148  1  0  0  0
 77149  1  0  0  0
 77 80  1  0  0  0
 78 84  1  0  0  0
 78150  1  0  0  0
 78151  1  0  0  0
 78152  1  0  0  0
 79 80  1  0  0  0
 79 82  1  0  0  0
 79153  1  0  0  0
 79154  1  0  0  0
 80155  1  0  0  0
 82156  1  0  0  0
 83157  1  0  0  0
 84158  1  0  0  0
M  CHG  1  84   1
M  ISO  4   1 100  68 101  80 101  83 100
M  END
> <chiral flag>
0

> <version>
0

> <s_m_source_file>
/data/baiqing/PycharmProjects/Reinvent-master-3.2/result/LINK_invent/BTK/process_docking_weight1_custom_product_contain_oxygen_bond_distance_aromatic_linkinvent_7_9_3/rearranged_h_0159.sdf

> <i_m_source_file_index>
59

> <r_mmod_Potential_Energy-OPLS-2005>
-332.323120117188

> <r_mmod_Stretch_Energy-OPLS-2005>
116.951904296875

> <r_mmod_Bend_Energy-OPLS-2005>
189.887619018555

> <r_mmod_Torsional_Energy-OPLS-2005>
228.763153076172

> <r_mmod_Improper_Torsional_Energy-OPLS-2005>
6.24056005477905

> <r_mmod_Van_der_Waal_Energy-OPLS-2005>
152.572631835938

> <r_mmod_Electrostatic_Energy-OPLS-2005>
-628.206176757812

> <r_mmod_Solvation_Energy-OPLS-2005>
-482.218902587891

> <b_mmod_Minimization_Converged-OPLS-2005>
0

> <r_mmod_RMS_Derivative-OPLS-2005>
2.67454385757446

$$$$
59
                    3D
 Structure written by MMmdl.
150158  0  0  1  0            999 V2000
  -30.6635  -14.7198   20.4749 C   0  0  0  0  0  0
  -30.4220  -12.4445   19.4703 C   0  0  0  0  0  0
  -29.5038  -12.5013   18.2316 C   0  0  0  0  0  0
  -28.0301  -12.3359   18.6471 C   0  0  0  0  0  0
  -27.6395  -13.2366   19.8495 C   0  0  2  0  0  0
  -28.6874  -13.1837   20.9838 C   0  0  0  0  0  0
  -25.2496  -13.8212   20.5695 C   0  0  0  0  0  0
  -24.1794  -13.0451   20.9210 C   0  0  0  0  0  0
  -24.6390  -11.6929   20.8755 C   0  0  0  0  0  0
  -23.9072  -10.4300   21.0410 C   0  0  0  0  0  0
  -24.3620   -9.4219   21.9186 C   0  0  0  0  0  0
  -23.6301   -8.2251   22.0752 C   0  0  0  0  0  0
  -22.4286   -8.0284   21.3543 C   0  0  0  0  0  0
  -21.9922   -9.0258   20.4647 C   0  0  0  0  0  0
  -22.7245  -10.2140   20.3058 C   0  0  0  0  0  0
  -21.6858   -6.0742   22.5278 C   0  0  0  0  0  0
  -21.4020   -6.5643   23.8212 C   0  0  0  0  0  0
  -21.3659   -5.6791   24.9167 C   0  0  0  0  0  0
  -21.6042   -4.3054   24.7220 C   0  0  0  0  0  0
  -21.8819   -3.8151   23.4339 C   0  0  0  0  0  0
  -21.9198   -4.6972   22.3398 C   0  0  0  0  0  0
  -22.7812  -13.5239   21.1866 C   0  0  0  0  0  0
  -22.1662   -4.2157   21.0978 F   0  0  0  0  0  0
  -21.5631   -3.4543   25.7736 F   0  0  0  0  0  0
  -29.9872  -13.5215   20.3916 N   0  0  0  0  0  0
  -26.2930  -12.9428   20.3302 N   0  0  0  0  0  0
  -25.9323  -11.6566   20.5765 N   0  0  0  0  0  0
  -22.0452  -12.8229   22.0418 N   0  0  0  0  0  0
  -25.4182  -15.1934   20.4100 N   0  0  0  0  0  0
  -31.8625  -14.7265   20.1817 O   0  0  0  0  0  0
  -21.6644   -6.8886   21.4241 O   0  0  0  0  0  0
  -22.3504  -14.5548   20.6721 O   0  0  0  0  0  0
  -24.6321  -31.8568   23.2015 C   0  0  0  0  0  0
  -25.9153  -32.4762   23.8348 C   0  0  1  0  0  0
  -27.2061  -27.2592   20.1303 C   0  0  0  0  0  0
  -25.5962  -33.8563   24.2278 N   0  0  0  0  0  0
  -23.4273  -30.4830   21.5455 C   0  0  2  0  0  0
  -24.8740  -28.9369   20.1072 C   0  0  0  0  0  0
  -22.7506  -29.4615   22.4916 C   0  0  0  0  0  0
  -18.0301  -28.1381   22.8486 C   0  0  0  0  0  0
  -24.1490  -36.7274   23.2636 C   0  0  0  0  0  0
  -25.9752  -30.7674   21.3863 C   0  0  0  0  0  0
  -26.0465  -29.3928   20.7239 C   0  0  0  0  0  0
  -27.2176  -28.5657   20.7261 C   0  0  0  0  0  0
  -26.0196  -26.8915   19.4558 C   0  0  0  0  0  0
  -24.8668  -27.6944   19.4609 C   0  0  0  0  0  0
  -23.6460  -29.8245   20.1593 C   0  0  0  0  0  0
  -25.4116  -36.3073   24.0330 C   0  0  1  0  0  0
  -20.5901  -28.3699   23.1253 C   0  0  2  0  0  0
  -20.6787  -26.9415   22.5400 C   0  0  0  0  0  0
  -19.5764  -26.6376   21.5205 C   0  0  0  0  0  0
  -18.1943  -26.7927   22.1618 C   0  0  0  0  0  0
  -19.1552  -28.8861   23.2862 C   0  0  0  0  0  0
  -18.9478  -30.1460   23.8885 C   0  0  0  0  0  0
  -17.6475  -30.6582   24.0564 C   0  0  0  0  0  0
  -25.9059  -34.9443   23.5099 C   0  0  0  0  0  0
  -16.5363  -29.9078   23.6334 C   0  0  0  0  0  0
  -16.7286  -28.6491   23.0361 C   0  0  0  0  0  0
  -26.4514  -31.6586   25.0741 C   0  0  0  0  0  0
  -25.3730  -31.3752   26.1465 C   0  0  0  0  0  0
  -27.0362  -30.2997   24.6239 C   0  0  0  0  0  0
  -27.6070  -32.4328   25.7517 C   0  0  0  0  0  0
  -27.5580  -37.1797   24.8462 C   0  0  0  0  0  0
  -21.4216  -29.3042   22.3642 N   0  0  0  0  0  0
  -26.4288  -37.3775   23.9417 N   0  0  0  0  0  0
  -24.6971  -31.0527   22.1007 N   0  0  0  0  0  0
  -23.4207  -28.8157   23.3015 O   0  0  0  0  0  0
  -28.2651  -26.3203   20.2133 O   0  0  0  0  0  0
  -26.5608  -34.8911   22.4655 O   0  0  0  0  0  0
  -23.5468  -32.1407   23.7298 O   0  0  0  0  0  0
  -27.6732  -19.8139   20.4825 C   0  0  0  0  0  0
  -28.5601  -20.8816   20.5257 C   0  0  0  0  0  0
  -29.5262  -18.4516   20.6290 C   0  0  0  0  0  0
  -30.4564  -17.1986   20.6949 C   0  0  0  0  0  0
  -27.4313  -24.9370   22.0384 C   0  0  0  0  0  0
  -28.8726  -23.6003   20.3813 C   0  0  0  0  0  0
  -27.9037  -24.8947   20.5727 C   0  0  2  0  0  0
  -28.1894  -18.4969   20.5375 N   0  0  0  0  0  0
  -28.1434  -22.2792   20.5090 N   0  0  0  0  0  0
  -29.9545  -15.9016   20.6566 N   0  0  0  0  0  0
  -31.6678  -17.4335   20.7819 O   0  0  0  0  0  0
  -26.3779  -20.0146   20.3949 F   0  0  0  0  0  0
  -30.1839  -20.1587   20.6419 S   0  0  0  0  0  0
  -31.4639  -12.5457   19.1607 H   0  0  0  0  0  0
  -30.3531  -11.4710   19.9594 H   0  0  0  0  0  0
  -29.7793  -11.7220   17.5194 H   0  0  0  0  0  0
  -29.6380  -13.4529   17.7145 H   0  0  0  0  0  0
  -27.8791  -11.2873   18.9061 H   0  0  0  0  0  0
  -27.3744  -12.5335   17.7984 H   0  0  0  0  0  0
  -27.6313  -14.2568   19.4651 H   0  0  0  0  0  0
  -28.7189  -12.1926   21.4402 H   0  0  0  0  0  0
  -28.4297  -13.8824   21.7815 H   0  0  0  0  0  0
  -25.2756   -9.5714   22.4766 H   0  0  0  0  0  0
  -24.0016   -7.4650   22.7474 H   0  0  0  0  0  0
  -21.0855   -8.8781   19.8950 H   0  0  0  0  0  0
  -22.3698  -10.9682   19.6175 H   0  0  0  0  0  0
  -21.2006   -7.6149   23.9718 H   0  0  0  0  0  0
  -21.1483   -6.0518   25.9072 H   0  0  0  0  0  0
  -22.0600   -2.7617   23.2833 H   0  0  0  0  0  0
  -22.4060  -11.9886   22.4800 H   0  0  0  0  0  0
  -21.1070  -13.1261   22.2623 H   0  0  0  0  0  0
  -24.6498  -15.8457   20.5206 H   0  0  0  0  0  0
  -26.2653  -15.6374   20.0808 H   0  0  0  0  0  0
  -26.7224  -32.5415   23.1094 H   0  0  0  0  0  0
  -25.0163  -33.9692   25.0459 H   0  0  0  0  0  0
  -22.7234  -31.3064   21.4040 H   0  0  0  0  0  0
  -23.3761  -35.9597   23.3296 H   0  0  0  0  0  0
  -24.3577  -36.8891   22.2048 H   0  0  0  0  0  0
  -23.7234  -37.6473   23.6651 H   0  0  0  0  0  0
  -26.1165  -31.5307   20.6195 H   0  0  0  0  0  0
  -26.8506  -30.8122   22.0226 H   0  0  0  0  0  0
  -28.1100  -28.9020   21.2345 H   0  0  0  0  0  0
  -25.9475  -25.9587   18.9185 H   0  0  0  0  0  0
  -23.9751  -27.3452   18.9589 H   0  0  0  0  0  0
  -23.7750  -30.6053   19.4093 H   0  0  0  0  0  0
  -22.7628  -29.2630   19.8496 H   0  0  0  0  0  0
  -25.1295  -36.1926   25.0822 H   0  0  0  0  0  0
  -20.9994  -28.3289   24.1372 H   0  0  0  0  0  0
  -20.5675  -26.2314   23.3608 H   0  0  0  0  0  0
  -21.6658  -26.7429   22.1202 H   0  0  0  0  0  0
  -19.6915  -25.6282   21.1250 H   0  0  0  0  0  0
  -19.6701  -27.3169   20.6721 H   0  0  0  0  0  0
  -17.4212  -26.6689   21.4014 H   0  0  0  0  0  0
  -18.0337  -26.0057   22.9004 H   0  0  0  0  0  0
  -19.7957  -30.7278   24.2239 H   0  0  0  0  0  0
  -17.5033  -31.6260   24.5175 H   0  0  0  0  0  0
  -15.5365  -30.2978   23.7653 H   0  0  0  0  0  0
  -15.8690  -28.0798   22.7088 H   0  0  0  0  0  0
  -24.5909  -30.7092   25.7803 H   0  0  0  0  0  0
  -24.8917  -32.2927   26.4863 H   0  0  0  0  0  0
  -25.8042  -30.8961   27.0266 H   0  0  0  0  0  0
  -26.2956  -29.6754   24.1233 H   0  0  0  0  0  0
  -27.4001  -29.7256   25.4769 H   0  0  0  0  0  0
  -27.8853  -30.4259   23.9519 H   0  0  0  0  0  0
  -27.2681  -33.3633   26.2089 H   0  0  0  0  0  0
  -28.3890  -32.6890   25.0353 H   0  0  0  0  0  0
  -28.0738  -31.8466   26.5446 H   0  0  0  0  0  0
  -28.2598  -38.0096   24.7519 H   0  0  0  0  0  0
  -28.1078  -36.2627   24.6281 H   0  0  0  0  0  0
  -27.2291  -37.1437   25.8862 H   0  0  0  0  0  0
  -20.9399  -29.8776   21.6859 H   0  0  0  0  0  0
  -26.0168  -38.2848   24.1433 H   0  0  0  0  0  0
  -27.1213  -23.9533   22.3908 H   0  0  0  0  0  0
  -26.5756  -25.5990   22.1702 H   0  0  0  0  0  0
  -28.2253  -25.2882   22.6974 H   0  0  0  0  0  0
  -29.6951  -23.6424   21.0971 H   0  0  0  0  0  0
  -29.3265  -23.6418   19.3903 H   0  0  0  0  0  0
  -27.0444  -24.6085   19.9748 H   0  0  0  0  0  0
  -27.1304  -22.3713   20.4835 H   0  0  0  0  0  0
  -28.9523  -15.8346   20.7088 H   0  0  0  0  0  0
  1 25  1  0  0  0
  1 30  2  0  0  0
  1 80  1  0  0  0
  2  3  1  0  0  0
  2 25  1  0  0  0
  2 84  1  0  0  0
  2 85  1  0  0  0
  3  4  1  0  0  0
  3 86  1  0  0  0
  3 87  1  0  0  0
  4  5  1  0  0  0
  4 88  1  0  0  0
  4 89  1  0  0  0
  5  6  1  0  0  0
  5 26  1  0  0  0
  5 90  1  0  0  0
  6 25  1  0  0  0
  6 91  1  0  0  0
  6 92  1  0  0  0
  7  8  2  0  0  0
  7 26  1  0  0  0
  7 29  1  0  0  0
  8  9  1  0  0  0
  8 22  1  0  0  0
  9 10  1  0  0  0
  9 27  2  0  0  0
 10 11  2  0  0  0
 10 15  1  0  0  0
 11 12  1  0  0  0
 11 93  1  0  0  0
 12 13  2  0  0  0
 12 94  1  0  0  0
 13 14  1  0  0  0
 13 31  1  0  0  0
 14 15  2  0  0  0
 14 95  1  0  0  0
 15 96  1  0  0  0
 16 17  2  0  0  0
 16 21  1  0  0  0
 16 31  1  0  0  0
 17 18  1  0  0  0
 17 97  1  0  0  0
 18 19  2  0  0  0
 18 98  1  0  0  0
 19 20  1  0  0  0
 19 24  1  0  0  0
 20 21  2  0  0  0
 20 99  1  0  0  0
 21 23  1  0  0  0
 22 28  1  0  0  0
 22 32  2  0  0  0
 26 27  1  0  0  0
 28100  1  0  0  0
 28101  1  0  0  0
 29102  1  0  0  0
 29103  1  0  0  0
 33 34  1  0  0  0
 33 66  1  0  0  0
 33 70  2  0  0  0
 34 36  1  0  0  0
 34 59  1  0  0  0
 34104  1  0  0  0
 35 44  2  0  0  0
 35 45  1  0  0  0
 35 68  1  0  0  0
 36 56  1  0  0  0
 36105  1  0  0  0
 37 39  1  0  0  0
 37 47  1  0  0  0
 37 66  1  0  0  0
 37106  1  0  0  0
 38 43  2  0  0  0
 38 46  1  0  0  0
 38 47  1  0  0  0
 39 64  1  0  0  0
 39 67  2  0  0  0
 40 52  1  0  0  0
 40 53  2  0  0  0
 40 58  1  0  0  0
 41107  1  0  0  0
 41108  1  0  0  0
 41109  1  0  0  0
 41 48  1  0  0  0
 42 43  1  0  0  0
 42 66  1  0  0  0
 42110  1  0  0  0
 42111  1  0  0  0
 43 44  1  0  0  0
 44112  1  0  0  0
 45 46  2  0  0  0
 45113  1  0  0  0
 46114  1  0  0  0
 47115  1  0  0  0
 47116  1  0  0  0
 48 56  1  0  0  0
 48 65  1  0  0  0
 48117  1  0  0  0
 49 50  1  0  0  0
 49 53  1  0  0  0
 49 64  1  0  0  0
 49118  1  0  0  0
 50 51  1  0  0  0
 50119  1  0  0  0
 50120  1  0  0  0
 51 52  1  0  0  0
 51121  1  0  0  0
 51122  1  0  0  0
 52123  1  0  0  0
 52124  1  0  0  0
 53 54  1  0  0  0
 54 55  2  0  0  0
 54125  1  0  0  0
 55 57  1  0  0  0
 55126  1  0  0  0
 56 69  2  0  0  0
 57 58  2  0  0  0
 57127  1  0  0  0
 58128  1  0  0  0
 59 60  1  0  0  0
 59 61  1  0  0  0
 59 62  1  0  0  0
 60129  1  0  0  0
 60130  1  0  0  0
 60131  1  0  0  0
 61132  1  0  0  0
 61133  1  0  0  0
 61134  1  0  0  0
 62135  1  0  0  0
 62136  1  0  0  0
 62137  1  0  0  0
 63 65  1  0  0  0
 63138  1  0  0  0
 63139  1  0  0  0
 63140  1  0  0  0
 64141  1  0  0  0
 65142  1  0  0  0
 68 77  1  0  0  0
 71 72  2  0  0  0
 71 78  1  0  0  0
 71 82  1  0  0  0
 72 79  1  0  0  0
 72 83  1  0  0  0
 73 74  1  0  0  0
 73 78  2  0  0  0
 73 83  1  0  0  0
 74 80  1  0  0  0
 74 81  2  0  0  0
 75143  1  0  0  0
 75144  1  0  0  0
 75145  1  0  0  0
 75 77  1  0  0  0
 76 77  1  0  0  0
 76 79  1  0  0  0
 76146  1  0  0  0
 76147  1  0  0  0
 77148  1  0  0  0
 79149  1  0  0  0
 80150  1  0  0  0
M  ISO  4   1 100  68 101  77 101  80 100
M  END
> <chiral flag>
0

> <version>
0

> <s_m_source_file>
/data/baiqing/PycharmProjects/Reinvent-master-3.2/result/LINK_invent/BTK/process_docking_weight1_custom_product_contain_oxygen_bond_distance_aromatic_linkinvent_7_9_3/rearranged_h_0159.sdf

> <i_m_source_file_index>
60

> <r_mmod_Potential_Energy-OPLS-2005>
98.7886276245117

> <r_mmod_Stretch_Energy-OPLS-2005>
114.671844482422

> <r_mmod_Bend_Energy-OPLS-2005>
195.099746704102

> <r_mmod_Torsional_Energy-OPLS-2005>
225.539199829102

> <r_mmod_Improper_Torsional_Energy-OPLS-2005>
5.11986970901489

> <r_mmod_Van_der_Waal_Energy-OPLS-2005>
130.082473754883

> <r_mmod_Electrostatic_Energy-OPLS-2005>
-436.716796875

> <r_mmod_Solvation_Energy-OPLS-2005>
-222.356231689453

> <b_mmod_Minimization_Converged-OPLS-2005>
0

> <r_mmod_RMS_Derivative-OPLS-2005>
1.54398119449615

$$$$
60
                    3D
 Structure written by MMmdl.
161170  0  0  1  0            999 V2000
  -30.5705  -14.7917   20.4440 C   0  0  0  0  0  0
  -30.4358  -12.4794   19.4810 C   0  0  0  0  0  0
  -29.5136  -12.5129   18.2411 C   0  0  0  0  0  0
  -28.0396  -12.3283   18.6522 C   0  0  0  0  0  0
  -27.6388  -13.2309   19.8488 C   0  0  2  0  0  0
  -28.6815  -13.1708   20.9865 C   0  0  0  0  0  0
  -25.2500  -13.8191   20.5682 C   0  0  0  0  0  0
  -24.1801  -13.0438   20.9236 C   0  0  0  0  0  0
  -24.6387  -11.6913   20.8752 C   0  0  0  0  0  0
  -23.9060  -10.4288   21.0408 C   0  0  0  0  0  0
  -24.3617   -9.4205   21.9183 C   0  0  0  0  0  0
  -23.6295   -8.2238   22.0747 C   0  0  0  0  0  0
  -22.4277   -8.0275   21.3543 C   0  0  0  0  0  0
  -21.9913   -9.0242   20.4641 C   0  0  0  0  0  0
  -22.7233  -10.2128   20.3052 C   0  0  0  0  0  0
  -21.6856   -6.0732   22.5273 C   0  0  0  0  0  0
  -21.4017   -6.5637   23.8206 C   0  0  0  0  0  0
  -21.3660   -5.6791   24.9171 C   0  0  0  0  0  0
  -21.6048   -4.3053   24.7223 C   0  0  0  0  0  0
  -21.8822   -3.8144   23.4342 C   0  0  0  0  0  0
  -21.9191   -4.6960   22.3397 C   0  0  0  0  0  0
  -22.7821  -13.5222   21.1891 C   0  0  0  0  0  0
  -22.1660   -4.2144   21.0976 F   0  0  0  0  0  0
  -21.5630   -3.4536   25.7737 F   0  0  0  0  0  0
  -29.9796  -13.5437   20.4092 N   0  0  0  0  0  0
  -26.2912  -12.9392   20.3251 N   0  0  0  0  0  0
  -25.9313  -11.6540   20.5738 N   0  0  0  0  0  0
  -22.0475  -12.8194   22.0444 N   0  0  0  0  0  0
  -25.4196  -15.1904   20.4028 N   0  0  0  0  0  0
  -31.7581  -14.8987   20.1207 O   0  0  0  0  0  0
  -21.6642   -6.8873   21.4236 O   0  0  0  0  0  0
  -22.3501  -14.5523   20.6730 O   0  0  0  0  0  0
  -24.6334  -31.8509   23.1951 C   0  0  0  0  0  0
  -25.9156  -32.4728   23.8294 C   0  0  1  0  0  0
  -27.2223  -27.2241   20.1309 C   0  0  0  0  0  0
  -25.5931  -33.8532   24.2213 N   0  0  0  0  0  0
  -23.4330  -30.4715   21.5389 C   0  0  2  0  0  0
  -24.8814  -28.9136   20.1062 C   0  0  0  0  0  0
  -22.7520  -29.4565   22.4885 C   0  0  0  0  0  0
  -18.0292  -28.1398   22.8458 C   0  0  0  0  0  0
  -24.1505  -36.7273   23.2644 C   0  0  0  0  0  0
  -25.9809  -30.7506   21.3822 C   0  0  0  0  0  0
  -26.0522  -29.3694   20.7249 C   0  0  0  0  0  0
  -27.2201  -28.5350   20.7309 C   0  0  0  0  0  0
  -26.0290  -26.8499   19.4724 C   0  0  0  0  0  0
  -24.8776  -27.6635   19.4680 C   0  0  0  0  0  0
  -23.6540  -29.8051   20.1552 C   0  0  0  0  0  0
  -25.4128  -36.3044   24.0316 C   0  0  1  0  0  0
  -20.5899  -28.3701   23.1255 C   0  0  2  0  0  0
  -20.6790  -26.9414   22.5405 C   0  0  0  0  0  0
  -19.5767  -26.6381   21.5209 C   0  0  0  0  0  0
  -18.1940  -26.7932   22.1610 C   0  0  0  0  0  0
  -19.1546  -28.8864   23.2847 C   0  0  0  0  0  0
  -18.9472  -30.1466   23.8860 C   0  0  0  0  0  0
  -17.6475  -30.6590   24.0561 C   0  0  0  0  0  0
  -25.9072  -34.9424   23.5071 C   0  0  0  0  0  0
  -16.5364  -29.9085   23.6343 C   0  0  0  0  0  0
  -16.7279  -28.6519   23.0327 C   0  0  0  0  0  0
  -26.4512  -31.6571   25.0703 C   0  0  0  0  0  0
  -25.3716  -31.3743   26.1408 C   0  0  0  0  0  0
  -27.0375  -30.2981   24.6225 C   0  0  0  0  0  0
  -27.6054  -32.4324   25.7477 C   0  0  0  0  0  0
  -27.5576  -37.1786   24.8461 C   0  0  0  0  0  0
  -21.4221  -29.3038   22.3637 N   0  0  0  0  0  0
  -26.4291  -37.3748   23.9407 N   0  0  0  0  0  0
  -24.7014  -31.0441   22.0947 N   0  0  0  0  0  0
  -23.4208  -28.8104   23.2995 O   0  0  0  0  0  0
  -28.3162  -26.3151   20.2028 O   0  0  0  0  0  0
  -26.5655  -34.8904   22.4651 O   0  0  0  0  0  0
  -23.5476  -32.1347   23.7227 O   0  0  0  0  0  0
  -30.6899  -19.6361   19.6795 C   0  0  0  0  0  0
  -29.0814  -18.4244   20.8457 C   0  0  0  0  0  0
  -29.5516  -19.7898   20.4262 C   0  0  0  0  0  0
  -29.9001  -17.3069   20.4809 C   0  0  0  0  0  0
  -28.8429  -23.9083   20.3127 C   0  0  0  0  0  0
  -27.7973  -18.2248   21.5313 C   0  0  0  0  0  0
  -29.9991  -24.1849   21.2594 C   0  0  0  0  0  0
  -28.7885  -22.3414   19.8490 C   0  0  0  0  0  0
  -29.6988  -23.7244   22.6945 C   0  0  0  0  0  0
  -29.7983  -22.2027   22.9074 C   0  0  0  0  0  0
  -28.7170  -21.3742   22.1937 C   0  0  0  0  0  0
  -27.7732  -17.2138   22.6731 C   0  0  0  0  0  0
  -28.0347  -24.8732   19.8911 N   0  0  0  0  0  0
  -29.0088  -21.1366   20.7777 N   0  0  0  0  0  0
  -29.7527  -15.9030   20.6855 N   0  0  0  0  0  0
  -26.7532  -18.8330   21.2783 O   0  0  0  0  0  0
  -31.2391  -17.9690   19.5571 S   0  0  0  0  0  0
  -31.4753  -12.6138   19.1790 H   0  0  0  0  0  0
  -30.3908  -11.5041   19.9674 H   0  0  0  0  0  0
  -29.8026  -11.7356   17.5326 H   0  0  0  0  0  0
  -29.6329  -13.4636   17.7198 H   0  0  0  0  0  0
  -27.9022  -11.2795   18.9190 H   0  0  0  0  0  0
  -27.3826  -12.5120   17.8011 H   0  0  0  0  0  0
  -27.6304  -14.2501   19.4628 H   0  0  0  0  0  0
  -28.7264  -12.1696   21.4175 H   0  0  0  0  0  0
  -28.4051  -13.8391   21.8033 H   0  0  0  0  0  0
  -25.2765   -9.5684   22.4754 H   0  0  0  0  0  0
  -24.0002   -7.4635   22.7466 H   0  0  0  0  0  0
  -21.0846   -8.8759   19.8946 H   0  0  0  0  0  0
  -22.3688  -10.9666   19.6158 H   0  0  0  0  0  0
  -21.2012   -7.6147   23.9709 H   0  0  0  0  0  0
  -21.1482   -6.0523   25.9074 H   0  0  0  0  0  0
  -22.0602   -2.7604   23.2844 H   0  0  0  0  0  0
  -22.4106  -11.9853   22.4817 H   0  0  0  0  0  0
  -21.1093  -13.1197   22.2663 H   0  0  0  0  0  0
  -24.6318  -15.8258   20.4683 H   0  0  0  0  0  0
  -26.2161  -15.6016   19.9359 H   0  0  0  0  0  0
  -26.7205  -32.5361   23.1014 H   0  0  0  0  0  0
  -25.0030  -33.9665   25.0320 H   0  0  0  0  0  0
  -22.7304  -31.2944   21.3901 H   0  0  0  0  0  0
  -23.3761  -35.9616   23.3305 H   0  0  0  0  0  0
  -24.3580  -36.8909   22.2058 H   0  0  0  0  0  0
  -23.7283  -37.6476   23.6683 H   0  0  0  0  0  0
  -26.1259  -31.5096   20.6130 H   0  0  0  0  0  0
  -26.8564  -30.7985   22.0183 H   0  0  0  0  0  0
  -28.1135  -28.8747   21.2356 H   0  0  0  0  0  0
  -25.9574  -25.8939   18.9749 H   0  0  0  0  0  0
  -23.9826  -27.3119   18.9723 H   0  0  0  0  0  0
  -23.7818  -30.5838   19.4027 H   0  0  0  0  0  0
  -22.7713  -29.2424   19.8463 H   0  0  0  0  0  0
  -25.1318  -36.1868   25.0805 H   0  0  0  0  0  0
  -20.9971  -28.3292   24.1384 H   0  0  0  0  0  0
  -20.5709  -26.2303   23.3609 H   0  0  0  0  0  0
  -21.6650  -26.7455   22.1180 H   0  0  0  0  0  0
  -19.6944  -25.6293   21.1235 H   0  0  0  0  0  0
  -19.6717  -27.3190   20.6738 H   0  0  0  0  0  0
  -17.4212  -26.6658   21.4015 H   0  0  0  0  0  0
  -18.0345  -26.0094   22.9024 H   0  0  0  0  0  0
  -19.7956  -30.7289   24.2195 H   0  0  0  0  0  0
  -17.5039  -31.6262   24.5175 H   0  0  0  0  0  0
  -15.5362  -30.2978   23.7703 H   0  0  0  0  0  0
  -15.8678  -28.0855   22.7023 H   0  0  0  0  0  0
  -24.5910  -30.7066   25.7734 H   0  0  0  0  0  0
  -24.8882  -32.2922   26.4759 H   0  0  0  0  0  0
  -25.8010  -30.8970   27.0230 H   0  0  0  0  0  0
  -26.2975  -29.6701   24.1246 H   0  0  0  0  0  0
  -27.4041  -29.7265   25.4762 H   0  0  0  0  0  0
  -27.8853  -30.4231   23.9488 H   0  0  0  0  0  0
  -27.2652  -33.3646   26.1997 H   0  0  0  0  0  0
  -28.3883  -32.6849   25.0310 H   0  0  0  0  0  0
  -28.0698  -31.8486   26.5432 H   0  0  0  0  0  0
  -28.2566  -38.0106   24.7498 H   0  0  0  0  0  0
  -28.1092  -36.2626   24.6293 H   0  0  0  0  0  0
  -27.2281  -37.1430   25.8860 H   0  0  0  0  0  0
  -20.9423  -29.8757   21.6833 H   0  0  0  0  0  0
  -26.0162  -38.2812   24.1427 H   0  0  0  0  0  0
  -31.2912  -20.4119   19.2224 H   0  0  0  0  0  0
  -30.2308  -25.2495   21.2640 H   0  0  0  0  0  0
  -30.8953  -23.6912   20.8817 H   0  0  0  0  0  0
  -29.5027  -22.2398   19.0305 H   0  0  0  0  0  0
  -27.8154  -22.1899   19.3815 H   0  0  0  0  0  0
  -28.7193  -24.0876   23.0110 H   0  0  0  0  0  0
  -30.4169  -24.2038   23.3615 H   0  0  0  0  0  0
  -29.6971  -22.0213   23.9786 H   0  0  0  0  0  0
  -30.7946  -21.8419   22.6478 H   0  0  0  0  0  0
  -27.7370  -21.8424   22.3017 H   0  0  0  0  0  0
  -28.6478  -20.4258   22.7237 H   0  0  0  0  0  0
  -27.3029  -16.2855   22.3517 H   0  0  0  0  0  0
  -27.1997  -17.6148   23.5081 H   0  0  0  0  0  0
  -28.7793  -16.9984   23.0308 H   0  0  0  0  0  0
  -28.8400  -15.6158   21.0024 H   0  0  0  0  0  0
  1 25  1  0  0  0
  1 30  2  0  0  0
  1 85  1  0  0  0
  2  3  1  0  0  0
  2 25  1  0  0  0
  2 88  1  0  0  0
  2 89  1  0  0  0
  3  4  1  0  0  0
  3 90  1  0  0  0
  3 91  1  0  0  0
  4  5  1  0  0  0
  4 92  1  0  0  0
  4 93  1  0  0  0
  5  6  1  0  0  0
  5 26  1  0  0  0
  5 94  1  0  0  0
  6 25  1  0  0  0
  6 95  1  0  0  0
  6 96  1  0  0  0
  7  8  2  0  0  0
  7 26  1  0  0  0
  7 29  1  0  0  0
  8  9  1  0  0  0
  8 22  1  0  0  0
  9 10  1  0  0  0
  9 27  2  0  0  0
 10 11  2  0  0  0
 10 15  1  0  0  0
 11 12  1  0  0  0
 11 97  1  0  0  0
 12 13  2  0  0  0
 12 98  1  0  0  0
 13 14  1  0  0  0
 13 31  1  0  0  0
 14 15  2  0  0  0
 14 99  1  0  0  0
 15100  1  0  0  0
 16 17  2  0  0  0
 16 21  1  0  0  0
 16 31  1  0  0  0
 17 18  1  0  0  0
 17101  1  0  0  0
 18 19  2  0  0  0
 18102  1  0  0  0
 19 20  1  0  0  0
 19 24  1  0  0  0
 20 21  2  0  0  0
 20103  1  0  0  0
 21 23  1  0  0  0
 22 28  1  0  0  0
 22 32  2  0  0  0
 26 27  1  0  0  0
 28104  1  0  0  0
 28105  1  0  0  0
 29106  1  0  0  0
 29107  1  0  0  0
 33 34  1  0  0  0
 33 66  1  0  0  0
 33 70  2  0  0  0
 34 36  1  0  0  0
 34 59  1  0  0  0
 34108  1  0  0  0
 35 44  2  0  0  0
 35 45  1  0  0  0
 35 68  1  0  0  0
 36 56  1  0  0  0
 36109  1  0  0  0
 37 39  1  0  0  0
 37 47  1  0  0  0
 37 66  1  0  0  0
 37110  1  0  0  0
 38 43  2  0  0  0
 38 46  1  0  0  0
 38 47  1  0  0  0
 39 64  1  0  0  0
 39 67  2  0  0  0
 40 52  1  0  0  0
 40 53  2  0  0  0
 40 58  1  0  0  0
 41111  1  0  0  0
 41112  1  0  0  0
 41113  1  0  0  0
 41 48  1  0  0  0
 42 43  1  0  0  0
 42 66  1  0  0  0
 42114  1  0  0  0
 42115  1  0  0  0
 43 44  1  0  0  0
 44116  1  0  0  0
 45 46  2  0  0  0
 45117  1  0  0  0
 46118  1  0  0  0
 47119  1  0  0  0
 47120  1  0  0  0
 48 56  1  0  0  0
 48 65  1  0  0  0
 48121  1  0  0  0
 49 50  1  0  0  0
 49 53  1  0  0  0
 49 64  1  0  0  0
 49122  1  0  0  0
 50 51  1  0  0  0
 50123  1  0  0  0
 50124  1  0  0  0
 51 52  1  0  0  0
 51125  1  0  0  0
 51126  1  0  0  0
 52127  1  0  0  0
 52128  1  0  0  0
 53 54  1  0  0  0
 54 55  2  0  0  0
 54129  1  0  0  0
 55 57  1  0  0  0
 55130  1  0  0  0
 56 69  2  0  0  0
 57 58  2  0  0  0
 57131  1  0  0  0
 58132  1  0  0  0
 59 60  1  0  0  0
 59 61  1  0  0  0
 59 62  1  0  0  0
 60133  1  0  0  0
 60134  1  0  0  0
 60135  1  0  0  0
 61136  1  0  0  0
 61137  1  0  0  0
 61138  1  0  0  0
 62139  1  0  0  0
 62140  1  0  0  0
 62141  1  0  0  0
 63 65  1  0  0  0
 63142  1  0  0  0
 63143  1  0  0  0
 63144  1  0  0  0
 64145  1  0  0  0
 65146  1  0  0  0
 68 83  1  0  0  0
 71 73  2  0  0  0
 71 87  1  0  0  0
 71147  1  0  0  0
 72 73  1  0  0  0
 72 74  2  0  0  0
 72 76  1  0  0  0
 73 84  1  0  0  0
 74 85  1  0  0  0
 74 87  1  0  0  0
 75 77  1  0  0  0
 75 78  1  0  0  0
 75 83  2  0  0  0
 76 82  1  0  0  0
 76 86  2  0  0  0
 77 79  1  0  0  0
 77148  1  0  0  0
 77149  1  0  0  0
 78 84  1  0  0  0
 78150  1  0  0  0
 78151  1  0  0  0
 79 80  1  0  0  0
 79152  1  0  0  0
 79153  1  0  0  0
 80 81  1  0  0  0
 80154  1  0  0  0
 80155  1  0  0  0
 81 84  1  0  0  0
 81156  1  0  0  0
 81157  1  0  0  0
 82158  1  0  0  0
 82159  1  0  0  0
 82160  1  0  0  0
 85161  1  0  0  0
M  ISO  4   1 100  68 101  83 101  85 100
M  END
> <chiral flag>
0

> <version>
0

> <s_m_source_file>
/data/baiqing/PycharmProjects/Reinvent-master-3.2/result/LINK_invent/BTK/process_docking_weight1_custom_product_contain_oxygen_bond_distance_aromatic_linkinvent_7_9_3/rearranged_h_0159.sdf

> <i_m_source_file_index>
61

> <r_mmod_Potential_Energy-OPLS-2005>
344.959350585938

> <r_mmod_Stretch_Energy-OPLS-2005>
161.175231933594

> <r_mmod_Bend_Energy-OPLS-2005>
187.909561157227

> <r_mmod_Torsional_Energy-OPLS-2005>
279.936706542969

> <r_mmod_Improper_Torsional_Energy-OPLS-2005>
5.41363191604614

> <r_mmod_Van_der_Waal_Energy-OPLS-2005>
118.638893127441

> <r_mmod_Electrostatic_Energy-OPLS-2005>
-276.860656738281

> <r_mmod_Solvation_Energy-OPLS-2005>
-238.420135498047

> <b_mmod_Minimization_Converged-OPLS-2005>
0

> <r_mmod_RMS_Derivative-OPLS-2005>
1.46731984615326

$$$$
61
                    3D
 Structure written by MMmdl.
159168  0  0  1  0            999 V2000
  -30.6405  -14.6713   20.4736 C   0  0  0  0  0  0
  -30.4263  -12.4098   19.4582 C   0  0  0  0  0  0
  -29.5025  -12.5051   18.2249 C   0  0  0  0  0  0
  -28.0276  -12.3422   18.6386 C   0  0  0  0  0  0
  -27.6454  -13.2274   19.8560 C   0  0  2  0  0  0
  -28.6925  -13.1253   20.9880 C   0  0  0  0  0  0
  -25.2514  -13.8198   20.5702 C   0  0  0  0  0  0
  -24.1805  -13.0438   20.9215 C   0  0  0  0  0  0
  -24.6398  -11.6918   20.8755 C   0  0  0  0  0  0
  -23.9070  -10.4295   21.0412 C   0  0  0  0  0  0
  -24.3623   -9.4204   21.9185 C   0  0  0  0  0  0
  -23.6298   -8.2238   22.0761 C   0  0  0  0  0  0
  -22.4283   -8.0280   21.3546 C   0  0  0  0  0  0
  -21.9920   -9.0254   20.4646 C   0  0  0  0  0  0
  -22.7248  -10.2135   20.3053 C   0  0  0  0  0  0
  -21.6854   -6.0738   22.5280 C   0  0  0  0  0  0
  -21.4015   -6.5646   23.8211 C   0  0  0  0  0  0
  -21.3655   -5.6798   24.9174 C   0  0  0  0  0  0
  -21.6046   -4.3061   24.7223 C   0  0  0  0  0  0
  -21.8820   -3.8147   23.4347 C   0  0  0  0  0  0
  -21.9193   -4.6964   22.3403 C   0  0  0  0  0  0
  -22.7825  -13.5215   21.1863 C   0  0  0  0  0  0
  -22.1666   -4.2152   21.0980 F   0  0  0  0  0  0
  -21.5617   -3.4542   25.7732 F   0  0  0  0  0  0
  -29.9999  -13.4591   20.4087 N   0  0  0  0  0  0
  -26.2953  -12.9403   20.3308 N   0  0  0  0  0  0
  -25.9331  -11.6548   20.5771 N   0  0  0  0  0  0
  -22.0471  -12.8198   22.0411 N   0  0  0  0  0  0
  -25.4185  -15.1919   20.4101 N   0  0  0  0  0  0
  -31.8295  -14.7532   20.1517 O   0  0  0  0  0  0
  -21.6640   -6.8884   21.4245 O   0  0  0  0  0  0
  -22.3506  -14.5523   20.6709 O   0  0  0  0  0  0
  -24.6272  -31.8581   23.2008 C   0  0  0  0  0  0
  -25.9114  -32.4768   23.8343 C   0  0  1  0  0  0
  -27.2303  -27.3093   20.1035 C   0  0  0  0  0  0
  -25.5928  -33.8572   24.2268 N   0  0  0  0  0  0
  -23.4212  -30.4821   21.5432 C   0  0  2  0  0  0
  -24.8679  -28.9348   20.1086 C   0  0  0  0  0  0
  -22.7474  -29.4621   22.4921 C   0  0  0  0  0  0
  -18.0286  -28.1385   22.8489 C   0  0  0  0  0  0
  -24.1486  -36.7287   23.2639 C   0  0  0  0  0  0
  -25.9634  -30.7841   21.3733 C   0  0  0  0  0  0
  -26.0368  -29.4103   20.7146 C   0  0  0  0  0  0
  -27.2162  -28.6059   20.7091 C   0  0  0  0  0  0
  -26.0252  -26.8765   19.5021 C   0  0  0  0  0  0
  -24.8639  -27.6725   19.4968 C   0  0  0  0  0  0
  -23.6361  -29.8161   20.1584 C   0  0  0  0  0  0
  -25.4109  -36.3078   24.0329 C   0  0  1  0  0  0
  -20.5887  -28.3688   23.1276 C   0  0  2  0  0  0
  -20.6769  -26.9407   22.5408 C   0  0  0  0  0  0
  -19.5749  -26.6380   21.5207 C   0  0  0  0  0  0
  -18.1929  -26.7928   22.1620 C   0  0  0  0  0  0
  -19.1541  -28.8852   23.2880 C   0  0  0  0  0  0
  -18.9466  -30.1453   23.8895 C   0  0  0  0  0  0
  -17.6468  -30.6587   24.0562 C   0  0  0  0  0  0
  -25.9055  -34.9449   23.5104 C   0  0  0  0  0  0
  -16.5357  -29.9086   23.6330 C   0  0  0  0  0  0
  -16.7274  -28.6500   23.0354 C   0  0  0  0  0  0
  -26.4501  -31.6580   25.0715 C   0  0  0  0  0  0
  -25.3736  -31.3705   26.1439 C   0  0  0  0  0  0
  -27.0355  -30.3009   24.6170 C   0  0  0  0  0  0
  -27.6049  -32.4323   25.7496 C   0  0  0  0  0  0
  -27.5582  -37.1798   24.8466 C   0  0  0  0  0  0
  -21.4186  -29.3042   22.3663 N   0  0  0  0  0  0
  -26.4286  -37.3776   23.9419 N   0  0  0  0  0  0
  -24.6894  -31.0586   22.0957 N   0  0  0  0  0  0
  -23.4190  -28.8164   23.3006 O   0  0  0  0  0  0
  -28.3506  -26.4597   20.1760 O   0  0  0  0  0  0
  -26.5622  -34.8918   22.4670 O   0  0  0  0  0  0
  -23.5431  -32.1382   23.7334 O   0  0  0  0  0  0
  -29.4163  -18.3195   20.5194 C   0  0  0  0  0  0
  -30.1787  -19.5753   20.4704 C   0  0  0  0  0  0
  -30.2010  -17.1545   20.6105 C   0  0  0  0  0  0
  -27.9639  -22.8930   20.1694 C   0  0  0  0  0  0
  -30.3073  -23.4748   19.9582 C   0  0  0  0  0  0
  -28.3150  -21.3420   20.0564 C   0  0  0  0  0  0
  -30.6882  -21.9598   19.8178 C   0  0  0  0  0  0
  -28.9196  -23.8294   19.3665 C   0  0  0  0  0  0
  -29.6658  -23.7451   17.0048 C   0  0  0  0  0  0
  -28.5822  -25.4091   19.1656 C   0  0  0  0  0  0
  -31.4795  -19.3834   20.5493 N   0  0  0  0  0  0
  -29.7186  -20.9666   20.3485 N   0  0  0  0  0  0
  -29.8631  -15.7967   20.6723 N   0  0  0  0  0  0
  -28.8128  -23.2643   18.0455 O   0  0  0  0  0  0
  -31.8417  -17.7431   20.6666 S   0  0  0  0  0  0
  -31.4692  -12.5177   19.1550 H   0  0  0  0  0  0
  -30.3504  -11.4251   19.9213 H   0  0  0  0  0  0
  -29.7704  -11.7452   17.4904 H   0  0  0  0  0  0
  -29.6414  -13.4687   17.7326 H   0  0  0  0  0  0
  -27.8699  -11.2906   18.8821 H   0  0  0  0  0  0
  -27.3727  -12.5585   17.7942 H   0  0  0  0  0  0
  -27.6488  -14.2557   19.4946 H   0  0  0  0  0  0
  -28.7111  -12.1175   21.4070 H   0  0  0  0  0  0
  -28.4422  -13.7927   21.8134 H   0  0  0  0  0  0
  -25.2771   -9.5676   22.4754 H   0  0  0  0  0  0
  -24.0007   -7.4631   22.7482 H   0  0  0  0  0  0
  -21.0853   -8.8782   19.8941 H   0  0  0  0  0  0
  -22.3717  -10.9682   19.6159 H   0  0  0  0  0  0
  -21.2023   -7.6160   23.9720 H   0  0  0  0  0  0
  -21.1472   -6.0527   25.9079 H   0  0  0  0  0  0
  -22.0603   -2.7609   23.2846 H   0  0  0  0  0  0
  -22.4114  -11.9868   22.4796 H   0  0  0  0  0  0
  -21.1080  -13.1199   22.2618 H   0  0  0  0  0  0
  -24.6414  -15.8370   20.5047 H   0  0  0  0  0  0
  -26.2539  -15.6327   20.0485 H   0  0  0  0  0  0
  -26.7176  -32.5435   23.1083 H   0  0  0  0  0  0
  -25.0080  -33.9708   25.0415 H   0  0  0  0  0  0
  -22.7155  -31.3030   21.3992 H   0  0  0  0  0  0
  -23.3763  -35.9610   23.3289 H   0  0  0  0  0  0
  -24.3578  -36.8922   22.2060 H   0  0  0  0  0  0
  -23.7226  -37.6474   23.6672 H   0  0  0  0  0  0
  -26.0963  -31.5474   20.6058 H   0  0  0  0  0  0
  -26.8430  -30.8324   22.0036 H   0  0  0  0  0  0
  -28.1125  -28.9658   21.1944 H   0  0  0  0  0  0
  -25.9340  -25.8921   19.0683 H   0  0  0  0  0  0
  -23.9618  -27.2921   19.0367 H   0  0  0  0  0  0
  -23.7549  -30.5918   19.4010 H   0  0  0  0  0  0
  -22.7552  -29.2466   19.8558 H   0  0  0  0  0  0
  -25.1290  -36.1930   25.0821 H   0  0  0  0  0  0
  -20.9983  -28.3271   24.1399 H   0  0  0  0  0  0
  -20.5661  -26.2300   23.3609 H   0  0  0  0  0  0
  -21.6641  -26.7427   22.1216 H   0  0  0  0  0  0
  -19.6908  -25.6290   21.1238 H   0  0  0  0  0  0
  -19.6685  -27.3186   20.6736 H   0  0  0  0  0  0
  -17.4194  -26.6680   21.4025 H   0  0  0  0  0  0
  -18.0328  -26.0063   22.9012 H   0  0  0  0  0  0
  -19.7941  -30.7268   24.2264 H   0  0  0  0  0  0
  -17.5022  -31.6268   24.5164 H   0  0  0  0  0  0
  -15.5356  -30.2992   23.7648 H   0  0  0  0  0  0
  -15.8673  -28.0817   22.7075 H   0  0  0  0  0  0
  -24.5925  -30.7039   25.7771 H   0  0  0  0  0  0
  -24.8913  -32.2861   26.4868 H   0  0  0  0  0  0
  -25.8072  -30.8888   27.0211 H   0  0  0  0  0  0
  -26.2932  -29.6750   24.1204 H   0  0  0  0  0  0
  -27.4068  -29.7273   25.4675 H   0  0  0  0  0  0
  -27.8793  -30.4305   23.9389 H   0  0  0  0  0  0
  -27.2650  -33.3622   26.2068 H   0  0  0  0  0  0
  -28.3868  -32.6884   25.0333 H   0  0  0  0  0  0
  -28.0708  -31.8451   26.5419 H   0  0  0  0  0  0
  -28.2584  -38.0111   24.7537 H   0  0  0  0  0  0
  -28.1092  -36.2644   24.6262 H   0  0  0  0  0  0
  -27.2304  -37.1410   25.8867 H   0  0  0  0  0  0
  -20.9355  -29.8771   21.6884 H   0  0  0  0  0  0
  -26.0169  -38.2849   24.1434 H   0  0  0  0  0  0
  -28.3376  -18.3223   20.4697 H   0  0  0  0  0  0
  -27.9733  -23.1890   21.2190 H   0  0  0  0  0  0
  -26.9380  -23.0488   19.8329 H   0  0  0  0  0  0
  -31.0812  -24.0802   19.4855 H   0  0  0  0  0  0
  -30.3328  -23.7601   21.0106 H   0  0  0  0  0  0
  -28.0798  -20.9945   19.0491 H   0  0  0  0  0  0
  -27.6600  -20.7813   20.7243 H   0  0  0  0  0  0
  -31.6552  -21.8346   20.3058 H   0  0  0  0  0  0
  -30.8575  -21.7268   18.7659 H   0  0  0  0  0  0
  -29.5224  -23.1215   16.1223 H   0  0  0  0  0  0
  -30.7228  -23.6961   17.2645 H   0  0  0  0  0  0
  -29.4261  -24.7651   16.7057 H   0  0  0  0  0  0
  -27.8351  -25.4763   18.3787 H   0  0  0  0  0  0
  -29.4660  -25.8186   18.6767 H   0  0  0  0  0  0
  -28.8879  -15.5971   20.8286 H   0  0  0  0  0  0
  1 25  1  0  0  0
  1 30  2  0  0  0
  1 83  1  0  0  0
  2  3  1  0  0  0
  2 25  1  0  0  0
  2 86  1  0  0  0
  2 87  1  0  0  0
  3  4  1  0  0  0
  3 88  1  0  0  0
  3 89  1  0  0  0
  4  5  1  0  0  0
  4 90  1  0  0  0
  4 91  1  0  0  0
  5  6  1  0  0  0
  5 26  1  0  0  0
  5 92  1  0  0  0
  6 25  1  0  0  0
  6 93  1  0  0  0
  6 94  1  0  0  0
  7  8  2  0  0  0
  7 26  1  0  0  0
  7 29  1  0  0  0
  8  9  1  0  0  0
  8 22  1  0  0  0
  9 10  1  0  0  0
  9 27  2  0  0  0
 10 11  2  0  0  0
 10 15  1  0  0  0
 11 12  1  0  0  0
 11 95  1  0  0  0
 12 13  2  0  0  0
 12 96  1  0  0  0
 13 14  1  0  0  0
 13 31  1  0  0  0
 14 15  2  0  0  0
 14 97  1  0  0  0
 15 98  1  0  0  0
 16 17  2  0  0  0
 16 21  1  0  0  0
 16 31  1  0  0  0
 17 18  1  0  0  0
 17 99  1  0  0  0
 18 19  2  0  0  0
 18100  1  0  0  0
 19 20  1  0  0  0
 19 24  1  0  0  0
 20 21  2  0  0  0
 20101  1  0  0  0
 21 23  1  0  0  0
 22 28  1  0  0  0
 22 32  2  0  0  0
 26 27  1  0  0  0
 28102  1  0  0  0
 28103  1  0  0  0
 29104  1  0  0  0
 29105  1  0  0  0
 33 34  1  0  0  0
 33 66  1  0  0  0
 33 70  2  0  0  0
 34 36  1  0  0  0
 34 59  1  0  0  0
 34106  1  0  0  0
 35 44  2  0  0  0
 35 45  1  0  0  0
 35 68  1  0  0  0
 36 56  1  0  0  0
 36107  1  0  0  0
 37 39  1  0  0  0
 37 47  1  0  0  0
 37 66  1  0  0  0
 37108  1  0  0  0
 38 43  2  0  0  0
 38 46  1  0  0  0
 38 47  1  0  0  0
 39 64  1  0  0  0
 39 67  2  0  0  0
 40 52  1  0  0  0
 40 53  2  0  0  0
 40 58  1  0  0  0
 41109  1  0  0  0
 41110  1  0  0  0
 41111  1  0  0  0
 41 48  1  0  0  0
 42 43  1  0  0  0
 42 66  1  0  0  0
 42112  1  0  0  0
 42113  1  0  0  0
 43 44  1  0  0  0
 44114  1  0  0  0
 45 46  2  0  0  0
 45115  1  0  0  0
 46116  1  0  0  0
 47117  1  0  0  0
 47118  1  0  0  0
 48 56  1  0  0  0
 48 65  1  0  0  0
 48119  1  0  0  0
 49 50  1  0  0  0
 49 53  1  0  0  0
 49 64  1  0  0  0
 49120  1  0  0  0
 50 51  1  0  0  0
 50121  1  0  0  0
 50122  1  0  0  0
 51 52  1  0  0  0
 51123  1  0  0  0
 51124  1  0  0  0
 52125  1  0  0  0
 52126  1  0  0  0
 53 54  1  0  0  0
 54 55  2  0  0  0
 54127  1  0  0  0
 55 57  1  0  0  0
 55128  1  0  0  0
 56 69  2  0  0  0
 57 58  2  0  0  0
 57129  1  0  0  0
 58130  1  0  0  0
 59 60  1  0  0  0
 59 61  1  0  0  0
 59 62  1  0  0  0
 60131  1  0  0  0
 60132  1  0  0  0
 60133  1  0  0  0
 61134  1  0  0  0
 61135  1  0  0  0
 61136  1  0  0  0
 62137  1  0  0  0
 62138  1  0  0  0
 62139  1  0  0  0
 63 65  1  0  0  0
 63140  1  0  0  0
 63141  1  0  0  0
 63142  1  0  0  0
 64143  1  0  0  0
 65144  1  0  0  0
 68 80  1  0  0  0
 71 72  1  0  0  0
 71 73  2  0  0  0
 71145  1  0  0  0
 72 81  2  0  0  0
 72 82  1  0  0  0
 73 83  1  0  0  0
 73 85  1  0  0  0
 74 76  1  0  0  0
 74 78  1  0  0  0
 74146  1  0  0  0
 74147  1  0  0  0
 75 77  1  0  0  0
 75 78  1  0  0  0
 75148  1  0  0  0
 75149  1  0  0  0
 76 82  1  0  0  0
 76150  1  0  0  0
 76151  1  0  0  0
 77 82  1  0  0  0
 77152  1  0  0  0
 77153  1  0  0  0
 78 80  1  0  0  0
 78 84  1  0  0  0
 79 84  1  0  0  0
 79154  1  0  0  0
 79155  1  0  0  0
 79156  1  0  0  0
 80157  1  0  0  0
 80158  1  0  0  0
 81 85  1  0  0  0
 83159  1  0  0  0
M  ISO  4   1 100  68 101  80 101  83 100
M  END
> <chiral flag>
0

> <version>
0

> <s_m_source_file>
/data/baiqing/PycharmProjects/Reinvent-master-3.2/result/LINK_invent/BTK/process_docking_weight1_custom_product_contain_oxygen_bond_distance_aromatic_linkinvent_7_9_3/rearranged_h_0159.sdf

> <i_m_source_file_index>
62

> <r_mmod_Potential_Energy-OPLS-2005>
103.133331298828

> <r_mmod_Stretch_Energy-OPLS-2005>
95.3067245483398

> <r_mmod_Bend_Energy-OPLS-2005>
196.415451049805

> <r_mmod_Torsional_Energy-OPLS-2005>
247.2177734375

> <r_mmod_Improper_Torsional_Energy-OPLS-2005>
7.9705867767334

> <r_mmod_Van_der_Waal_Energy-OPLS-2005>
146.099517822266

> <r_mmod_Electrostatic_Energy-OPLS-2005>
-406.000213623047

> <r_mmod_Solvation_Energy-OPLS-2005>
-241.458251953125

> <b_mmod_Minimization_Converged-OPLS-2005>
0

> <r_mmod_RMS_Derivative-OPLS-2005>
1.27603161334991

$$$$
62
                    3D
 Structure written by MMmdl.
154163  0  0  1  0            999 V2000
  -30.5354  -14.9788   20.4388 C   0  0  0  0  0  0
  -30.4358  -12.6024   19.5211 C   0  0  0  0  0  0
  -29.5277  -12.5437   18.2695 C   0  0  0  0  0  0
  -28.0590  -12.3257   18.6752 C   0  0  0  0  0  0
  -27.6285  -13.2563   19.8385 C   0  0  2  0  0  0
  -28.6633  -13.2932   20.9823 C   0  0  0  0  0  0
  -25.2451  -13.8240   20.5707 C   0  0  0  0  0  0
  -24.1768  -13.0450   20.9200 C   0  0  0  0  0  0
  -24.6399  -11.6942   20.8729 C   0  0  0  0  0  0
  -23.9087  -10.4309   21.0389 C   0  0  0  0  0  0
  -24.3640   -9.4225   21.9166 C   0  0  0  0  0  0
  -23.6311   -8.2257   22.0741 C   0  0  0  0  0  0
  -22.4289   -8.0291   21.3539 C   0  0  0  0  0  0
  -21.9925   -9.0263   20.4642 C   0  0  0  0  0  0
  -22.7252  -10.2138   20.3046 C   0  0  0  0  0  0
  -21.6868   -6.0737   22.5273 C   0  0  0  0  0  0
  -21.4027   -6.5639   23.8203 C   0  0  0  0  0  0
  -21.3661   -5.6792   24.9168 C   0  0  0  0  0  0
  -21.6046   -4.3057   24.7221 C   0  0  0  0  0  0
  -21.8819   -3.8143   23.4342 C   0  0  0  0  0  0
  -21.9200   -4.6960   22.3397 C   0  0  0  0  0  0
  -22.7787  -13.5208   21.1868 C   0  0  0  0  0  0
  -22.1661   -4.2143   21.0973 F   0  0  0  0  0  0
  -21.5633   -3.4540   25.7730 F   0  0  0  0  0  0
  -29.9474  -13.7080   20.4037 N   0  0  0  0  0  0
  -26.2876  -12.9487   20.3226 N   0  0  0  0  0  0
  -25.9332  -11.6612   20.5702 N   0  0  0  0  0  0
  -22.0454  -12.8191   22.0439 N   0  0  0  0  0  0
  -25.4143  -15.1976   20.4175 N   0  0  0  0  0  0
  -31.7170  -15.0130   20.0736 O   0  0  0  0  0  0
  -21.6655   -6.8882   21.4236 O   0  0  0  0  0  0
  -22.3450  -14.5498   20.6706 O   0  0  0  0  0  0
  -24.6487  -31.8402   23.1850 C   0  0  0  0  0  0
  -25.9234  -32.4677   23.8254 C   0  0  1  0  0  0
  -27.2167  -27.0862   20.1564 C   0  0  0  0  0  0
  -25.5960  -33.8486   24.2169 N   0  0  0  0  0  0
  -23.4550  -30.4589   21.5306 C   0  0  2  0  0  0
  -24.9067  -28.8795   20.1081 C   0  0  0  0  0  0
  -22.7590  -29.4524   22.4823 C   0  0  0  0  0  0
  -18.0314  -28.1405   22.8470 C   0  0  0  0  0  0
  -24.1490  -36.7248   23.2643 C   0  0  0  0  0  0
  -26.0150  -30.6958   21.3938 C   0  0  0  0  0  0
  -26.0847  -29.3026   20.7356 C   0  0  0  0  0  0
  -27.2382  -28.4214   20.7456 C   0  0  0  0  0  0
  -26.0159  -26.7880   19.4717 C   0  0  0  0  0  0
  -24.8885  -27.6376   19.4591 C   0  0  0  0  0  0
  -23.6853  -29.7873   20.1511 C   0  0  0  0  0  0
  -25.4128  -36.3026   24.0314 C   0  0  1  0  0  0
  -20.5933  -28.3734   23.1214 C   0  0  2  0  0  0
  -20.6797  -26.9433   22.5400 C   0  0  0  0  0  0
  -19.5766  -26.6380   21.5214 C   0  0  0  0  0  0
  -18.1950  -26.7941   22.1624 C   0  0  0  0  0  0
  -19.1574  -28.8891   23.2836 C   0  0  0  0  0  0
  -18.9484  -30.1487   23.8864 C   0  0  0  0  0  0
  -17.6481  -30.6596   24.0564 C   0  0  0  0  0  0
  -25.9085  -34.9400   23.5057 C   0  0  0  0  0  0
  -16.5375  -29.9088   23.6338 C   0  0  0  0  0  0
  -16.7299  -28.6512   23.0350 C   0  0  0  0  0  0
  -26.4542  -31.6562   25.0713 C   0  0  0  0  0  0
  -25.3703  -31.3757   26.1385 C   0  0  0  0  0  0
  -27.0420  -30.2953   24.6333 C   0  0  0  0  0  0
  -27.6059  -32.4334   25.7497 C   0  0  0  0  0  0
  -27.5577  -37.1783   24.8468 C   0  0  0  0  0  0
  -21.4278  -29.3054   22.3575 N   0  0  0  0  0  0
  -26.4288  -37.3741   23.9412 N   0  0  0  0  0  0
  -24.7260  -31.0205   22.0910 N   0  0  0  0  0  0
  -23.4209  -28.8079   23.2997 O   0  0  0  0  0  0
  -28.2380  -26.0520   20.2547 O   0  0  0  0  0  0
  -26.5667  -34.8902   22.4636 O   0  0  0  0  0  0
  -23.5587  -32.1294   23.7036 O   0  0  0  0  0  0
  -29.0101  -19.2838   18.3242 C   0  0  0  0  0  0
  -29.4140  -17.1929   18.5355 C   0  0  0  0  0  0
  -29.2621  -19.1129   19.6724 C   0  0  0  0  0  0
  -28.5837  -21.8342   19.8962 C   0  0  0  0  0  0
  -29.6648  -20.5905   21.6664 C   0  0  0  0  0  0
  -29.1714  -20.4771   20.4203 C   0  0  0  0  0  0
  -28.6960  -23.1454   20.4279 C   0  0  0  0  0  0
  -29.6637  -21.8955   22.4801 C   0  0  0  0  0  0
  -29.5601  -23.2364   21.6754 C   0  0  0  0  0  0
  -27.9252  -24.5422   19.9256 C   0  0  0  0  0  0
  -29.8298  -16.4573   20.8424 C   0  0  0  0  0  0
  -29.1048  -18.0944   17.6213 N   0  0  0  0  0  0
  -29.5495  -17.6182   19.8044 N   0  0  0  0  0  0
  -31.4749  -12.7412   19.2195 H   0  0  0  0  0  0
  -30.4118  -11.6500   20.0539 H   0  0  0  0  0  0
  -29.8549  -11.7470   17.6006 H   0  0  0  0  0  0
  -29.6210  -13.4741   17.7080 H   0  0  0  0  0  0
  -27.9540  -11.2837   18.9798 H   0  0  0  0  0  0
  -27.4022  -12.4582   17.8146 H   0  0  0  0  0  0
  -27.5904  -14.2593   19.4125 H   0  0  0  0  0  0
  -28.7471  -12.3175   21.4637 H   0  0  0  0  0  0
  -28.3502  -13.9916   21.7594 H   0  0  0  0  0  0
  -25.2792   -9.5702   22.4729 H   0  0  0  0  0  0
  -24.0029   -7.4654   22.7467 H   0  0  0  0  0  0
  -21.0856   -8.8782   19.8956 H   0  0  0  0  0  0
  -22.3710  -10.9674   19.6155 H   0  0  0  0  0  0
  -21.2016   -7.6148   23.9702 H   0  0  0  0  0  0
  -21.1486   -6.0524   25.9069 H   0  0  0  0  0  0
  -22.0596   -2.7607   23.2842 H   0  0  0  0  0  0
  -22.4111  -11.9888   22.4858 H   0  0  0  0  0  0
  -21.1052  -13.1178   22.2621 H   0  0  0  0  0  0
  -24.6511  -15.8544   20.5387 H   0  0  0  0  0  0
  -26.2688  -15.6406   20.1059 H   0  0  0  0  0  0
  -26.7299  -32.5265   23.0968 H   0  0  0  0  0  0
  -25.0084  -33.9596   25.0303 H   0  0  0  0  0  0
  -22.7608  -31.2865   21.3732 H   0  0  0  0  0  0
  -23.3762  -35.9570   23.3297 H   0  0  0  0  0  0
  -24.3567  -36.8891   22.2059 H   0  0  0  0  0  0
  -23.7234  -37.6438   23.6687 H   0  0  0  0  0  0
  -26.1786  -31.4459   20.6189 H   0  0  0  0  0  0
  -26.8828  -30.7472   22.0394 H   0  0  0  0  0  0
  -28.1290  -28.7383   21.2701 H   0  0  0  0  0  0
  -25.9060  -25.8460   18.9567 H   0  0  0  0  0  0
  -23.9933  -27.3123   18.9467 H   0  0  0  0  0  0
  -23.8270  -30.5616   19.3961 H   0  0  0  0  0  0
  -22.7987  -29.2331   19.8376 H   0  0  0  0  0  0
  -25.1317  -36.1853   25.0805 H   0  0  0  0  0  0
  -21.0032  -28.3344   24.1332 H   0  0  0  0  0  0
  -20.5685  -26.2360   23.3630 H   0  0  0  0  0  0
  -21.6661  -26.7427   22.1199 H   0  0  0  0  0  0
  -19.6929  -25.6278   21.1271 H   0  0  0  0  0  0
  -19.6710  -27.3166   20.6721 H   0  0  0  0  0  0
  -17.4221  -26.6682   21.4032 H   0  0  0  0  0  0
  -18.0355  -26.0096   22.9027 H   0  0  0  0  0  0
  -19.7959  -30.7313   24.2213 H   0  0  0  0  0  0
  -17.5031  -31.6271   24.5171 H   0  0  0  0  0  0
  -15.5370  -30.2977   23.7686 H   0  0  0  0  0  0
  -15.8698  -28.0824   22.7069 H   0  0  0  0  0  0
  -24.5868  -30.7142   25.7675 H   0  0  0  0  0  0
  -24.8907  -32.2941   26.4777 H   0  0  0  0  0  0
  -25.7947  -30.8918   27.0190 H   0  0  0  0  0  0
  -26.3057  -29.6651   24.1335 H   0  0  0  0  0  0
  -27.4016  -29.7281   25.4931 H   0  0  0  0  0  0
  -27.8969  -30.4185   23.9681 H   0  0  0  0  0  0
  -27.2652  -33.3646   26.2034 H   0  0  0  0  0  0
  -28.3886  -32.6885   25.0340 H   0  0  0  0  0  0
  -28.0717  -31.8494   26.5443 H   0  0  0  0  0  0
  -28.2595  -38.0081   24.7510 H   0  0  0  0  0  0
  -28.1075  -36.2609   24.6303 H   0  0  0  0  0  0
  -27.2290  -37.1436   25.8870 H   0  0  0  0  0  0
  -20.9504  -29.8765   21.6739 H   0  0  0  0  0  0
  -26.0158  -38.2813   24.1405 H   0  0  0  0  0  0
  -28.7752  -20.1865   17.7781 H   0  0  0  0  0  0
  -29.5234  -16.1555   18.2507 H   0  0  0  0  0  0
  -27.9210  -21.7635   19.0474 H   0  0  0  0  0  0
  -30.0852  -19.7234   22.1590 H   0  0  0  0  0  0
  -30.5619  -21.9180   23.0970 H   0  0  0  0  0  0
  -28.8250  -21.8303   23.1752 H   0  0  0  0  0  0
  -29.1842  -24.0262   22.3277 H   0  0  0  0  0  0
  -30.5558  -23.5489   21.3546 H   0  0  0  0  0  0
  -26.9163  -24.3798   20.3034 H   0  0  0  0  0  0
  -27.8388  -24.4666   18.8420 H   0  0  0  0  0  0
  -28.8786  -16.2362   21.3239 H   0  0  0  0  0  0
  -30.4503  -16.8875   21.6287 H   0  0  0  0  0  0
  1 25  1  0  0  0
  1 30  2  0  0  0
  1 81  1  0  0  0
  2  3  1  0  0  0
  2 25  1  0  0  0
  2 84  1  0  0  0
  2 85  1  0  0  0
  3  4  1  0  0  0
  3 86  1  0  0  0
  3 87  1  0  0  0
  4  5  1  0  0  0
  4 88  1  0  0  0
  4 89  1  0  0  0
  5  6  1  0  0  0
  5 26  1  0  0  0
  5 90  1  0  0  0
  6 25  1  0  0  0
  6 91  1  0  0  0
  6 92  1  0  0  0
  7  8  2  0  0  0
  7 26  1  0  0  0
  7 29  1  0  0  0
  8  9  1  0  0  0
  8 22  1  0  0  0
  9 10  1  0  0  0
  9 27  2  0  0  0
 10 11  2  0  0  0
 10 15  1  0  0  0
 11 12  1  0  0  0
 11 93  1  0  0  0
 12 13  2  0  0  0
 12 94  1  0  0  0
 13 14  1  0  0  0
 13 31  1  0  0  0
 14 15  2  0  0  0
 14 95  1  0  0  0
 15 96  1  0  0  0
 16 17  2  0  0  0
 16 21  1  0  0  0
 16 31  1  0  0  0
 17 18  1  0  0  0
 17 97  1  0  0  0
 18 19  2  0  0  0
 18 98  1  0  0  0
 19 20  1  0  0  0
 19 24  1  0  0  0
 20 21  2  0  0  0
 20 99  1  0  0  0
 21 23  1  0  0  0
 22 28  1  0  0  0
 22 32  2  0  0  0
 26 27  1  0  0  0
 28100  1  0  0  0
 28101  1  0  0  0
 29102  1  0  0  0
 29103  1  0  0  0
 33 34  1  0  0  0
 33 66  1  0  0  0
 33 70  2  0  0  0
 34 36  1  0  0  0
 34 59  1  0  0  0
 34104  1  0  0  0
 35 44  2  0  0  0
 35 45  1  0  0  0
 35 68  1  0  0  0
 36 56  1  0  0  0
 36105  1  0  0  0
 37 39  1  0  0  0
 37 47  1  0  0  0
 37 66  1  0  0  0
 37106  1  0  0  0
 38 43  2  0  0  0
 38 46  1  0  0  0
 38 47  1  0  0  0
 39 64  1  0  0  0
 39 67  2  0  0  0
 40 52  1  0  0  0
 40 53  2  0  0  0
 40 58  1  0  0  0
 41107  1  0  0  0
 41108  1  0  0  0
 41109  1  0  0  0
 41 48  1  0  0  0
 42 43  1  0  0  0
 42 66  1  0  0  0
 42110  1  0  0  0
 42111  1  0  0  0
 43 44  1  0  0  0
 44112  1  0  0  0
 45 46  2  0  0  0
 45113  1  0  0  0
 46114  1  0  0  0
 47115  1  0  0  0
 47116  1  0  0  0
 48 56  1  0  0  0
 48 65  1  0  0  0
 48117  1  0  0  0
 49 50  1  0  0  0
 49 53  1  0  0  0
 49 64  1  0  0  0
 49118  1  0  0  0
 50 51  1  0  0  0
 50119  1  0  0  0
 50120  1  0  0  0
 51 52  1  0  0  0
 51121  1  0  0  0
 51122  1  0  0  0
 52123  1  0  0  0
 52124  1  0  0  0
 53 54  1  0  0  0
 54 55  2  0  0  0
 54125  1  0  0  0
 55 57  1  0  0  0
 55126  1  0  0  0
 56 69  2  0  0  0
 57 58  2  0  0  0
 57127  1  0  0  0
 58128  1  0  0  0
 59 60  1  0  0  0
 59 61  1  0  0  0
 59 62  1  0  0  0
 60129  1  0  0  0
 60130  1  0  0  0
 60131  1  0  0  0
 61132  1  0  0  0
 61133  1  0  0  0
 61134  1  0  0  0
 62135  1  0  0  0
 62136  1  0  0  0
 62137  1  0  0  0
 63 65  1  0  0  0
 63138  1  0  0  0
 63139  1  0  0  0
 63140  1  0  0  0
 64141  1  0  0  0
 65142  1  0  0  0
 68 80  1  0  0  0
 71 73  2  0  0  0
 71 82  1  0  0  0
 71143  1  0  0  0
 72 82  2  0  0  0
 72 83  1  0  0  0
 72144  1  0  0  0
 73 76  1  0  0  0
 73 83  1  0  0  0
 74 76  1  0  0  0
 74 77  2  0  0  0
 74145  1  0  0  0
 75 76  2  0  0  0
 75 78  1  0  0  0
 75146  1  0  0  0
 77 79  1  0  0  0
 77 80  1  0  0  0
 78 79  1  0  0  0
 78147  1  0  0  0
 78148  1  0  0  0
 79149  1  0  0  0
 79150  1  0  0  0
 80151  1  0  0  0
 80152  1  0  0  0
 81 83  1  0  0  0
 81153  1  0  0  0
 81154  1  0  0  0
M  ISO  4   1 100  68 101  80 101  81 100
M  END
> <chiral flag>
0

> <version>
0

> <s_m_source_file>
/data/baiqing/PycharmProjects/Reinvent-master-3.2/result/LINK_invent/BTK/process_docking_weight1_custom_product_contain_oxygen_bond_distance_aromatic_linkinvent_7_9_3/rearranged_h_0159.sdf

> <i_m_source_file_index>
63

> <r_mmod_Potential_Energy-OPLS-2005>
659.070190429688

> <r_mmod_Stretch_Energy-OPLS-2005>
316.661590576172

> <r_mmod_Bend_Energy-OPLS-2005>
321.78271484375

> <r_mmod_Torsional_Energy-OPLS-2005>
196.947723388672

> <r_mmod_Improper_Torsional_Energy-OPLS-2005>
2.51188969612122

> <r_mmod_Van_der_Waal_Energy-OPLS-2005>
122.549629211426

> <r_mmod_Electrostatic_Energy-OPLS-2005>
-309.689788818359

> <r_mmod_Solvation_Energy-OPLS-2005>
-217.743713378906

> <b_mmod_Minimization_Converged-OPLS-2005>
0

> <r_mmod_RMS_Derivative-OPLS-2005>
1.83317291736603

$$$$
63
                    3D
 Structure written by MMmdl.
151159  0  0  1  0            999 V2000
  -30.5921  -14.7459   20.4579 C   0  0  0  0  0  0
  -30.4406  -12.4518   19.4726 C   0  0  0  0  0  0
  -29.5133  -12.5059   18.2368 C   0  0  0  0  0  0
  -28.0376  -12.3324   18.6471 C   0  0  0  0  0  0
  -27.6455  -13.2273   19.8527 C   0  0  2  0  0  0
  -28.6901  -13.1397   20.9869 C   0  0  0  0  0  0
  -25.2535  -13.8193   20.5693 C   0  0  0  0  0  0
  -24.1822  -13.0455   20.9226 C   0  0  0  0  0  0
  -24.6407  -11.6926   20.8770 C   0  0  0  0  0  0
  -23.9092  -10.4300   21.0428 C   0  0  0  0  0  0
  -24.3638   -9.4204   21.9200 C   0  0  0  0  0  0
  -23.6303   -8.2239   22.0760 C   0  0  0  0  0  0
  -22.4281   -8.0292   21.3548 C   0  0  0  0  0  0
  -21.9929   -9.0274   20.4649 C   0  0  0  0  0  0
  -22.7274  -10.2147   20.3065 C   0  0  0  0  0  0
  -21.6851   -6.0757   22.5291 C   0  0  0  0  0  0
  -21.4009   -6.5652   23.8230 C   0  0  0  0  0  0
  -21.3656   -5.6796   24.9185 C   0  0  0  0  0  0
  -21.6039   -4.3059   24.7225 C   0  0  0  0  0  0
  -21.8820   -3.8163   23.4343 C   0  0  0  0  0  0
  -21.9187   -4.6984   22.3406 C   0  0  0  0  0  0
  -22.7836  -13.5239   21.1872 C   0  0  0  0  0  0
  -22.1661   -4.2173   21.0981 F   0  0  0  0  0  0
  -21.5624   -3.4540   25.7735 F   0  0  0  0  0  0
  -29.9944  -13.5041   20.4146 N   0  0  0  0  0  0
  -26.2956  -12.9393   20.3278 N   0  0  0  0  0  0
  -25.9334  -11.6545   20.5762 N   0  0  0  0  0  0
  -22.0469  -12.8224   22.0414 N   0  0  0  0  0  0
  -25.4218  -15.1911   20.4075 N   0  0  0  0  0  0
  -31.7736  -14.8693   20.1175 O   0  0  0  0  0  0
  -21.6635   -6.8899   21.4252 O   0  0  0  0  0  0
  -22.3522  -14.5552   20.6720 O   0  0  0  0  0  0
  -24.6328  -31.8538   23.1985 C   0  0  0  0  0  0
  -25.9140  -32.4748   23.8353 C   0  0  1  0  0  0
  -27.2234  -27.2465   20.1205 C   0  0  0  0  0  0
  -25.5933  -33.8556   24.2265 N   0  0  0  0  0  0
  -23.4318  -30.4752   21.5426 C   0  0  2  0  0  0
  -24.8800  -28.9231   20.1086 C   0  0  0  0  0  0
  -22.7528  -29.4577   22.4915 C   0  0  0  0  0  0
  -18.0298  -28.1378   22.8481 C   0  0  0  0  0  0
  -24.1490  -36.7274   23.2641 C   0  0  0  0  0  0
  -25.9805  -30.7572   21.3862 C   0  0  0  0  0  0
  -26.0517  -29.3798   20.7255 C   0  0  0  0  0  0
  -27.2219  -28.5514   20.7268 C   0  0  0  0  0  0
  -26.0315  -26.8741   19.4557 C   0  0  0  0  0  0
  -24.8765  -27.6783   19.4645 C   0  0  0  0  0  0
  -23.6511  -29.8103   20.1583 C   0  0  0  0  0  0
  -25.4113  -36.3064   24.0329 C   0  0  1  0  0  0
  -20.5899  -28.3682   23.1259 C   0  0  2  0  0  0
  -20.6772  -26.9397   22.5404 C   0  0  0  0  0  0
  -19.5750  -26.6370   21.5209 C   0  0  0  0  0  0
  -18.1932  -26.7924   22.1622 C   0  0  0  0  0  0
  -19.1557  -28.8853   23.2865 C   0  0  0  0  0  0
  -18.9472  -30.1458   23.8871 C   0  0  0  0  0  0
  -17.6465  -30.6570   24.0558 C   0  0  0  0  0  0
  -25.9055  -34.9431   23.5097 C   0  0  0  0  0  0
  -16.5354  -29.9059   23.6337 C   0  0  0  0  0  0
  -16.7282  -28.6494   23.0338 C   0  0  0  0  0  0
  -26.4499  -31.6593   25.0756 C   0  0  0  0  0  0
  -25.3705  -31.3749   26.1469 C   0  0  0  0  0  0
  -27.0365  -30.3001   24.6275 C   0  0  0  0  0  0
  -27.6053  -32.4348   25.7515 C   0  0  0  0  0  0
  -27.5579  -37.1785   24.8465 C   0  0  0  0  0  0
  -21.4230  -29.3029   22.3656 N   0  0  0  0  0  0
  -26.4294  -37.3753   23.9407 N   0  0  0  0  0  0
  -24.7008  -31.0473   22.0978 N   0  0  0  0  0  0
  -23.4219  -28.8109   23.3018 O   0  0  0  0  0  0
  -28.3131  -26.3410   20.2025 O   0  0  0  0  0  0
  -26.5632  -34.8896   22.4667 O   0  0  0  0  0  0
  -23.5466  -32.1397   23.7234 O   0  0  0  0  0  0
  -28.9965  -18.2218   20.8198 C   0  0  0  0  0  0
  -29.5265  -19.5338   20.4501 C   0  0  0  0  0  0
  -29.9305  -17.2249   20.5258 C   0  0  0  0  0  0
  -30.7632  -19.1937   19.9391 C   0  0  0  0  0  0
  -28.8248  -20.9286   20.6493 C   0  0  0  0  0  0
  -28.9446  -23.7483   20.5594 C   0  0  0  0  0  0
  -29.2167  -22.2993   19.9055 C   0  0  0  0  0  0
  -28.1517  -24.8982   19.7736 C   0  0  0  0  0  0
  -27.8099  -20.9657   21.4074 N   0  0  0  0  0  0
  -31.7340  -20.0395   19.4216 N   0  0  0  0  0  0
  -29.7763  -15.8388   20.7180 N   0  0  0  0  0  0
  -29.3992  -24.0001   21.6814 O   0  0  0  0  0  0
  -31.0295  -17.8318   19.9736 O   0  0  0  0  0  0
  -31.4806  -12.5863   19.1688 H   0  0  0  0  0  0
  -30.3952  -11.4719   19.9501 H   0  0  0  0  0  0
  -29.7940  -11.7316   17.5221 H   0  0  0  0  0  0
  -29.6390  -13.4600   17.7223 H   0  0  0  0  0  0
  -27.8897  -11.2831   18.9044 H   0  0  0  0  0  0
  -27.3806  -12.5306   17.7994 H   0  0  0  0  0  0
  -27.6444  -14.2519   19.4802 H   0  0  0  0  0  0
  -28.7232  -12.1300   21.3981 H   0  0  0  0  0  0
  -28.4219  -13.7939   21.8182 H   0  0  0  0  0  0
  -25.2785   -9.5665   22.4782 H   0  0  0  0  0  0
  -24.0012   -7.4620   22.7471 H   0  0  0  0  0  0
  -21.0864   -8.8807   19.8942 H   0  0  0  0  0  0
  -22.3756  -10.9692   19.6169 H   0  0  0  0  0  0
  -21.2007   -7.6159   23.9745 H   0  0  0  0  0  0
  -21.1472   -6.0520   25.9090 H   0  0  0  0  0  0
  -22.0599   -2.7626   23.2837 H   0  0  0  0  0  0
  -22.4058  -11.9874   22.4801 H   0  0  0  0  0  0
  -21.1084  -13.1246   22.2623 H   0  0  0  0  0  0
  -24.6480  -15.8393   20.5084 H   0  0  0  0  0  0
  -26.2517  -15.6247   20.0251 H   0  0  0  0  0  0
  -26.7211  -32.5378   23.1102 H   0  0  0  0  0  0
  -25.0062  -33.9719   25.0397 H   0  0  0  0  0  0
  -22.7298  -31.2982   21.3953 H   0  0  0  0  0  0
  -23.3754  -35.9610   23.3309 H   0  0  0  0  0  0
  -24.3581  -36.8894   22.2059 H   0  0  0  0  0  0
  -23.7249  -37.6472   23.6671 H   0  0  0  0  0  0
  -26.1260  -31.5183   20.6173 H   0  0  0  0  0  0
  -26.8564  -30.8045   22.0218 H   0  0  0  0  0  0
  -28.1153  -28.8867   21.2343 H   0  0  0  0  0  0
  -25.9488  -25.9372   18.9279 H   0  0  0  0  0  0
  -23.9835  -27.3259   18.9670 H   0  0  0  0  0  0
  -23.7763  -30.5879   19.4041 H   0  0  0  0  0  0
  -22.7709  -29.2429   19.8520 H   0  0  0  0  0  0
  -25.1293  -36.1921   25.0825 H   0  0  0  0  0  0
  -21.0004  -28.3244   24.1381 H   0  0  0  0  0  0
  -20.5666  -26.2287   23.3600 H   0  0  0  0  0  0
  -21.6634  -26.7400   22.1198 H   0  0  0  0  0  0
  -19.6910  -25.6283   21.1230 H   0  0  0  0  0  0
  -19.6686  -27.3186   20.6738 H   0  0  0  0  0  0
  -17.4195  -26.6678   21.4021 H   0  0  0  0  0  0
  -18.0328  -26.0068   22.9026 H   0  0  0  0  0  0
  -19.7948  -30.7297   24.2205 H   0  0  0  0  0  0
  -17.5007  -31.6249   24.5167 H   0  0  0  0  0  0
  -15.5348  -30.2939   23.7681 H   0  0  0  0  0  0
  -15.8693  -28.0808   22.7033 H   0  0  0  0  0  0
  -24.5883  -30.7102   25.7786 H   0  0  0  0  0  0
  -24.8892  -32.2920   26.4872 H   0  0  0  0  0  0
  -25.8003  -30.8936   27.0265 H   0  0  0  0  0  0
  -26.2972  -29.6733   24.1270 H   0  0  0  0  0  0
  -27.4003  -29.7288   25.4825 H   0  0  0  0  0  0
  -27.8870  -30.4274   23.9571 H   0  0  0  0  0  0
  -27.2667  -33.3666   26.2063 H   0  0  0  0  0  0
  -28.3857  -32.6885   25.0325 H   0  0  0  0  0  0
  -28.0733  -31.8502   26.5447 H   0  0  0  0  0  0
  -28.2573  -38.0095   24.7503 H   0  0  0  0  0  0
  -28.1094  -36.2620   24.6303 H   0  0  0  0  0  0
  -27.2301  -37.1439   25.8868 H   0  0  0  0  0  0
  -20.9416  -29.8773   21.6877 H   0  0  0  0  0  0
  -26.0173  -38.2830   24.1407 H   0  0  0  0  0  0
  -28.0250  -18.0337   21.2532 H   0  0  0  0  0  0
  -28.7299  -22.2928   18.9306 H   0  0  0  0  0  0
  -30.2842  -22.2664   19.6975 H   0  0  0  0  0  0
  -27.1101  -24.5959   19.8646 H   0  0  0  0  0  0
  -28.4089  -24.8236   18.7167 H   0  0  0  0  0  0
  -27.6134  -20.0574   21.8131 H   0  0  0  0  0  0
  -31.6519  -21.0469   19.3532 H   0  0  0  0  0  0
  -32.6128  -19.6956   19.0484 H   0  0  0  0  0  0
  -28.8587  -15.5622   21.0318 H   0  0  0  0  0  0
  1 25  1  0  0  0
  1 30  2  0  0  0
  1 81  1  0  0  0
  2  3  1  0  0  0
  2 25  1  0  0  0
  2 84  1  0  0  0
  2 85  1  0  0  0
  3  4  1  0  0  0
  3 86  1  0  0  0
  3 87  1  0  0  0
  4  5  1  0  0  0
  4 88  1  0  0  0
  4 89  1  0  0  0
  5  6  1  0  0  0
  5 26  1  0  0  0
  5 90  1  0  0  0
  6 25  1  0  0  0
  6 91  1  0  0  0
  6 92  1  0  0  0
  7  8  2  0  0  0
  7 26  1  0  0  0
  7 29  1  0  0  0
  8  9  1  0  0  0
  8 22  1  0  0  0
  9 10  1  0  0  0
  9 27  2  0  0  0
 10 11  2  0  0  0
 10 15  1  0  0  0
 11 12  1  0  0  0
 11 93  1  0  0  0
 12 13  2  0  0  0
 12 94  1  0  0  0
 13 14  1  0  0  0
 13 31  1  0  0  0
 14 15  2  0  0  0
 14 95  1  0  0  0
 15 96  1  0  0  0
 16 17  2  0  0  0
 16 21  1  0  0  0
 16 31  1  0  0  0
 17 18  1  0  0  0
 17 97  1  0  0  0
 18 19  2  0  0  0
 18 98  1  0  0  0
 19 20  1  0  0  0
 19 24  1  0  0  0
 20 21  2  0  0  0
 20 99  1  0  0  0
 21 23  1  0  0  0
 22 28  1  0  0  0
 22 32  2  0  0  0
 26 27  1  0  0  0
 28100  1  0  0  0
 28101  1  0  0  0
 29102  1  0  0  0
 29103  1  0  0  0
 33 34  1  0  0  0
 33 66  1  0  0  0
 33 70  2  0  0  0
 34 36  1  0  0  0
 34 59  1  0  0  0
 34104  1  0  0  0
 35 44  2  0  0  0
 35 45  1  0  0  0
 35 68  1  0  0  0
 36 56  1  0  0  0
 36105  1  0  0  0
 37 39  1  0  0  0
 37 47  1  0  0  0
 37 66  1  0  0  0
 37106  1  0  0  0
 38 43  2  0  0  0
 38 46  1  0  0  0
 38 47  1  0  0  0
 39 64  1  0  0  0
 39 67  2  0  0  0
 40 52  1  0  0  0
 40 53  2  0  0  0
 40 58  1  0  0  0
 41107  1  0  0  0
 41108  1  0  0  0
 41109  1  0  0  0
 41 48  1  0  0  0
 42 43  1  0  0  0
 42 66  1  0  0  0
 42110  1  0  0  0
 42111  1  0  0  0
 43 44  1  0  0  0
 44112  1  0  0  0
 45 46  2  0  0  0
 45113  1  0  0  0
 46114  1  0  0  0
 47115  1  0  0  0
 47116  1  0  0  0
 48 56  1  0  0  0
 48 65  1  0  0  0
 48117  1  0  0  0
 49 50  1  0  0  0
 49 53  1  0  0  0
 49 64  1  0  0  0
 49118  1  0  0  0
 50 51  1  0  0  0
 50119  1  0  0  0
 50120  1  0  0  0
 51 52  1  0  0  0
 51121  1  0  0  0
 51122  1  0  0  0
 52123  1  0  0  0
 52124  1  0  0  0
 53 54  1  0  0  0
 54 55  2  0  0  0
 54125  1  0  0  0
 55 57  1  0  0  0
 55126  1  0  0  0
 56 69  2  0  0  0
 57 58  2  0  0  0
 57127  1  0  0  0
 58128  1  0  0  0
 59 60  1  0  0  0
 59 61  1  0  0  0
 59 62  1  0  0  0
 60129  1  0  0  0
 60130  1  0  0  0
 60131  1  0  0  0
 61132  1  0  0  0
 61133  1  0  0  0
 61134  1  0  0  0
 62135  1  0  0  0
 62136  1  0  0  0
 62137  1  0  0  0
 63 65  1  0  0  0
 63138  1  0  0  0
 63139  1  0  0  0
 63140  1  0  0  0
 64141  1  0  0  0
 65142  1  0  0  0
 68 78  1  0  0  0
 71 72  1  0  0  0
 71 73  2  0  0  0
 71143  1  0  0  0
 72 74  2  0  0  0
 72 75  1  0  0  0
 73 81  1  0  0  0
 73 83  1  0  0  0
 74 80  1  0  0  0
 74 83  1  0  0  0
 75 77  1  0  0  0
 75 79  2  0  0  0
 76 77  1  0  0  0
 76 78  1  0  0  0
 76 82  2  0  0  0
 77144  1  0  0  0
 77145  1  0  0  0
 78146  1  0  0  0
 78147  1  0  0  0
 79148  1  0  0  0
 80149  1  0  0  0
 80150  1  0  0  0
 81151  1  0  0  0
M  ISO  4   1 100  68 101  78 101  81 100
M  END
> <chiral flag>
0

> <version>
0

> <s_m_source_file>
/data/baiqing/PycharmProjects/Reinvent-master-3.2/result/LINK_invent/BTK/process_docking_weight1_custom_product_contain_oxygen_bond_distance_aromatic_linkinvent_7_9_3/rearranged_h_0159.sdf

> <i_m_source_file_index>
64

> <r_mmod_Potential_Energy-OPLS-2005>
159.776916503906

> <r_mmod_Stretch_Energy-OPLS-2005>
125.890342712402

> <r_mmod_Bend_Energy-OPLS-2005>
196.478179931641

> <r_mmod_Torsional_Energy-OPLS-2005>
206.642990112305

> <r_mmod_Improper_Torsional_Energy-OPLS-2005>
4.96356201171875

> <r_mmod_Van_der_Waal_Energy-OPLS-2005>
119.596855163574

> <r_mmod_Electrostatic_Energy-OPLS-2005>
-310.828582763672

> <r_mmod_Solvation_Energy-OPLS-2005>
-272.938781738281

> <b_mmod_Minimization_Converged-OPLS-2005>
0

> <r_mmod_RMS_Derivative-OPLS-2005>
1.89961552619934

$$$$
64
                    3D
 Structure written by MMmdl.
162171  0  0  1  0            999 V2000
  -30.5335  -14.8245   20.4316 C   0  0  0  0  0  0
  -30.4469  -12.4817   19.4896 C   0  0  0  0  0  0
  -29.5264  -12.5160   18.2453 C   0  0  0  0  0  0
  -28.0528  -12.3196   18.6588 C   0  0  0  0  0  0
  -27.6516  -13.2208   19.8576 C   0  0  2  0  0  0
  -28.6976  -13.1499   20.9914 C   0  0  0  0  0  0
  -25.2560  -13.8122   20.5715 C   0  0  0  0  0  0
  -24.1811  -13.0441   20.9239 C   0  0  0  0  0  0
  -24.6373  -11.6908   20.8777 C   0  0  0  0  0  0
  -23.9064  -10.4285   21.0431 C   0  0  0  0  0  0
  -24.3620   -9.4163   21.9197 C   0  0  0  0  0  0
  -23.6296   -8.2203   22.0753 C   0  0  0  0  0  0
  -22.4270   -8.0250   21.3553 C   0  0  0  0  0  0
  -21.9910   -9.0235   20.4636 C   0  0  0  0  0  0
  -22.7252  -10.2113   20.3054 C   0  0  0  0  0  0
  -21.6824   -6.0756   22.5278 C   0  0  0  0  0  0
  -21.4016   -6.5663   23.8226 C   0  0  0  0  0  0
  -21.3683   -5.6802   24.9162 C   0  0  0  0  0  0
  -21.6011   -4.3069   24.7207 C   0  0  0  0  0  0
  -21.8811   -3.8161   23.4330 C   0  0  0  0  0  0
  -21.9169   -4.6983   22.3390 C   0  0  0  0  0  0
  -22.7813  -13.5275   21.1830 C   0  0  0  0  0  0
  -22.1631   -4.2200   21.0958 F   0  0  0  0  0  0
  -21.5626   -3.4528   25.7711 F   0  0  0  0  0  0
  -29.9929  -13.5477   20.4145 N   0  0  0  0  0  0
  -26.2997  -12.9317   20.3315 N   0  0  0  0  0  0
  -25.9321  -11.6500   20.5806 N   0  0  0  0  0  0
  -22.0435  -12.8261   22.0370 N   0  0  0  0  0  0
  -25.4286  -15.1825   20.4056 N   0  0  0  0  0  0
  -31.7077  -14.9847   20.0726 O   0  0  0  0  0  0
  -21.6595   -6.8885   21.4247 O   0  0  0  0  0  0
  -22.3565  -14.5596   20.6705 O   0  0  0  0  0  0
  -24.6271  -31.8443   23.1939 C   0  0  0  0  0  0
  -25.9108  -32.4661   23.8252 C   0  0  1  0  0  0
  -27.1969  -27.2131   20.1377 C   0  0  0  0  0  0
  -25.5915  -33.8485   24.2156 N   0  0  0  0  0  0
  -23.4244  -30.4687   21.5355 C   0  0  2  0  0  0
  -24.8691  -28.9037   20.0991 C   0  0  0  0  0  0
  -22.7463  -29.4546   22.4863 C   0  0  0  0  0  0
  -18.0302  -28.1369   22.8475 C   0  0  0  0  0  0
  -24.1524  -36.7273   23.2643 C   0  0  0  0  0  0
  -25.9714  -30.7422   21.3811 C   0  0  0  0  0  0
  -26.0354  -29.3648   20.7168 C   0  0  0  0  0  0
  -27.1981  -28.5292   20.7235 C   0  0  0  0  0  0
  -26.0158  -26.8229   19.4772 C   0  0  0  0  0  0
  -24.8667  -27.6479   19.4655 C   0  0  0  0  0  0
  -23.6412  -29.7966   20.1510 C   0  0  0  0  0  0
  -25.4148  -36.3001   24.0293 C   0  0  1  0  0  0
  -20.5885  -28.3662   23.1271 C   0  0  2  0  0  0
  -20.6779  -26.9365   22.5422 C   0  0  0  0  0  0
  -19.5773  -26.6357   21.5208 C   0  0  0  0  0  0
  -18.1943  -26.7916   22.1606 C   0  0  0  0  0  0
  -19.1537  -28.8831   23.2877 C   0  0  0  0  0  0
  -18.9461  -30.1444   23.8878 C   0  0  0  0  0  0
  -17.6457  -30.6562   24.0546 C   0  0  0  0  0  0
  -25.9051  -34.9385   23.5030 C   0  0  0  0  0  0
  -16.5357  -29.9047   23.6336 C   0  0  0  0  0  0
  -16.7288  -28.6478   23.0333 C   0  0  0  0  0  0
  -26.4505  -31.6512   25.0663 C   0  0  0  0  0  0
  -25.3769  -31.3659   26.1411 C   0  0  0  0  0  0
  -27.0321  -30.2900   24.6179 C   0  0  0  0  0  0
  -27.6006  -32.4300   25.7473 C   0  0  0  0  0  0
  -27.5582  -37.1785   24.8438 C   0  0  0  0  0  0
  -21.4162  -29.3001   22.3625 N   0  0  0  0  0  0
  -26.4290  -37.3710   23.9378 N   0  0  0  0  0  0
  -24.6936  -31.0388   22.0922 N   0  0  0  0  0  0
  -23.4159  -28.8059   23.2945 O   0  0  0  0  0  0
  -28.2931  -26.3330   20.2984 O   0  0  0  0  0  0
  -26.5653  -34.8869   22.4602 O   0  0  0  0  0  0
  -23.5438  -32.1288   23.7258 O   0  0  0  0  0  0
  -28.5096  -17.9129   21.5543 C   0  0  0  0  0  0
  -29.4653  -17.3577   20.7337 C   0  0  0  0  0  0
  -29.2258  -19.6396   20.3434 C   0  0  0  0  0  0
  -30.5309  -21.8663   22.1338 C   0  0  0  0  0  0
  -31.3147  -22.2336   20.8596 C   0  0  0  0  0  0
  -29.0592  -22.3269   22.0626 C   0  0  0  0  0  0
  -29.2120  -21.1702   19.7871 C   0  0  2  0  0  0
  -30.6637  -21.6830   19.5591 C   0  0  1  0  0  0
  -30.8148  -22.6534   18.3632 C   0  0  0  0  0  0
  -27.7296  -23.5005   20.2375 C   0  0  0  0  0  0
  -28.4765  -24.9015   19.8204 C   0  0  0  0  0  0
  -29.9069  -18.4879   19.9528 N   0  0  0  0  0  0
  -29.6418  -15.8572   20.7422 N   0  0  0  0  0  0
  -28.4509  -22.1760   20.7088 N   0  3  2  0  0  0
  -28.3542  -19.2817   21.3314 O   0  0  0  0  0  0
  -31.4972  -12.5910   19.2132 H   0  0  0  0  0  0
  -30.3745  -11.5072   19.9785 H   0  0  0  0  0  0
  -29.8270  -11.7464   17.5339 H   0  0  0  0  0  0
  -29.6344  -13.4676   17.7229 H   0  0  0  0  0  0
  -27.9279  -11.2728   18.9403 H   0  0  0  0  0  0
  -27.3865  -12.4830   17.8109 H   0  0  0  0  0  0
  -27.6472  -14.2430   19.4771 H   0  0  0  0  0  0
  -28.7507  -12.1416   21.4050 H   0  0  0  0  0  0
  -28.4243  -13.7941   21.8287 H   0  0  0  0  0  0
  -25.2775   -9.5652   22.4775 H   0  0  0  0  0  0
  -24.0014   -7.4583   22.7480 H   0  0  0  0  0  0
  -21.0864   -8.8762   19.8944 H   0  0  0  0  0  0
  -22.3723  -10.9668   19.6151 H   0  0  0  0  0  0
  -21.2036   -7.6165   23.9768 H   0  0  0  0  0  0
  -21.1515   -6.0503   25.9091 H   0  0  0  0  0  0
  -22.0573   -2.7640   23.2769 H   0  0  0  0  0  0
  -22.4072  -12.0024   22.4905 H   0  0  0  0  0  0
  -21.1042  -13.1329   22.2497 H   0  0  0  0  0  0
  -24.6523  -15.8307   20.4703 H   0  0  0  0  0  0
  -26.2622  -15.6092   20.0236 H   0  0  0  0  0  0
  -26.7121  -32.5250   23.0920 H   0  0  0  0  0  0
  -25.0027  -33.9626   25.0281 H   0  0  0  0  0  0
  -22.7188  -31.2906   21.3884 H   0  0  0  0  0  0
  -23.3749  -35.9628   23.3276 H   0  0  0  0  0  0
  -24.3594  -36.8953   22.2054 H   0  0  0  0  0  0
  -23.7338  -37.6481   23.6725 H   0  0  0  0  0  0
  -26.1229  -31.5023   20.6155 H   0  0  0  0  0  0
  -26.8429  -30.7793   22.0231 H   0  0  0  0  0  0
  -28.0867  -28.8651   21.2379 H   0  0  0  0  0  0
  -25.9503  -25.8516   19.0080 H   0  0  0  0  0  0
  -23.9708  -27.2900   18.9784 H   0  0  0  0  0  0
  -23.7673  -30.5721   19.3943 H   0  0  0  0  0  0
  -22.7577  -29.2321   19.8441 H   0  0  0  0  0  0
  -25.1353  -36.1799   25.0780 H   0  0  0  0  0  0
  -21.0028  -28.3286   24.1377 H   0  0  0  0  0  0
  -20.5693  -26.2250   23.3623 H   0  0  0  0  0  0
  -21.6645  -26.7396   22.1201 H   0  0  0  0  0  0
  -19.6929  -25.6270   21.1228 H   0  0  0  0  0  0
  -19.6743  -27.3178   20.6748 H   0  0  0  0  0  0
  -17.4221  -26.6676   21.3995 H   0  0  0  0  0  0
  -18.0341  -26.0049   22.9000 H   0  0  0  0  0  0
  -19.7934  -30.7267   24.2220 H   0  0  0  0  0  0
  -17.5011  -31.6249   24.5138 H   0  0  0  0  0  0
  -15.5349  -30.2923   23.7685 H   0  0  0  0  0  0
  -15.8703  -28.0804   22.7024 H   0  0  0  0  0  0
  -24.5950  -30.6983   25.7780 H   0  0  0  0  0  0
  -24.8969  -32.2823   26.4848 H   0  0  0  0  0  0
  -25.8159  -30.8850   27.0162 H   0  0  0  0  0  0
  -26.2852  -29.6646   24.1266 H   0  0  0  0  0  0
  -27.4006  -29.7177   25.4701 H   0  0  0  0  0  0
  -27.8761  -30.4101   23.9383 H   0  0  0  0  0  0
  -27.2510  -33.3573   26.2026 H   0  0  0  0  0  0
  -28.3845  -32.6905   25.0354 H   0  0  0  0  0  0
  -28.0627  -31.8448   26.5432 H   0  0  0  0  0  0
  -28.2545  -38.0129   24.7465 H   0  0  0  0  0  0
  -28.1139  -36.2640   24.6291 H   0  0  0  0  0  0
  -27.2282  -37.1454   25.8836 H   0  0  0  0  0  0
  -20.9319  -29.8687   21.6809 H   0  0  0  0  0  0
  -26.0151  -38.2762   24.1391 H   0  0  0  0  0  0
  -27.8406  -17.4782   22.2859 H   0  0  0  0  0  0
  -30.9991  -22.3102   23.0137 H   0  0  0  0  0  0
  -30.5836  -20.7899   22.3056 H   0  0  0  0  0  0
  -32.3300  -21.8442   20.9452 H   0  0  0  0  0  0
  -31.4216  -23.3165   20.8192 H   0  0  0  0  0  0
  -28.9883  -23.3651   22.3966 H   0  0  0  0  0  0
  -28.4577  -21.7521   22.7718 H   0  0  0  0  0  0
  -28.6733  -21.1299   18.8396 H   0  0  0  0  0  0
  -31.2409  -20.8104   19.2556 H   0  0  0  0  0  0
  -30.2472  -23.5696   18.4715 H   0  0  0  0  0  0
  -30.4767  -22.1924   17.4328 H   0  0  0  0  0  0
  -31.8548  -22.9566   18.2219 H   0  0  0  0  0  0
  -27.0701  -23.2282   19.4112 H   0  0  0  0  0  0
  -27.0346  -23.7631   21.0366 H   0  0  0  0  0  0
  -28.4900  -24.9415   18.7311 H   0  0  0  0  0  0
  -29.5078  -24.7400   20.1225 H   0  0  0  0  0  0
  -28.8192  -15.4124   21.1097 H   0  0  0  0  0  0
  -27.6479  -21.5936   20.9072 H   0  0  0  0  0  0
  1 25  1  0  0  0
  1 30  2  0  0  0
  1 83  1  0  0  0
  2  3  1  0  0  0
  2 25  1  0  0  0
  2 86  1  0  0  0
  2 87  1  0  0  0
  3  4  1  0  0  0
  3 88  1  0  0  0
  3 89  1  0  0  0
  4  5  1  0  0  0
  4 90  1  0  0  0
  4 91  1  0  0  0
  5  6  1  0  0  0
  5 26  1  0  0  0
  5 92  1  0  0  0
  6 25  1  0  0  0
  6 93  1  0  0  0
  6 94  1  0  0  0
  7  8  2  0  0  0
  7 26  1  0  0  0
  7 29  1  0  0  0
  8  9  1  0  0  0
  8 22  1  0  0  0
  9 10  1  0  0  0
  9 27  2  0  0  0
 10 11  2  0  0  0
 10 15  1  0  0  0
 11 12  1  0  0  0
 11 95  1  0  0  0
 12 13  2  0  0  0
 12 96  1  0  0  0
 13 14  1  0  0  0
 13 31  1  0  0  0
 14 15  2  0  0  0
 14 97  1  0  0  0
 15 98  1  0  0  0
 16 17  2  0  0  0
 16 21  1  0  0  0
 16 31  1  0  0  0
 17 18  1  0  0  0
 17 99  1  0  0  0
 18 19  2  0  0  0
 18100  1  0  0  0
 19 20  1  0  0  0
 19 24  1  0  0  0
 20 21  2  0  0  0
 20101  1  0  0  0
 21 23  1  0  0  0
 22 28  1  0  0  0
 22 32  2  0  0  0
 26 27  1  0  0  0
 28102  1  0  0  0
 28103  1  0  0  0
 29104  1  0  0  0
 29105  1  0  0  0
 33 34  1  0  0  0
 33 66  1  0  0  0
 33 70  2  0  0  0
 34 36  1  0  0  0
 34 59  1  0  0  0
 34106  1  0  0  0
 35 44  2  0  0  0
 35 45  1  0  0  0
 35 68  1  0  0  0
 36 56  1  0  0  0
 36107  1  0  0  0
 37 39  1  0  0  0
 37 47  1  0  0  0
 37 66  1  0  0  0
 37108  1  0  0  0
 38 43  2  0  0  0
 38 46  1  0  0  0
 38 47  1  0  0  0
 39 64  1  0  0  0
 39 67  2  0  0  0
 40 52  1  0  0  0
 40 53  2  0  0  0
 40 58  1  0  0  0
 41109  1  0  0  0
 41110  1  0  0  0
 41111  1  0  0  0
 41 48  1  0  0  0
 42 43  1  0  0  0
 42 66  1  0  0  0
 42112  1  0  0  0
 42113  1  0  0  0
 43 44  1  0  0  0
 44114  1  0  0  0
 45 46  2  0  0  0
 45115  1  0  0  0
 46116  1  0  0  0
 47117  1  0  0  0
 47118  1  0  0  0
 48 56  1  0  0  0
 48 65  1  0  0  0
 48119  1  0  0  0
 49 50  1  0  0  0
 49 53  1  0  0  0
 49 64  1  0  0  0
 49120  1  0  0  0
 50 51  1  0  0  0
 50121  1  0  0  0
 50122  1  0  0  0
 51 52  1  0  0  0
 51123  1  0  0  0
 51124  1  0  0  0
 52125  1  0  0  0
 52126  1  0  0  0
 53 54  1  0  0  0
 54 55  2  0  0  0
 54127  1  0  0  0
 55 57  1  0  0  0
 55128  1  0  0  0
 56 69  2  0  0  0
 57 58  2  0  0  0
 57129  1  0  0  0
 58130  1  0  0  0
 59 60  1  0  0  0
 59 61  1  0  0  0
 59 62  1  0  0  0
 60131  1  0  0  0
 60132  1  0  0  0
 60133  1  0  0  0
 61134  1  0  0  0
 61135  1  0  0  0
 61136  1  0  0  0
 62137  1  0  0  0
 62138  1  0  0  0
 62139  1  0  0  0
 63 65  1  0  0  0
 63140  1  0  0  0
 63141  1  0  0  0
 63142  1  0  0  0
 64143  1  0  0  0
 65144  1  0  0  0
 68 81  1  0  0  0
 71 72  2  0  0  0
 71 85  1  0  0  0
 71145  1  0  0  0
 72 82  1  0  0  0
 72 83  1  0  0  0
 73 82  2  0  0  0
 73 85  1  0  0  0
 73 77  1  0  0  0
 74 75  1  0  0  0
 74 76  1  0  0  0
 74146  1  0  0  0
 74147  1  0  0  0
 75 78  1  0  0  0
 75148  1  0  0  0
 75149  1  0  0  0
 76 84  1  0  0  0
 76150  1  0  0  0
 76151  1  0  0  0
 77 78  1  0  0  0
 77 84  1  0  0  0
 77152  1  0  0  0
 78 79  1  0  0  0
 78153  1  0  0  0
 79154  1  0  0  0
 79155  1  0  0  0
 79156  1  0  0  0
 80 81  1  0  0  0
 80157  1  0  0  0
 80158  1  0  0  0
 80 84  1  0  0  0
 81159  1  0  0  0
 81160  1  0  0  0
 83161  1  0  0  0
 84162  1  0  0  0
M  CHG  1  84   1
M  ISO  4   1 100  68 101  81 101  83 100
M  END
> <chiral flag>
0

> <version>
0

> <s_m_source_file>
/data/baiqing/PycharmProjects/Reinvent-master-3.2/result/LINK_invent/BTK/process_docking_weight1_custom_product_contain_oxygen_bond_distance_aromatic_linkinvent_7_9_3/rearranged_h_0159.sdf

> <i_m_source_file_index>
65

> <r_mmod_Potential_Energy-OPLS-2005>
345.284484863281

> <r_mmod_Stretch_Energy-OPLS-2005>
174.607498168945

> <r_mmod_Bend_Energy-OPLS-2005>
337.651306152344

> <r_mmod_Torsional_Energy-OPLS-2005>
286.606567382812

> <r_mmod_Improper_Torsional_Energy-OPLS-2005>
5.332679271698

> <r_mmod_Van_der_Waal_Energy-OPLS-2005>
117.271369934082

> <r_mmod_Electrostatic_Energy-OPLS-2005>
-243.375091552734

> <r_mmod_Solvation_Energy-OPLS-2005>
-455.238372802734

> <b_mmod_Minimization_Converged-OPLS-2005>
0

> <r_mmod_RMS_Derivative-OPLS-2005>
6.73367404937744

$$$$
65
                    3D
 Structure written by MMmdl.
154162  0  0  1  0            999 V2000
  -30.7265  -14.4576   20.4891 C   0  0  0  0  0  0
  -30.4211  -12.2801   19.4152 C   0  0  0  0  0  0
  -29.4865  -12.4702   18.2020 C   0  0  0  0  0  0
  -28.0150  -12.3282   18.6325 C   0  0  0  0  0  0
  -27.6619  -13.1972   19.8700 C   0  0  2  0  0  0
  -28.7105  -13.0013   20.9871 C   0  0  0  0  0  0
  -25.2627  -13.8130   20.5726 C   0  0  0  0  0  0
  -24.1858  -13.0451   20.9199 C   0  0  0  0  0  0
  -24.6384  -11.6894   20.8769 C   0  0  0  0  0  0
  -23.9038  -10.4307   21.0425 C   0  0  0  0  0  0
  -24.3592   -9.4210   21.9174 C   0  0  0  0  0  0
  -23.6277   -8.2248   22.0715 C   0  0  0  0  0  0
  -22.4255   -8.0281   21.3521 C   0  0  0  0  0  0
  -21.9897   -9.0261   20.4635 C   0  0  0  0  0  0
  -22.7209  -10.2152   20.3065 C   0  0  0  0  0  0
  -21.6860   -6.0727   22.5269 C   0  0  0  0  0  0
  -21.4011   -6.5620   23.8199 C   0  0  0  0  0  0
  -21.3656   -5.6769   24.9163 C   0  0  0  0  0  0
  -21.6052   -4.3037   24.7202 C   0  0  0  0  0  0
  -21.8825   -3.8129   23.4325 C   0  0  0  0  0  0
  -21.9192   -4.6958   22.3392 C   0  0  0  0  0  0
  -22.7883  -13.5260   21.1844 C   0  0  0  0  0  0
  -22.1655   -4.2151   21.0970 F   0  0  0  0  0  0
  -21.5641   -3.4514   25.7713 F   0  0  0  0  0  0
  -30.0411  -13.2830   20.4244 N   0  0  0  0  0  0
  -26.3047  -12.9278   20.3407 N   0  0  0  0  0  0
  -25.9307  -11.6440   20.5802 N   0  0  0  0  0  0
  -22.0506  -12.8322   22.0420 N   0  0  0  0  0  0
  -25.4442  -15.1844   20.4115 N   0  0  0  0  0  0
  -31.9132  -14.5313   20.1581 O   0  0  0  0  0  0
  -21.6619   -6.8872   21.4227 O   0  0  0  0  0  0
  -22.3605  -14.5572   20.6646 O   0  0  0  0  0  0
  -24.6114  -31.8684   23.2132 C   0  0  0  0  0  0
  -25.8992  -32.4855   23.8465 C   0  0  1  0  0  0
  -27.2836  -27.4682   20.1216 C   0  0  0  0  0  0
  -25.5837  -33.8644   24.2408 N   0  0  0  0  0  0
  -23.4116  -30.4870   21.5435 C   0  0  2  0  0  0
  -24.8812  -28.9610   20.1176 C   0  0  0  0  0  0
  -22.7471  -29.4609   22.4900 C   0  0  0  0  0  0
  -18.0291  -28.1430   22.8462 C   0  0  0  0  0  0
  -24.1493  -36.7341   23.2637 C   0  0  0  0  0  0
  -25.9377  -30.8446   21.3735 C   0  0  0  0  0  0
  -26.0274  -29.4774   20.7328 C   0  0  0  0  0  0
  -27.2317  -28.7387   20.7403 C   0  0  0  0  0  0
  -26.1269  -26.9701   19.4853 C   0  0  0  0  0  0
  -24.9253  -27.7045   19.4866 C   0  0  0  0  0  0
  -23.6381  -29.8210   20.1581 C   0  0  0  0  0  0
  -25.4095  -36.3135   24.0372 C   0  0  1  0  0  0
  -20.5890  -28.3693   23.1302 C   0  0  2  0  0  0
  -20.6762  -26.9413   22.5428 C   0  0  0  0  0  0
  -19.5759  -26.6410   21.5205 C   0  0  0  0  0  0
  -18.1932  -26.7976   22.1588 C   0  0  0  0  0  0
  -19.1539  -28.8868   23.2887 C   0  0  0  0  0  0
  -18.9460  -30.1456   23.8933 C   0  0  0  0  0  0
  -17.6448  -30.6589   24.0598 C   0  0  0  0  0  0
  -25.9014  -34.9497   23.5198 C   0  0  0  0  0  0
  -16.5350  -29.9117   23.6301 C   0  0  0  0  0  0
  -16.7278  -28.6551   23.0294 C   0  0  0  0  0  0
  -26.4465  -31.6608   25.0752 C   0  0  0  0  0  0
  -25.3774  -31.3729   26.1546 C   0  0  0  0  0  0
  -27.0243  -30.3044   24.6090 C   0  0  0  0  0  0
  -27.6131  -32.4282   25.7394 C   0  0  0  0  0  0
  -27.5612  -37.1795   24.8448 C   0  0  0  0  0  0
  -21.4172  -29.3039   22.3696 N   0  0  0  0  0  0
  -26.4292  -37.3811   23.9442 N   0  0  0  0  0  0
  -24.6698  -31.0814   22.1016 N   0  0  0  0  0  0
  -23.4240  -28.8132   23.2925 O   0  0  0  0  0  0
  -28.4215  -26.6960   20.0745 O   0  0  0  0  0  0
  -26.5581  -34.8926   22.4759 O   0  0  0  0  0  0
  -23.5293  -32.1381   23.7518 O   0  0  0  0  0  0
  -28.8091  -18.5892   19.4795 C   0  0  0  0  0  0
  -29.8141  -18.1566   20.3120 C   0  0  0  0  0  0
  -29.2182  -20.5210   20.6025 C   0  0  0  0  0  0
  -30.4328  -16.8675   20.3265 C   0  0  0  0  0  0
  -29.9275  -15.6651   20.6962 C   0  0  0  0  0  0
  -29.7391  -22.8996   20.6670 C   0  0  0  0  0  0
  -30.7453  -22.7592   19.5499 C   0  0  0  0  0  0
  -30.1709  -25.3917   21.1688 C   0  0  0  0  0  0
  -29.1790  -26.5729   21.2837 C   0  0  0  0  0  0
  -28.4663  -19.9364   19.6641 N   0  0  0  0  0  0
  -29.0269  -21.8205   21.0660 N   0  0  0  0  0  0
  -29.5183  -24.0710   21.3209 N   0  3  0  0  0  0
  -30.4380  -19.4558   21.2967 S   0  0  0  0  0  0
  -31.4613  -12.3660   19.0940 H   0  0  0  0  0  0
  -30.3158  -11.2728   19.8223 H   0  0  0  0  0  0
  -29.7161  -11.7300   17.4347 H   0  0  0  0  0  0
  -29.6486  -13.4471   17.7447 H   0  0  0  0  0  0
  -27.8558  -11.2770   18.8723 H   0  0  0  0  0  0
  -27.3409  -12.5477   17.8049 H   0  0  0  0  0  0
  -27.7021  -14.2370   19.5476 H   0  0  0  0  0  0
  -28.6825  -11.9697   21.3446 H   0  0  0  0  0  0
  -28.4901  -13.6205   21.8591 H   0  0  0  0  0  0
  -25.2737   -9.5690   22.4741 H   0  0  0  0  0  0
  -23.9987   -7.4634   22.7434 H   0  0  0  0  0  0
  -21.0817   -8.8785   19.8960 H   0  0  0  0  0  0
  -22.3638  -10.9694   19.6187 H   0  0  0  0  0  0
  -21.1988   -7.6121   23.9714 H   0  0  0  0  0  0
  -21.1475   -6.0484   25.9073 H   0  0  0  0  0  0
  -22.0607   -2.7593   23.2815 H   0  0  0  0  0  0
  -22.4038  -11.9989   22.4914 H   0  0  0  0  0  0
  -21.1114  -13.1372   22.2556 H   0  0  0  0  0  0
  -24.6934  -15.8533   20.5351 H   0  0  0  0  0  0
  -26.3081  -15.6116   20.1046 H   0  0  0  0  0  0
  -26.7069  -32.5630   23.1251 H   0  0  0  0  0  0
  -24.9968  -33.9801   25.0547 H   0  0  0  0  0  0
  -22.6991  -31.3001   21.3950 H   0  0  0  0  0  0
  -23.3765  -35.9660   23.3245 H   0  0  0  0  0  0
  -24.3626  -36.8984   22.2062 H   0  0  0  0  0  0
  -23.7206  -37.6533   23.6651 H   0  0  0  0  0  0
  -26.0529  -31.6060   20.6021 H   0  0  0  0  0  0
  -26.8253  -30.9078   21.9898 H   0  0  0  0  0  0
  -28.1179  -29.1546   21.1997 H   0  0  0  0  0  0
  -26.1719  -26.0104   18.9893 H   0  0  0  0  0  0
  -24.0560  -27.3094   18.9806 H   0  0  0  0  0  0
  -23.7624  -30.5985   19.4025 H   0  0  0  0  0  0
  -22.7713  -29.2365   19.8441 H   0  0  0  0  0  0
  -25.1250  -36.2037   25.0864 H   0  0  0  0  0  0
  -20.9988  -28.3262   24.1420 H   0  0  0  0  0  0
  -20.5613  -26.2299   23.3628 H   0  0  0  0  0  0
  -21.6643  -26.7406   22.1261 H   0  0  0  0  0  0
  -19.6901  -25.6322   21.1227 H   0  0  0  0  0  0
  -19.6740  -27.3223   20.6748 H   0  0  0  0  0  0
  -17.4221  -26.6754   21.3969 H   0  0  0  0  0  0
  -18.0288  -26.0128   22.8978 H   0  0  0  0  0  0
  -19.7922  -30.7258   24.2352 H   0  0  0  0  0  0
  -17.4999  -31.6249   24.5226 H   0  0  0  0  0  0
  -15.5355  -30.3029   23.7582 H   0  0  0  0  0  0
  -15.8686  -28.0885   22.6957 H   0  0  0  0  0  0
  -24.5919  -30.7090   25.7901 H   0  0  0  0  0  0
  -24.8996  -32.2898   26.5022 H   0  0  0  0  0  0
  -25.8155  -30.8877   27.0285 H   0  0  0  0  0  0
  -26.2721  -29.6796   24.1257 H   0  0  0  0  0  0
  -27.4124  -29.7282   25.4499 H   0  0  0  0  0  0
  -27.8536  -30.4340   23.9136 H   0  0  0  0  0  0
  -27.2856  -33.3553   26.2106 H   0  0  0  0  0  0
  -28.3817  -32.6896   25.0103 H   0  0  0  0  0  0
  -28.0976  -31.8341   26.5156 H   0  0  0  0  0  0
  -28.2594  -38.0131   24.7580 H   0  0  0  0  0  0
  -28.1151  -36.2678   24.6153 H   0  0  0  0  0  0
  -27.2367  -37.1311   25.8856 H   0  0  0  0  0  0
  -20.9348  -29.8814   21.6956 H   0  0  0  0  0  0
  -26.0209  -38.2888   24.1499 H   0  0  0  0  0  0
  -28.2986  -18.0090   18.7226 H   0  0  0  0  0  0
  -31.4357  -16.8953   19.9214 H   0  0  0  0  0  0
  -28.9343  -15.6165   21.1130 H   0  0  0  0  0  0
  -31.5697  -22.1182   19.8646 H   0  0  0  0  0  0
  -31.1613  -23.7107   19.2304 H   0  0  0  0  0  0
  -30.2807  -22.2993   18.6767 H   0  0  0  0  0  0
  -30.8869  -25.4687   21.9883 H   0  0  0  0  0  0
  -30.7506  -25.4835   20.2537 H   0  0  0  0  0  0
  -29.7573  -27.4782   21.4734 H   0  0  0  0  0  0
  -28.5213  -26.4410   22.1445 H   0  0  0  0  0  0
  -28.3254  -21.8614   21.7888 H   0  0  0  0  0  0
  -28.9102  -24.0342   22.1268 H   0  0  0  0  0  0
  1 25  1  0  0  0
  1 30  2  0  0  0
  1 75  1  0  0  0
  2  3  1  0  0  0
  2 25  1  0  0  0
  2 84  1  0  0  0
  2 85  1  0  0  0
  3  4  1  0  0  0
  3 86  1  0  0  0
  3 87  1  0  0  0
  4  5  1  0  0  0
  4 88  1  0  0  0
  4 89  1  0  0  0
  5  6  1  0  0  0
  5 26  1  0  0  0
  5 90  1  0  0  0
  6 25  1  0  0  0
  6 91  1  0  0  0
  6 92  1  0  0  0
  7  8  2  0  0  0
  7 26  1  0  0  0
  7 29  1  0  0  0
  8  9  1  0  0  0
  8 22  1  0  0  0
  9 10  1  0  0  0
  9 27  2  0  0  0
 10 11  2  0  0  0
 10 15  1  0  0  0
 11 12  1  0  0  0
 11 93  1  0  0  0
 12 13  2  0  0  0
 12 94  1  0  0  0
 13 14  1  0  0  0
 13 31  1  0  0  0
 14 15  2  0  0  0
 14 95  1  0  0  0
 15 96  1  0  0  0
 16 17  2  0  0  0
 16 21  1  0  0  0
 16 31  1  0  0  0
 17 18  1  0  0  0
 17 97  1  0  0  0
 18 19  2  0  0  0
 18 98  1  0  0  0
 19 20  1  0  0  0
 19 24  1  0  0  0
 20 21  2  0  0  0
 20 99  1  0  0  0
 21 23  1  0  0  0
 22 28  1  0  0  0
 22 32  2  0  0  0
 26 27  1  0  0  0
 28100  1  0  0  0
 28101  1  0  0  0
 29102  1  0  0  0
 29103  1  0  0  0
 33 34  1  0  0  0
 33 66  1  0  0  0
 33 70  2  0  0  0
 34 36  1  0  0  0
 34 59  1  0  0  0
 34104  1  0  0  0
 35 44  2  0  0  0
 35 45  1  0  0  0
 35 68  1  0  0  0
 36 56  1  0  0  0
 36105  1  0  0  0
 37 39  1  0  0  0
 37 47  1  0  0  0
 37 66  1  0  0  0
 37106  1  0  0  0
 38 43  2  0  0  0
 38 46  1  0  0  0
 38 47  1  0  0  0
 39 64  1  0  0  0
 39 67  2  0  0  0
 40 52  1  0  0  0
 40 53  2  0  0  0
 40 58  1  0  0  0
 41107  1  0  0  0
 41108  1  0  0  0
 41109  1  0  0  0
 41 48  1  0  0  0
 42 43  1  0  0  0
 42 66  1  0  0  0
 42110  1  0  0  0
 42111  1  0  0  0
 43 44  1  0  0  0
 44112  1  0  0  0
 45 46  2  0  0  0
 45113  1  0  0  0
 46114  1  0  0  0
 47115  1  0  0  0
 47116  1  0  0  0
 48 56  1  0  0  0
 48 65  1  0  0  0
 48117  1  0  0  0
 49 50  1  0  0  0
 49 53  1  0  0  0
 49 64  1  0  0  0
 49118  1  0  0  0
 50 51  1  0  0  0
 50119  1  0  0  0
 50120  1  0  0  0
 51 52  1  0  0  0
 51121  1  0  0  0
 51122  1  0  0  0
 52123  1  0  0  0
 52124  1  0  0  0
 53 54  1  0  0  0
 54 55  2  0  0  0
 54125  1  0  0  0
 55 57  1  0  0  0
 55126  1  0  0  0
 56 69  2  0  0  0
 57 58  2  0  0  0
 57127  1  0  0  0
 58128  1  0  0  0
 59 60  1  0  0  0
 59 61  1  0  0  0
 59 62  1  0  0  0
 60129  1  0  0  0
 60130  1  0  0  0
 60131  1  0  0  0
 61132  1  0  0  0
 61133  1  0  0  0
 61134  1  0  0  0
 62135  1  0  0  0
 62136  1  0  0  0
 62137  1  0  0  0
 63 65  1  0  0  0
 63138  1  0  0  0
 63139  1  0  0  0
 63140  1  0  0  0
 64141  1  0  0  0
 65142  1  0  0  0
 68 79  1  0  0  0
 71 72  2  0  0  0
 71 80  1  0  0  0
 71143  1  0  0  0
 72 74  1  0  0  0
 72 83  1  0  0  0
 73 80  2  0  0  0
 73 81  1  0  0  0
 73 83  1  0  0  0
 74 75  2  0  0  0
 74144  1  0  0  0
 75145  1  0  0  0
 76 77  1  0  0  0
 76 81  1  0  0  0
 76 82  2  0  0  0
 77146  1  0  0  0
 77147  1  0  0  0
 77148  1  0  0  0
 78 79  1  0  0  0
 78 82  1  0  0  0
 78149  1  0  0  0
 78150  1  0  0  0
 79151  1  0  0  0
 79152  1  0  0  0
 81153  1  0  0  0
 82154  1  0  0  0
M  CHG  1  82   1
M  ISO  4   1 100  68 101  75 100  79 101
M  END
> <chiral flag>
0

> <version>
0

> <s_m_source_file>
/data/baiqing/PycharmProjects/Reinvent-master-3.2/result/LINK_invent/BTK/process_docking_weight1_custom_product_contain_oxygen_bond_distance_aromatic_linkinvent_7_9_3/rearranged_h_0159.sdf

> <i_m_source_file_index>
66

> <r_mmod_Potential_Energy-OPLS-2005>
-27.5141201019287

> <r_mmod_Stretch_Energy-OPLS-2005>
34.1683921813965

> <r_mmod_Bend_Energy-OPLS-2005>
103.932067871094

> <r_mmod_Torsional_Energy-OPLS-2005>
261.044464111328

> <r_mmod_Improper_Torsional_Energy-OPLS-2005>
7.31936931610107

> <r_mmod_Van_der_Waal_Energy-OPLS-2005>
131.108856201172

> <r_mmod_Electrostatic_Energy-OPLS-2005>
-167.190673828125

> <r_mmod_Solvation_Energy-OPLS-2005>
-416.470336914062

> <b_mmod_Minimization_Converged-OPLS-2005>
0

> <r_mmod_RMS_Derivative-OPLS-2005>
4.96324920654297

$$$$
66
                    3D
 Structure written by MMmdl.
150158  0  0  1  0            999 V2000
  -30.5962  -14.7363   20.4126 C   0  0  0  0  0  0
  -30.4247  -12.4379   19.4596 C   0  0  0  0  0  0
  -29.4991  -12.4805   18.2247 C   0  0  0  0  0  0
  -28.0279  -12.3077   18.6473 C   0  0  0  0  0  0
  -27.6360  -13.2217   19.8391 C   0  0  2  0  0  0
  -28.6818  -13.1640   20.9730 C   0  0  0  0  0  0
  -25.2484  -13.8179   20.5667 C   0  0  0  0  0  0
  -24.1779  -13.0428   20.9217 C   0  0  0  0  0  0
  -24.6357  -11.6905   20.8753 C   0  0  0  0  0  0
  -23.9050  -10.4294   21.0434 C   0  0  0  0  0  0
  -24.3614   -9.4199   21.9200 C   0  0  0  0  0  0
  -23.6279   -8.2237   22.0765 C   0  0  0  0  0  0
  -22.4268   -8.0275   21.3541 C   0  0  0  0  0  0
  -21.9903   -9.0256   20.4650 C   0  0  0  0  0  0
  -22.7236  -10.2132   20.3064 C   0  0  0  0  0  0
  -21.6849   -6.0726   22.5276 C   0  0  0  0  0  0
  -21.4019   -6.5638   23.8207 C   0  0  0  0  0  0
  -21.3639   -5.6785   24.9171 C   0  0  0  0  0  0
  -21.6068   -4.3056   24.7228 C   0  0  0  0  0  0
  -21.8808   -3.8138   23.4342 C   0  0  0  0  0  0
  -21.9199   -4.6953   22.3404 C   0  0  0  0  0  0
  -22.7810  -13.5215   21.1859 C   0  0  0  0  0  0
  -22.1663   -4.2138   21.0976 F   0  0  0  0  0  0
  -21.5622   -3.4541   25.7738 F   0  0  0  0  0  0
  -29.9816  -13.5096   20.3808 N   0  0  0  0  0  0
  -26.2906  -12.9370   20.3244 N   0  0  0  0  0  0
  -25.9289  -11.6526   20.5764 N   0  0  0  0  0  0
  -22.0467  -12.8221   22.0421 N   0  0  0  0  0  0
  -25.4184  -15.1903   20.4039 N   0  0  0  0  0  0
  -31.8024  -14.8044   20.1429 O   0  0  0  0  0  0
  -21.6631   -6.8865   21.4232 O   0  0  0  0  0  0
  -22.3522  -14.5533   20.6709 O   0  0  0  0  0  0
  -24.6312  -31.8558   23.2012 C   0  0  0  0  0  0
  -25.9150  -32.4735   23.8330 C   0  0  1  0  0  0
  -27.2038  -27.2658   20.1161 C   0  0  0  0  0  0
  -25.5979  -33.8541   24.2249 N   0  0  0  0  0  0
  -23.4271  -30.4802   21.5412 C   0  0  2  0  0  0
  -24.8730  -28.9307   20.1071 C   0  0  0  0  0  0
  -22.7499  -29.4606   22.4885 C   0  0  0  0  0  0
  -18.0290  -28.1391   22.8466 C   0  0  0  0  0  0
  -24.1506  -36.7269   23.2636 C   0  0  0  0  0  0
  -25.9749  -30.7645   21.3861 C   0  0  0  0  0  0
  -26.0463  -29.3913   20.7221 C   0  0  0  0  0  0
  -27.2201  -28.5690   20.7150 C   0  0  0  0  0  0
  -26.0171  -26.8806   19.4631 C   0  0  0  0  0  0
  -24.8650  -27.6879   19.4602 C   0  0  0  0  0  0
  -23.6480  -29.8234   20.1535 C   0  0  0  0  0  0
  -25.4119  -36.3054   24.0329 C   0  0  1  0  0  0
  -20.5899  -28.3701   23.1242 C   0  0  2  0  0  0
  -20.6782  -26.9413   22.5380 C   0  0  0  0  0  0
  -19.5738  -26.6390   21.5181 C   0  0  0  0  0  0
  -18.1919  -26.7929   22.1613 C   0  0  0  0  0  0
  -19.1548  -28.8864   23.2858 C   0  0  0  0  0  0
  -18.9467  -30.1462   23.8879 C   0  0  0  0  0  0
  -17.6463  -30.6580   24.0566 C   0  0  0  0  0  0
  -25.9064  -34.9422   23.5090 C   0  0  0  0  0  0
  -16.5353  -29.9062   23.6336 C   0  0  0  0  0  0
  -16.7283  -28.6503   23.0345 C   0  0  0  0  0  0
  -26.4524  -31.6569   25.0724 C   0  0  0  0  0  0
  -25.3766  -31.3740   26.1471 C   0  0  0  0  0  0
  -27.0389  -30.2972   24.6255 C   0  0  0  0  0  0
  -27.6079  -32.4315   25.7494 C   0  0  0  0  0  0
  -27.5566  -37.1775   24.8448 C   0  0  0  0  0  0
  -21.4209  -29.3047   22.3626 N   0  0  0  0  0  0
  -26.4282  -37.3754   23.9411 N   0  0  0  0  0  0
  -24.6952  -31.0502   22.0995 N   0  0  0  0  0  0
  -23.4199  -28.8113   23.2941 O   0  0  0  0  0  0
  -28.2728  -26.3472   20.1280 O   0  0  0  0  0  0
  -26.5623  -34.8916   22.4638 O   0  0  0  0  0  0
  -23.5469  -32.1373   23.7316 O   0  0  0  0  0  0
  -29.1467  -18.4054   20.2465 C   0  0  0  0  0  0
  -31.4347  -17.7834   20.6062 C   0  0  0  0  0  0
  -30.1093  -17.3308   20.4346 C   0  0  0  0  0  0
  -29.5328  -19.8061   20.2447 C   0  0  0  0  0  0
  -31.7408  -19.1567   20.5843 C   0  0  0  0  0  0
  -28.5479  -23.6817   19.8116 C   0  0  0  0  0  0
  -28.9461  -22.3412   20.5952 C   0  0  0  0  0  0
  -27.9609  -24.9501   20.5983 C   0  0  0  0  0  0
  -30.8274  -20.1345   20.4092 N   0  0  0  0  0  0
  -29.7913  -15.8708   20.4962 N   0  0  0  0  0  0
  -28.6547  -20.9390   20.0615 N   0  0  0  0  0  0
  -28.6791  -23.7267   18.5854 O   0  0  0  0  0  0
  -33.0248  -19.5323   20.7700 F   0  0  0  0  0  0
  -31.4647  -12.5594   19.1527 H   0  0  0  0  0  0
  -30.3713  -11.4693   19.9529 H   0  0  0  0  0  0
  -29.7787  -11.6944   17.5206 H   0  0  0  0  0  0
  -29.6245  -13.4273   17.6956 H   0  0  0  0  0  0
  -27.8914  -11.2630   18.9277 H   0  0  0  0  0  0
  -27.3657  -12.4838   17.7997 H   0  0  0  0  0  0
  -27.6255  -14.2381   19.4457 H   0  0  0  0  0  0
  -28.7203  -12.1722   21.4200 H   0  0  0  0  0  0
  -28.4233  -13.8562   21.7767 H   0  0  0  0  0  0
  -25.2760   -9.5682   22.4776 H   0  0  0  0  0  0
  -23.9991   -7.4632   22.7487 H   0  0  0  0  0  0
  -21.0833   -8.8775   19.8953 H   0  0  0  0  0  0
  -22.3699  -10.9673   19.6174 H   0  0  0  0  0  0
  -21.2008   -7.6144   23.9705 H   0  0  0  0  0  0
  -21.1474   -6.0522   25.9070 H   0  0  0  0  0  0
  -22.0610   -2.7602   23.2854 H   0  0  0  0  0  0
  -22.4064  -11.9861   22.4780 H   0  0  0  0  0  0
  -21.1090  -13.1237   22.2634 H   0  0  0  0  0  0
  -24.6418  -15.8357   20.4996 H   0  0  0  0  0  0
  -26.2452  -15.6273   20.0178 H   0  0  0  0  0  0
  -26.7210  -32.5383   23.1058 H   0  0  0  0  0  0
  -25.0176  -33.9671   25.0442 H   0  0  0  0  0  0
  -22.7255  -31.3026   21.3999 H   0  0  0  0  0  0
  -23.3768  -35.9604   23.3287 H   0  0  0  0  0  0
  -24.3591  -36.8913   22.2059 H   0  0  0  0  0  0
  -23.7252  -37.6463   23.6669 H   0  0  0  0  0  0
  -26.1244  -31.5306   20.6232 H   0  0  0  0  0  0
  -26.8493  -30.8033   22.0257 H   0  0  0  0  0  0
  -28.1114  -28.9141   21.2197 H   0  0  0  0  0  0
  -25.9658  -25.9302   18.9538 H   0  0  0  0  0  0
  -23.9749  -27.3350   18.9562 H   0  0  0  0  0  0
  -23.7883  -30.6079   19.4045 H   0  0  0  0  0  0
  -22.7644  -29.2657   19.8363 H   0  0  0  0  0  0
  -25.1281  -36.1887   25.0814 H   0  0  0  0  0  0
  -20.9980  -28.3307   24.1369 H   0  0  0  0  0  0
  -20.5677  -26.2301   23.3597 H   0  0  0  0  0  0
  -21.6644  -26.7441   22.1155 H   0  0  0  0  0  0
  -19.6929  -25.6303   21.1214 H   0  0  0  0  0  0
  -19.6706  -27.3224   20.6729 H   0  0  0  0  0  0
  -17.4187  -26.6668   21.4022 H   0  0  0  0  0  0
  -18.0340  -26.0062   22.9022 H   0  0  0  0  0  0
  -19.7974  -30.7245   24.2241 H   0  0  0  0  0  0
  -17.5057  -31.6267   24.5163 H   0  0  0  0  0  0
  -15.5370  -30.2975   23.7684 H   0  0  0  0  0  0
  -15.8684  -28.0829   22.7047 H   0  0  0  0  0  0
  -24.5931  -30.7094   25.7824 H   0  0  0  0  0  0
  -24.8972  -32.2925   26.4883 H   0  0  0  0  0  0
  -25.8100  -30.8939   27.0257 H   0  0  0  0  0  0
  -26.2988  -29.6682   24.1304 H   0  0  0  0  0  0
  -27.4081  -29.7277   25.4794 H   0  0  0  0  0  0
  -27.8866  -30.4217   23.9509 H   0  0  0  0  0  0
  -27.2709  -33.3659   26.2000 H   0  0  0  0  0  0
  -28.3936  -32.6815   25.0349 H   0  0  0  0  0  0
  -28.0706  -31.8491   26.5475 H   0  0  0  0  0  0
  -28.2534  -38.0110   24.7541 H   0  0  0  0  0  0
  -28.1129  -36.2656   24.6230 H   0  0  0  0  0  0
  -27.2307  -37.1334   25.8851 H   0  0  0  0  0  0
  -20.9369  -29.8835   21.6915 H   0  0  0  0  0  0
  -26.0165  -38.2820   24.1484 H   0  0  0  0  0  0
  -28.1007  -18.1516   20.1062 H   0  0  0  0  0  0
  -32.2494  -17.0968   20.7739 H   0  0  0  0  0  0
  -28.4999  -22.4173   21.5864 H   0  0  0  0  0  0
  -30.0197  -22.4347   20.7647 H   0  0  0  0  0  0
  -28.2672  -24.8700   21.6390 H   0  0  0  0  0  0
  -26.8802  -24.8082   20.6082 H   0  0  0  0  0  0
  -28.8079  -15.6596   20.5809 H   0  0  0  0  0  0
  -27.6653  -20.7047   20.0287 H   0  0  0  0  0  0
  1 25  1  0  0  0
  1 30  2  0  0  0
  1 80  1  0  0  0
  2  3  1  0  0  0
  2 25  1  0  0  0
  2 84  1  0  0  0
  2 85  1  0  0  0
  3  4  1  0  0  0
  3 86  1  0  0  0
  3 87  1  0  0  0
  4  5  1  0  0  0
  4 88  1  0  0  0
  4 89  1  0  0  0
  5  6  1  0  0  0
  5 26  1  0  0  0
  5 90  1  0  0  0
  6 25  1  0  0  0
  6 91  1  0  0  0
  6 92  1  0  0  0
  7  8  2  0  0  0
  7 26  1  0  0  0
  7 29  1  0  0  0
  8  9  1  0  0  0
  8 22  1  0  0  0
  9 10  1  0  0  0
  9 27  2  0  0  0
 10 11  2  0  0  0
 10 15  1  0  0  0
 11 12  1  0  0  0
 11 93  1  0  0  0
 12 13  2  0  0  0
 12 94  1  0  0  0
 13 14  1  0  0  0
 13 31  1  0  0  0
 14 15  2  0  0  0
 14 95  1  0  0  0
 15 96  1  0  0  0
 16 17  2  0  0  0
 16 21  1  0  0  0
 16 31  1  0  0  0
 17 18  1  0  0  0
 17 97  1  0  0  0
 18 19  2  0  0  0
 18 98  1  0  0  0
 19 20  1  0  0  0
 19 24  1  0  0  0
 20 21  2  0  0  0
 20 99  1  0  0  0
 21 23  1  0  0  0
 22 28  1  0  0  0
 22 32  2  0  0  0
 26 27  1  0  0  0
 28100  1  0  0  0
 28101  1  0  0  0
 29102  1  0  0  0
 29103  1  0  0  0
 33 34  1  0  0  0
 33 66  1  0  0  0
 33 70  2  0  0  0
 34 36  1  0  0  0
 34 59  1  0  0  0
 34104  1  0  0  0
 35 44  2  0  0  0
 35 45  1  0  0  0
 35 68  1  0  0  0
 36 56  1  0  0  0
 36105  1  0  0  0
 37 39  1  0  0  0
 37 47  1  0  0  0
 37 66  1  0  0  0
 37106  1  0  0  0
 38 43  2  0  0  0
 38 46  1  0  0  0
 38 47  1  0  0  0
 39 64  1  0  0  0
 39 67  2  0  0  0
 40 52  1  0  0  0
 40 53  2  0  0  0
 40 58  1  0  0  0
 41107  1  0  0  0
 41108  1  0  0  0
 41109  1  0  0  0
 41 48  1  0  0  0
 42 43  1  0  0  0
 42 66  1  0  0  0
 42110  1  0  0  0
 42111  1  0  0  0
 43 44  1  0  0  0
 44112  1  0  0  0
 45 46  2  0  0  0
 45113  1  0  0  0
 46114  1  0  0  0
 47115  1  0  0  0
 47116  1  0  0  0
 48 56  1  0  0  0
 48 65  1  0  0  0
 48117  1  0  0  0
 49 50  1  0  0  0
 49 53  1  0  0  0
 49 64  1  0  0  0
 49118  1  0  0  0
 50 51  1  0  0  0
 50119  1  0  0  0
 50120  1  0  0  0
 51 52  1  0  0  0
 51121  1  0  0  0
 51122  1  0  0  0
 52123  1  0  0  0
 52124  1  0  0  0
 53 54  1  0  0  0
 54 55  2  0  0  0
 54125  1  0  0  0
 55 57  1  0  0  0
 55126  1  0  0  0
 56 69  2  0  0  0
 57 58  2  0  0  0
 57127  1  0  0  0
 58128  1  0  0  0
 59 60  1  0  0  0
 59 61  1  0  0  0
 59 62  1  0  0  0
 60129  1  0  0  0
 60130  1  0  0  0
 60131  1  0  0  0
 61132  1  0  0  0
 61133  1  0  0  0
 61134  1  0  0  0
 62135  1  0  0  0
 62136  1  0  0  0
 62137  1  0  0  0
 63 65  1  0  0  0
 63138  1  0  0  0
 63139  1  0  0  0
 63140  1  0  0  0
 64141  1  0  0  0
 65142  1  0  0  0
 68 78  1  0  0  0
 71 73  2  0  0  0
 71 74  1  0  0  0
 71143  1  0  0  0
 72 73  1  0  0  0
 72 75  2  0  0  0
 72144  1  0  0  0
 73 80  1  0  0  0
 74 79  2  0  0  0
 74 81  1  0  0  0
 75 79  1  0  0  0
 75 83  1  0  0  0
 76 77  1  0  0  0
 76 78  1  0  0  0
 76 82  2  0  0  0
 77 81  1  0  0  0
 77145  1  0  0  0
 77146  1  0  0  0
 78147  1  0  0  0
 78148  1  0  0  0
 80149  1  0  0  0
 81150  1  0  0  0
M  ISO  4   1 100  68 101  78 101  80 100
M  END
> <chiral flag>
0

> <version>
0

> <s_m_source_file>
/data/baiqing/PycharmProjects/Reinvent-master-3.2/result/LINK_invent/BTK/process_docking_weight1_custom_product_contain_oxygen_bond_distance_aromatic_linkinvent_7_9_3/rearranged_h_0159.sdf

> <i_m_source_file_index>
67

> <r_mmod_Potential_Energy-OPLS-2005>
-23.2909870147705

> <r_mmod_Stretch_Energy-OPLS-2005>
118.279495239258

> <r_mmod_Bend_Energy-OPLS-2005>
165.226364135742

> <r_mmod_Torsional_Energy-OPLS-2005>
228.041625976562

> <r_mmod_Improper_Torsional_Energy-OPLS-2005>
8.5794734954834

> <r_mmod_Van_der_Waal_Energy-OPLS-2005>
146.871185302734

> <r_mmod_Electrostatic_Energy-OPLS-2005>
-511.723815917969

> <r_mmod_Solvation_Energy-OPLS-2005>
-265.483459472656

> <b_mmod_Minimization_Converged-OPLS-2005>
0

> <r_mmod_RMS_Derivative-OPLS-2005>
7.00719547271729

$$$$
67
                    3D
 Structure written by MMmdl.
152160  0  0  1  0            999 V2000
  -30.6288  -14.7687   20.4413 C   0  0  0  0  0  0
  -30.4245  -12.4673   19.4713 C   0  0  0  0  0  0
  -29.5102  -12.5052   18.2304 C   0  0  0  0  0  0
  -28.0365  -12.3315   18.6433 C   0  0  0  0  0  0
  -27.6365  -13.2382   19.8389 C   0  0  2  0  0  0
  -28.6833  -13.2051   20.9716 C   0  0  0  0  0  0
  -25.2507  -13.8232   20.5674 C   0  0  0  0  0  0
  -24.1811  -13.0471   20.9234 C   0  0  0  0  0  0
  -24.6404  -11.6948   20.8783 C   0  0  0  0  0  0
  -23.9094  -10.4310   21.0437 C   0  0  0  0  0  0
  -24.3641   -9.4210   21.9198 C   0  0  0  0  0  0
  -23.6317   -8.2241   22.0758 C   0  0  0  0  0  0
  -22.4297   -8.0294   21.3548 C   0  0  0  0  0  0
  -21.9943   -9.0274   20.4651 C   0  0  0  0  0  0
  -22.7277  -10.2150   20.3074 C   0  0  0  0  0  0
  -21.6851   -6.0754   22.5299 C   0  0  0  0  0  0
  -21.4001   -6.5654   23.8229 C   0  0  0  0  0  0
  -21.3661   -5.6806   24.9191 C   0  0  0  0  0  0
  -21.6036   -4.3069   24.7240 C   0  0  0  0  0  0
  -21.8814   -3.8163   23.4363 C   0  0  0  0  0  0
  -21.9189   -4.6981   22.3421 C   0  0  0  0  0  0
  -22.7827  -13.5245   21.1888 C   0  0  0  0  0  0
  -22.1657   -4.2169   21.0992 F   0  0  0  0  0  0
  -21.5639   -3.4545   25.7745 F   0  0  0  0  0  0
  -29.9760  -13.5555   20.3737 N   0  0  0  0  0  0
  -26.2929  -12.9445   20.3243 N   0  0  0  0  0  0
  -25.9329  -11.6583   20.5742 N   0  0  0  0  0  0
  -22.0471  -12.8215   22.0438 N   0  0  0  0  0  0
  -25.4157  -15.1967   20.4029 N   0  0  0  0  0  0
  -31.8409  -14.7846   20.2067 O   0  0  0  0  0  0
  -21.6645   -6.8904   21.4264 O   0  0  0  0  0  0
  -22.3499  -14.5552   20.6747 O   0  0  0  0  0  0
  -24.6319  -31.8523   23.1943 C   0  0  0  0  0  0
  -25.9149  -32.4735   23.8298 C   0  0  1  0  0  0
  -27.2224  -27.2424   20.1496 C   0  0  0  0  0  0
  -25.5943  -33.8538   24.2218 N   0  0  0  0  0  0
  -23.4294  -30.4707   21.5380 C   0  0  2  0  0  0
  -24.8785  -28.9048   20.1161 C   0  0  0  0  0  0
  -22.7502  -29.4586   22.4904 C   0  0  0  0  0  0
  -18.0285  -28.1398   22.8466 C   0  0  0  0  0  0
  -24.1497  -36.7269   23.2633 C   0  0  0  0  0  0
  -25.9743  -30.7601   21.3758 C   0  0  0  0  0  0
  -26.0484  -29.3780   20.7234 C   0  0  0  0  0  0
  -27.2255  -28.5626   20.7207 C   0  0  0  0  0  0
  -26.0322  -26.8300   19.5204 C   0  0  0  0  0  0
  -24.8764  -27.6410   19.5019 C   0  0  0  0  0  0
  -23.6497  -29.7944   20.1578 C   0  0  0  0  0  0
  -25.4121  -36.3045   24.0306 C   0  0  1  0  0  0
  -20.5887  -28.3711   23.1269 C   0  0  2  0  0  0
  -20.6782  -26.9429   22.5405 C   0  0  0  0  0  0
  -19.5764  -26.6387   21.5207 C   0  0  0  0  0  0
  -18.1937  -26.7934   22.1610 C   0  0  0  0  0  0
  -19.1537  -28.8867   23.2860 C   0  0  0  0  0  0
  -18.9459  -30.1467   23.8882 C   0  0  0  0  0  0
  -17.6459  -30.6597   24.0555 C   0  0  0  0  0  0
  -25.9067  -34.9424   23.5061 C   0  0  0  0  0  0
  -16.5353  -29.9086   23.6341 C   0  0  0  0  0  0
  -16.7267  -28.6509   23.0345 C   0  0  0  0  0  0
  -26.4505  -31.6567   25.0703 C   0  0  0  0  0  0
  -25.3708  -31.3752   26.1410 C   0  0  0  0  0  0
  -27.0338  -30.2969   24.6225 C   0  0  0  0  0  0
  -27.6068  -32.4306   25.7462 C   0  0  0  0  0  0
  -27.5576  -37.1779   24.8454 C   0  0  0  0  0  0
  -21.4204  -29.3047   22.3653 N   0  0  0  0  0  0
  -26.4285  -37.3755   23.9405 N   0  0  0  0  0  0
  -24.6973  -31.0470   22.0929 N   0  0  0  0  0  0
  -23.4186  -28.8152   23.3037 O   0  0  0  0  0  0
  -28.3424  -26.3783   20.1364 O   0  0  0  0  0  0
  -26.5643  -34.8906   22.4638 O   0  0  0  0  0  0
  -23.5470  -32.1355   23.7243 O   0  0  0  0  0  0
  -29.3745  -18.5021   20.2610 C   0  0  0  0  0  0
  -28.2547  -18.4944   19.4386 C   0  0  0  0  0  0
  -28.8159  -20.8602   20.1954 C   0  0  0  0  0  0
  -30.3217  -17.2704   20.5649 C   0  0  0  0  0  0
  -27.4253  -24.8838   21.9358 C   0  0  0  0  0  0
  -28.3106  -23.5914   19.8510 C   0  0  0  0  0  0
  -28.3572  -24.9762   20.7189 C   0  0  1  0  0  0
  -29.6462  -19.8773   20.6673 N   0  0  0  0  0  0
  -27.6508  -17.4280   18.7613 N   0  0  0  0  0  0
  -28.8846  -22.2969   20.4332 N   0  0  0  0  0  0
  -29.8816  -15.9455   20.5138 N   0  0  0  0  0  0
  -31.4924  -17.5319   20.8724 O   0  0  0  0  0  0
  -27.5700  -20.1150   19.1942 S   0  0  0  0  0  0
  -31.4686  -12.5700   19.1729 H   0  0  0  0  0  0
  -30.3537  -11.4997   19.9735 H   0  0  0  0  0  0
  -29.7991  -11.7266   17.5234 H   0  0  0  0  0  0
  -29.6363  -13.4560   17.7094 H   0  0  0  0  0  0
  -27.8930  -11.2843   18.9124 H   0  0  0  0  0  0
  -27.3825  -12.5152   17.7910 H   0  0  0  0  0  0
  -27.6198  -14.2542   19.4444 H   0  0  0  0  0  0
  -28.7261  -12.2194   21.4382 H   0  0  0  0  0  0
  -28.4205  -13.9098   21.7620 H   0  0  0  0  0  0
  -25.2782   -9.5672   22.4775 H   0  0  0  0  0  0
  -24.0043   -7.4609   22.7446 H   0  0  0  0  0  0
  -21.0896   -8.8785   19.8931 H   0  0  0  0  0  0
  -22.3751  -10.9692   19.6187 H   0  0  0  0  0  0
  -21.1966   -7.6151   23.9745 H   0  0  0  0  0  0
  -21.1501   -6.0525   25.9095 H   0  0  0  0  0  0
  -22.0589   -2.7626   23.2852 H   0  0  0  0  0  0
  -22.4125  -11.9894   22.4823 H   0  0  0  0  0  0
  -21.1074  -13.1200   22.2622 H   0  0  0  0  0  0
  -24.6366  -15.8379   20.4992 H   0  0  0  0  0  0
  -26.2307  -15.6433   19.9957 H   0  0  0  0  0  0
  -26.7214  -32.5370   23.1043 H   0  0  0  0  0  0
  -25.0077  -33.9683   25.0358 H   0  0  0  0  0  0
  -22.7266  -31.2927   21.3872 H   0  0  0  0  0  0
  -23.3752  -35.9606   23.3279 H   0  0  0  0  0  0
  -24.3585  -36.8924   22.2052 H   0  0  0  0  0  0
  -23.7262  -37.6462   23.6690 H   0  0  0  0  0  0
  -26.1175  -31.5184   20.6036 H   0  0  0  0  0  0
  -26.8496  -30.8107   22.0118 H   0  0  0  0  0  0
  -28.1258  -28.9269   21.1961 H   0  0  0  0  0  0
  -25.9946  -25.8571   19.0506 H   0  0  0  0  0  0
  -23.9818  -27.2727   19.0190 H   0  0  0  0  0  0
  -23.7752  -30.5669   19.3967 H   0  0  0  0  0  0
  -22.7680  -29.2273   19.8545 H   0  0  0  0  0  0
  -25.1312  -36.1864   25.0795 H   0  0  0  0  0  0
  -20.9963  -28.3290   24.1396 H   0  0  0  0  0  0
  -20.5692  -26.2316   23.3607 H   0  0  0  0  0  0
  -21.6653  -26.7472   22.1199 H   0  0  0  0  0  0
  -19.6938  -25.6296   21.1250 H   0  0  0  0  0  0
  -19.6710  -27.3185   20.6729 H   0  0  0  0  0  0
  -17.4211  -26.6658   21.4018 H   0  0  0  0  0  0
  -18.0360  -26.0088   22.9025 H   0  0  0  0  0  0
  -19.7932  -30.7283   24.2247 H   0  0  0  0  0  0
  -17.5013  -31.6277   24.5159 H   0  0  0  0  0  0
  -15.5350  -30.2980   23.7687 H   0  0  0  0  0  0
  -15.8664  -28.0829   22.7068 H   0  0  0  0  0  0
  -24.5896  -30.7091   25.7738 H   0  0  0  0  0  0
  -24.8873  -32.2925   26.4774 H   0  0  0  0  0  0
  -25.7988  -30.8965   27.0225 H   0  0  0  0  0  0
  -26.2924  -29.6708   24.1243 H   0  0  0  0  0  0
  -27.3981  -29.7257   25.4774 H   0  0  0  0  0  0
  -27.8831  -30.4209   23.9500 H   0  0  0  0  0  0
  -27.2713  -33.3649   26.1977 H   0  0  0  0  0  0
  -28.3903  -32.6786   25.0291 H   0  0  0  0  0  0
  -28.0701  -31.8451   26.5414 H   0  0  0  0  0  0
  -28.2571  -38.0099   24.7518 H   0  0  0  0  0  0
  -28.1091  -36.2623   24.6256 H   0  0  0  0  0  0
  -27.2294  -37.1404   25.8858 H   0  0  0  0  0  0
  -20.9406  -29.8724   21.6811 H   0  0  0  0  0  0
  -26.0140  -38.2818   24.1415 H   0  0  0  0  0  0
  -27.5793  -23.9473   22.4702 H   0  0  0  0  0  0
  -26.3766  -24.9216   21.6429 H   0  0  0  0  0  0
  -27.6116  -25.6971   22.6374 H   0  0  0  0  0  0
  -28.8618  -23.7729   18.9275 H   0  0  0  0  0  0
  -27.2816  -23.4045   19.5418 H   0  0  0  0  0  0
  -29.3630  -24.9590   21.1404 H   0  0  0  0  0  0
  -26.9247  -17.6596   18.0882 H   0  0  0  0  0  0
  -28.2395  -16.6951   18.3771 H   0  0  0  0  0  0
  -29.6099  -22.5054   21.1112 H   0  0  0  0  0  0
  -28.8838  -15.8433   20.4449 H   0  0  0  0  0  0
  1 25  1  0  0  0
  1 30  2  0  0  0
  1 81  1  0  0  0
  2  3  1  0  0  0
  2 25  1  0  0  0
  2 84  1  0  0  0
  2 85  1  0  0  0
  3  4  1  0  0  0
  3 86  1  0  0  0
  3 87  1  0  0  0
  4  5  1  0  0  0
  4 88  1  0  0  0
  4 89  1  0  0  0
  5  6  1  0  0  0
  5 26  1  0  0  0
  5 90  1  0  0  0
  6 25  1  0  0  0
  6 91  1  0  0  0
  6 92  1  0  0  0
  7  8  2  0  0  0
  7 26  1  0  0  0
  7 29  1  0  0  0
  8  9  1  0  0  0
  8 22  1  0  0  0
  9 10  1  0  0  0
  9 27  2  0  0  0
 10 11  2  0  0  0
 10 15  1  0  0  0
 11 12  1  0  0  0
 11 93  1  0  0  0
 12 13  2  0  0  0
 12 94  1  0  0  0
 13 14  1  0  0  0
 13 31  1  0  0  0
 14 15  2  0  0  0
 14 95  1  0  0  0
 15 96  1  0  0  0
 16 17  2  0  0  0
 16 21  1  0  0  0
 16 31  1  0  0  0
 17 18  1  0  0  0
 17 97  1  0  0  0
 18 19  2  0  0  0
 18 98  1  0  0  0
 19 20  1  0  0  0
 19 24  1  0  0  0
 20 21  2  0  0  0
 20 99  1  0  0  0
 21 23  1  0  0  0
 22 28  1  0  0  0
 22 32  2  0  0  0
 26 27  1  0  0  0
 28100  1  0  0  0
 28101  1  0  0  0
 29102  1  0  0  0
 29103  1  0  0  0
 33 34  1  0  0  0
 33 66  1  0  0  0
 33 70  2  0  0  0
 34 36  1  0  0  0
 34 59  1  0  0  0
 34104  1  0  0  0
 35 44  2  0  0  0
 35 45  1  0  0  0
 35 68  1  0  0  0
 36 56  1  0  0  0
 36105  1  0  0  0
 37 39  1  0  0  0
 37 47  1  0  0  0
 37 66  1  0  0  0
 37106  1  0  0  0
 38 43  2  0  0  0
 38 46  1  0  0  0
 38 47  1  0  0  0
 39 64  1  0  0  0
 39 67  2  0  0  0
 40 52  1  0  0  0
 40 53  2  0  0  0
 40 58  1  0  0  0
 41107  1  0  0  0
 41108  1  0  0  0
 41109  1  0  0  0
 41 48  1  0  0  0
 42 43  1  0  0  0
 42 66  1  0  0  0
 42110  1  0  0  0
 42111  1  0  0  0
 43 44  1  0  0  0
 44112  1  0  0  0
 45 46  2  0  0  0
 45113  1  0  0  0
 46114  1  0  0  0
 47115  1  0  0  0
 47116  1  0  0  0
 48 56  1  0  0  0
 48 65  1  0  0  0
 48117  1  0  0  0
 49 50  1  0  0  0
 49 53  1  0  0  0
 49 64  1  0  0  0
 49118  1  0  0  0
 50 51  1  0  0  0
 50119  1  0  0  0
 50120  1  0  0  0
 51 52  1  0  0  0
 51121  1  0  0  0
 51122  1  0  0  0
 52123  1  0  0  0
 52124  1  0  0  0
 53 54  1  0  0  0
 54 55  2  0  0  0
 54125  1  0  0  0
 55 57  1  0  0  0
 55126  1  0  0  0
 56 69  2  0  0  0
 57 58  2  0  0  0
 57127  1  0  0  0
 58128  1  0  0  0
 59 60  1  0  0  0
 59 61  1  0  0  0
 59 62  1  0  0  0
 60129  1  0  0  0
 60130  1  0  0  0
 60131  1  0  0  0
 61132  1  0  0  0
 61133  1  0  0  0
 61134  1  0  0  0
 62135  1  0  0  0
 62136  1  0  0  0
 62137  1  0  0  0
 63 65  1  0  0  0
 63138  1  0  0  0
 63139  1  0  0  0
 63140  1  0  0  0
 64141  1  0  0  0
 65142  1  0  0  0
 68 77  1  0  0  0
 71 72  2  0  0  0
 71 74  1  0  0  0
 71 78  1  0  0  0
 72 79  1  0  0  0
 72 83  1  0  0  0
 73 78  2  0  0  0
 73 80  1  0  0  0
 73 83  1  0  0  0
 74 81  1  0  0  0
 74 82  2  0  0  0
 75143  1  0  0  0
 75144  1  0  0  0
 75145  1  0  0  0
 75 77  1  0  0  0
 76 77  1  0  0  0
 76 80  1  0  0  0
 76146  1  0  0  0
 76147  1  0  0  0
 77148  1  0  0  0
 79149  1  0  0  0
 79150  1  0  0  0
 80151  1  0  0  0
 81152  1  0  0  0
M  ISO  4   1 100  68 101  77 101  81 100
M  END
> <chiral flag>
0

> <version>
0

> <s_m_source_file>
/data/baiqing/PycharmProjects/Reinvent-master-3.2/result/LINK_invent/BTK/process_docking_weight1_custom_product_contain_oxygen_bond_distance_aromatic_linkinvent_7_9_3/rearranged_h_0159.sdf

> <i_m_source_file_index>
68

> <r_mmod_Potential_Energy-OPLS-2005>
182.515182495117

> <r_mmod_Stretch_Energy-OPLS-2005>
135.112915039062

> <r_mmod_Bend_Energy-OPLS-2005>
183.404586791992

> <r_mmod_Torsional_Energy-OPLS-2005>
241.506271362305

> <r_mmod_Improper_Torsional_Energy-OPLS-2005>
11.2820234298706

> <r_mmod_Van_der_Waal_Energy-OPLS-2005>
111.062309265137

> <r_mmod_Electrostatic_Energy-OPLS-2005>
-352.877136230469

> <r_mmod_Solvation_Energy-OPLS-2005>
-240.901519775391

> <b_mmod_Minimization_Converged-OPLS-2005>
0

> <r_mmod_RMS_Derivative-OPLS-2005>
2.45815396308899

$$$$
68
                    3D
 Structure written by MMmdl.
152160  0  0  1  0            999 V2000
  -30.5797  -14.7818   20.4703 C   0  0  0  0  0  0
  -30.4428  -12.4784   19.4873 C   0  0  0  0  0  0
  -29.5186  -12.5235   18.2481 C   0  0  0  0  0  0
  -28.0448  -12.3365   18.6573 C   0  0  0  0  0  0
  -27.6465  -13.2328   19.8595 C   0  0  2  0  0  0
  -28.6885  -13.1589   20.9983 C   0  0  0  0  0  0
  -25.2524  -13.8197   20.5701 C   0  0  0  0  0  0
  -24.1809  -13.0442   20.9200 C   0  0  0  0  0  0
  -24.6400  -11.6920   20.8745 C   0  0  0  0  0  0
  -23.9076  -10.4294   21.0402 C   0  0  0  0  0  0
  -24.3623   -9.4207   21.9179 C   0  0  0  0  0  0
  -23.6294   -8.2245   22.0755 C   0  0  0  0  0  0
  -22.4275   -8.0282   21.3545 C   0  0  0  0  0  0
  -21.9911   -9.0258   20.4646 C   0  0  0  0  0  0
  -22.7248  -10.2134   20.3052 C   0  0  0  0  0  0
  -21.6853   -6.0734   22.5279 C   0  0  0  0  0  0
  -21.4014   -6.5638   23.8213 C   0  0  0  0  0  0
  -21.3656   -5.6790   24.9172 C   0  0  0  0  0  0
  -21.6044   -4.3054   24.7224 C   0  0  0  0  0  0
  -21.8818   -3.8146   23.4346 C   0  0  0  0  0  0
  -21.9193   -4.6963   22.3402 C   0  0  0  0  0  0
  -22.7828  -13.5223   21.1858 C   0  0  0  0  0  0
  -22.1660   -4.2149   21.0979 F   0  0  0  0  0  0
  -21.5626   -3.4538   25.7737 F   0  0  0  0  0  0
  -29.9928  -13.5313   20.4312 N   0  0  0  0  0  0
  -26.2960  -12.9404   20.3313 N   0  0  0  0  0  0
  -25.9336  -11.6545   20.5764 N   0  0  0  0  0  0
  -22.0475  -12.8215   22.0417 N   0  0  0  0  0  0
  -25.4217  -15.1919   20.4115 N   0  0  0  0  0  0
  -31.7409  -14.9206   20.0723 O   0  0  0  0  0  0
  -21.6640   -6.8880   21.4242 O   0  0  0  0  0  0
  -22.3509  -14.5528   20.6704 O   0  0  0  0  0  0
  -24.6331  -31.8522   23.1964 C   0  0  0  0  0  0
  -25.9141  -32.4740   23.8319 C   0  0  1  0  0  0
  -27.2178  -27.2254   20.1354 C   0  0  0  0  0  0
  -25.5919  -33.8543   24.2230 N   0  0  0  0  0  0
  -23.4320  -30.4746   21.5395 C   0  0  2  0  0  0
  -24.8811  -28.9200   20.1069 C   0  0  0  0  0  0
  -22.7515  -29.4581   22.4888 C   0  0  0  0  0  0
  -18.0291  -28.1390   22.8484 C   0  0  0  0  0  0
  -24.1484  -36.7275   23.2642 C   0  0  0  0  0  0
  -25.9812  -30.7529   21.3842 C   0  0  0  0  0  0
  -26.0525  -29.3727   20.7260 C   0  0  0  0  0  0
  -27.2202  -28.5372   20.7323 C   0  0  0  0  0  0
  -26.0285  -26.8638   19.4608 C   0  0  0  0  0  0
  -24.8772  -27.6754   19.4618 C   0  0  0  0  0  0
  -23.6526  -29.8094   20.1554 C   0  0  0  0  0  0
  -25.4113  -36.3059   24.0323 C   0  0  1  0  0  0
  -20.5897  -28.3701   23.1258 C   0  0  2  0  0  0
  -20.6776  -26.9411   22.5409 C   0  0  0  0  0  0
  -19.5751  -26.6376   21.5216 C   0  0  0  0  0  0
  -18.1930  -26.7930   22.1626 C   0  0  0  0  0  0
  -19.1548  -28.8863   23.2862 C   0  0  0  0  0  0
  -18.9476  -30.1461   23.8885 C   0  0  0  0  0  0
  -17.6475  -30.6592   24.0563 C   0  0  0  0  0  0
  -25.9058  -34.9432   23.5082 C   0  0  0  0  0  0
  -16.5363  -29.9089   23.6341 C   0  0  0  0  0  0
  -16.7279  -28.6507   23.0361 C   0  0  0  0  0  0
  -26.4499  -31.6584   25.0728 C   0  0  0  0  0  0
  -25.3711  -31.3754   26.1445 C   0  0  0  0  0  0
  -27.0351  -30.2991   24.6248 C   0  0  0  0  0  0
  -27.6031  -32.4349   25.7508 C   0  0  0  0  0  0
  -27.5573  -37.1787   24.8462 C   0  0  0  0  0  0
  -21.4219  -29.3040   22.3641 N   0  0  0  0  0  0
  -26.4281  -37.3763   23.9414 N   0  0  0  0  0  0
  -24.7012  -31.0457   22.0958 N   0  0  0  0  0  0
  -23.4202  -28.8119   23.2999 O   0  0  0  0  0  0
  -28.2967  -26.3000   20.2328 O   0  0  0  0  0  0
  -26.5643  -34.8914   22.4661 O   0  0  0  0  0  0
  -23.5473  -32.1358   23.7239 O   0  0  0  0  0  0
  -30.4697  -17.9900   19.5432 C   0  0  0  0  0  0
  -29.2496  -18.4449   21.3533 C   0  0  0  0  0  0
  -29.8680  -17.3494   20.5979 C   0  0  0  0  0  0
  -29.5366  -19.6704   20.7270 C   0  0  0  0  0  0
  -29.3834  -21.1422   21.1108 C   0  0  0  0  0  0
  -28.8951  -23.7103   20.7622 C   0  0  0  0  0  0
  -28.1149  -24.8225   19.8940 C   0  0  0  0  0  0
  -28.4623  -18.3450   22.6395 C   0  0  0  0  0  0
  -29.7958  -15.8702   20.8527 N   0  0  0  0  0  0
  -28.9532  -22.2476   20.3455 N   0  0  0  0  0  0
  -29.7221  -21.3678   22.3921 N   0  3  0  0  0  0
  -29.4132  -24.0469   21.8372 O   0  0  0  0  0  0
  -30.2691  -19.3675   19.6010 O   0  0  0  0  0  0
  -28.0959  -17.0862   22.8860 F   0  0  0  0  0  0
  -29.2228  -18.7845   23.6434 F   0  0  0  0  0  0
  -27.3718  -19.1068   22.5594 F   0  0  0  0  0  0
  -31.4821  -12.6159   19.1850 H   0  0  0  0  0  0
  -30.4011  -11.4987   19.9654 H   0  0  0  0  0  0
  -29.8092  -11.7543   17.5309 H   0  0  0  0  0  0
  -29.6370  -13.4798   17.7365 H   0  0  0  0  0  0
  -27.9065  -11.2869   18.9186 H   0  0  0  0  0  0
  -27.3881  -12.5269   17.8076 H   0  0  0  0  0  0
  -27.6426  -14.2563   19.4843 H   0  0  0  0  0  0
  -28.7289  -12.1544   21.4213 H   0  0  0  0  0  0
  -28.4102  -13.8198   21.8202 H   0  0  0  0  0  0
  -25.2765   -9.5683   22.4757 H   0  0  0  0  0  0
  -24.0000   -7.4638   22.7477 H   0  0  0  0  0  0
  -21.0843   -8.8782   19.8952 H   0  0  0  0  0  0
  -22.3708  -10.9674   19.6164 H   0  0  0  0  0  0
  -21.2005   -7.6146   23.9719 H   0  0  0  0  0  0
  -21.1476   -6.0516   25.9076 H   0  0  0  0  0  0
  -22.0598   -2.7608   23.2846 H   0  0  0  0  0  0
  -22.4094  -11.9879   22.4807 H   0  0  0  0  0  0
  -21.1092  -13.1240   22.2628 H   0  0  0  0  0  0
  -24.6497  -15.8423   20.5098 H   0  0  0  0  0  0
  -26.2677  -15.6312   20.0734 H   0  0  0  0  0  0
  -26.7206  -32.5381   23.1054 H   0  0  0  0  0  0
  -25.0037  -33.9676   25.0356 H   0  0  0  0  0  0
  -22.7297  -31.2977   21.3916 H   0  0  0  0  0  0
  -23.3750  -35.9601   23.3294 H   0  0  0  0  0  0
  -24.3572  -36.8917   22.2059 H   0  0  0  0  0  0
  -23.7233  -37.6466   23.6687 H   0  0  0  0  0  0
  -26.1265  -31.5114   20.6135 H   0  0  0  0  0  0
  -26.8563  -30.8005   22.0209 H   0  0  0  0  0  0
  -28.1107  -28.8754   21.2436 H   0  0  0  0  0  0
  -25.9485  -25.9274   18.9307 H   0  0  0  0  0  0
  -23.9856  -27.3293   18.9572 H   0  0  0  0  0  0
  -23.7773  -30.5865   19.4005 H   0  0  0  0  0  0
  -22.7711  -29.2432   19.8491 H   0  0  0  0  0  0
  -25.1294  -36.1896   25.0813 H   0  0  0  0  0  0
  -20.9987  -28.3287   24.1380 H   0  0  0  0  0  0
  -20.5677  -26.2310   23.3618 H   0  0  0  0  0  0
  -21.6642  -26.7427   22.1201 H   0  0  0  0  0  0
  -19.6915  -25.6286   21.1247 H   0  0  0  0  0  0
  -19.6696  -27.3186   20.6744 H   0  0  0  0  0  0
  -17.4197  -26.6676   21.4029 H   0  0  0  0  0  0
  -18.0329  -26.0071   22.9025 H   0  0  0  0  0  0
  -19.7953  -30.7274   24.2247 H   0  0  0  0  0  0
  -17.5033  -31.6274   24.5162 H   0  0  0  0  0  0
  -15.5364  -30.2990   23.7675 H   0  0  0  0  0  0
  -15.8673  -28.0823   22.7091 H   0  0  0  0  0  0
  -24.5884  -30.7103   25.7781 H   0  0  0  0  0  0
  -24.8913  -32.2933   26.4850 H   0  0  0  0  0  0
  -25.8019  -30.8949   27.0238 H   0  0  0  0  0  0
  -26.2949  -29.6733   24.1250 H   0  0  0  0  0  0
  -27.3986  -29.7264   25.4789 H   0  0  0  0  0  0
  -27.8844  -30.4245   23.9527 H   0  0  0  0  0  0
  -27.2615  -33.3663   26.2036 H   0  0  0  0  0  0
  -28.3865  -32.6893   25.0357 H   0  0  0  0  0  0
  -28.0665  -31.8514   26.5472 H   0  0  0  0  0  0
  -28.2571  -38.0102   24.7523 H   0  0  0  0  0  0
  -28.1087  -36.2630   24.6269 H   0  0  0  0  0  0
  -27.2292  -37.1405   25.8865 H   0  0  0  0  0  0
  -20.9408  -29.8765   21.6844 H   0  0  0  0  0  0
  -26.0153  -38.2827   24.1444 H   0  0  0  0  0  0
  -31.0392  -17.6481   18.6891 H   0  0  0  0  0  0
  -27.0728  -24.5358   20.0182 H   0  0  0  0  0  0
  -28.3583  -24.6768   18.8419 H   0  0  0  0  0  0
  -28.9582  -15.5756   21.3329 H   0  0  0  0  0  0
  -28.6099  -21.9708   19.4398 H   0  0  0  0  0  0
  -30.0852  -20.6346   22.9830 H   0  0  0  0  0  0
  -29.7253  -22.3205   22.7415 H   0  0  0  0  0  0
  1 25  1  0  0  0
  1 30  2  0  0  0
  1 79  1  0  0  0
  2  3  1  0  0  0
  2 25  1  0  0  0
  2 87  1  0  0  0
  2 88  1  0  0  0
  3  4  1  0  0  0
  3 89  1  0  0  0
  3 90  1  0  0  0
  4  5  1  0  0  0
  4 91  1  0  0  0
  4 92  1  0  0  0
  5  6  1  0  0  0
  5 26  1  0  0  0
  5 93  1  0  0  0
  6 25  1  0  0  0
  6 94  1  0  0  0
  6 95  1  0  0  0
  7  8  2  0  0  0
  7 26  1  0  0  0
  7 29  1  0  0  0
  8  9  1  0  0  0
  8 22  1  0  0  0
  9 10  1  0  0  0
  9 27  2  0  0  0
 10 11  2  0  0  0
 10 15  1  0  0  0
 11 12  1  0  0  0
 11 96  1  0  0  0
 12 13  2  0  0  0
 12 97  1  0  0  0
 13 14  1  0  0  0
 13 31  1  0  0  0
 14 15  2  0  0  0
 14 98  1  0  0  0
 15 99  1  0  0  0
 16 17  2  0  0  0
 16 21  1  0  0  0
 16 31  1  0  0  0
 17 18  1  0  0  0
 17100  1  0  0  0
 18 19  2  0  0  0
 18101  1  0  0  0
 19 20  1  0  0  0
 19 24  1  0  0  0
 20 21  2  0  0  0
 20102  1  0  0  0
 21 23  1  0  0  0
 22 28  1  0  0  0
 22 32  2  0  0  0
 26 27  1  0  0  0
 28103  1  0  0  0
 28104  1  0  0  0
 29105  1  0  0  0
 29106  1  0  0  0
 33 34  1  0  0  0
 33 66  1  0  0  0
 33 70  2  0  0  0
 34 36  1  0  0  0
 34 59  1  0  0  0
 34107  1  0  0  0
 35 44  2  0  0  0
 35 45  1  0  0  0
 35 68  1  0  0  0
 36 56  1  0  0  0
 36108  1  0  0  0
 37 39  1  0  0  0
 37 47  1  0  0  0
 37 66  1  0  0  0
 37109  1  0  0  0
 38 43  2  0  0  0
 38 46  1  0  0  0
 38 47  1  0  0  0
 39 64  1  0  0  0
 39 67  2  0  0  0
 40 52  1  0  0  0
 40 53  2  0  0  0
 40 58  1  0  0  0
 41110  1  0  0  0
 41111  1  0  0  0
 41112  1  0  0  0
 41 48  1  0  0  0
 42 43  1  0  0  0
 42 66  1  0  0  0
 42113  1  0  0  0
 42114  1  0  0  0
 43 44  1  0  0  0
 44115  1  0  0  0
 45 46  2  0  0  0
 45116  1  0  0  0
 46117  1  0  0  0
 47118  1  0  0  0
 47119  1  0  0  0
 48 56  1  0  0  0
 48 65  1  0  0  0
 48120  1  0  0  0
 49 50  1  0  0  0
 49 53  1  0  0  0
 49 64  1  0  0  0
 49121  1  0  0  0
 50 51  1  0  0  0
 50122  1  0  0  0
 50123  1  0  0  0
 51 52  1  0  0  0
 51124  1  0  0  0
 51125  1  0  0  0
 52126  1  0  0  0
 52127  1  0  0  0
 53 54  1  0  0  0
 54 55  2  0  0  0
 54128  1  0  0  0
 55 57  1  0  0  0
 55129  1  0  0  0
 56 69  2  0  0  0
 57 58  2  0  0  0
 57130  1  0  0  0
 58131  1  0  0  0
 59 60  1  0  0  0
 59 61  1  0  0  0
 59 62  1  0  0  0
 60132  1  0  0  0
 60133  1  0  0  0
 60134  1  0  0  0
 61135  1  0  0  0
 61136  1  0  0  0
 61137  1  0  0  0
 62138  1  0  0  0
 62139  1  0  0  0
 62140  1  0  0  0
 63 65  1  0  0  0
 63141  1  0  0  0
 63142  1  0  0  0
 63143  1  0  0  0
 64144  1  0  0  0
 65145  1  0  0  0
 68 77  1  0  0  0
 71 73  2  0  0  0
 71 83  1  0  0  0
 71146  1  0  0  0
 72 73  1  0  0  0
 72 74  2  0  0  0
 72 78  1  0  0  0
 73 79  1  0  0  0
 74 75  1  0  0  0
 74 83  1  0  0  0
 75 80  1  0  0  0
 75 81  2  0  0  0
 76 77  1  0  0  0
 76 80  1  0  0  0
 76 82  2  0  0  0
 77147  1  0  0  0
 77148  1  0  0  0
 78 84  1  0  0  0
 78 85  1  0  0  0
 78 86  1  0  0  0
 79149  1  0  0  0
 80150  1  0  0  0
 81151  1  0  0  0
 81152  1  0  0  0
M  CHG  1  81   1
M  ISO  4   1 100  68 101  77 101  79 100
M  END
> <chiral flag>
0

> <version>
0

> <s_m_source_file>
/data/baiqing/PycharmProjects/Reinvent-master-3.2/result/LINK_invent/BTK/process_docking_weight1_custom_product_contain_oxygen_bond_distance_aromatic_linkinvent_7_9_3/rearranged_h_0159.sdf

> <i_m_source_file_index>
69

> <r_mmod_Potential_Energy-OPLS-2005>
-41.6914482116699

> <r_mmod_Stretch_Energy-OPLS-2005>
146.804153442383

> <r_mmod_Bend_Energy-OPLS-2005>
192.36750793457

> <r_mmod_Torsional_Energy-OPLS-2005>
223.096862792969

> <r_mmod_Improper_Torsional_Energy-OPLS-2005>
4.36242723464966

> <r_mmod_Van_der_Waal_Energy-OPLS-2005>
127.273025512695

> <r_mmod_Electrostatic_Energy-OPLS-2005>
-349.872314453125

> <r_mmod_Solvation_Energy-OPLS-2005>
-491.976226806641

> <b_mmod_Minimization_Converged-OPLS-2005>
0

> <r_mmod_RMS_Derivative-OPLS-2005>
0.650944352149963

$$$$
69
                    3D
 Structure written by MMmdl.
163172  0  0  1  0            999 V2000
  -30.5002  -15.0046   20.3868 C   0  0  0  0  0  0
  -30.4444  -12.6272   19.4706 C   0  0  0  0  0  0
  -29.5123  -12.5151   18.2409 C   0  0  0  0  0  0
  -28.0517  -12.2911   18.6784 C   0  0  0  0  0  0
  -27.6214  -13.2427   19.8252 C   0  0  2  0  0  0
  -28.6727  -13.3022   20.9513 C   0  0  0  0  0  0
  -25.2454  -13.8194   20.5709 C   0  0  0  0  0  0
  -24.1769  -13.0419   20.9209 C   0  0  0  0  0  0
  -24.6389  -11.6905   20.8769 C   0  0  0  0  0  0
  -23.9075  -10.4280   21.0420 C   0  0  0  0  0  0
  -24.3627   -9.4196   21.9193 C   0  0  0  0  0  0
  -23.6289   -8.2238   22.0765 C   0  0  0  0  0  0
  -22.4277   -8.0278   21.3548 C   0  0  0  0  0  0
  -21.9911   -9.0249   20.4660 C   0  0  0  0  0  0
  -22.7250  -10.2122   20.3067 C   0  0  0  0  0  0
  -21.6852   -6.0738   22.5278 C   0  0  0  0  0  0
  -21.4020   -6.5646   23.8212 C   0  0  0  0  0  0
  -21.3650   -5.6796   24.9171 C   0  0  0  0  0  0
  -21.6034   -4.3055   24.7219 C   0  0  0  0  0  0
  -21.8827   -3.8152   23.4343 C   0  0  0  0  0  0
  -21.9194   -4.6964   22.3401 C   0  0  0  0  0  0
  -22.7795  -13.5202   21.1838 C   0  0  0  0  0  0
  -22.1665   -4.2157   21.0971 F   0  0  0  0  0  0
  -21.5613   -3.4537   25.7728 F   0  0  0  0  0  0
  -29.9244  -13.7343   20.3206 N   0  0  0  0  0  0
  -26.2864  -12.9415   20.3243 N   0  0  0  0  0  0
  -25.9319  -11.6553   20.5764 N   0  0  0  0  0  0
  -22.0457  -12.8198   22.0414 N   0  0  0  0  0  0
  -25.4111  -15.1929   20.4145 N   0  0  0  0  0  0
  -31.7286  -15.0536   20.2371 O   0  0  0  0  0  0
  -21.6644   -6.8874   21.4240 O   0  0  0  0  0  0
  -22.3480  -14.5501   20.6677 O   0  0  0  0  0  0
  -24.6485  -31.8353   23.1799 C   0  0  0  0  0  0
  -25.9224  -32.4639   23.8224 C   0  0  1  0  0  0
  -27.2174  -27.0814   20.1360 C   0  0  0  0  0  0
  -25.5953  -33.8450   24.2130 N   0  0  0  0  0  0
  -23.4536  -30.4529   21.5294 C   0  0  2  0  0  0
  -24.8975  -28.8678   20.1094 C   0  0  0  0  0  0
  -22.7597  -29.4470   22.4825 C   0  0  0  0  0  0
  -18.0298  -28.1383   22.8470 C   0  0  0  0  0  0
  -24.1498  -36.7227   23.2653 C   0  0  0  0  0  0
  -26.0128  -30.6923   21.3832 C   0  0  0  0  0  0
  -26.0795  -29.2998   20.7208 C   0  0  0  0  0  0
  -27.2346  -28.4251   20.7125 C   0  0  0  0  0  0
  -25.9877  -26.7460   19.5281 C   0  0  0  0  0  0
  -24.8660  -27.6047   19.4999 C   0  0  0  0  0  0
  -23.6825  -29.7808   20.1495 C   0  0  0  0  0  0
  -25.4123  -36.3000   24.0318 C   0  0  1  0  0  0
  -20.5919  -28.3694   23.1216 C   0  0  2  0  0  0
  -20.6792  -26.9393   22.5389 C   0  0  0  0  0  0
  -19.5781  -26.6349   21.5194 C   0  0  0  0  0  0
  -18.1949  -26.7918   22.1606 C   0  0  0  0  0  0
  -19.1561  -28.8849   23.2837 C   0  0  0  0  0  0
  -18.9502  -30.1459   23.8838 C   0  0  0  0  0  0
  -17.6506  -30.6583   24.0561 C   0  0  0  0  0  0
  -25.9076  -34.9378   23.5035 C   0  0  0  0  0  0
  -16.5383  -29.9086   23.6356 C   0  0  0  0  0  0
  -16.7281  -28.6510   23.0345 C   0  0  0  0  0  0
  -26.4507  -31.6547   25.0697 C   0  0  0  0  0  0
  -25.3679  -31.3770   26.1375 C   0  0  0  0  0  0
  -27.0364  -30.2951   24.6284 C   0  0  0  0  0  0
  -27.6021  -32.4342   25.7477 C   0  0  0  0  0  0
  -27.5565  -37.1757   24.8465 C   0  0  0  0  0  0
  -21.4276  -29.3013   22.3599 N   0  0  0  0  0  0
  -26.4276  -37.3721   23.9416 N   0  0  0  0  0  0
  -24.7262  -31.0147   22.0880 N   0  0  0  0  0  0
  -23.4219  -28.8004   23.2970 O   0  0  0  0  0  0
  -28.3076  -26.1206   20.2273 O   0  0  0  0  0  0
  -26.5663  -34.8898   22.4624 O   0  0  0  0  0  0
  -23.5584  -32.1267   23.6969 O   0  0  0  0  0  0
  -30.3691  -17.8495   21.9461 C   0  0  0  0  0  0
  -30.3518  -19.1192   22.5440 C   0  0  0  0  0  0
  -29.8346  -20.2674   21.9344 C   0  0  0  0  0  0
  -29.2679  -20.2004   20.6293 C   0  0  0  0  0  0
  -29.7893  -17.6637   20.6811 C   0  0  0  0  0  0
  -28.6790  -21.5565   19.8868 C   0  0  0  0  0  0
  -30.8566  -19.4194   23.9171 C   0  0  0  0  0  0
  -30.5946  -20.9262   24.0251 C   0  0  0  0  0  0
  -28.7437  -24.0071   17.0728 C   0  0  0  0  0  0
  -30.0698  -24.8599   19.4744 C   0  0  0  0  0  0
  -28.4753  -23.1355   20.4763 C   0  0  0  0  0  0
  -27.8998  -24.5763   18.2333 C   0  0  0  0  0  0
  -28.5487  -24.6549   19.6512 C   0  0  1  0  0  0
  -29.2515  -18.8601   20.0746 N   0  0  0  0  0  0
  -29.9584  -21.3774   22.7811 N   0  0  0  0  0  0
  -29.6817  -16.1803   20.2721 N   0  0  0  0  0  0
  -28.2364  -21.3851   18.7462 O   0  0  0  0  0  0
  -31.4678  -12.8165   19.1414 H   0  0  0  0  0  0
  -30.4750  -11.6891   20.0280 H   0  0  0  0  0  0
  -29.8359  -11.6995   17.5932 H   0  0  0  0  0  0
  -29.5797  -13.4261   17.6451 H   0  0  0  0  0  0
  -27.9669  -11.2565   19.0124 H   0  0  0  0  0  0
  -27.3773  -12.3926   17.8280 H   0  0  0  0  0  0
  -27.5697  -14.2332   19.3730 H   0  0  0  0  0  0
  -28.7864  -12.3356   21.4453 H   0  0  0  0  0  0
  -28.3737  -14.0155   21.7208 H   0  0  0  0  0  0
  -25.2775   -9.5664   22.4772 H   0  0  0  0  0  0
  -23.9989   -7.4637   22.7501 H   0  0  0  0  0  0
  -21.0834   -8.8772   19.8975 H   0  0  0  0  0  0
  -22.3708  -10.9657   19.6180 H   0  0  0  0  0  0
  -21.2037   -7.6160   23.9710 H   0  0  0  0  0  0
  -21.1450   -6.0530   25.9066 H   0  0  0  0  0  0
  -22.0617   -2.7615   23.2836 H   0  0  0  0  0  0
  -22.4086  -11.9856   22.4776 H   0  0  0  0  0  0
  -21.1091  -13.1233   22.2672 H   0  0  0  0  0  0
  -24.6383  -15.8395   20.5314 H   0  0  0  0  0  0
  -26.2533  -15.6412   20.0805 H   0  0  0  0  0  0
  -26.7296  -32.5219   23.0952 H   0  0  0  0  0  0
  -25.0115  -33.9586   25.0293 H   0  0  0  0  0  0
  -22.7619  -31.2813   21.3699 H   0  0  0  0  0  0
  -23.3754  -35.9562   23.3292 H   0  0  0  0  0  0
  -24.3589  -36.8875   22.2069 H   0  0  0  0  0  0
  -23.7260  -37.6424   23.6703 H   0  0  0  0  0  0
  -26.1687  -31.4439   20.6093 H   0  0  0  0  0  0
  -26.8838  -30.7417   22.0244 H   0  0  0  0  0  0
  -28.1381  -28.7561   21.2075 H   0  0  0  0  0  0
  -25.8357  -25.7636   19.1101 H   0  0  0  0  0  0
  -23.9538  -27.2553   19.0367 H   0  0  0  0  0  0
  -23.8326  -30.5524   19.3948 H   0  0  0  0  0  0
  -22.7944  -29.2294   19.8346 H   0  0  0  0  0  0
  -25.1314  -36.1800   25.0810 H   0  0  0  0  0  0
  -21.0011  -28.3240   24.1332 H   0  0  0  0  0  0
  -20.5668  -26.2290   23.3595 H   0  0  0  0  0  0
  -21.6662  -26.7373   22.1203 H   0  0  0  0  0  0
  -19.6975  -25.6247   21.1250 H   0  0  0  0  0  0
  -19.6751  -27.3136   20.6712 H   0  0  0  0  0  0
  -17.4233  -26.6629   21.4001 H   0  0  0  0  0  0
  -18.0359  -26.0059   22.9008 H   0  0  0  0  0  0
  -19.7978  -30.7288   24.2155 H   0  0  0  0  0  0
  -17.5068  -31.6261   24.5161 H   0  0  0  0  0  0
  -15.5391  -30.2984   23.7715 H   0  0  0  0  0  0
  -15.8672  -28.0842   22.7056 H   0  0  0  0  0  0
  -24.5896  -30.7072   25.7695 H   0  0  0  0  0  0
  -24.8832  -32.2969   26.4677 H   0  0  0  0  0  0
  -25.7959  -30.9038   27.0224 H   0  0  0  0  0  0
  -26.2980  -29.6691   24.1255 H   0  0  0  0  0  0
  -27.3960  -29.7235   25.4852 H   0  0  0  0  0  0
  -27.8894  -30.4196   23.9600 H   0  0  0  0  0  0
  -27.2592  -33.3702   26.1899 H   0  0  0  0  0  0
  -28.3877  -32.6807   25.0319 H   0  0  0  0  0  0
  -28.0615  -31.8564   26.5512 H   0  0  0  0  0  0
  -28.2523  -38.0101   24.7493 H   0  0  0  0  0  0
  -28.1108  -36.2616   24.6290 H   0  0  0  0  0  0
  -27.2275  -37.1366   25.8866 H   0  0  0  0  0  0
  -20.9485  -29.8763   21.6817 H   0  0  0  0  0  0
  -26.0120  -38.2769   24.1485 H   0  0  0  0  0  0
  -30.7715  -17.0117   22.4980 H   0  0  0  0  0  0
  -31.9157  -19.1784   24.0129 H   0  0  0  0  0  0
  -30.2937  -18.8549   24.6615 H   0  0  0  0  0  0
  -31.5292  -21.4641   24.1934 H   0  0  0  0  0  0
  -29.9395  -21.1331   24.8738 H   0  0  0  0  0  0
  -28.1181  -23.7922   16.2061 H   0  0  0  0  0  0
  -29.2670  -23.0895   17.3275 H   0  0  0  0  0  0
  -29.4963  -24.7267   16.7492 H   0  0  0  0  0  0
  -30.5623  -23.9774   19.0671 H   0  0  0  0  0  0
  -30.5500  -25.0694   20.4304 H   0  0  0  0  0  0
  -30.2954  -25.6980   18.8138 H   0  0  0  0  0  0
  -29.1572  -23.2277   21.3157 H   0  0  0  0  0  0
  -27.4918  -23.1005   20.9416 H   0  0  0  0  0  0
  -26.9606  -24.0266   18.3024 H   0  0  0  0  0  0
  -27.6448  -25.5784   17.8932 H   0  0  0  0  0  0
  -30.3005  -22.2478   22.3806 H   0  0  0  0  0  0
  -28.7570  -15.9440   19.9534 H   0  0  0  0  0  0
  1 25  1  0  0  0
  1 30  2  0  0  0
  1 86  1  0  0  0
  2  3  1  0  0  0
  2 25  1  0  0  0
  2 88  1  0  0  0
  2 89  1  0  0  0
  3  4  1  0  0  0
  3 90  1  0  0  0
  3 91  1  0  0  0
  4  5  1  0  0  0
  4 92  1  0  0  0
  4 93  1  0  0  0
  5  6  1  0  0  0
  5 26  1  0  0  0
  5 94  1  0  0  0
  6 25  1  0  0  0
  6 95  1  0  0  0
  6 96  1  0  0  0
  7  8  2  0  0  0
  7 26  1  0  0  0
  7 29  1  0  0  0
  8  9  1  0  0  0
  8 22  1  0  0  0
  9 10  1  0  0  0
  9 27  2  0  0  0
 10 11  2  0  0  0
 10 15  1  0  0  0
 11 12  1  0  0  0
 11 97  1  0  0  0
 12 13  2  0  0  0
 12 98  1  0  0  0
 13 14  1  0  0  0
 13 31  1  0  0  0
 14 15  2  0  0  0
 14 99  1  0  0  0
 15100  1  0  0  0
 16 17  2  0  0  0
 16 21  1  0  0  0
 16 31  1  0  0  0
 17 18  1  0  0  0
 17101  1  0  0  0
 18 19  2  0  0  0
 18102  1  0  0  0
 19 20  1  0  0  0
 19 24  1  0  0  0
 20 21  2  0  0  0
 20103  1  0  0  0
 21 23  1  0  0  0
 22 28  1  0  0  0
 22 32  2  0  0  0
 26 27  1  0  0  0
 28104  1  0  0  0
 28105  1  0  0  0
 29106  1  0  0  0
 29107  1  0  0  0
 33 34  1  0  0  0
 33 66  1  0  0  0
 33 70  2  0  0  0
 34 36  1  0  0  0
 34 59  1  0  0  0
 34108  1  0  0  0
 35 44  2  0  0  0
 35 45  1  0  0  0
 35 68  1  0  0  0
 36 56  1  0  0  0
 36109  1  0  0  0
 37 39  1  0  0  0
 37 47  1  0  0  0
 37 66  1  0  0  0
 37110  1  0  0  0
 38 43  2  0  0  0
 38 46  1  0  0  0
 38 47  1  0  0  0
 39 64  1  0  0  0
 39 67  2  0  0  0
 40 52  1  0  0  0
 40 53  2  0  0  0
 40 58  1  0  0  0
 41111  1  0  0  0
 41112  1  0  0  0
 41113  1  0  0  0
 41 48  1  0  0  0
 42 43  1  0  0  0
 42 66  1  0  0  0
 42114  1  0  0  0
 42115  1  0  0  0
 43 44  1  0  0  0
 44116  1  0  0  0
 45 46  2  0  0  0
 45117  1  0  0  0
 46118  1  0  0  0
 47119  1  0  0  0
 47120  1  0  0  0
 48 56  1  0  0  0
 48 65  1  0  0  0
 48121  1  0  0  0
 49 50  1  0  0  0
 49 53  1  0  0  0
 49 64  1  0  0  0
 49122  1  0  0  0
 50 51  1  0  0  0
 50123  1  0  0  0
 50124  1  0  0  0
 51 52  1  0  0  0
 51125  1  0  0  0
 51126  1  0  0  0
 52127  1  0  0  0
 52128  1  0  0  0
 53 54  1  0  0  0
 54 55  2  0  0  0
 54129  1  0  0  0
 55 57  1  0  0  0
 55130  1  0  0  0
 56 69  2  0  0  0
 57 58  2  0  0  0
 57131  1  0  0  0
 58132  1  0  0  0
 59 60  1  0  0  0
 59 61  1  0  0  0
 59 62  1  0  0  0
 60133  1  0  0  0
 60134  1  0  0  0
 60135  1  0  0  0
 61136  1  0  0  0
 61137  1  0  0  0
 61138  1  0  0  0
 62139  1  0  0  0
 62140  1  0  0  0
 62141  1  0  0  0
 63 65  1  0  0  0
 63142  1  0  0  0
 63143  1  0  0  0
 63144  1  0  0  0
 64145  1  0  0  0
 65146  1  0  0  0
 68 83  1  0  0  0
 71 72  2  0  0  0
 71 75  1  0  0  0
 71147  1  0  0  0
 72 73  1  0  0  0
 72 77  1  0  0  0
 73 74  2  0  0  0
 73 85  1  0  0  0
 74 76  1  0  0  0
 74 84  1  0  0  0
 75 84  2  0  0  0
 75 86  1  0  0  0
 76 81  1  0  0  0
 76 87  2  0  0  0
 77 78  1  0  0  0
 77148  1  0  0  0
 77149  1  0  0  0
 78 85  1  0  0  0
 78150  1  0  0  0
 78151  1  0  0  0
 79 82  1  0  0  0
 79152  1  0  0  0
 79153  1  0  0  0
 79154  1  0  0  0
 80155  1  0  0  0
 80156  1  0  0  0
 80157  1  0  0  0
 80 83  1  0  0  0
 81 83  1  0  0  0
 81158  1  0  0  0
 81159  1  0  0  0
 82 83  1  0  0  0
 82160  1  0  0  0
 82161  1  0  0  0
 85162  1  0  0  0
 86163  1  0  0  0
M  ISO  4   1 100  68 101  83 101  86 100
M  END
> <chiral flag>
0

> <version>
0

> <s_m_source_file>
/data/baiqing/PycharmProjects/Reinvent-master-3.2/result/LINK_invent/BTK/process_docking_weight1_custom_product_contain_oxygen_bond_distance_aromatic_linkinvent_7_9_3/rearranged_h_0159.sdf

> <i_m_source_file_index>
70

> <r_mmod_Potential_Energy-OPLS-2005>
754.735473632812

> <r_mmod_Stretch_Energy-OPLS-2005>
347.665344238281

> <r_mmod_Bend_Energy-OPLS-2005>
378.895782470703

> <r_mmod_Torsional_Energy-OPLS-2005>
269.665374755859

> <r_mmod_Improper_Torsional_Energy-OPLS-2005>
15.0071592330933

> <r_mmod_Van_der_Waal_Energy-OPLS-2005>
135.810470581055

> <r_mmod_Electrostatic_Energy-OPLS-2005>
-382.460144042969

> <r_mmod_Solvation_Energy-OPLS-2005>
-246.908996582031

> <b_mmod_Minimization_Converged-OPLS-2005>
0

> <r_mmod_RMS_Derivative-OPLS-2005>
2.80174326896667

$$$$
70
                    3D
 Structure written by MMmdl.
150158  0  0  1  0            999 V2000
  -30.6132  -14.7616   20.4207 C   0  0  0  0  0  0
  -30.4274  -12.4498   19.5124 C   0  0  0  0  0  0
  -29.5212  -12.5023   18.2589 C   0  0  0  0  0  0
  -28.0421  -12.3329   18.6558 C   0  0  0  0  0  0
  -27.6390  -13.2382   19.8499 C   0  0  2  0  0  0
  -28.6747  -13.1805   20.9926 C   0  0  0  0  0  0
  -25.2485  -13.8213   20.5692 C   0  0  0  0  0  0
  -24.1785  -13.0442   20.9194 C   0  0  0  0  0  0
  -24.6388  -11.6925   20.8731 C   0  0  0  0  0  0
  -23.9071  -10.4298   21.0398 C   0  0  0  0  0  0
  -24.3622   -9.4215   21.9179 C   0  0  0  0  0  0
  -23.6295   -8.2249   22.0749 C   0  0  0  0  0  0
  -22.4277   -8.0285   21.3540 C   0  0  0  0  0  0
  -21.9912   -9.0257   20.4641 C   0  0  0  0  0  0
  -22.7241  -10.2136   20.3050 C   0  0  0  0  0  0
  -21.6857   -6.0735   22.5280 C   0  0  0  0  0  0
  -21.4018   -6.5638   23.8212 C   0  0  0  0  0  0
  -21.3661   -5.6791   24.9174 C   0  0  0  0  0  0
  -21.6044   -4.3054   24.7227 C   0  0  0  0  0  0
  -21.8820   -3.8145   23.4350 C   0  0  0  0  0  0
  -21.9194   -4.6961   22.3404 C   0  0  0  0  0  0
  -22.7806  -13.5214   21.1864 C   0  0  0  0  0  0
  -22.1659   -4.2145   21.0981 F   0  0  0  0  0  0
  -21.5629   -3.4540   25.7741 F   0  0  0  0  0  0
  -29.9866  -13.5282   20.4356 N   0  0  0  0  0  0
  -26.2913  -12.9434   20.3258 N   0  0  0  0  0  0
  -25.9319  -11.6568   20.5734 N   0  0  0  0  0  0
  -22.0461  -12.8200   22.0424 N   0  0  0  0  0  0
  -25.4169  -15.1939   20.4154 N   0  0  0  0  0  0
  -31.7994  -14.8275   20.0667 O   0  0  0  0  0  0
  -21.6641   -6.8879   21.4241 O   0  0  0  0  0  0
  -22.3481  -14.5516   20.6714 O   0  0  0  0  0  0
  -24.6317  -31.8536   23.1961 C   0  0  0  0  0  0
  -25.9140  -32.4740   23.8313 C   0  0  1  0  0  0
  -27.2237  -27.2503   20.1272 C   0  0  0  0  0  0
  -25.5938  -33.8546   24.2241 N   0  0  0  0  0  0
  -23.4287  -30.4742   21.5393 C   0  0  2  0  0  0
  -24.8756  -28.9158   20.1081 C   0  0  0  0  0  0
  -22.7504  -29.4588   22.4905 C   0  0  0  0  0  0
  -18.0295  -28.1384   22.8480 C   0  0  0  0  0  0
  -24.1491  -36.7275   23.2640 C   0  0  0  0  0  0
  -25.9742  -30.7622   21.3770 C   0  0  0  0  0  0
  -26.0447  -29.3831   20.7190 C   0  0  0  0  0  0
  -27.2161  -28.5609   20.7193 C   0  0  0  0  0  0
  -26.0289  -26.8481   19.4896 C   0  0  0  0  0  0
  -24.8735  -27.6577   19.4836 C   0  0  0  0  0  0
  -23.6466  -29.8044   20.1559 C   0  0  0  0  0  0
  -25.4118  -36.3059   24.0323 C   0  0  1  0  0  0
  -20.5896  -28.3696   23.1274 C   0  0  2  0  0  0
  -20.6784  -26.9412   22.5415 C   0  0  0  0  0  0
  -19.5765  -26.6380   21.5213 C   0  0  0  0  0  0
  -18.1943  -26.7925   22.1621 C   0  0  0  0  0  0
  -19.1547  -28.8857   23.2869 C   0  0  0  0  0  0
  -18.9466  -30.1459   23.8885 C   0  0  0  0  0  0
  -17.6464  -30.6582   24.0560 C   0  0  0  0  0  0
  -25.9061  -34.9431   23.5086 C   0  0  0  0  0  0
  -16.5355  -29.9077   23.6330 C   0  0  0  0  0  0
  -16.7281  -28.6497   23.0348 C   0  0  0  0  0  0
  -26.4508  -31.6576   25.0712 C   0  0  0  0  0  0
  -25.3729  -31.3732   26.1431 C   0  0  0  0  0  0
  -27.0362  -30.2990   24.6216 C   0  0  0  0  0  0
  -27.6056  -32.4327   25.7487 C   0  0  0  0  0  0
  -27.5578  -37.1793   24.8466 C   0  0  0  0  0  0
  -21.4210  -29.3042   22.3660 N   0  0  0  0  0  0
  -26.4290  -37.3762   23.9409 N   0  0  0  0  0  0
  -24.6973  -31.0490   22.0936 N   0  0  0  0  0  0
  -23.4203  -28.8131   23.3007 O   0  0  0  0  0  0
  -28.3419  -26.3872   20.2252 O   0  0  0  0  0  0
  -26.5634  -34.8911   22.4656 O   0  0  0  0  0  0
  -23.5467  -32.1367   23.7251 O   0  0  0  0  0  0
  -30.4684  -17.3738   20.1842 C   0  0  0  0  0  0
  -29.5172  -18.3557   20.4342 C   0  0  0  0  0  0
  -29.0016  -20.8197   20.5066 C   0  0  0  0  0  0
  -28.9210  -22.2531   19.8058 C   0  0  0  0  0  0
  -28.4414  -24.9958   19.6444 C   0  0  0  0  0  0
  -28.3494  -23.6033   20.5011 C   0  0  1  0  0  0
  -28.4428  -17.6875   21.0298 N   0  0  0  0  0  0
  -28.6957  -16.3876   21.1132 N   0  0  0  0  0  0
  -29.3376  -22.3326   18.6127 N   0  0  0  0  0  0
  -29.5331  -19.7351   19.9695 N   0  0  0  0  0  0
  -29.9367  -16.1216   20.6006 N   0  0  0  0  0  0
  -26.9372  -23.3915   20.8900 N   0  3  0  0  0  0
  -31.4744  -12.5485   19.2210 H   0  0  0  0  0  0
  -30.3519  -11.4769   20.0008 H   0  0  0  0  0  0
  -29.8093  -11.7229   17.5521 H   0  0  0  0  0  0
  -29.6588  -13.4526   17.7399 H   0  0  0  0  0  0
  -27.8939  -11.2853   18.9208 H   0  0  0  0  0  0
  -27.3938  -12.5229   17.7996 H   0  0  0  0  0  0
  -27.6297  -14.2575   19.4632 H   0  0  0  0  0  0
  -28.7033  -12.1832   21.4347 H   0  0  0  0  0  0
  -28.4009  -13.8550   21.8045 H   0  0  0  0  0  0
  -25.2766   -9.5698   22.4753 H   0  0  0  0  0  0
  -24.0005   -7.4644   22.7473 H   0  0  0  0  0  0
  -21.0841   -8.8778   19.8949 H   0  0  0  0  0  0
  -22.3696  -10.9672   19.6159 H   0  0  0  0  0  0
  -21.2010   -7.6144   23.9717 H   0  0  0  0  0  0
  -21.1481   -6.0518   25.9077 H   0  0  0  0  0  0
  -22.0597   -2.7607   23.2850 H   0  0  0  0  0  0
  -22.4082  -11.9857   22.4803 H   0  0  0  0  0  0
  -21.1080  -13.1227   22.2638 H   0  0  0  0  0  0
  -24.6550  -15.8495   20.5504 H   0  0  0  0  0  0
  -26.2820  -15.6460   20.1462 H   0  0  0  0  0  0
  -26.7202  -32.5377   23.1047 H   0  0  0  0  0  0
  -25.0085  -33.9685   25.0388 H   0  0  0  0  0  0
  -22.7255  -31.2963   21.3909 H   0  0  0  0  0  0
  -23.3755  -35.9605   23.3299 H   0  0  0  0  0  0
  -24.3578  -36.8905   22.2055 H   0  0  0  0  0  0
  -23.7244  -37.6474   23.6669 H   0  0  0  0  0  0
  -26.1161  -31.5225   20.6074 H   0  0  0  0  0  0
  -26.8505  -30.8099   22.0118 H   0  0  0  0  0  0
  -28.1102  -28.9141   21.2135 H   0  0  0  0  0  0
  -25.9447  -25.8853   19.0113 H   0  0  0  0  0  0
  -23.9755  -27.2945   19.0034 H   0  0  0  0  0  0
  -23.7714  -30.5792   19.3987 H   0  0  0  0  0  0
  -22.7647  -29.2380   19.8511 H   0  0  0  0  0  0
  -25.1303  -36.1901   25.0816 H   0  0  0  0  0  0
  -20.9985  -28.3276   24.1397 H   0  0  0  0  0  0
  -20.5684  -26.2306   23.3620 H   0  0  0  0  0  0
  -21.6654  -26.7439   22.1211 H   0  0  0  0  0  0
  -19.6930  -25.6290   21.1248 H   0  0  0  0  0  0
  -19.6703  -27.3187   20.6739 H   0  0  0  0  0  0
  -17.4217  -26.6672   21.4019 H   0  0  0  0  0  0
  -18.0338  -26.0066   22.9017 H   0  0  0  0  0  0
  -19.7940  -30.7281   24.2249 H   0  0  0  0  0  0
  -17.5014  -31.6261   24.5164 H   0  0  0  0  0  0
  -15.5354  -30.2974   23.7660 H   0  0  0  0  0  0
  -15.8682  -28.0812   22.7068 H   0  0  0  0  0  0
  -24.5908  -30.7076   25.7763 H   0  0  0  0  0  0
  -24.8916  -32.2903   26.4838 H   0  0  0  0  0  0
  -25.8045  -30.8926   27.0219 H   0  0  0  0  0  0
  -26.2953  -29.6725   24.1237 H   0  0  0  0  0  0
  -27.4033  -29.7268   25.4746 H   0  0  0  0  0  0
  -27.8833  -30.4261   23.9471 H   0  0  0  0  0  0
  -27.2658  -33.3633   26.2044 H   0  0  0  0  0  0
  -28.3874  -32.6881   25.0321 H   0  0  0  0  0  0
  -28.0714  -31.8468   26.5421 H   0  0  0  0  0  0
  -28.2594  -38.0091   24.7511 H   0  0  0  0  0  0
  -28.1075  -36.2622   24.6294 H   0  0  0  0  0  0
  -27.2293  -37.1444   25.8869 H   0  0  0  0  0  0
  -20.9398  -29.8762   21.6862 H   0  0  0  0  0  0
  -26.0164  -38.2835   24.1410 H   0  0  0  0  0  0
  -31.4354  -17.4191   19.6994 H   0  0  0  0  0  0
  -28.5383  -20.7832   21.4960 H   0  0  0  0  0  0
  -27.8192  -24.9130   18.7550 H   0  0  0  0  0  0
  -29.4495  -25.0058   19.2289 H   0  0  0  0  0  0
  -28.9273  -23.7505   21.4142 H   0  0  0  0  0  0
  -29.6657  -21.4182   18.3129 H   0  0  0  0  0  0
  -26.3705  -23.1781   20.0862 H   0  0  0  0  0  0
  -26.5719  -24.2202   21.3266 H   0  0  0  0  0  0
  -26.8437  -22.6400   21.5503 H   0  0  0  0  0  0
  1 25  1  0  0  0
  1 30  2  0  0  0
  1 81  1  0  0  0
  2  3  1  0  0  0
  2 25  1  0  0  0
  2 83  1  0  0  0
  2 84  1  0  0  0
  3  4  1  0  0  0
  3 85  1  0  0  0
  3 86  1  0  0  0
  4  5  1  0  0  0
  4 87  1  0  0  0
  4 88  1  0  0  0
  5  6  1  0  0  0
  5 26  1  0  0  0
  5 89  1  0  0  0
  6 25  1  0  0  0
  6 90  1  0  0  0
  6 91  1  0  0  0
  7  8  2  0  0  0
  7 26  1  0  0  0
  7 29  1  0  0  0
  8  9  1  0  0  0
  8 22  1  0  0  0
  9 10  1  0  0  0
  9 27  2  0  0  0
 10 11  2  0  0  0
 10 15  1  0  0  0
 11 12  1  0  0  0
 11 92  1  0  0  0
 12 13  2  0  0  0
 12 93  1  0  0  0
 13 14  1  0  0  0
 13 31  1  0  0  0
 14 15  2  0  0  0
 14 94  1  0  0  0
 15 95  1  0  0  0
 16 17  2  0  0  0
 16 21  1  0  0  0
 16 31  1  0  0  0
 17 18  1  0  0  0
 17 96  1  0  0  0
 18 19  2  0  0  0
 18 97  1  0  0  0
 19 20  1  0  0  0
 19 24  1  0  0  0
 20 21  2  0  0  0
 20 98  1  0  0  0
 21 23  1  0  0  0
 22 28  1  0  0  0
 22 32  2  0  0  0
 26 27  1  0  0  0
 28 99  1  0  0  0
 28100  1  0  0  0
 29101  1  0  0  0
 29102  1  0  0  0
 33 34  1  0  0  0
 33 66  1  0  0  0
 33 70  2  0  0  0
 34 36  1  0  0  0
 34 59  1  0  0  0
 34103  1  0  0  0
 35 44  2  0  0  0
 35 45  1  0  0  0
 35 68  1  0  0  0
 36 56  1  0  0  0
 36104  1  0  0  0
 37 39  1  0  0  0
 37 47  1  0  0  0
 37 66  1  0  0  0
 37105  1  0  0  0
 38 43  2  0  0  0
 38 46  1  0  0  0
 38 47  1  0  0  0
 39 64  1  0  0  0
 39 67  2  0  0  0
 40 52  1  0  0  0
 40 53  2  0  0  0
 40 58  1  0  0  0
 41106  1  0  0  0
 41107  1  0  0  0
 41108  1  0  0  0
 41 48  1  0  0  0
 42 43  1  0  0  0
 42 66  1  0  0  0
 42109  1  0  0  0
 42110  1  0  0  0
 43 44  1  0  0  0
 44111  1  0  0  0
 45 46  2  0  0  0
 45112  1  0  0  0
 46113  1  0  0  0
 47114  1  0  0  0
 47115  1  0  0  0
 48 56  1  0  0  0
 48 65  1  0  0  0
 48116  1  0  0  0
 49 50  1  0  0  0
 49 53  1  0  0  0
 49 64  1  0  0  0
 49117  1  0  0  0
 50 51  1  0  0  0
 50118  1  0  0  0
 50119  1  0  0  0
 51 52  1  0  0  0
 51120  1  0  0  0
 51121  1  0  0  0
 52122  1  0  0  0
 52123  1  0  0  0
 53 54  1  0  0  0
 54 55  2  0  0  0
 54124  1  0  0  0
 55 57  1  0  0  0
 55125  1  0  0  0
 56 69  2  0  0  0
 57 58  2  0  0  0
 57126  1  0  0  0
 58127  1  0  0  0
 59 60  1  0  0  0
 59 61  1  0  0  0
 59 62  1  0  0  0
 60128  1  0  0  0
 60129  1  0  0  0
 60130  1  0  0  0
 61131  1  0  0  0
 61132  1  0  0  0
 61133  1  0  0  0
 62134  1  0  0  0
 62135  1  0  0  0
 62136  1  0  0  0
 63 65  1  0  0  0
 63137  1  0  0  0
 63138  1  0  0  0
 63139  1  0  0  0
 64140  1  0  0  0
 65141  1  0  0  0
 68 75  1  0  0  0
 71 72  2  0  0  0
 71 81  1  0  0  0
 71142  1  0  0  0
 72 77  1  0  0  0
 72 80  1  0  0  0
 73 74  1  0  0  0
 73 80  2  0  0  0
 73143  1  0  0  0
 74 76  1  0  0  0
 74 79  2  0  0  0
 75 76  1  0  0  0
 75144  1  0  0  0
 75145  1  0  0  0
 76 82  1  0  0  0
 76146  1  0  0  0
 77 78  2  0  0  0
 78 81  1  0  0  0
 79147  1  0  0  0
 82148  1  0  0  0
 82149  1  0  0  0
 82150  1  0  0  0
M  CHG  1  82   1
M  ISO  4   1 100  68 101  75 101  81 100
M  END
> <chiral flag>
0

> <version>
0

> <s_m_source_file>
/data/baiqing/PycharmProjects/Reinvent-master-3.2/result/LINK_invent/BTK/process_docking_weight1_custom_product_contain_oxygen_bond_distance_aromatic_linkinvent_7_9_3/rearranged_h_0159.sdf

> <i_m_source_file_index>
71

> <r_mmod_Potential_Energy-OPLS-2005>
-92.2294845581055

> <r_mmod_Stretch_Energy-OPLS-2005>
142.415420532227

> <r_mmod_Bend_Energy-OPLS-2005>
211.838119506836

> <r_mmod_Torsional_Energy-OPLS-2005>
183.61328125

> <r_mmod_Improper_Torsional_Energy-OPLS-2005>
5.96119499206543

> <r_mmod_Van_der_Waal_Energy-OPLS-2005>
114.895645141602

> <r_mmod_Electrostatic_Energy-OPLS-2005>
-328.335876464844

> <r_mmod_Solvation_Energy-OPLS-2005>
-513.648376464844

> <b_mmod_Minimization_Converged-OPLS-2005>
0

> <r_mmod_RMS_Derivative-OPLS-2005>
0.646184980869293

$$$$
72
                    3D
 Structure written by MMmdl.
156164  0  0  1  0            999 V2000
  -30.6190  -14.7526   20.4694 C   0  0  0  0  0  0
  -30.4285  -12.4615   19.4834 C   0  0  0  0  0  0
  -29.5095  -12.5047   18.2425 C   0  0  0  0  0  0
  -28.0364  -12.3241   18.6557 C   0  0  0  0  0  0
  -27.6392  -13.2323   19.8503 C   0  0  2  0  0  0
  -28.6817  -13.1784   20.9887 C   0  0  0  0  0  0
  -25.2492  -13.8206   20.5682 C   0  0  0  0  0  0
  -24.1788  -13.0445   20.9209 C   0  0  0  0  0  0
  -24.6382  -11.6926   20.8758 C   0  0  0  0  0  0
  -23.9064  -10.4295   21.0420 C   0  0  0  0  0  0
  -24.3619   -9.4205   21.9190 C   0  0  0  0  0  0
  -23.6289   -8.2244   22.0752 C   0  0  0  0  0  0
  -22.4273   -8.0281   21.3541 C   0  0  0  0  0  0
  -21.9912   -9.0257   20.4643 C   0  0  0  0  0  0
  -22.7242  -10.2136   20.3055 C   0  0  0  0  0  0
  -21.6853   -6.0738   22.5276 C   0  0  0  0  0  0
  -21.4016   -6.5640   23.8208 C   0  0  0  0  0  0
  -21.3655   -5.6788   24.9169 C   0  0  0  0  0  0
  -21.6042   -4.3053   24.7221 C   0  0  0  0  0  0
  -21.8822   -3.8146   23.4339 C   0  0  0  0  0  0
  -21.9190   -4.6963   22.3398 C   0  0  0  0  0  0
  -22.7806  -13.5223   21.1867 C   0  0  0  0  0  0
  -22.1657   -4.2148   21.0974 F   0  0  0  0  0  0
  -21.5627   -3.4538   25.7734 F   0  0  0  0  0  0
  -29.9812  -13.5319   20.4070 N   0  0  0  0  0  0
  -26.2918  -12.9415   20.3278 N   0  0  0  0  0  0
  -25.9314  -11.6561   20.5763 N   0  0  0  0  0  0
  -22.0458  -12.8211   22.0423 N   0  0  0  0  0  0
  -25.4204  -15.1929   20.4081 N   0  0  0  0  0  0
  -31.8048  -14.8144   20.1400 O   0  0  0  0  0  0
  -21.6634   -6.8882   21.4237 O   0  0  0  0  0  0
  -22.3495  -14.5532   20.6709 O   0  0  0  0  0  0
  -24.6334  -31.8518   23.1962 C   0  0  0  0  0  0
  -25.9150  -32.4735   23.8312 C   0  0  1  0  0  0
  -27.2249  -27.2587   20.1311 C   0  0  0  0  0  0
  -25.5938  -33.8542   24.2247 N   0  0  0  0  0  0
  -23.4296  -30.4738   21.5380 C   0  0  2  0  0  0
  -24.8753  -28.9184   20.1060 C   0  0  0  0  0  0
  -22.7505  -29.4571   22.4889 C   0  0  0  0  0  0
  -18.0298  -28.1381   22.8473 C   0  0  0  0  0  0
  -24.1492  -36.7285   23.2647 C   0  0  0  0  0  0
  -25.9744  -30.7659   21.3742 C   0  0  0  0  0  0
  -26.0445  -29.3880   20.7163 C   0  0  0  0  0  0
  -27.2158  -28.5690   20.7188 C   0  0  0  0  0  0
  -26.0284  -26.8459   19.5037 C   0  0  0  0  0  0
  -24.8732  -27.6556   19.4908 C   0  0  0  0  0  0
  -23.6470  -29.8078   20.1521 C   0  0  0  0  0  0
  -25.4110  -36.3059   24.0335 C   0  0  1  0  0  0
  -20.5902  -28.3690   23.1270 C   0  0  2  0  0  0
  -20.6777  -26.9404   22.5417 C   0  0  0  0  0  0
  -19.5758  -26.6374   21.5213 C   0  0  0  0  0  0
  -18.1936  -26.7929   22.1615 C   0  0  0  0  0  0
  -19.1550  -28.8853   23.2866 C   0  0  0  0  0  0
  -18.9466  -30.1447   23.8896 C   0  0  0  0  0  0
  -17.6464  -30.6578   24.0564 C   0  0  0  0  0  0
  -25.9048  -34.9430   23.5088 C   0  0  0  0  0  0
  -16.5354  -29.9080   23.6325 C   0  0  0  0  0  0
  -16.7285  -28.6496   23.0348 C   0  0  0  0  0  0
  -26.4512  -31.6566   25.0708 C   0  0  0  0  0  0
  -25.3746  -31.3728   26.1442 C   0  0  0  0  0  0
  -27.0368  -30.2987   24.6194 C   0  0  0  0  0  0
  -27.6049  -32.4322   25.7490 C   0  0  0  0  0  0
  -27.5574  -37.1788   24.8466 C   0  0  0  0  0  0
  -21.4210  -29.3040   22.3656 N   0  0  0  0  0  0
  -26.4281  -37.3759   23.9414 N   0  0  0  0  0  0
  -24.6984  -31.0482   22.0932 N   0  0  0  0  0  0
  -23.4200  -28.8111   23.2991 O   0  0  0  0  0  0
  -28.3476  -26.4048   20.2270 O   0  0  0  0  0  0
  -26.5625  -34.8920   22.4663 O   0  0  0  0  0  0
  -23.5480  -32.1330   23.7256 O   0  0  0  0  0  0
  -29.3374  -18.4987   20.6680 C   0  0  0  0  0  0
  -31.6157  -17.7299   20.5921 C   0  0  0  0  0  0
  -29.7870  -19.8910   20.6798 C   0  0  0  0  0  0
  -30.2524  -17.3585   20.6388 C   0  0  0  0  0  0
  -31.1965  -20.0222   20.6825 C   0  0  0  0  0  0
  -28.9028  -21.1627   20.8447 C   0  0  0  0  0  0
  -28.3366  -23.7252   20.5294 C   0  0  0  0  0  0
  -29.7837  -22.4261   18.8965 C   0  0  0  0  0  0
  -28.4613  -25.0370   19.6035 C   0  0  0  0  0  0
  -32.0653  -19.0016   20.6043 N   0  0  0  0  0  0
  -31.8312  -21.2432   20.8392 N   0  0  0  0  0  0
  -29.8669  -15.9088   20.6888 N   0  0  0  0  0  0
  -28.9917  -22.3979   20.1427 N   0  0  0  0  0  0
  -27.9755  -21.0603   21.8202 N   0  3  0  0  0  0
  -27.6701  -23.7932   21.5738 O   0  0  0  0  0  0
  -31.4704  -12.5784   19.1815 H   0  0  0  0  0  0
  -30.3702  -11.4879   19.9730 H   0  0  0  0  0  0
  -29.7962  -11.7289   17.5313 H   0  0  0  0  0  0
  -29.6319  -13.4581   17.7262 H   0  0  0  0  0  0
  -27.8998  -11.2771   18.9293 H   0  0  0  0  0  0
  -27.3785  -12.5036   17.8048 H   0  0  0  0  0  0
  -27.6309  -14.2505   19.4611 H   0  0  0  0  0  0
  -28.7199  -12.1824   21.4327 H   0  0  0  0  0  0
  -28.4138  -13.8633   21.7941 H   0  0  0  0  0  0
  -25.2770   -9.5679   22.4762 H   0  0  0  0  0  0
  -23.9993   -7.4635   22.7473 H   0  0  0  0  0  0
  -21.0843   -8.8780   19.8948 H   0  0  0  0  0  0
  -22.3707  -10.9675   19.6158 H   0  0  0  0  0  0
  -21.2009   -7.6148   23.9713 H   0  0  0  0  0  0
  -21.1473   -6.0520   25.9072 H   0  0  0  0  0  0
  -22.0606   -2.7608   23.2840 H   0  0  0  0  0  0
  -22.4062  -11.9863   22.4812 H   0  0  0  0  0  0
  -21.1070  -13.1233   22.2625 H   0  0  0  0  0  0
  -24.6532  -15.8489   20.5086 H   0  0  0  0  0  0
  -26.2609  -15.6253   20.0481 H   0  0  0  0  0  0
  -26.7223  -32.5362   23.1051 H   0  0  0  0  0  0
  -25.0104  -33.9688   25.0408 H   0  0  0  0  0  0
  -22.7277  -31.2967   21.3903 H   0  0  0  0  0  0
  -23.3754  -35.9617   23.3295 H   0  0  0  0  0  0
  -24.3593  -36.8920   22.2065 H   0  0  0  0  0  0
  -23.7248  -37.6486   23.6673 H   0  0  0  0  0  0
  -26.1162  -31.5256   20.6051 H   0  0  0  0  0  0
  -26.8520  -30.8118   22.0062 H   0  0  0  0  0  0
  -28.1093  -28.9261   21.2103 H   0  0  0  0  0  0
  -25.9443  -25.8727   19.0467 H   0  0  0  0  0  0
  -23.9749  -27.2866   19.0161 H   0  0  0  0  0  0
  -23.7789  -30.5867   19.4001 H   0  0  0  0  0  0
  -22.7633  -29.2476   19.8404 H   0  0  0  0  0  0
  -25.1293  -36.1899   25.0827 H   0  0  0  0  0  0
  -20.9986  -28.3263   24.1395 H   0  0  0  0  0  0
  -20.5672  -26.2294   23.3624 H   0  0  0  0  0  0
  -21.6637  -26.7415   22.1197 H   0  0  0  0  0  0
  -19.6922  -25.6283   21.1239 H   0  0  0  0  0  0
  -19.6703  -27.3194   20.6750 H   0  0  0  0  0  0
  -17.4204  -26.6685   21.4021 H   0  0  0  0  0  0
  -18.0304  -26.0077   22.9010 H   0  0  0  0  0  0
  -19.7950  -30.7248   24.2265 H   0  0  0  0  0  0
  -17.5032  -31.6266   24.5155 H   0  0  0  0  0  0
  -15.5358  -30.2989   23.7658 H   0  0  0  0  0  0
  -15.8675  -28.0819   22.7069 H   0  0  0  0  0  0
  -24.5929  -30.7053   25.7802 H   0  0  0  0  0  0
  -24.8935  -32.2908   26.4830 H   0  0  0  0  0  0
  -25.8094  -30.8950   27.0234 H   0  0  0  0  0  0
  -26.2947  -29.6722   24.1237 H   0  0  0  0  0  0
  -27.4089  -29.7257   25.4699 H   0  0  0  0  0  0
  -27.8808  -30.4283   23.9418 H   0  0  0  0  0  0
  -27.2632  -33.3642   26.2012 H   0  0  0  0  0  0
  -28.3892  -32.6851   25.0341 H   0  0  0  0  0  0
  -28.0676  -31.8481   26.5457 H   0  0  0  0  0  0
  -28.2569  -38.0102   24.7498 H   0  0  0  0  0  0
  -28.1089  -36.2625   24.6292 H   0  0  0  0  0  0
  -27.2297  -37.1434   25.8872 H   0  0  0  0  0  0
  -20.9385  -29.8789   21.6893 H   0  0  0  0  0  0
  -26.0163  -38.2837   24.1410 H   0  0  0  0  0  0
  -28.2760  -18.3053   20.7163 H   0  0  0  0  0  0
  -32.4180  -17.0133   20.5935 H   0  0  0  0  0  0
  -30.0349  -21.4256   18.5534 H   0  0  0  0  0  0
  -30.7109  -22.9822   19.0407 H   0  0  0  0  0  0
  -29.2250  -22.8907   18.0846 H   0  0  0  0  0  0
  -27.8035  -24.9284   18.7437 H   0  0  0  0  0  0
  -29.4643  -25.0298   19.1801 H   0  0  0  0  0  0
  -31.3957  -21.9094   21.4626 H   0  0  0  0  0  0
  -32.8261  -21.1793   21.0141 H   0  0  0  0  0  0
  -28.8929  -15.7247   20.8804 H   0  0  0  0  0  0
  -27.8673  -20.2336   22.3869 H   0  0  0  0  0  0
  -27.4351  -21.8812   22.0807 H   0  0  0  0  0  0
  1 25  1  0  0  0
  1 30  2  0  0  0
  1 82  1  0  0  0
  2  3  1  0  0  0
  2 25  1  0  0  0
  2 86  1  0  0  0
  2 87  1  0  0  0
  3  4  1  0  0  0
  3 88  1  0  0  0
  3 89  1  0  0  0
  4  5  1  0  0  0
  4 90  1  0  0  0
  4 91  1  0  0  0
  5  6  1  0  0  0
  5 26  1  0  0  0
  5 92  1  0  0  0
  6 25  1  0  0  0
  6 93  1  0  0  0
  6 94  1  0  0  0
  7  8  2  0  0  0
  7 26  1  0  0  0
  7 29  1  0  0  0
  8  9  1  0  0  0
  8 22  1  0  0  0
  9 10  1  0  0  0
  9 27  2  0  0  0
 10 11  2  0  0  0
 10 15  1  0  0  0
 11 12  1  0  0  0
 11 95  1  0  0  0
 12 13  2  0  0  0
 12 96  1  0  0  0
 13 14  1  0  0  0
 13 31  1  0  0  0
 14 15  2  0  0  0
 14 97  1  0  0  0
 15 98  1  0  0  0
 16 17  2  0  0  0
 16 21  1  0  0  0
 16 31  1  0  0  0
 17 18  1  0  0  0
 17 99  1  0  0  0
 18 19  2  0  0  0
 18100  1  0  0  0
 19 20  1  0  0  0
 19 24  1  0  0  0
 20 21  2  0  0  0
 20101  1  0  0  0
 21 23  1  0  0  0
 22 28  1  0  0  0
 22 32  2  0  0  0
 26 27  1  0  0  0
 28102  1  0  0  0
 28103  1  0  0  0
 29104  1  0  0  0
 29105  1  0  0  0
 33 34  1  0  0  0
 33 66  1  0  0  0
 33 70  2  0  0  0
 34 36  1  0  0  0
 34 59  1  0  0  0
 34106  1  0  0  0
 35 44  2  0  0  0
 35 45  1  0  0  0
 35 68  1  0  0  0
 36 56  1  0  0  0
 36107  1  0  0  0
 37 39  1  0  0  0
 37 47  1  0  0  0
 37 66  1  0  0  0
 37108  1  0  0  0
 38 43  2  0  0  0
 38 46  1  0  0  0
 38 47  1  0  0  0
 39 64  1  0  0  0
 39 67  2  0  0  0
 40 52  1  0  0  0
 40 53  2  0  0  0
 40 58  1  0  0  0
 41109  1  0  0  0
 41110  1  0  0  0
 41111  1  0  0  0
 41 48  1  0  0  0
 42 43  1  0  0  0
 42 66  1  0  0  0
 42112  1  0  0  0
 42113  1  0  0  0
 43 44  1  0  0  0
 44114  1  0  0  0
 45 46  2  0  0  0
 45115  1  0  0  0
 46116  1  0  0  0
 47117  1  0  0  0
 47118  1  0  0  0
 48 56  1  0  0  0
 48 65  1  0  0  0
 48119  1  0  0  0
 49 50  1  0  0  0
 49 53  1  0  0  0
 49 64  1  0  0  0
 49120  1  0  0  0
 50 51  1  0  0  0
 50121  1  0  0  0
 50122  1  0  0  0
 51 52  1  0  0  0
 51123  1  0  0  0
 51124  1  0  0  0
 52125  1  0  0  0
 52126  1  0  0  0
 53 54  1  0  0  0
 54 55  2  0  0  0
 54127  1  0  0  0
 55 57  1  0  0  0
 55128  1  0  0  0
 56 69  2  0  0  0
 57 58  2  0  0  0
 57129  1  0  0  0
 58130  1  0  0  0
 59 60  1  0  0  0
 59 61  1  0  0  0
 59 62  1  0  0  0
 60131  1  0  0  0
 60132  1  0  0  0
 60133  1  0  0  0
 61134  1  0  0  0
 61135  1  0  0  0
 61136  1  0  0  0
 62137  1  0  0  0
 62138  1  0  0  0
 62139  1  0  0  0
 63 65  1  0  0  0
 63140  1  0  0  0
 63141  1  0  0  0
 63142  1  0  0  0
 64143  1  0  0  0
 65144  1  0  0  0
 68 79  1  0  0  0
 71 73  2  0  0  0
 71 74  1  0  0  0
 71145  1  0  0  0
 72 74  2  0  0  0
 72 80  1  0  0  0
 72146  1  0  0  0
 73 75  1  0  0  0
 73 76  1  0  0  0
 74 82  1  0  0  0
 75 80  2  0  0  0
 75 81  1  0  0  0
 76 83  1  0  0  0
 76 84  2  0  0  0
 77 79  1  0  0  0
 77 83  1  0  0  0
 77 85  2  0  0  0
 78 83  1  0  0  0
 78147  1  0  0  0
 78148  1  0  0  0
 78149  1  0  0  0
 79150  1  0  0  0
 79151  1  0  0  0
 81152  1  0  0  0
 81153  1  0  0  0
 82154  1  0  0  0
 84155  1  0  0  0
 84156  1  0  0  0
M  CHG  1  84   1
M  ISO  4   1 100  68 101  79 101  82 100
M  END
> <chiral flag>
0

> <version>
0

> <s_m_source_file>
/data/baiqing/PycharmProjects/Reinvent-master-3.2/result/LINK_invent/BTK/process_docking_weight1_custom_product_contain_oxygen_bond_distance_aromatic_linkinvent_7_9_3/rearranged_h_0159.sdf

> <i_m_source_file_index>
72

> <r_mmod_Potential_Energy-OPLS-2005>
-46.2987861633301

> <r_mmod_Stretch_Energy-OPLS-2005>
151.857879638672

> <r_mmod_Bend_Energy-OPLS-2005>
188.456451416016

> <r_mmod_Torsional_Energy-OPLS-2005>
236.785202026367

> <r_mmod_Improper_Torsional_Energy-OPLS-2005>
10.514988899231

> <r_mmod_Van_der_Waal_Energy-OPLS-2005>
160.678436279297

> <r_mmod_Electrostatic_Energy-OPLS-2005>
-389.791259765625

> <r_mmod_Solvation_Energy-OPLS-2005>
-490.929046630859

> <b_mmod_Minimization_Converged-OPLS-2005>
0

> <r_mmod_RMS_Derivative-OPLS-2005>
1.7563636302948

$$$$
73
                    3D
 Structure written by MMmdl.
148156  0  0  1  0            999 V2000
  -30.6424  -14.6790   20.4932 C   0  0  0  0  0  0
  -30.4331  -12.4158   19.4667 C   0  0  0  0  0  0
  -29.5055  -12.4953   18.2332 C   0  0  0  0  0  0
  -28.0317  -12.3243   18.6470 C   0  0  0  0  0  0
  -27.6461  -13.2254   19.8506 C   0  0  2  0  0  0
  -28.6901  -13.1360   20.9844 C   0  0  0  0  0  0
  -25.2525  -13.8200   20.5680 C   0  0  0  0  0  0
  -24.1806  -13.0446   20.9211 C   0  0  0  0  0  0
  -24.6386  -11.6916   20.8735 C   0  0  0  0  0  0
  -23.9058  -10.4291   21.0410 C   0  0  0  0  0  0
  -24.3632   -9.4194   21.9178 C   0  0  0  0  0  0
  -23.6298   -8.2232   22.0759 C   0  0  0  0  0  0
  -22.4278   -8.0270   21.3542 C   0  0  0  0  0  0
  -21.9886   -9.0250   20.4646 C   0  0  0  0  0  0
  -22.7226  -10.2128   20.3047 C   0  0  0  0  0  0
  -21.6840   -6.0715   22.5268 C   0  0  0  0  0  0
  -21.4008   -6.5634   23.8201 C   0  0  0  0  0  0
  -21.3664   -5.6800   24.9182 C   0  0  0  0  0  0
  -21.6055   -4.3061   24.7229 C   0  0  0  0  0  0
  -21.8826   -3.8134   23.4348 C   0  0  0  0  0  0
  -21.9194   -4.6945   22.3396 C   0  0  0  0  0  0
  -22.7830  -13.5231   21.1865 C   0  0  0  0  0  0
  -22.1670   -4.2138   21.0968 F   0  0  0  0  0  0
  -21.5629   -3.4547   25.7733 F   0  0  0  0  0  0
  -30.0051  -13.4635   20.4187 N   0  0  0  0  0  0
  -26.2943  -12.9392   20.3271 N   0  0  0  0  0  0
  -25.9319  -11.6543   20.5760 N   0  0  0  0  0  0
  -22.0485  -12.8211   22.0412 N   0  0  0  0  0  0
  -25.4255  -15.1920   20.4033 N   0  0  0  0  0  0
  -31.8166  -14.7721   20.1235 O   0  0  0  0  0  0
  -21.6648   -6.8858   21.4235 O   0  0  0  0  0  0
  -22.3510  -14.5521   20.6707 O   0  0  0  0  0  0
  -24.6314  -31.8595   23.2031 C   0  0  0  0  0  0
  -25.9154  -32.4773   23.8359 C   0  0  1  0  0  0
  -27.2081  -27.2906   20.1167 C   0  0  0  0  0  0
  -25.5972  -33.8579   24.2269 N   0  0  0  0  0  0
  -23.4254  -30.4892   21.5476 C   0  0  2  0  0  0
  -24.8664  -28.9508   20.1090 C   0  0  0  0  0  0
  -22.7497  -29.4655   22.4923 C   0  0  0  0  0  0
  -18.0291  -28.1394   22.8483 C   0  0  0  0  0  0
  -24.1493  -36.7282   23.2637 C   0  0  0  0  0  0
  -25.9726  -30.7825   21.3811 C   0  0  0  0  0  0
  -26.0403  -29.4099   20.7176 C   0  0  0  0  0  0
  -27.2171  -28.5958   20.7090 C   0  0  0  0  0  0
  -26.0032  -26.9008   19.4771 C   0  0  0  0  0  0
  -24.8513  -27.7001   19.4816 C   0  0  0  0  0  0
  -23.6398  -29.8351   20.1607 C   0  0  0  0  0  0
  -25.4116  -36.3081   24.0334 C   0  0  1  0  0  0
  -20.5891  -28.3707   23.1267 C   0  0  2  0  0  0
  -20.6784  -26.9424   22.5424 C   0  0  0  0  0  0
  -19.5772  -26.6385   21.5225 C   0  0  0  0  0  0
  -18.1934  -26.7941   22.1603 C   0  0  0  0  0  0
  -19.1543  -28.8866   23.2884 C   0  0  0  0  0  0
  -18.9467  -30.1468   23.8904 C   0  0  0  0  0  0
  -17.6472  -30.6600   24.0586 C   0  0  0  0  0  0
  -25.9067  -34.9456   23.5092 C   0  0  0  0  0  0
  -16.5368  -29.9110   23.6330 C   0  0  0  0  0  0
  -16.7279  -28.6526   23.0349 C   0  0  0  0  0  0
  -26.4478  -31.6604   25.0761 C   0  0  0  0  0  0
  -25.3688  -31.3847   26.1495 C   0  0  0  0  0  0
  -27.0257  -30.2974   24.6284 C   0  0  0  0  0  0
  -27.6073  -32.4307   25.7507 C   0  0  0  0  0  0
  -27.5588  -37.1789   24.8463 C   0  0  0  0  0  0
  -21.4211  -29.3058   22.3663 N   0  0  0  0  0  0
  -26.4280  -37.3783   23.9433 N   0  0  0  0  0  0
  -24.6953  -31.0606   22.0995 N   0  0  0  0  0  0
  -23.4208  -28.8177   23.3013 O   0  0  0  0  0  0
  -28.2939  -26.3899   20.1684 O   0  0  0  0  0  0
  -26.5627  -34.8928   22.4652 O   0  0  0  0  0  0
  -23.5467  -32.1397   23.7324 O   0  0  0  0  0  0
  -29.5767  -20.1843   21.3530 C   0  0  0  0  0  0
  -29.1252  -20.8189   19.1469 C   0  0  0  0  0  0
  -29.2094  -21.2655   20.4441 C   0  0  0  0  0  0
  -29.8284  -18.9523   20.7327 C   0  0  0  0  0  0
  -29.0408  -23.8221   20.1757 C   0  0  0  0  0  0
  -27.9260  -24.9427   20.2314 C   0  0  0  0  0  0
  -28.8295  -22.6296   20.8316 N   0  0  0  0  0  0
  -29.9106  -15.8558   20.8713 N   0  0  0  0  0  0
  -30.0593  -24.0184   19.5067 O   0  0  0  0  0  0
  -31.9693  -17.4827   21.2089 O   0  0  0  0  0  0
  -30.0982  -17.4752   22.9169 O   0  0  0  0  0  0
  -29.5264  -19.1041   19.0160 S   0  0  0  0  0  0
  -30.5284  -17.4102   21.5067 S   0  0  0  0  0  0
  -31.4734  -12.5341   19.1594 H   0  0  0  0  0  0
  -30.3713  -11.4319   19.9334 H   0  0  0  0  0  0
  -29.7765  -11.7302   17.5059 H   0  0  0  0  0  0
  -29.6373  -13.4539   17.7285 H   0  0  0  0  0  0
  -27.8861  -11.2744   18.9107 H   0  0  0  0  0  0
  -27.3738  -12.5202   17.7985 H   0  0  0  0  0  0
  -27.6508  -14.2491   19.4743 H   0  0  0  0  0  0
  -28.7068  -12.1331   21.4167 H   0  0  0  0  0  0
  -28.4298  -13.8116   21.8002 H   0  0  0  0  0  0
  -25.2778   -9.5683   22.4774 H   0  0  0  0  0  0
  -24.0006   -7.4619   22.7472 H   0  0  0  0  0  0
  -21.0830   -8.8750   19.8944 H   0  0  0  0  0  0
  -22.3672  -10.9676   19.6157 H   0  0  0  0  0  0
  -21.1993   -7.6144   23.9704 H   0  0  0  0  0  0
  -21.1487   -6.0530   25.9091 H   0  0  0  0  0  0
  -22.0594   -2.7586   23.2854 H   0  0  0  0  0  0
  -22.4118  -11.9877   22.4794 H   0  0  0  0  0  0
  -21.1106  -13.1228   22.2632 H   0  0  0  0  0  0
  -24.6481  -15.8404   20.4884 H   0  0  0  0  0  0
  -26.2506  -15.6196   20.0029 H   0  0  0  0  0  0
  -26.7259  -32.5409   23.1137 H   0  0  0  0  0  0
  -25.0182  -33.9744   25.0460 H   0  0  0  0  0  0
  -22.7216  -31.3128   21.4074 H   0  0  0  0  0  0
  -23.3764  -35.9605   23.3285 H   0  0  0  0  0  0
  -24.3601  -36.8894   22.2052 H   0  0  0  0  0  0
  -23.7208  -37.6478   23.6650 H   0  0  0  0  0  0
  -26.1207  -31.5463   20.6155 H   0  0  0  0  0  0
  -26.8487  -30.8174   22.0172 H   0  0  0  0  0  0
  -28.1156  -28.9434   21.1989 H   0  0  0  0  0  0
  -25.8959  -25.9595   18.9635 H   0  0  0  0  0  0
  -23.9524  -27.3410   18.9973 H   0  0  0  0  0  0
  -23.7657  -30.6182   19.4123 H   0  0  0  0  0  0
  -22.7558  -29.2777   19.8486 H   0  0  0  0  0  0
  -25.1267  -36.1941   25.0818 H   0  0  0  0  0  0
  -20.9992  -28.3292   24.1382 H   0  0  0  0  0  0
  -20.5656  -26.2334   23.3626 H   0  0  0  0  0  0
  -21.6653  -26.7432   22.1246 H   0  0  0  0  0  0
  -19.6952  -25.6296   21.1255 H   0  0  0  0  0  0
  -19.6743  -27.3198   20.6749 H   0  0  0  0  0  0
  -17.4228  -26.6722   21.3984 H   0  0  0  0  0  0
  -18.0311  -26.0073   22.8964 H   0  0  0  0  0  0
  -19.7960  -30.7288   24.2251 H   0  0  0  0  0  0
  -17.5039  -31.6273   24.5197 H   0  0  0  0  0  0
  -15.5370  -30.3019   23.7674 H   0  0  0  0  0  0
  -15.8659  -28.0859   22.7056 H   0  0  0  0  0  0
  -24.6074  -30.6870   25.7992 H   0  0  0  0  0  0
  -24.8616  -32.3005   26.4539 H   0  0  0  0  0  0
  -25.8028  -30.9477   27.0491 H   0  0  0  0  0  0
  -26.2815  -29.6784   24.1255 H   0  0  0  0  0  0
  -27.3811  -29.7197   25.4834 H   0  0  0  0  0  0
  -27.8772  -30.4173   23.9578 H   0  0  0  0  0  0
  -27.2801  -33.3767   26.1829 H   0  0  0  0  0  0
  -28.4021  -32.6552   25.0382 H   0  0  0  0  0  0
  -28.0551  -31.8543   26.5617 H   0  0  0  0  0  0
  -28.2596  -38.0100   24.7500 H   0  0  0  0  0  0
  -28.1066  -36.2615   24.6240 H   0  0  0  0  0  0
  -27.2325  -37.1398   25.8875 H   0  0  0  0  0  0
  -20.9378  -29.8807   21.6903 H   0  0  0  0  0  0
  -26.0157  -38.2849   24.1444 H   0  0  0  0  0  0
  -29.6855  -20.3460   22.4171 H   0  0  0  0  0  0
  -28.8350  -21.3742   18.2624 H   0  0  0  0  0  0
  -27.2497  -24.7557   21.0659 H   0  0  0  0  0  0
  -27.3864  -24.6837   19.3254 H   0  0  0  0  0  0
  -28.1714  -22.6845   21.5985 H   0  0  0  0  0  0
  -28.9263  -15.7713   21.0955 H   0  0  0  0  0  0
  1 25  1  0  0  0
  1 30  2  0  0  0
  1 78  1  0  0  0
  2  3  1  0  0  0
  2 25  1  0  0  0
  2 84  1  0  0  0
  2 85  1  0  0  0
  3  4  1  0  0  0
  3 86  1  0  0  0
  3 87  1  0  0  0
  4  5  1  0  0  0
  4 88  1  0  0  0
  4 89  1  0  0  0
  5  6  1  0  0  0
  5 26  1  0  0  0
  5 90  1  0  0  0
  6 25  1  0  0  0
  6 91  1  0  0  0
  6 92  1  0  0  0
  7  8  2  0  0  0
  7 26  1  0  0  0
  7 29  1  0  0  0
  8  9  1  0  0  0
  8 22  1  0  0  0
  9 10  1  0  0  0
  9 27  2  0  0  0
 10 11  2  0  0  0
 10 15  1  0  0  0
 11 12  1  0  0  0
 11 93  1  0  0  0
 12 13  2  0  0  0
 12 94  1  0  0  0
 13 14  1  0  0  0
 13 31  1  0  0  0
 14 15  2  0  0  0
 14 95  1  0  0  0
 15 96  1  0  0  0
 16 17  2  0  0  0
 16 21  1  0  0  0
 16 31  1  0  0  0
 17 18  1  0  0  0
 17 97  1  0  0  0
 18 19  2  0  0  0
 18 98  1  0  0  0
 19 20  1  0  0  0
 19 24  1  0  0  0
 20 21  2  0  0  0
 20 99  1  0  0  0
 21 23  1  0  0  0
 22 28  1  0  0  0
 22 32  2  0  0  0
 26 27  1  0  0  0
 28100  1  0  0  0
 28101  1  0  0  0
 29102  1  0  0  0
 29103  1  0  0  0
 33 34  1  0  0  0
 33 66  1  0  0  0
 33 70  2  0  0  0
 34 36  1  0  0  0
 34 59  1  0  0  0
 34104  1  0  0  0
 35 44  2  0  0  0
 35 45  1  0  0  0
 35 68  1  0  0  0
 36 56  1  0  0  0
 36105  1  0  0  0
 37 39  1  0  0  0
 37 47  1  0  0  0
 37 66  1  0  0  0
 37106  1  0  0  0
 38 43  2  0  0  0
 38 46  1  0  0  0
 38 47  1  0  0  0
 39 64  1  0  0  0
 39 67  2  0  0  0
 40 52  1  0  0  0
 40 53  2  0  0  0
 40 58  1  0  0  0
 41107  1  0  0  0
 41108  1  0  0  0
 41109  1  0  0  0
 41 48  1  0  0  0
 42 43  1  0  0  0
 42 66  1  0  0  0
 42110  1  0  0  0
 42111  1  0  0  0
 43 44  1  0  0  0
 44112  1  0  0  0
 45 46  2  0  0  0
 45113  1  0  0  0
 46114  1  0  0  0
 47115  1  0  0  0
 47116  1  0  0  0
 48 56  1  0  0  0
 48 65  1  0  0  0
 48117  1  0  0  0
 49 50  1  0  0  0
 49 53  1  0  0  0
 49 64  1  0  0  0
 49118  1  0  0  0
 50 51  1  0  0  0
 50119  1  0  0  0
 50120  1  0  0  0
 51 52  1  0  0  0
 51121  1  0  0  0
 51122  1  0  0  0
 52123  1  0  0  0
 52124  1  0  0  0
 53 54  1  0  0  0
 54 55  2  0  0  0
 54125  1  0  0  0
 55 57  1  0  0  0
 55126  1  0  0  0
 56 69  2  0  0  0
 57 58  2  0  0  0
 57127  1  0  0  0
 58128  1  0  0  0
 59 60  1  0  0  0
 59 61  1  0  0  0
 59 62  1  0  0  0
 60129  1  0  0  0
 60130  1  0  0  0
 60131  1  0  0  0
 61132  1  0  0  0
 61133  1  0  0  0
 61134  1  0  0  0
 62135  1  0  0  0
 62136  1  0  0  0
 62137  1  0  0  0
 63 65  1  0  0  0
 63138  1  0  0  0
 63139  1  0  0  0
 63140  1  0  0  0
 64141  1  0  0  0
 65142  1  0  0  0
 68 76  1  0  0  0
 71 73  1  0  0  0
 71 74  2  0  0  0
 71143  1  0  0  0
 72 73  2  0  0  0
 72 82  1  0  0  0
 72144  1  0  0  0
 73 77  1  0  0  0
 74 82  1  0  0  0
 74 83  1  0  0  0
 75 76  1  0  0  0
 75 77  1  0  0  0
 75 79  2  0  0  0
 76145  1  0  0  0
 76146  1  0  0  0
 77147  1  0  0  0
 78148  1  0  0  0
 78 83  1  0  0  0
 80 83  2  0  0  0
 81 83  2  0  0  0
M  ISO  4   1 100  68 101  76 101  78 100
M  END
> <chiral flag>
0

> <version>
0

> <s_m_source_file>
/data/baiqing/PycharmProjects/Reinvent-master-3.2/result/LINK_invent/BTK/process_docking_weight1_custom_product_contain_oxygen_bond_distance_aromatic_linkinvent_7_9_3/rearranged_h_0159.sdf

> <i_m_source_file_index>
73

> <r_mmod_Potential_Energy-OPLS-2005>
-93.2279586791992

> <r_mmod_Stretch_Energy-OPLS-2005>
85.8135757446289

> <r_mmod_Bend_Energy-OPLS-2005>
156.38444519043

> <r_mmod_Torsional_Energy-OPLS-2005>
234.537841796875

> <r_mmod_Improper_Torsional_Energy-OPLS-2005>
5.61043882369995

> <r_mmod_Van_der_Waal_Energy-OPLS-2005>
120.55672454834

> <r_mmod_Electrostatic_Energy-OPLS-2005>
-464.470764160156

> <r_mmod_Solvation_Energy-OPLS-2005>
-297.385437011719

> <b_mmod_Minimization_Converged-OPLS-2005>
0

> <r_mmod_RMS_Derivative-OPLS-2005>
4.21039533615112

$$$$
74
                    3D
 Structure written by MMmdl.
166175  0  0  1  0            999 V2000
  -30.2354  -13.7987   21.0939 C   0  0  0  0  0  0
  -30.7601  -12.9028   18.7338 C   0  0  0  0  0  0
  -29.6144  -12.9379   17.6127 C   0  0  0  0  0  0
  -28.1279  -12.5553   17.9924 C   0  0  0  0  0  0
  -27.9872  -12.8253   19.4354 C   0  0  2  0  0  0
  -29.2669  -12.0296   19.9215 C   0  0  0  0  0  0
  -25.8015  -14.2586   19.8483 C   0  0  0  0  0  0
  -24.7073  -14.4462   20.9032 C   0  0  0  0  0  0
  -24.4828  -12.7385   22.4540 C   0  0  0  0  0  0
  -23.5911  -11.1091   22.2392 C   0  0  0  0  0  0
  -24.0979   -9.7948   22.6865 C   0  0  0  0  0  0
  -23.6164   -8.4678   22.3881 C   0  0  0  0  0  0
  -22.5067   -8.2295   21.5565 C   0  0  0  0  0  0
  -22.0834   -9.3639   20.8551 C   0  0  0  0  0  0
  -22.5976  -10.6749   21.1804 C   0  0  0  0  0  0
  -21.7414   -6.1355   22.5106 C   0  0  0  0  0  0
  -21.4221   -6.5933   23.8105 C   0  0  0  0  0  0
  -21.3597   -5.6951   24.8970 C   0  0  0  0  0  0
  -21.5951   -4.3225   24.6954 C   0  0  0  0  0  0
  -21.8685   -3.8483   23.4000 C   0  0  0  0  0  0
  -21.9306   -4.7456   22.3150 C   0  0  0  0  0  0
  -23.0898  -14.5124   20.2201 C   0  0  0  0  0  0
  -22.1840   -4.2584   21.0769 F   0  0  0  0  0  0
  -21.5502   -3.4651   25.7436 F   0  0  0  0  0  0
  -30.2062  -12.9718   20.0502 N   0  0  0  0  0  0
  -26.6178  -12.7749   20.0013 N   0  0  0  0  0  0
  -25.5904  -11.7357   22.0776 N   0  0  0  0  0  0
  -22.1619  -13.5987   20.6929 N   0  0  0  0  0  0
  -26.1771  -15.3322   19.1552 N   0  0  0  0  0  0
  -31.1233  -14.6797   21.0031 O   0  0  0  0  0  0
  -21.8508   -7.0026   21.4303 O   0  0  0  0  0  0
  -22.5365  -15.4872   19.8260 O   0  0  0  0  0  0
  -24.6980  -31.7713   23.1525 C   0  0  0  0  0  0
  -25.9532  -32.4238   23.8039 C   0  0  1  0  0  0
  -26.4376  -26.1336   20.5977 C   0  0  0  0  0  0
  -25.6074  -33.8116   24.1855 N   0  0  0  0  0  0
  -23.5079  -30.4099   21.5057 C   0  0  2  0  0  0
  -24.8662  -28.6881   20.1052 C   0  0  0  0  0  0
  -22.7698  -29.4241   22.4535 C   0  0  0  0  0  0
  -18.0336  -28.1408   22.8472 C   0  0  0  0  0  0
  -24.1506  -36.7035   23.2659 C   0  0  0  0  0  0
  -26.0787  -30.3021   21.5153 C   0  0  0  0  0  0
  -25.9951  -28.8237   20.9090 C   0  0  0  0  0  0
  -26.7997  -27.5581   21.1246 C   0  0  0  0  0  0
  -25.5706  -26.3771   19.5176 C   0  0  0  0  0  0
  -24.7578  -27.5257   19.3348 C   0  0  0  0  0  0
  -23.7667  -29.7562   20.1146 C   0  0  0  0  0  0
  -25.4173  -36.2773   24.0272 C   0  0  1  0  0  0
  -20.5961  -28.3770   23.1096 C   0  0  2  0  0  0
  -20.6773  -26.9411   22.5402 C   0  0  0  0  0  0
  -19.5740  -26.6351   21.5216 C   0  0  0  0  0  0
  -18.1932  -26.7943   22.1632 C   0  0  0  0  0  0
  -19.1606  -28.8909   23.2778 C   0  0  0  0  0  0
  -18.9515  -30.1488   23.8830 C   0  0  0  0  0  0
  -17.6501  -30.6581   24.0556 C   0  0  0  0  0  0
  -25.9189  -34.9157   23.4912 C   0  0  0  0  0  0
  -16.5389  -29.9069   23.6341 C   0  0  0  0  0  0
  -16.7321  -28.6492   23.0368 C   0  0  0  0  0  0
  -26.4636  -31.6456   25.0809 C   0  0  0  0  0  0
  -25.3643  -31.3867   26.1389 C   0  0  0  0  0  0
  -27.0643  -30.2746   24.7080 C   0  0  0  0  0  0
  -27.6031  -32.4433   25.7579 C   0  0  0  0  0  0
  -27.5564  -37.1676   24.8464 C   0  0  0  0  0  0
  -21.4343  -29.2999   22.3329 N   0  0  0  0  0  0
  -26.4259  -37.3586   23.9417 N   0  0  0  0  0  0
  -24.7948  -30.8831   22.1011 N   0  0  0  0  0  0
  -23.4114  -28.7788   23.2877 O   0  0  0  0  0  0
  -26.7219  -24.5366   20.8633 O   0  0  0  0  0  0
  -26.5837  -34.8781   22.4534 O   0  0  0  0  0  0
  -23.5997  -32.1053   23.6315 O   0  0  0  0  0  0
  -26.5607  -13.6212   21.9679 C   0  0  0  0  0  0
  -25.2142  -10.8800   19.9408 C   0  0  0  0  0  0
  -27.6976  -11.0057   21.5109 C   0  0  0  0  0  0
  -24.4964  -12.4155   20.3496 C   0  0  0  0  0  0
  -27.8712  -12.6233   22.0819 C   0  0  0  0  0  0
  -23.5008  -14.3933   22.1754 C   0  0  0  0  0  0
  -24.4713  -19.5116   22.7943 C   0  0  0  0  0  0
  -25.4201  -19.0234   21.0790 C   0  0  0  0  0  0
  -23.6462  -17.7824   22.9464 C   0  0  0  0  0  0
  -24.5718  -17.3539   21.1041 C   0  0  0  0  0  0
  -25.0306  -20.7302   21.5158 C   0  0  0  0  0  0
  -23.7418  -21.0293   19.5207 C   0  0  0  0  0  0
  -25.8635  -22.8249   21.4934 C   0  0  0  0  0  0
  -26.6433  -10.3490   20.4737 N   0  0  0  0  0  0
  -23.8816  -16.2544   22.2288 N   0  0  0  0  0  0
  -29.2297  -13.4599   22.1018 N   0  0  0  0  0  0
  -22.5910  -14.2536   23.2389 N   0  3  0  0  0  0
  -23.7610  -21.0182   20.9407 O   0  0  0  0  0  0
  -31.4334  -13.7451   18.5777 H   0  0  0  0  0  0
  -31.3916  -12.0183   18.6372 H   0  0  0  0  0  0
  -29.9276  -12.3589   16.7439 H   0  0  0  0  0  0
  -29.5688  -13.9666   17.2458 H   0  0  0  0  0  0
  -27.9028  -11.5153   17.7442 H   0  0  0  0  0  0
  -27.4220  -13.1611   17.4218 H   0  0  0  0  0  0
  -28.1935  -13.8944   19.4897 H   0  0  0  0  0  0
  -29.4445  -11.1412   19.2968 H   0  0  0  0  0  0
  -29.6771  -11.5295   20.7932 H   0  0  0  0  0  0
  -24.9235   -9.7997   23.3855 H   0  0  0  0  0  0
  -24.0725   -7.6372   22.9071 H   0  0  0  0  0  0
  -21.3080   -9.2582   20.1081 H   0  0  0  0  0  0
  -22.1543  -11.3550   20.4886 H   0  0  0  0  0  0
  -21.2451   -7.6448   23.9838 H   0  0  0  0  0  0
  -21.1350   -6.0607   25.8879 H   0  0  0  0  0  0
  -22.0319   -2.7942   23.2347 H   0  0  0  0  0  0
  -22.4697  -12.7189   21.0824 H   0  0  0  0  0  0
  -21.1914  -13.7141   20.4395 H   0  0  0  0  0  0
  -25.5502  -16.1075   18.9855 H   0  0  0  0  0  0
  -26.9227  -15.2871   18.4698 H   0  0  0  0  0  0
  -26.7539  -32.4486   23.0642 H   0  0  0  0  0  0
  -25.0129  -33.9126   24.9956 H   0  0  0  0  0  0
  -22.8527  -31.2683   21.3389 H   0  0  0  0  0  0
  -23.3822  -35.9303   23.3218 H   0  0  0  0  0  0
  -24.3578  -36.8811   22.2093 H   0  0  0  0  0  0
  -23.7198  -37.6151   23.6820 H   0  0  0  0  0  0
  -26.3740  -30.9595   20.6972 H   0  0  0  0  0  0
  -26.9218  -30.3419   22.1890 H   0  0  0  0  0  0
  -27.5857  -27.6137   21.8636 H   0  0  0  0  0  0
  -25.3084  -25.5183   18.9179 H   0  0  0  0  0  0
  -23.9558  -27.4575   18.6130 H   0  0  0  0  0  0
  -24.0500  -30.5314   19.4007 H   0  0  0  0  0  0
  -22.8442  -29.3229   19.7282 H   0  0  0  0  0  0
  -25.1379  -36.1508   25.0763 H   0  0  0  0  0  0
  -21.0096  -28.3422   24.1196 H   0  0  0  0  0  0
  -20.5601  -26.2387   23.3666 H   0  0  0  0  0  0
  -21.6627  -26.7297   22.1224 H   0  0  0  0  0  0
  -19.6865  -25.6240   21.1271 H   0  0  0  0  0  0
  -19.6676  -27.3129   20.6715 H   0  0  0  0  0  0
  -17.4194  -26.6715   21.4035 H   0  0  0  0  0  0
  -18.0312  -26.0095   22.9039 H   0  0  0  0  0  0
  -19.7992  -30.7329   24.2160 H   0  0  0  0  0  0
  -17.5051  -31.6258   24.5169 H   0  0  0  0  0  0
  -15.5381  -30.2949   23.7687 H   0  0  0  0  0  0
  -15.8735  -28.0776   22.7117 H   0  0  0  0  0  0
  -24.5883  -30.7132   25.7723 H   0  0  0  0  0  0
  -24.8774  -32.3104   26.4531 H   0  0  0  0  0  0
  -25.7799  -30.9245   27.0354 H   0  0  0  0  0  0
  -26.3356  -29.6117   24.2406 H   0  0  0  0  0  0
  -27.4156  -29.7514   25.5985 H   0  0  0  0  0  0
  -27.9353  -30.3745   24.0601 H   0  0  0  0  0  0
  -27.2531  -33.3847   26.1833 H   0  0  0  0  0  0
  -28.3979  -32.6811   25.0493 H   0  0  0  0  0  0
  -28.0552  -31.8809   26.5759 H   0  0  0  0  0  0
  -28.2491  -38.0060   24.7586 H   0  0  0  0  0  0
  -28.1154  -36.2575   24.6213 H   0  0  0  0  0  0
  -27.2270  -37.1198   25.8862 H   0  0  0  0  0  0
  -20.9592  -29.8703   21.6470 H   0  0  0  0  0  0
  -26.0047  -38.2602   24.1497 H   0  0  0  0  0  0
  -26.5520  -14.6000   22.4385 H   0  0  0  0  0  0
  -24.8142  -10.2962   19.1267 H   0  0  0  0  0  0
  -28.4840  -10.2888   21.7219 H   0  0  0  0  0  0
  -25.3239  -19.4402   23.4768 H   0  0  0  0  0  0
  -23.7893  -20.1221   23.3866 H   0  0  0  0  0  0
  -25.6750  -19.1047   20.0232 H   0  0  0  0  0  0
  -26.4058  -18.8333   21.5087 H   0  0  0  0  0  0
  -22.5824  -17.9687   22.8095 H   0  0  0  0  0  0
  -23.7269  -17.5534   24.0077 H   0  0  0  0  0  0
  -25.3857  -16.7847   20.7116 H   0  0  0  0  0  0
  -23.8197  -17.4422   20.3177 H   0  0  0  0  0  0
  -22.8526  -21.5591   19.1781 H   0  0  0  0  0  0
  -23.6867  -20.0144   19.1225 H   0  0  0  0  0  0
  -24.6160  -21.5255   19.0983 H   0  0  0  0  0  0
  -26.6232  -22.6439   22.2507 H   0  0  0  0  0  0
  -25.0518  -23.3000   22.0439 H   0  0  0  0  0  0
  -29.3059  -14.0907   22.8898 H   0  0  0  0  0  0
  -22.0864  -13.3967   23.4162 H   0  0  0  0  0  0
  -22.3093  -15.0578   23.7784 H   0  0  0  0  0  0
  1 25  1  0  0  0
  1 30  2  0  0  0
  1 86  1  0  0  0
  2  3  1  0  0  0
  2 25  1  0  0  0
  2 89  1  0  0  0
  2 90  1  0  0  0
  3  4  1  0  0  0
  3 91  1  0  0  0
  3 92  1  0  0  0
  4  5  1  0  0  0
  4 93  1  0  0  0
  4 94  1  0  0  0
  5  6  1  0  0  0
  5 26  1  0  0  0
  5 95  1  0  0  0
  6 25  1  0  0  0
  6 96  1  0  0  0
  6 97  1  0  0  0
  7  8  2  0  0  0
  7 26  1  0  0  0
  7 29  1  0  0  0
  8  9  1  0  0  0
  8 22  1  0  0  0
  9 10  1  0  0  0
  9 27  2  0  0  0
 10 11  2  0  0  0
 10 15  1  0  0  0
 11 12  1  0  0  0
 11 98  1  0  0  0
 12 13  2  0  0  0
 12 99  1  0  0  0
 13 14  1  0  0  0
 13 31  1  0  0  0
 14 15  2  0  0  0
 14100  1  0  0  0
 15101  1  0  0  0
 16 17  2  0  0  0
 16 21  1  0  0  0
 16 31  1  0  0  0
 17 18  1  0  0  0
 17102  1  0  0  0
 18 19  2  0  0  0
 18103  1  0  0  0
 19 20  1  0  0  0
 19 24  1  0  0  0
 20 21  2  0  0  0
 20104  1  0  0  0
 21 23  1  0  0  0
 22 28  1  0  0  0
 22 32  2  0  0  0
 26 27  1  0  0  0
 28105  1  0  0  0
 28106  1  0  0  0
 29107  1  0  0  0
 29108  1  0  0  0
 33 34  1  0  0  0
 33 66  1  0  0  0
 33 70  2  0  0  0
 34 36  1  0  0  0
 34 59  1  0  0  0
 34109  1  0  0  0
 35 44  2  0  0  0
 35 45  1  0  0  0
 35 68  1  0  0  0
 36 56  1  0  0  0
 36110  1  0  0  0
 37 39  1  0  0  0
 37 47  1  0  0  0
 37 66  1  0  0  0
 37111  1  0  0  0
 38 43  2  0  0  0
 38 46  1  0  0  0
 38 47  1  0  0  0
 39 64  1  0  0  0
 39 67  2  0  0  0
 40 52  1  0  0  0
 40 53  2  0  0  0
 40 58  1  0  0  0
 41112  1  0  0  0
 41113  1  0  0  0
 41114  1  0  0  0
 41 48  1  0  0  0
 42 43  1  0  0  0
 42 66  1  0  0  0
 42115  1  0  0  0
 42116  1  0  0  0
 43 44  1  0  0  0
 44117  1  0  0  0
 45 46  2  0  0  0
 45118  1  0  0  0
 46119  1  0  0  0
 47120  1  0  0  0
 47121  1  0  0  0
 48 56  1  0  0  0
 48 65  1  0  0  0
 48122  1  0  0  0
 49 50  1  0  0  0
 49 53  1  0  0  0
 49 64  1  0  0  0
 49123  1  0  0  0
 50 51  1  0  0  0
 50124  1  0  0  0
 50125  1  0  0  0
 51 52  1  0  0  0
 51126  1  0  0  0
 51127  1  0  0  0
 52128  1  0  0  0
 52129  1  0  0  0
 53 54  1  0  0  0
 54 55  2  0  0  0
 54130  1  0  0  0
 55 57  1  0  0  0
 55131  1  0  0  0
 56 69  2  0  0  0
 57 58  2  0  0  0
 57132  1  0  0  0
 58133  1  0  0  0
 59 60  1  0  0  0
 59 61  1  0  0  0
 59 62  1  0  0  0
 60134  1  0  0  0
 60135  1  0  0  0
 60136  1  0  0  0
 61137  1  0  0  0
 61138  1  0  0  0
 61139  1  0  0  0
 62140  1  0  0  0
 62141  1  0  0  0
 62142  1  0  0  0
 63 65  1  0  0  0
 63143  1  0  0  0
 63144  1  0  0  0
 63145  1  0  0  0
 64146  1  0  0  0
 65147  1  0  0  0
 68 83  1  0  0  0
 71 74  2  0  0  0
 71 75  1  0  0  0
 71148  1  0  0  0
 72 74  1  0  0  0
 72 84  2  0  0  0
 72149  1  0  0  0
 73 75  2  0  0  0
 73 84  1  0  0  0
 73150  1  0  0  0
 74 76  1  0  0  0
 75 86  1  0  0  0
 76 85  1  0  0  0
 76 87  2  0  0  0
 77 79  1  0  0  0
 77 81  1  0  0  0
 77151  1  0  0  0
 77152  1  0  0  0
 78 80  1  0  0  0
 78 81  1  0  0  0
 78153  1  0  0  0
 78154  1  0  0  0
 79 85  1  0  0  0
 79155  1  0  0  0
 79156  1  0  0  0
 80 85  1  0  0  0
 80157  1  0  0  0
 80158  1  0  0  0
 81 83  1  0  0  0
 81 88  1  0  0  0
 82 88  1  0  0  0
 82159  1  0  0  0
 82160  1  0  0  0
 82161  1  0  0  0
 83162  1  0  0  0
 83163  1  0  0  0
 86164  1  0  0  0
 87165  1  0  0  0
 87166  1  0  0  0
M  CHG  1  87   1
M  ISO  4   1 100  68 101  83 101  86 100
M  END
> <chiral flag>
0

> <version>
0

> <s_m_source_file>
/data/baiqing/PycharmProjects/Reinvent-master-3.2/result/LINK_invent/BTK/process_docking_weight1_custom_product_contain_oxygen_bond_distance_aromatic_linkinvent_7_9_3/rearranged_h_0159.sdf

> <i_m_source_file_index>
74

> <r_mmod_Potential_Energy-OPLS-2005>
27984.900390625

> <r_mmod_Stretch_Energy-OPLS-2005>
15528.37890625

> <r_mmod_Bend_Energy-OPLS-2005>
2359.76953125

> <r_mmod_Torsional_Energy-OPLS-2005>
683.602233886719

> <r_mmod_Improper_Torsional_Energy-OPLS-2005>
124.140663146973

> <r_mmod_Van_der_Waal_Energy-OPLS-2005>
5724.6142578125

> <r_mmod_Electrostatic_Energy-OPLS-2005>
-362.464080810547

> <r_mmod_Solvation_Energy-OPLS-2005>
-466.516143798828

> <b_mmod_Minimization_Converged-OPLS-2005>
0

> <r_mmod_RMS_Derivative-OPLS-2005>
9.95882415771484

$$$$
75
                    3D
 Structure written by MMmdl.
162171  0  0  1  0            999 V2000
  -30.6805  -14.5050   20.5324 C   0  0  0  0  0  0
  -30.4185  -12.3141   19.4309 C   0  0  0  0  0  0
  -29.4943  -12.4977   18.2082 C   0  0  0  0  0  0
  -28.0136  -12.3632   18.6168 C   0  0  0  0  0  0
  -27.6564  -13.2089   19.8688 C   0  0  2  0  0  0
  -28.6975  -13.0100   20.9938 C   0  0  0  0  0  0
  -25.2578  -13.8167   20.5689 C   0  0  0  0  0  0
  -24.1837  -13.0442   20.9186 C   0  0  0  0  0  0
  -24.6390  -11.6907   20.8734 C   0  0  0  0  0  0
  -23.9062  -10.4290   21.0402 C   0  0  0  0  0  0
  -24.3612   -9.4208   21.9182 C   0  0  0  0  0  0
  -23.6291   -8.2242   22.0755 C   0  0  0  0  0  0
  -22.4278   -8.0275   21.3542 C   0  0  0  0  0  0
  -21.9906   -9.0247   20.4646 C   0  0  0  0  0  0
  -22.7232  -10.2127   20.3055 C   0  0  0  0  0  0
  -21.6853   -6.0736   22.5278 C   0  0  0  0  0  0
  -21.4010   -6.5640   23.8210 C   0  0  0  0  0  0
  -21.3659   -5.6790   24.9170 C   0  0  0  0  0  0
  -21.6038   -4.3056   24.7219 C   0  0  0  0  0  0
  -21.8819   -3.8148   23.4345 C   0  0  0  0  0  0
  -21.9196   -4.6964   22.3404 C   0  0  0  0  0  0
  -22.7861  -13.5241   21.1841 C   0  0  0  0  0  0
  -22.1663   -4.2154   21.0980 F   0  0  0  0  0  0
  -21.5628   -3.4542   25.7739 F   0  0  0  0  0  0
  -30.0244  -13.3144   20.4382 N   0  0  0  0  0  0
  -26.3000  -12.9325   20.3343 N   0  0  0  0  0  0
  -25.9316  -11.6485   20.5761 N   0  0  0  0  0  0
  -22.0493  -12.8236   22.0391 N   0  0  0  0  0  0
  -25.4314  -15.1880   20.4092 N   0  0  0  0  0  0
  -31.8398  -14.6318   20.1261 O   0  0  0  0  0  0
  -21.6640   -6.8875   21.4243 O   0  0  0  0  0  0
  -22.3555  -14.5549   20.6693 O   0  0  0  0  0  0
  -24.6194  -31.8665   23.2082 C   0  0  0  0  0  0
  -25.9069  -32.4813   23.8395 C   0  0  1  0  0  0
  -27.2224  -27.4019   20.1072 C   0  0  0  0  0  0
  -25.5920  -33.8612   24.2332 N   0  0  0  0  0  0
  -23.4079  -30.4913   21.5493 C   0  0  2  0  0  0
  -24.8533  -28.9588   20.1102 C   0  0  0  0  0  0
  -22.7434  -29.4658   22.4970 C   0  0  0  0  0  0
  -18.0276  -28.1393   22.8477 C   0  0  0  0  0  0
  -24.1490  -36.7296   23.2634 C   0  0  0  0  0  0
  -25.9398  -30.8246   21.3641 C   0  0  0  0  0  0
  -26.0169  -29.4575   20.7108 C   0  0  0  0  0  0
  -27.2083  -28.6886   20.7023 C   0  0  0  0  0  0
  -26.0460  -26.9394   19.4759 C   0  0  0  0  0  0
  -24.8662  -27.7025   19.4840 C   0  0  0  0  0  0
  -23.6170  -29.8280   20.1623 C   0  0  0  0  0  0
  -25.4109  -36.3105   24.0342 C   0  0  1  0  0  0
  -20.5873  -28.3685   23.1302 C   0  0  2  0  0  0
  -20.6775  -26.9417   22.5407 C   0  0  0  0  0  0
  -19.5755  -26.6392   21.5208 C   0  0  0  0  0  0
  -18.1930  -26.7935   22.1613 C   0  0  0  0  0  0
  -19.1526  -28.8849   23.2895 C   0  0  0  0  0  0
  -18.9453  -30.1453   23.8914 C   0  0  0  0  0  0
  -17.6457  -30.6591   24.0569 C   0  0  0  0  0  0
  -25.9039  -34.9467   23.5129 C   0  0  0  0  0  0
  -16.5350  -29.9098   23.6323 C   0  0  0  0  0  0
  -16.7266  -28.6520   23.0336 C   0  0  0  0  0  0
  -26.4484  -31.6583   25.0720 C   0  0  0  0  0  0
  -25.3747  -31.3674   26.1468 C   0  0  0  0  0  0
  -27.0293  -30.3027   24.6066 C   0  0  0  0  0  0
  -27.6068  -32.4285   25.7481 C   0  0  0  0  0  0
  -27.5587  -37.1794   24.8463 C   0  0  0  0  0  0
  -21.4158  -29.3055   22.3709 N   0  0  0  0  0  0
  -26.4290  -37.3795   23.9428 N   0  0  0  0  0  0
  -24.6741  -31.0747   22.0990 N   0  0  0  0  0  0
  -23.4193  -28.8195   23.3018 O   0  0  0  0  0  0
  -28.3493  -26.5999   20.1422 O   0  0  0  0  0  0
  -26.5604  -34.8922   22.4694 O   0  0  0  0  0  0
  -23.5379  -32.1423   23.7459 O   0  0  0  0  0  0
  -31.2375  -18.8185   19.9430 C   0  0  0  0  0  0
  -30.0090  -19.4085   20.1576 C   0  0  0  0  0  0
  -30.1333  -16.9544   20.6918 C   0  0  0  0  0  0
  -29.1465  -24.2212   20.1733 C   0  0  0  0  0  0
  -28.9102  -21.6131   20.3722 C   0  0  0  0  0  0
  -34.4173  -19.3768   17.9762 C   0  0  0  0  0  0
  -34.9266  -19.4640   19.4234 C   0  0  0  0  0  0
  -32.9794  -18.8685   18.0807 C   0  0  0  0  0  0
  -33.6855  -19.4405   20.3302 C   0  0  0  0  0  0
  -32.4741  -19.4782   19.3894 C   0  0  0  0  0  0
  -28.6322  -22.8988   19.5537 C   0  0  0  0  0  0
  -28.0991  -25.2569   20.6406 C   0  0  0  0  0  0
  -31.2919  -17.4553   20.2614 N   0  0  0  0  0  0
  -29.6931  -20.6863   19.7821 N   0  0  0  0  0  0
  -29.9286  -15.5547   20.9497 N   0  0  0  0  0  0
  -30.3567  -24.4620   20.2531 O   0  0  0  0  0  0
  -28.3974  -21.4510   21.4833 O   0  0  0  0  0  0
  -28.8903  -18.2150   20.8343 S   0  0  0  0  0  0
  -31.4634  -12.4065   19.1291 H   0  0  0  0  0  0
  -30.3185  -11.3070   19.8385 H   0  0  0  0  0  0
  -29.7348  -11.7629   17.4387 H   0  0  0  0  0  0
  -29.6643  -13.4772   17.7576 H   0  0  0  0  0  0
  -27.8206  -11.3084   18.8159 H   0  0  0  0  0  0
  -27.3656  -12.6377   17.7829 H   0  0  0  0  0  0
  -27.6930  -14.2536   19.5596 H   0  0  0  0  0  0
  -28.6782  -11.9793   21.3520 H   0  0  0  0  0  0
  -28.4630  -13.6264   21.8628 H   0  0  0  0  0  0
  -25.2761   -9.5688   22.4757 H   0  0  0  0  0  0
  -24.0005   -7.4637   22.7474 H   0  0  0  0  0  0
  -21.0843   -8.8758   19.8949 H   0  0  0  0  0  0
  -22.3690  -10.9664   19.6163 H   0  0  0  0  0  0
  -21.1994   -7.6146   23.9713 H   0  0  0  0  0  0
  -21.1476   -6.0522   25.9071 H   0  0  0  0  0  0
  -22.0599   -2.7612   23.2847 H   0  0  0  0  0  0
  -22.4096  -11.9888   22.4773 H   0  0  0  0  0  0
  -21.1111  -13.1265   22.2579 H   0  0  0  0  0  0
  -24.6633  -15.8421   20.5144 H   0  0  0  0  0  0
  -26.2721  -15.6226   20.0521 H   0  0  0  0  0  0
  -26.7140  -32.5513   23.1161 H   0  0  0  0  0  0
  -25.0098  -33.9778   25.0496 H   0  0  0  0  0  0
  -22.6980  -31.3091   21.4109 H   0  0  0  0  0  0
  -23.3757  -35.9623   23.3294 H   0  0  0  0  0  0
  -24.3591  -36.8909   22.2048 H   0  0  0  0  0  0
  -23.7221  -37.6494   23.6643 H   0  0  0  0  0  0
  -26.0522  -31.5870   20.5919 H   0  0  0  0  0  0
  -26.8288  -30.8819   21.9806 H   0  0  0  0  0  0
  -28.1049  -29.0633   21.1758 H   0  0  0  0  0  0
  -26.0256  -25.9829   18.9726 H   0  0  0  0  0  0
  -23.9765  -27.3196   19.0036 H   0  0  0  0  0  0
  -23.7277  -30.6052   19.4049 H   0  0  0  0  0  0
  -22.7397  -29.2513   19.8637 H   0  0  0  0  0  0
  -25.1277  -36.1965   25.0831 H   0  0  0  0  0  0
  -20.9966  -28.3255   24.1425 H   0  0  0  0  0  0
  -20.5683  -26.2296   23.3602 H   0  0  0  0  0  0
  -21.6643  -26.7468   22.1191 H   0  0  0  0  0  0
  -19.6919  -25.6306   21.1231 H   0  0  0  0  0  0
  -19.6691  -27.3211   20.6748 H   0  0  0  0  0  0
  -17.4196  -26.6680   21.4017 H   0  0  0  0  0  0
  -18.0336  -26.0079   22.9012 H   0  0  0  0  0  0
  -19.7928  -30.7263   24.2296 H   0  0  0  0  0  0
  -17.5010  -31.6265   24.5174 H   0  0  0  0  0  0
  -15.5352  -30.3006   23.7642 H   0  0  0  0  0  0
  -15.8663  -28.0852   22.7036 H   0  0  0  0  0  0
  -24.5946  -30.6994   25.7800 H   0  0  0  0  0  0
  -24.8914  -32.2818   26.4921 H   0  0  0  0  0  0
  -25.8110  -30.8840   27.0221 H   0  0  0  0  0  0
  -26.2812  -29.6804   24.1141 H   0  0  0  0  0  0
  -27.4103  -29.7245   25.4492 H   0  0  0  0  0  0
  -27.8639  -30.4354   23.9179 H   0  0  0  0  0  0
  -27.2721  -33.3609   26.2042 H   0  0  0  0  0  0
  -28.3897  -32.6792   25.0308 H   0  0  0  0  0  0
  -28.0713  -31.8406   26.5409 H   0  0  0  0  0  0
  -28.2569  -38.0125   24.7565 H   0  0  0  0  0  0
  -28.1121  -36.2660   24.6215 H   0  0  0  0  0  0
  -27.2321  -37.1357   25.8868 H   0  0  0  0  0  0
  -20.9329  -29.8784   21.6928 H   0  0  0  0  0  0
  -26.0172  -38.2867   24.1456 H   0  0  0  0  0  0
  -35.0406  -18.7366   17.3505 H   0  0  0  0  0  0
  -34.4180  -20.3720   17.5288 H   0  0  0  0  0  0
  -35.5183  -20.3676   19.5760 H   0  0  0  0  0  0
  -35.5705  -18.6135   19.6540 H   0  0  0  0  0  0
  -32.9897  -17.7796   18.1493 H   0  0  0  0  0  0
  -32.3627  -19.1395   17.2228 H   0  0  0  0  0  0
  -33.6659  -20.2595   21.0507 H   0  0  0  0  0  0
  -33.6945  -18.5125   20.9036 H   0  0  0  0  0  0
  -32.2689  -20.5301   19.1876 H   0  0  0  0  0  0
  -29.0816  -22.8073   18.5650 H   0  0  0  0  0  0
  -27.5579  -22.9668   19.3858 H   0  0  0  0  0  0
  -28.1188  -25.2890   21.7303 H   0  0  0  0  0  0
  -27.1144  -24.8818   20.3706 H   0  0  0  0  0  0
  -30.1409  -21.0001   18.9310 H   0  0  0  0  0  0
  -29.0128  -15.3106   21.2899 H   0  0  0  0  0  0
  1 25  1  0  0  0
  1 30  2  0  0  0
  1 85  1  0  0  0
  2  3  1  0  0  0
  2 25  1  0  0  0
  2 89  1  0  0  0
  2 90  1  0  0  0
  3  4  1  0  0  0
  3 91  1  0  0  0
  3 92  1  0  0  0
  4  5  1  0  0  0
  4 93  1  0  0  0
  4 94  1  0  0  0
  5  6  1  0  0  0
  5 26  1  0  0  0
  5 95  1  0  0  0
  6 25  1  0  0  0
  6 96  1  0  0  0
  6 97  1  0  0  0
  7  8  2  0  0  0
  7 26  1  0  0  0
  7 29  1  0  0  0
  8  9  1  0  0  0
  8 22  1  0  0  0
  9 10  1  0  0  0
  9 27  2  0  0  0
 10 11  2  0  0  0
 10 15  1  0  0  0
 11 12  1  0  0  0
 11 98  1  0  0  0
 12 13  2  0  0  0
 12 99  1  0  0  0
 13 14  1  0  0  0
 13 31  1  0  0  0
 14 15  2  0  0  0
 14100  1  0  0  0
 15101  1  0  0  0
 16 17  2  0  0  0
 16 21  1  0  0  0
 16 31  1  0  0  0
 17 18  1  0  0  0
 17102  1  0  0  0
 18 19  2  0  0  0
 18103  1  0  0  0
 19 20  1  0  0  0
 19 24  1  0  0  0
 20 21  2  0  0  0
 20104  1  0  0  0
 21 23  1  0  0  0
 22 28  1  0  0  0
 22 32  2  0  0  0
 26 27  1  0  0  0
 28105  1  0  0  0
 28106  1  0  0  0
 29107  1  0  0  0
 29108  1  0  0  0
 33 34  1  0  0  0
 33 66  1  0  0  0
 33 70  2  0  0  0
 34 36  1  0  0  0
 34 59  1  0  0  0
 34109  1  0  0  0
 35 44  2  0  0  0
 35 45  1  0  0  0
 35 68  1  0  0  0
 36 56  1  0  0  0
 36110  1  0  0  0
 37 39  1  0  0  0
 37 47  1  0  0  0
 37 66  1  0  0  0
 37111  1  0  0  0
 38 43  2  0  0  0
 38 46  1  0  0  0
 38 47  1  0  0  0
 39 64  1  0  0  0
 39 67  2  0  0  0
 40 52  1  0  0  0
 40 53  2  0  0  0
 40 58  1  0  0  0
 41112  1  0  0  0
 41113  1  0  0  0
 41114  1  0  0  0
 41 48  1  0  0  0
 42 43  1  0  0  0
 42 66  1  0  0  0
 42115  1  0  0  0
 42116  1  0  0  0
 43 44  1  0  0  0
 44117  1  0  0  0
 45 46  2  0  0  0
 45118  1  0  0  0
 46119  1  0  0  0
 47120  1  0  0  0
 47121  1  0  0  0
 48 56  1  0  0  0
 48 65  1  0  0  0
 48122  1  0  0  0
 49 50  1  0  0  0
 49 53  1  0  0  0
 49 64  1  0  0  0
 49123  1  0  0  0
 50 51  1  0  0  0
 50124  1  0  0  0
 50125  1  0  0  0
 51 52  1  0  0  0
 51126  1  0  0  0
 51127  1  0  0  0
 52128  1  0  0  0
 52129  1  0  0  0
 53 54  1  0  0  0
 54 55  2  0  0  0
 54130  1  0  0  0
 55 57  1  0  0  0
 55131  1  0  0  0
 56 69  2  0  0  0
 57 58  2  0  0  0
 57132  1  0  0  0
 58133  1  0  0  0
 59 60  1  0  0  0
 59 61  1  0  0  0
 59 62  1  0  0  0
 60134  1  0  0  0
 60135  1  0  0  0
 60136  1  0  0  0
 61137  1  0  0  0
 61138  1  0  0  0
 61139  1  0  0  0
 62140  1  0  0  0
 62141  1  0  0  0
 62142  1  0  0  0
 63 65  1  0  0  0
 63143  1  0  0  0
 63144  1  0  0  0
 63145  1  0  0  0
 64146  1  0  0  0
 65147  1  0  0  0
 68 82  1  0  0  0
 71 72  2  0  0  0
 71 83  1  0  0  0
 71 80  1  0  0  0
 72 84  1  0  0  0
 72 88  1  0  0  0
 73 83  2  0  0  0
 73 85  1  0  0  0
 73 88  1  0  0  0
 74 81  1  0  0  0
 74 82  1  0  0  0
 74 86  2  0  0  0
 75 81  1  0  0  0
 75 84  1  0  0  0
 75 87  2  0  0  0
 76 77  1  0  0  0
 76 78  1  0  0  0
 76148  1  0  0  0
 76149  1  0  0  0
 77 79  1  0  0  0
 77150  1  0  0  0
 77151  1  0  0  0
 78 80  1  0  0  0
 78152  1  0  0  0
 78153  1  0  0  0
 79 80  1  0  0  0
 79154  1  0  0  0
 79155  1  0  0  0
 80156  1  0  0  0
 81157  1  0  0  0
 81158  1  0  0  0
 82159  1  0  0  0
 82160  1  0  0  0
 84161  1  0  0  0
 85162  1  0  0  0
M  ISO  4   1 100  68 101  82 101  85 100
M  END
> <chiral flag>
0

> <version>
0

> <s_m_source_file>
/data/baiqing/PycharmProjects/Reinvent-master-3.2/result/LINK_invent/BTK/process_docking_weight1_custom_product_contain_oxygen_bond_distance_aromatic_linkinvent_7_9_3/rearranged_h_0159.sdf

> <i_m_source_file_index>
75

> <r_mmod_Potential_Energy-OPLS-2005>
-42.0494194030762

> <r_mmod_Stretch_Energy-OPLS-2005>
41.8208961486816

> <r_mmod_Bend_Energy-OPLS-2005>
135.204528808594

> <r_mmod_Torsional_Energy-OPLS-2005>
288.467437744141

> <r_mmod_Improper_Torsional_Energy-OPLS-2005>
4.87835025787354

> <r_mmod_Van_der_Waal_Energy-OPLS-2005>
127.166229248047

> <r_mmod_Electrostatic_Energy-OPLS-2005>
-396.901123046875

> <r_mmod_Solvation_Energy-OPLS-2005>
-263.073028564453

> <b_mmod_Minimization_Converged-OPLS-2005>
0

> <r_mmod_RMS_Derivative-OPLS-2005>
1.56273329257965

$$$$
76
                    3D
 Structure written by MMmdl.
155163  0  0  1  0            999 V2000
  -30.7488  -14.4517   20.5617 C   0  0  0  0  0  0
  -30.4039  -12.2975   19.4193 C   0  0  0  0  0  0
  -29.4823  -12.4917   18.2006 C   0  0  0  0  0  0
  -28.0066  -12.3527   18.6200 C   0  0  0  0  0  0
  -27.6525  -13.2118   19.8638 C   0  0  2  0  0  0
  -28.6980  -13.0353   20.9882 C   0  0  0  0  0  0
  -25.2552  -13.8178   20.5685 C   0  0  0  0  0  0
  -24.1822  -13.0443   20.9195 C   0  0  0  0  0  0
  -24.6383  -11.6912   20.8753 C   0  0  0  0  0  0
  -23.9056  -10.4294   21.0410 C   0  0  0  0  0  0
  -24.3609   -9.4208   21.9188 C   0  0  0  0  0  0
  -23.6292   -8.2240   22.0756 C   0  0  0  0  0  0
  -22.4279   -8.0279   21.3542 C   0  0  0  0  0  0
  -21.9910   -9.0251   20.4643 C   0  0  0  0  0  0
  -22.7231  -10.2131   20.3056 C   0  0  0  0  0  0
  -21.6847   -6.0740   22.5279 C   0  0  0  0  0  0
  -21.4010   -6.5644   23.8214 C   0  0  0  0  0  0
  -21.3659   -5.6798   24.9175 C   0  0  0  0  0  0
  -21.6040   -4.3061   24.7224 C   0  0  0  0  0  0
  -21.8819   -3.8154   23.4347 C   0  0  0  0  0  0
  -21.9192   -4.6971   22.3401 C   0  0  0  0  0  0
  -22.7843  -13.5227   21.1857 C   0  0  0  0  0  0
  -22.1661   -4.2160   21.0978 F   0  0  0  0  0  0
  -21.5630   -3.4544   25.7733 F   0  0  0  0  0  0
  -30.0239  -13.3103   20.4158 N   0  0  0  0  0  0
  -26.2977  -12.9355   20.3331 N   0  0  0  0  0  0
  -25.9303  -11.6514   20.5770 N   0  0  0  0  0  0
  -22.0482  -12.8210   22.0403 N   0  0  0  0  0  0
  -25.4272  -15.1891   20.4051 N   0  0  0  0  0  0
  -31.9110  -14.5297   20.1530 O   0  0  0  0  0  0
  -21.6635   -6.8882   21.4243 O   0  0  0  0  0  0
  -22.3531  -14.5538   20.6712 O   0  0  0  0  0  0
  -24.6130  -31.8687   23.2122 C   0  0  0  0  0  0
  -25.9029  -32.4827   23.8415 C   0  0  1  0  0  0
  -27.2296  -27.4447   20.1008 C   0  0  0  0  0  0
  -25.5889  -33.8626   24.2349 N   0  0  0  0  0  0
  -23.4012  -30.4912   21.5525 C   0  0  2  0  0  0
  -24.8471  -28.9583   20.1155 C   0  0  0  0  0  0
  -22.7402  -29.4658   22.5005 C   0  0  0  0  0  0
  -18.0265  -28.1370   22.8502 C   0  0  0  0  0  0
  -24.1482  -36.7316   23.2641 C   0  0  0  0  0  0
  -25.9282  -30.8391   21.3617 C   0  0  0  0  0  0
  -26.0069  -29.4743   20.7076 C   0  0  0  0  0  0
  -27.2057  -28.7268   20.6921 C   0  0  0  0  0  0
  -26.0559  -26.9388   19.5034 C   0  0  0  0  0  0
  -24.8658  -27.6906   19.5082 C   0  0  0  0  0  0
  -23.6084  -29.8232   20.1670 C   0  0  0  0  0  0
  -25.4102  -36.3117   24.0343 C   0  0  1  0  0  0
  -20.5859  -28.3663   23.1323 C   0  0  2  0  0  0
  -20.6760  -26.9402   22.5414 C   0  0  0  0  0  0
  -19.5735  -26.6384   21.5212 C   0  0  0  0  0  0
  -18.1911  -26.7923   22.1621 C   0  0  0  0  0  0
  -19.1518  -28.8833   23.2905 C   0  0  0  0  0  0
  -18.9449  -30.1439   23.8912 C   0  0  0  0  0  0
  -17.6452  -30.6580   24.0569 C   0  0  0  0  0  0
  -25.9028  -34.9478   23.5144 C   0  0  0  0  0  0
  -16.5338  -29.9087   23.6330 C   0  0  0  0  0  0
  -16.7257  -28.6497   23.0362 C   0  0  0  0  0  0
  -26.4474  -31.6599   25.0730 C   0  0  0  0  0  0
  -25.3750  -31.3669   26.1479 C   0  0  0  0  0  0
  -27.0332  -30.3057   24.6089 C   0  0  0  0  0  0
  -27.6049  -32.4324   25.7488 C   0  0  0  0  0  0
  -27.5583  -37.1803   24.8464 C   0  0  0  0  0  0
  -21.4133  -29.3028   22.3735 N   0  0  0  0  0  0
  -26.4289  -37.3800   23.9417 N   0  0  0  0  0  0
  -24.6659  -31.0802   22.1011 N   0  0  0  0  0  0
  -23.4180  -28.8197   23.3043 O   0  0  0  0  0  0
  -28.3810  -26.6947   20.1101 O   0  0  0  0  0  0
  -26.5594  -34.8922   22.4706 O   0  0  0  0  0  0
  -23.5326  -32.1438   23.7513 O   0  0  0  0  0  0
  -28.3765  -19.8989   21.3538 C   0  0  0  0  0  0
  -29.8424  -18.0016   20.8569 C   0  0  0  0  0  0
  -28.9143  -18.6408   21.7312 C   0  0  0  0  0  0
  -28.7467  -20.5031   20.1280 C   0  0  0  0  0  0
  -30.1489  -18.6440   19.6324 C   0  0  0  0  0  0
  -30.6244  -16.7562   21.2056 C   0  0  0  0  0  0
  -28.3746  -24.2213   19.9668 C   0  0  0  0  0  0
  -28.2330  -22.8525   20.6529 C   0  0  0  0  0  0
  -28.2736  -25.4707   20.8602 C   0  0  0  0  0  0
  -29.5932  -19.8341   19.3202 N   0  3  0  0  0  0
  -28.5051  -18.0875   22.9583 N   0  0  0  0  0  0
  -28.2855  -21.7552   19.6918 N   0  0  0  0  0  0
  -30.0647  -15.5486   20.9550 N   0  0  0  0  0  0
  -31.7659  -16.8975   21.6667 O   0  0  0  0  0  0
  -28.5678  -24.3069   18.7474 O   0  0  0  0  0  0
  -31.0191  -18.0922   18.7512 F   0  0  0  0  0  0
  -31.4489  -12.3659   19.1134 H   0  0  0  0  0  0
  -30.2843  -11.2962   19.8357 H   0  0  0  0  0  0
  -29.7201  -11.7606   17.4266 H   0  0  0  0  0  0
  -29.6514  -13.4749   17.7577 H   0  0  0  0  0  0
  -27.8241  -11.2991   18.8349 H   0  0  0  0  0  0
  -27.3512  -12.6076   17.7863 H   0  0  0  0  0  0
  -27.6830  -14.2518   19.5393 H   0  0  0  0  0  0
  -28.6705  -12.0164   21.3777 H   0  0  0  0  0  0
  -28.4724  -13.6832   21.8360 H   0  0  0  0  0  0
  -25.2751   -9.5684   22.4769 H   0  0  0  0  0  0
  -24.0004   -7.4626   22.7472 H   0  0  0  0  0  0
  -21.0848   -8.8762   19.8942 H   0  0  0  0  0  0
  -22.3691  -10.9673   19.6167 H   0  0  0  0  0  0
  -21.2002   -7.6154   23.9719 H   0  0  0  0  0  0
  -21.1480   -6.0527   25.9075 H   0  0  0  0  0  0
  -22.0601   -2.7618   23.2837 H   0  0  0  0  0  0
  -22.4107  -11.9861   22.4767 H   0  0  0  0  0  0
  -21.1101  -13.1237   22.2617 H   0  0  0  0  0  0
  -24.6574  -15.8419   20.5046 H   0  0  0  0  0  0
  -26.2716  -15.6240   20.0584 H   0  0  0  0  0  0
  -26.7098  -32.5547   23.1188 H   0  0  0  0  0  0
  -25.0048  -33.9803   25.0499 H   0  0  0  0  0  0
  -22.6887  -31.3067   21.4144 H   0  0  0  0  0  0
  -23.3741  -35.9649   23.3303 H   0  0  0  0  0  0
  -24.3576  -36.8932   22.2054 H   0  0  0  0  0  0
  -23.7224  -37.6514   23.6663 H   0  0  0  0  0  0
  -26.0370  -31.6060   20.5933 H   0  0  0  0  0  0
  -26.8174  -30.8932   21.9788 H   0  0  0  0  0  0
  -28.1025  -29.1219   21.1485 H   0  0  0  0  0  0
  -26.0603  -25.9662   19.0319 H   0  0  0  0  0  0
  -23.9738  -27.2885   19.0480 H   0  0  0  0  0  0
  -23.7129  -30.5993   19.4071 H   0  0  0  0  0  0
  -22.7325  -29.2402   19.8762 H   0  0  0  0  0  0
  -25.1272  -36.1990   25.0836 H   0  0  0  0  0  0
  -20.9944  -28.3226   24.1444 H   0  0  0  0  0  0
  -20.5661  -26.2270   23.3598 H   0  0  0  0  0  0
  -21.6625  -26.7445   22.1207 H   0  0  0  0  0  0
  -19.6900  -25.6301   21.1231 H   0  0  0  0  0  0
  -19.6675  -27.3204   20.6746 H   0  0  0  0  0  0
  -17.4188  -26.6679   21.4020 H   0  0  0  0  0  0
  -18.0301  -26.0051   22.9000 H   0  0  0  0  0  0
  -19.7923  -30.7248   24.2288 H   0  0  0  0  0  0
  -17.5011  -31.6267   24.5166 H   0  0  0  0  0  0
  -15.5344  -30.3000   23.7641 H   0  0  0  0  0  0
  -15.8654  -28.0821   22.7082 H   0  0  0  0  0  0
  -24.5948  -30.6990   25.7812 H   0  0  0  0  0  0
  -24.8905  -32.2798   26.4946 H   0  0  0  0  0  0
  -25.8115  -30.8838   27.0228 H   0  0  0  0  0  0
  -26.2885  -29.6777   24.1184 H   0  0  0  0  0  0
  -27.4169  -29.7320   25.4534 H   0  0  0  0  0  0
  -27.8679  -30.4403   23.9204 H   0  0  0  0  0  0
  -27.2688  -33.3630   26.2072 H   0  0  0  0  0  0
  -28.3857  -32.6863   25.0307 H   0  0  0  0  0  0
  -28.0726  -31.8442   26.5397 H   0  0  0  0  0  0
  -28.2583  -38.0120   24.7548 H   0  0  0  0  0  0
  -28.1097  -36.2648   24.6253 H   0  0  0  0  0  0
  -27.2304  -37.1412   25.8867 H   0  0  0  0  0  0
  -20.9290  -29.8755   21.6968 H   0  0  0  0  0  0
  -26.0178  -38.2875   24.1428 H   0  0  0  0  0  0
  -27.6744  -20.4032   22.0013 H   0  0  0  0  0  0
  -27.2854  -22.8221   21.1912 H   0  0  0  0  0  0
  -29.0312  -22.7456   21.3881 H   0  0  0  0  0  0
  -29.0826  -25.4411   21.5904 H   0  0  0  0  0  0
  -27.3417  -25.4272   21.4249 H   0  0  0  0  0  0
  -29.8662  -20.2446   18.4253 H   0  0  0  0  0  0
  -28.0207  -18.6814   23.6215 H   0  0  0  0  0  0
  -29.0815  -17.3912   23.4164 H   0  0  0  0  0  0
  -28.5738  -22.0704   18.7753 H   0  0  0  0  0  0
  -29.0614  -15.4887   20.9202 H   0  0  0  0  0  0
  1 25  1  0  0  0
  1 30  2  0  0  0
  1 83  1  0  0  0
  2  3  1  0  0  0
  2 25  1  0  0  0
  2 87  1  0  0  0
  2 88  1  0  0  0
  3  4  1  0  0  0
  3 89  1  0  0  0
  3 90  1  0  0  0
  4  5  1  0  0  0
  4 91  1  0  0  0
  4 92  1  0  0  0
  5  6  1  0  0  0
  5 26  1  0  0  0
  5 93  1  0  0  0
  6 25  1  0  0  0
  6 94  1  0  0  0
  6 95  1  0  0  0
  7  8  2  0  0  0
  7 26  1  0  0  0
  7 29  1  0  0  0
  8  9  1  0  0  0
  8 22  1  0  0  0
  9 10  1  0  0  0
  9 27  2  0  0  0
 10 11  2  0  0  0
 10 15  1  0  0  0
 11 12  1  0  0  0
 11 96  1  0  0  0
 12 13  2  0  0  0
 12 97  1  0  0  0
 13 14  1  0  0  0
 13 31  1  0  0  0
 14 15  2  0  0  0
 14 98  1  0  0  0
 15 99  1  0  0  0
 16 17  2  0  0  0
 16 21  1  0  0  0
 16 31  1  0  0  0
 17 18  1  0  0  0
 17100  1  0  0  0
 18 19  2  0  0  0
 18101  1  0  0  0
 19 20  1  0  0  0
 19 24  1  0  0  0
 20 21  2  0  0  0
 20102  1  0  0  0
 21 23  1  0  0  0
 22 28  1  0  0  0
 22 32  2  0  0  0
 26 27  1  0  0  0
 28103  1  0  0  0
 28104  1  0  0  0
 29105  1  0  0  0
 29106  1  0  0  0
 33 34  1  0  0  0
 33 66  1  0  0  0
 33 70  2  0  0  0
 34 36  1  0  0  0
 34 59  1  0  0  0
 34107  1  0  0  0
 35 44  2  0  0  0
 35 45  1  0  0  0
 35 68  1  0  0  0
 36 56  1  0  0  0
 36108  1  0  0  0
 37 39  1  0  0  0
 37 47  1  0  0  0
 37 66  1  0  0  0
 37109  1  0  0  0
 38 43  2  0  0  0
 38 46  1  0  0  0
 38 47  1  0  0  0
 39 64  1  0  0  0
 39 67  2  0  0  0
 40 52  1  0  0  0
 40 53  2  0  0  0
 40 58  1  0  0  0
 41110  1  0  0  0
 41111  1  0  0  0
 41112  1  0  0  0
 41 48  1  0  0  0
 42 43  1  0  0  0
 42 66  1  0  0  0
 42113  1  0  0  0
 42114  1  0  0  0
 43 44  1  0  0  0
 44115  1  0  0  0
 45 46  2  0  0  0
 45116  1  0  0  0
 46117  1  0  0  0
 47118  1  0  0  0
 47119  1  0  0  0
 48 56  1  0  0  0
 48 65  1  0  0  0
 48120  1  0  0  0
 49 50  1  0  0  0
 49 53  1  0  0  0
 49 64  1  0  0  0
 49121  1  0  0  0
 50 51  1  0  0  0
 50122  1  0  0  0
 50123  1  0  0  0
 51 52  1  0  0  0
 51124  1  0  0  0
 51125  1  0  0  0
 52126  1  0  0  0
 52127  1  0  0  0
 53 54  1  0  0  0
 54 55  2  0  0  0
 54128  1  0  0  0
 55 57  1  0  0  0
 55129  1  0  0  0
 56 69  2  0  0  0
 57 58  2  0  0  0
 57130  1  0  0  0
 58131  1  0  0  0
 59 60  1  0  0  0
 59 61  1  0  0  0
 59 62  1  0  0  0
 60132  1  0  0  0
 60133  1  0  0  0
 60134  1  0  0  0
 61135  1  0  0  0
 61136  1  0  0  0
 61137  1  0  0  0
 62138  1  0  0  0
 62139  1  0  0  0
 62140  1  0  0  0
 63 65  1  0  0  0
 63141  1  0  0  0
 63142  1  0  0  0
 63143  1  0  0  0
 64144  1  0  0  0
 65145  1  0  0  0
 68 79  1  0  0  0
 71 73  2  0  0  0
 71 74  1  0  0  0
 71146  1  0  0  0
 72 73  1  0  0  0
 72 75  2  0  0  0
 72 76  1  0  0  0
 73 81  1  0  0  0
 74 80  2  0  0  0
 74 82  1  0  0  0
 75 80  1  0  0  0
 75 86  1  0  0  0
 76 83  1  0  0  0
 76 84  2  0  0  0
 77 78  1  0  0  0
 77 79  1  0  0  0
 77 85  2  0  0  0
 78 82  1  0  0  0
 78147  1  0  0  0
 78148  1  0  0  0
 79149  1  0  0  0
 79150  1  0  0  0
 80151  1  0  0  0
 81152  1  0  0  0
 81153  1  0  0  0
 82154  1  0  0  0
 83155  1  0  0  0
M  CHG  1  80   1
M  ISO  4   1 100  68 101  79 101  83 100
M  END
> <chiral flag>
0

> <version>
0

> <s_m_source_file>
/data/baiqing/PycharmProjects/Reinvent-master-3.2/result/LINK_invent/BTK/process_docking_weight1_custom_product_contain_oxygen_bond_distance_aromatic_linkinvent_7_9_3/rearranged_h_0159.sdf

> <i_m_source_file_index>
76

> <r_mmod_Potential_Energy-OPLS-2005>
-108.54248046875

> <r_mmod_Stretch_Energy-OPLS-2005>
37.1917419433594

> <r_mmod_Bend_Energy-OPLS-2005>
100.969795227051

> <r_mmod_Torsional_Energy-OPLS-2005>
278.170135498047

> <r_mmod_Improper_Torsional_Energy-OPLS-2005>
12.1521244049072

> <r_mmod_Van_der_Waal_Energy-OPLS-2005>
157.882019042969

> <r_mmod_Electrostatic_Energy-OPLS-2005>
-227.651138305664

> <r_mmod_Solvation_Energy-OPLS-2005>
-484.170471191406

> <b_mmod_Minimization_Converged-OPLS-2005>
0

> <r_mmod_RMS_Derivative-OPLS-2005>
1.25672912597656

$$$$
77
                    3D
 Structure written by MMmdl.
156164  0  0  1  0            999 V2000
  -30.6740  -14.5860   20.5389 C   0  0  0  0  0  0
  -30.4271  -12.3621   19.4601 C   0  0  0  0  0  0
  -29.5113  -12.5153   18.2253 C   0  0  0  0  0  0
  -28.0288  -12.3704   18.6247 C   0  0  0  0  0  0
  -27.6608  -13.2206   19.8711 C   0  0  2  0  0  0
  -28.6986  -13.0438   20.9993 C   0  0  0  0  0  0
  -25.2611  -13.8190   20.5704 C   0  0  0  0  0  0
  -24.1872  -13.0450   20.9156 C   0  0  0  0  0  0
  -24.6432  -11.6914   20.8726 C   0  0  0  0  0  0
  -23.9102  -10.4287   21.0416 C   0  0  0  0  0  0
  -24.3650   -9.4201   21.9196 C   0  0  0  0  0  0
  -23.6309   -8.2244   22.0774 C   0  0  0  0  0  0
  -22.4288   -8.0295   21.3556 C   0  0  0  0  0  0
  -21.9926   -9.0275   20.4653 C   0  0  0  0  0  0
  -22.7274  -10.2138   20.3061 C   0  0  0  0  0  0
  -21.6858   -6.0744   22.5271 C   0  0  0  0  0  0
  -21.4017   -6.5646   23.8200 C   0  0  0  0  0  0
  -21.3665   -5.6807   24.9172 C   0  0  0  0  0  0
  -21.6046   -4.3060   24.7232 C   0  0  0  0  0  0
  -21.8828   -3.8154   23.4343 C   0  0  0  0  0  0
  -21.9200   -4.6973   22.3396 C   0  0  0  0  0  0
  -22.7870  -13.5228   21.1835 C   0  0  0  0  0  0
  -22.1669   -4.2147   21.0980 F   0  0  0  0  0  0
  -21.5630   -3.4545   25.7750 F   0  0  0  0  0  0
  -30.0214  -13.3800   20.4525 N   0  0  0  0  0  0
  -26.3039  -12.9369   20.3321 N   0  0  0  0  0  0
  -25.9369  -11.6525   20.5734 N   0  0  0  0  0  0
  -22.0502  -12.8218   22.0381 N   0  0  0  0  0  0
  -25.4355  -15.1908   20.4160 N   0  0  0  0  0  0
  -31.8043  -14.7176   20.0588 O   0  0  0  0  0  0
  -21.6660   -6.8895   21.4242 O   0  0  0  0  0  0
  -22.3553  -14.5540   20.6699 O   0  0  0  0  0  0
  -24.6238  -31.8618   23.2014 C   0  0  0  0  0  0
  -25.9087  -32.4801   23.8357 C   0  0  1  0  0  0
  -27.2370  -27.3547   20.1137 C   0  0  0  0  0  0
  -25.5894  -33.8604   24.2280 N   0  0  0  0  0  0
  -23.4188  -30.4810   21.5419 C   0  0  2  0  0  0
  -24.8671  -28.9398   20.1066 C   0  0  0  0  0  0
  -22.7466  -29.4633   22.4932 C   0  0  0  0  0  0
  -18.0292  -28.1404   22.8505 C   0  0  0  0  0  0
  -24.1486  -36.7307   23.2636 C   0  0  0  0  0  0
  -25.9546  -30.8036   21.3675 C   0  0  0  0  0  0
  -26.0324  -29.4328   20.7101 C   0  0  0  0  0  0
  -27.2182  -28.6476   20.7092 C   0  0  0  0  0  0
  -26.0500  -26.8997   19.4965 C   0  0  0  0  0  0
  -24.8764  -27.6768   19.4910 C   0  0  0  0  0  0
  -23.6317  -29.8134   20.1576 C   0  0  0  0  0  0
  -25.4115  -36.3098   24.0330 C   0  0  1  0  0  0
  -20.5875  -28.3703   23.1293 C   0  0  2  0  0  0
  -20.6787  -26.9433   22.5410 C   0  0  0  0  0  0
  -19.5758  -26.6396   21.5234 C   0  0  0  0  0  0
  -18.1927  -26.7954   22.1636 C   0  0  0  0  0  0
  -19.1538  -28.8870   23.2896 C   0  0  0  0  0  0
  -18.9469  -30.1468   23.8902 C   0  0  0  0  0  0
  -17.6470  -30.6599   24.0565 C   0  0  0  0  0  0
  -25.9047  -34.9468   23.5111 C   0  0  0  0  0  0
  -16.5360  -29.9095   23.6332 C   0  0  0  0  0  0
  -16.7284  -28.6514   23.0366 C   0  0  0  0  0  0
  -26.4492  -31.6592   25.0709 C   0  0  0  0  0  0
  -25.3734  -31.3732   26.1426 C   0  0  0  0  0  0
  -27.0314  -30.3016   24.6138 C   0  0  0  0  0  0
  -27.6047  -32.4312   25.7491 C   0  0  0  0  0  0
  -27.5582  -37.1814   24.8465 C   0  0  0  0  0  0
  -21.4181  -29.3057   22.3685 N   0  0  0  0  0  0
  -26.4296  -37.3788   23.9407 N   0  0  0  0  0  0
  -24.6840  -31.0645   22.0942 N   0  0  0  0  0  0
  -23.4194  -28.8194   23.3026 O   0  0  0  0  0  0
  -28.3403  -26.5057   20.2259 O   0  0  0  0  0  0
  -26.5613  -34.8936   22.4679 O   0  0  0  0  0  0
  -23.5409  -32.1373   23.7354 O   0  0  0  0  0  0
  -28.7854  -18.3073   22.4202 C   0  0  0  0  0  0
  -29.6292  -19.5566   20.5134 C   0  0  0  0  0  0
  -28.3607  -20.7182   22.2356 C   0  0  0  0  0  0
  -29.5118  -18.3055   21.2072 C   0  0  0  0  0  0
  -28.2256  -19.4967   22.9324 C   0  0  0  0  0  0
  -29.0656  -20.7833   21.0061 C   0  0  0  0  0  0
  -30.1239  -17.0255   20.6818 C   0  0  0  0  0  0
  -29.9487  -15.7395   21.1279 C   0  0  0  0  0  0
  -28.6116  -25.5739   19.2300 C   0  0  0  0  0  0
  -28.8723  -24.2201   19.2877 C   0  0  0  0  0  0
  -28.8553  -23.3245   20.4803 C   0  0  0  0  0  0
  -27.5243  -19.4543   24.1390 N   0  0  0  0  0  0
  -29.1756  -22.0098   20.2186 N   0  0  0  0  0  0
  -29.1814  -23.6461   17.9536 N   0  3  0  0  0  0
  -28.5909  -23.7155   21.6191 O   0  0  0  0  0  0
  -31.4747  -12.4542   19.1662 H   0  0  0  0  0  0
  -30.3276  -11.3639   19.8882 H   0  0  0  0  0  0
  -29.7620  -11.7725   17.4656 H   0  0  0  0  0  0
  -29.6798  -13.4914   17.7664 H   0  0  0  0  0  0
  -27.8414  -11.3148   18.8265 H   0  0  0  0  0  0
  -27.3886  -12.6320   17.7810 H   0  0  0  0  0  0
  -27.6991  -14.2660   19.5613 H   0  0  0  0  0  0
  -28.6945  -12.0138   21.3586 H   0  0  0  0  0  0
  -28.4367  -13.6456   21.8682 H   0  0  0  0  0  0
  -25.2800   -9.5651   22.4768 H   0  0  0  0  0  0
  -24.0017   -7.4634   22.7495 H   0  0  0  0  0  0
  -21.0875   -8.8815   19.8948 H   0  0  0  0  0  0
  -22.3778  -10.9693   19.6166 H   0  0  0  0  0  0
  -21.2006   -7.6151   23.9706 H   0  0  0  0  0  0
  -21.1475   -6.0538   25.9085 H   0  0  0  0  0  0
  -22.0600   -2.7604   23.2864 H   0  0  0  0  0  0
  -22.4153  -11.9889   22.4750 H   0  0  0  0  0  0
  -21.1107  -13.1216   22.2595 H   0  0  0  0  0  0
  -24.6783  -15.8511   20.5554 H   0  0  0  0  0  0
  -26.3069  -15.6273   20.1373 H   0  0  0  0  0  0
  -26.7168  -32.5503   23.1128 H   0  0  0  0  0  0
  -25.0050  -33.9775   25.0421 H   0  0  0  0  0  0
  -22.7133  -31.3000   21.3964 H   0  0  0  0  0  0
  -23.3771  -35.9613   23.3286 H   0  0  0  0  0  0
  -24.3567  -36.8932   22.2050 H   0  0  0  0  0  0
  -23.7226  -37.6497   23.6682 H   0  0  0  0  0  0
  -26.0750  -31.5658   20.5967 H   0  0  0  0  0  0
  -26.8433  -30.8597   21.9866 H   0  0  0  0  0  0
  -28.1119  -29.0140   21.1940 H   0  0  0  0  0  0
  -26.0109  -25.9187   19.0472 H   0  0  0  0  0  0
  -23.9819  -27.2870   19.0252 H   0  0  0  0  0  0
  -23.7384  -30.5874   19.3966 H   0  0  0  0  0  0
  -22.7579  -29.2322   19.8622 H   0  0  0  0  0  0
  -25.1298  -36.1953   25.0824 H   0  0  0  0  0  0
  -20.9991  -28.3288   24.1411 H   0  0  0  0  0  0
  -20.5714  -26.2323   23.3615 H   0  0  0  0  0  0
  -21.6657  -26.7462   22.1198 H   0  0  0  0  0  0
  -19.6915  -25.6303   21.1271 H   0  0  0  0  0  0
  -19.6701  -27.3194   20.6757 H   0  0  0  0  0  0
  -17.4212  -26.6728   21.4012 H   0  0  0  0  0  0
  -18.0292  -26.0076   22.9008 H   0  0  0  0  0  0
  -19.7934  -30.7296   24.2270 H   0  0  0  0  0  0
  -17.5015  -31.6282   24.5174 H   0  0  0  0  0  0
  -15.5356  -30.3012   23.7647 H   0  0  0  0  0  0
  -15.8683  -28.0839   22.7089 H   0  0  0  0  0  0
  -24.5820  -30.7205   25.7725 H   0  0  0  0  0  0
  -24.9053  -32.2922   26.4961 H   0  0  0  0  0  0
  -25.8013  -30.8764   27.0139 H   0  0  0  0  0  0
  -26.2852  -29.6786   24.1185 H   0  0  0  0  0  0
  -27.4041  -29.7248   25.4620 H   0  0  0  0  0  0
  -27.8725  -30.4314   23.9320 H   0  0  0  0  0  0
  -27.2640  -33.3586   26.2128 H   0  0  0  0  0  0
  -28.3837  -32.6916   25.0306 H   0  0  0  0  0  0
  -28.0755  -31.8403   26.5365 H   0  0  0  0  0  0
  -28.2606  -38.0107   24.7511 H   0  0  0  0  0  0
  -28.1077  -36.2640   24.6297 H   0  0  0  0  0  0
  -27.2307  -37.1454   25.8870 H   0  0  0  0  0  0
  -20.9349  -29.8763   21.6882 H   0  0  0  0  0  0
  -26.0188  -38.2867   24.1403 H   0  0  0  0  0  0
  -28.6644  -17.3881   22.9754 H   0  0  0  0  0  0
  -30.1634  -19.5648   19.5728 H   0  0  0  0  0  0
  -27.8987  -21.6007   22.6550 H   0  0  0  0  0  0
  -30.8046  -17.1673   19.8523 H   0  0  0  0  0  0
  -29.2786  -15.5658   21.9532 H   0  0  0  0  0  0
  -28.6257  -26.0859   18.2790 H   0  0  0  0  0  0
  -27.6940  -18.6933   24.7918 H   0  0  0  0  0  0
  -27.2366  -20.3154   24.5952 H   0  0  0  0  0  0
  -29.5445  -21.8394   19.2993 H   0  0  0  0  0  0
  -29.1955  -24.3670   17.2562 H   0  0  0  0  0  0
  -30.0901  -23.2213   17.9446 H   0  0  0  0  0  0
  -28.4955  -22.9668   17.6727 H   0  0  0  0  0  0
  1 25  1  0  0  0
  1 30  2  0  0  0
  1 78  1  0  0  0
  2  3  1  0  0  0
  2 25  1  0  0  0
  2 86  1  0  0  0
  2 87  1  0  0  0
  3  4  1  0  0  0
  3 88  1  0  0  0
  3 89  1  0  0  0
  4  5  1  0  0  0
  4 90  1  0  0  0
  4 91  1  0  0  0
  5  6  1  0  0  0
  5 26  1  0  0  0
  5 92  1  0  0  0
  6 25  1  0  0  0
  6 93  1  0  0  0
  6 94  1  0  0  0
  7  8  2  0  0  0
  7 26  1  0  0  0
  7 29  1  0  0  0
  8  9  1  0  0  0
  8 22  1  0  0  0
  9 10  1  0  0  0
  9 27  2  0  0  0
 10 11  2  0  0  0
 10 15  1  0  0  0
 11 12  1  0  0  0
 11 95  1  0  0  0
 12 13  2  0  0  0
 12 96  1  0  0  0
 13 14  1  0  0  0
 13 31  1  0  0  0
 14 15  2  0  0  0
 14 97  1  0  0  0
 15 98  1  0  0  0
 16 17  2  0  0  0
 16 21  1  0  0  0
 16 31  1  0  0  0
 17 18  1  0  0  0
 17 99  1  0  0  0
 18 19  2  0  0  0
 18100  1  0  0  0
 19 20  1  0  0  0
 19 24  1  0  0  0
 20 21  2  0  0  0
 20101  1  0  0  0
 21 23  1  0  0  0
 22 28  1  0  0  0
 22 32  2  0  0  0
 26 27  1  0  0  0
 28102  1  0  0  0
 28103  1  0  0  0
 29104  1  0  0  0
 29105  1  0  0  0
 33 34  1  0  0  0
 33 66  1  0  0  0
 33 70  2  0  0  0
 34 36  1  0  0  0
 34 59  1  0  0  0
 34106  1  0  0  0
 35 44  2  0  0  0
 35 45  1  0  0  0
 35 68  1  0  0  0
 36 56  1  0  0  0
 36107  1  0  0  0
 37 39  1  0  0  0
 37 47  1  0  0  0
 37 66  1  0  0  0
 37108  1  0  0  0
 38 43  2  0  0  0
 38 46  1  0  0  0
 38 47  1  0  0  0
 39 64  1  0  0  0
 39 67  2  0  0  0
 40 52  1  0  0  0
 40 53  2  0  0  0
 40 58  1  0  0  0
 41109  1  0  0  0
 41110  1  0  0  0
 41111  1  0  0  0
 41 48  1  0  0  0
 42 43  1  0  0  0
 42 66  1  0  0  0
 42112  1  0  0  0
 42113  1  0  0  0
 43 44  1  0  0  0
 44114  1  0  0  0
 45 46  2  0  0  0
 45115  1  0  0  0
 46116  1  0  0  0
 47117  1  0  0  0
 47118  1  0  0  0
 48 56  1  0  0  0
 48 65  1  0  0  0
 48119  1  0  0  0
 49 50  1  0  0  0
 49 53  1  0  0  0
 49 64  1  0  0  0
 49120  1  0  0  0
 50 51  1  0  0  0
 50121  1  0  0  0
 50122  1  0  0  0
 51 52  1  0  0  0
 51123  1  0  0  0
 51124  1  0  0  0
 52125  1  0  0  0
 52126  1  0  0  0
 53 54  1  0  0  0
 54 55  2  0  0  0
 54127  1  0  0  0
 55 57  1  0  0  0
 55128  1  0  0  0
 56 69  2  0  0  0
 57 58  2  0  0  0
 57129  1  0  0  0
 58130  1  0  0  0
 59 60  1  0  0  0
 59 61  1  0  0  0
 59 62  1  0  0  0
 60131  1  0  0  0
 60132  1  0  0  0
 60133  1  0  0  0
 61134  1  0  0  0
 61135  1  0  0  0
 61136  1  0  0  0
 62137  1  0  0  0
 62138  1  0  0  0
 62139  1  0  0  0
 63 65  1  0  0  0
 63140  1  0  0  0
 63141  1  0  0  0
 63142  1  0  0  0
 64143  1  0  0  0
 65144  1  0  0  0
 68 79  1  0  0  0
 71 74  2  0  0  0
 71 75  1  0  0  0
 71145  1  0  0  0
 72 74  1  0  0  0
 72 76  2  0  0  0
 72146  1  0  0  0
 73 75  2  0  0  0
 73 76  1  0  0  0
 73147  1  0  0  0
 74 77  1  0  0  0
 75 82  1  0  0  0
 76 83  1  0  0  0
 77 78  2  0  0  0
 77148  1  0  0  0
 78149  1  0  0  0
 79 80  2  0  0  0
 79150  1  0  0  0
 80 81  1  0  0  0
 80 84  1  0  0  0
 81 83  1  0  0  0
 81 85  2  0  0  0
 82151  1  0  0  0
 82152  1  0  0  0
 83153  1  0  0  0
 84154  1  0  0  0
 84155  1  0  0  0
 84156  1  0  0  0
M  CHG  1  84   1
M  ISO  4   1 100  68 101  78 100  79 101
M  END
> <chiral flag>
0

> <version>
0

> <s_m_source_file>
/data/baiqing/PycharmProjects/Reinvent-master-3.2/result/LINK_invent/BTK/process_docking_weight1_custom_product_contain_oxygen_bond_distance_aromatic_linkinvent_7_9_3/rearranged_h_0159.sdf

> <i_m_source_file_index>
77

> <r_mmod_Potential_Energy-OPLS-2005>
-305.307250976562

> <r_mmod_Stretch_Energy-OPLS-2005>
70.1050872802734

> <r_mmod_Bend_Energy-OPLS-2005>
143.332626342773

> <r_mmod_Torsional_Energy-OPLS-2005>
196.701599121094

> <r_mmod_Improper_Torsional_Energy-OPLS-2005>
5.27527570724487

> <r_mmod_Van_der_Waal_Energy-OPLS-2005>
151.763565063477

> <r_mmod_Electrostatic_Energy-OPLS-2005>
-321.05517578125

> <r_mmod_Solvation_Energy-OPLS-2005>
-587.615295410156

> <b_mmod_Minimization_Converged-OPLS-2005>
0

> <r_mmod_RMS_Derivative-OPLS-2005>
3.61360263824463

$$$$
78
                    3D
 Structure written by MMmdl.
168176  0  0  1  0            999 V2000
  -30.6128  -14.7694   20.3445 C   0  0  0  0  0  0
  -30.3980  -12.4512   19.4700 C   0  0  0  0  0  0
  -29.4915  -12.4900   18.2216 C   0  0  0  0  0  0
  -28.0196  -12.3092   18.6363 C   0  0  0  0  0  0
  -27.6170  -13.2390   19.8092 C   0  0  2  0  0  0
  -28.6571  -13.2381   20.9476 C   0  0  0  0  0  0
  -25.2469  -13.8215   20.5687 C   0  0  0  0  0  0
  -24.1756  -13.0495   20.9158 C   0  0  0  0  0  0
  -24.6315  -11.6946   20.8683 C   0  0  0  0  0  0
  -23.9012  -10.4328   21.0415 C   0  0  0  0  0  0
  -24.3563   -9.4280   21.9256 C   0  0  0  0  0  0
  -23.6290   -8.2280   22.0798 C   0  0  0  0  0  0
  -22.4291   -8.0287   21.3569 C   0  0  0  0  0  0
  -21.9859   -9.0250   20.4678 C   0  0  0  0  0  0
  -22.7140  -10.2168   20.3110 C   0  0  0  0  0  0
  -21.6904   -6.0695   22.5257 C   0  0  0  0  0  0
  -21.4043   -6.5634   23.8171 C   0  0  0  0  0  0
  -21.3633   -5.6818   24.9159 C   0  0  0  0  0  0
  -21.6053   -4.3075   24.7258 C   0  0  0  0  0  0
  -21.8824   -3.8130   23.4390 C   0  0  0  0  0  0
  -21.9208   -4.6912   22.3425 C   0  0  0  0  0  0
  -22.7806  -13.5318   21.1892 C   0  0  0  0  0  0
  -22.1670   -4.2059   21.1008 F   0  0  0  0  0  0
  -21.5611   -3.4577   25.7784 F   0  0  0  0  0  0
  -29.9655  -13.5516   20.3599 N   0  0  0  0  0  0
  -26.2819  -12.9434   20.3081 N   0  0  0  0  0  0
  -25.9230  -11.6567   20.5577 N   0  0  0  0  0  0
  -22.0461  -12.8287   22.0391 N   0  0  0  0  0  0
  -25.4227  -15.1923   20.4217 N   0  0  0  0  0  0
  -31.8116  -14.8203   20.0322 O   0  0  0  0  0  0
  -21.6738   -6.8825   21.4213 O   0  0  0  0  0  0
  -22.3525  -14.5652   20.6760 O   0  0  0  0  0  0
  -24.6469  -31.8424   23.1910 C   0  0  0  0  0  0
  -25.9253  -32.4671   23.8299 C   0  0  1  0  0  0
  -27.2590  -27.2468   20.0762 C   0  0  0  0  0  0
  -25.6006  -33.8488   24.2224 N   0  0  0  0  0  0
  -23.4439  -30.4674   21.5343 C   0  0  2  0  0  0
  -24.8882  -28.8830   20.1215 C   0  0  0  0  0  0
  -22.7590  -29.4635   22.4911 C   0  0  0  0  0  0
  -18.0463  -28.1407   22.8474 C   0  0  0  0  0  0
  -24.1532  -36.7232   23.2642 C   0  0  0  0  0  0
  -25.9955  -30.7400   21.3760 C   0  0  0  0  0  0
  -26.0618  -29.3618   20.7095 C   0  0  0  0  0  0
  -27.2393  -28.5534   20.6747 C   0  0  0  0  0  0
  -26.0445  -26.8046   19.5147 C   0  0  0  0  0  0
  -24.8765  -27.6021   19.5399 C   0  0  0  0  0  0
  -23.6678  -29.7823   20.1575 C   0  0  0  0  0  0
  -25.4151  -36.3020   24.0329 C   0  0  1  0  0  0
  -20.6029  -28.3825   23.1305 C   0  0  2  0  0  0
  -20.7012  -26.9515   22.5545 C   0  0  0  0  0  0
  -19.6026  -26.6342   21.5357 C   0  0  0  0  0  0
  -18.2212  -26.7877   22.1678 C   0  0  0  0  0  0
  -19.1675  -28.8927   23.2862 C   0  0  0  0  0  0
  -18.9537  -30.1559   23.8851 C   0  0  0  0  0  0
  -17.6524  -30.6652   24.0470 C   0  0  0  0  0  0
  -25.9086  -34.9385   23.5052 C   0  0  0  0  0  0
  -16.5456  -29.9064   23.6283 C   0  0  0  0  0  0
  -16.7432  -28.6462   23.0336 C   0  0  0  0  0  0
  -26.4571  -31.6547   25.0749 C   0  0  0  0  0  0
  -25.3820  -31.3779   26.1522 C   0  0  0  0  0  0
  -27.0468  -30.2950   24.6323 C   0  0  0  0  0  0
  -27.6093  -32.4338   25.7570 C   0  0  0  0  0  0
  -27.5591  -37.1765   24.8466 C   0  0  0  0  0  0
  -21.4285  -29.3159   22.3665 N   0  0  0  0  0  0
  -26.4308  -37.3721   23.9388 N   0  0  0  0  0  0
  -24.7122  -31.0392   22.0856 N   0  0  0  0  0  0
  -23.4248  -28.8159   23.3022 O   0  0  0  0  0  0
  -28.4172  -26.4313   20.0952 O   0  0  0  0  0  0
  -26.5665  -34.8889   22.4645 O   0  0  0  0  0  0
  -23.5587  -32.1283   23.7127 O   0  0  0  0  0  0
  -29.0007  -18.6980   21.8068 C   0  0  0  0  0  0
  -29.3465  -19.9241   19.7269 C   0  0  0  0  0  0
  -28.3972  -21.0710   21.6471 C   0  0  0  0  0  0
  -29.4603  -18.6645   20.4715 C   0  0  0  0  0  0
  -28.4604  -19.8667   22.3877 C   0  0  0  0  0  0
  -28.8516  -21.1705   20.3131 C   0  0  0  0  0  0
  -30.1779  -17.3643   20.0355 C   0  0  0  0  0  0
  -25.9261  -21.1178   24.0102 C   0  0  0  0  0  0
  -28.2278  -23.7256   19.9820 C   0  0  0  0  0  0
  -25.2090  -22.4233   24.3398 C   0  0  0  0  0  0
  -28.4361  -25.2424   17.8273 C   0  0  0  0  0  0
  -28.0187  -22.0300   25.0056 C   0  0  0  0  0  0
  -28.0045  -19.8190   23.8479 C   0  0  0  0  0  0
  -28.6802  -25.1377   19.3516 C   0  0  2  0  0  0
  -28.8970  -22.5303   19.6860 N   0  0  0  0  0  0
  -29.8418  -16.0589   20.4364 N   0  0  0  0  0  0
  -27.2478  -20.9992   24.2946 N   0  0  0  0  0  0
  -31.2732  -17.5494   19.2788 N   0  3  0  0  0  0
  -25.2807  -20.2234   23.4638 O   0  0  0  0  0  0
  -27.2290  -23.7401   20.7015 O   0  0  0  0  0  0
  -31.4448  -12.5325   19.1798 H   0  0  0  0  0  0
  -30.2969  -11.4943   19.9819 H   0  0  0  0  0  0
  -29.7721  -11.7000   17.5238 H   0  0  0  0  0  0
  -29.6076  -13.4392   17.6902 H   0  0  0  0  0  0
  -27.8970  -11.2703   18.9455 H   0  0  0  0  0  0
  -27.3508  -12.4596   17.7844 H   0  0  0  0  0  0
  -27.5887  -14.2382   19.3759 H   0  0  0  0  0  0
  -28.6844  -12.2697   21.4443 H   0  0  0  0  0  0
  -28.3794  -13.9700   21.7051 H   0  0  0  0  0  0
  -25.2645   -9.5887   22.4911 H   0  0  0  0  0  0
  -24.0035   -7.4710   22.7526 H   0  0  0  0  0  0
  -21.0774   -8.8766   19.8995 H   0  0  0  0  0  0
  -22.3518  -10.9772   19.6310 H   0  0  0  0  0  0
  -21.2055   -7.6149   23.9647 H   0  0  0  0  0  0
  -21.1437   -6.0567   25.9050 H   0  0  0  0  0  0
  -22.0613   -2.7570   23.2961 H   0  0  0  0  0  0
  -22.4133  -11.9868   22.4594 H   0  0  0  0  0  0
  -21.1166  -13.1381   22.2867 H   0  0  0  0  0  0
  -24.6287  -15.8214   20.3731 H   0  0  0  0  0  0
  -26.2759  -15.6056   20.0737 H   0  0  0  0  0  0
  -26.7337  -32.5250   23.1052 H   0  0  0  0  0  0
  -25.0201  -33.9573   25.0404 H   0  0  0  0  0  0
  -22.7523  -31.2970   21.3697 H   0  0  0  0  0  0
  -23.3770  -35.9579   23.3293 H   0  0  0  0  0  0
  -24.3640  -36.8819   22.2043 H   0  0  0  0  0  0
  -23.7280  -37.6438   23.6680 H   0  0  0  0  0  0
  -26.1749  -31.4980   20.6139 H   0  0  0  0  0  0
  -26.8593  -30.7630   22.0280 H   0  0  0  0  0  0
  -28.1459  -28.9264   21.1347 H   0  0  0  0  0  0
  -25.9861  -25.8117   19.0934 H   0  0  0  0  0  0
  -23.9623  -27.1996   19.1296 H   0  0  0  0  0  0
  -23.8161  -30.5549   19.3982 H   0  0  0  0  0  0
  -22.7777  -29.2332   19.8358 H   0  0  0  0  0  0
  -25.1347  -36.1823   25.0812 H   0  0  0  0  0  0
  -21.0117  -28.3564   24.1454 H   0  0  0  0  0  0
  -20.5874  -26.2528   23.3862 H   0  0  0  0  0  0
  -21.6896  -26.7502   22.1351 H   0  0  0  0  0  0
  -19.6973  -27.3087   20.6829 H   0  0  0  0  0  0
  -19.7360  -25.6207   21.1529 H   0  0  0  0  0  0
  -17.4576  -26.6389   21.4034 H   0  0  0  0  0  0
  -18.0670  -26.0081   22.9175 H   0  0  0  0  0  0
  -19.8031  -30.7388   24.2243 H   0  0  0  0  0  0
  -17.5048  -31.6366   24.5001 H   0  0  0  0  0  0
  -15.5415  -30.2942   23.7580 H   0  0  0  0  0  0
  -15.8850  -28.0736   22.7130 H   0  0  0  0  0  0
  -24.5943  -30.7141   25.7933 H   0  0  0  0  0  0
  -24.9123  -32.3004   26.4958 H   0  0  0  0  0  0
  -25.8166  -30.8998   27.0296 H   0  0  0  0  0  0
  -26.3097  -29.6666   24.1306 H   0  0  0  0  0  0
  -27.4068  -29.7251   25.4879 H   0  0  0  0  0  0
  -27.9023  -30.4211   23.9698 H   0  0  0  0  0  0
  -27.2629  -33.3578   26.2220 H   0  0  0  0  0  0
  -28.3934  -32.6926   25.0457 H   0  0  0  0  0  0
  -28.0809  -31.8443   26.5448 H   0  0  0  0  0  0
  -28.2610  -38.0058   24.7529 H   0  0  0  0  0  0
  -28.1085  -36.2571   24.6303 H   0  0  0  0  0  0
  -27.2337  -37.1453   25.8882 H   0  0  0  0  0  0
  -20.9553  -29.8628   21.6631 H   0  0  0  0  0  0
  -26.0164  -38.2803   24.1278 H   0  0  0  0  0  0
  -29.1040  -17.8240   22.4352 H   0  0  0  0  0  0
  -29.6648  -19.9399   18.6907 H   0  0  0  0  0  0
  -28.0384  -21.9602   22.1319 H   0  0  0  0  0  0
  -25.6226  -23.2386   23.7466 H   0  0  0  0  0  0
  -25.3019  -22.6601   25.3967 H   0  0  0  0  0  0
  -24.1479  -22.3413   24.0979 H   0  0  0  0  0  0
  -27.7433  -24.4827   17.4712 H   0  0  0  0  0  0
  -29.3604  -25.1122   17.2608 H   0  0  0  0  0  0
  -28.0292  -26.2130   17.5335 H   0  0  0  0  0  0
  -27.8563  -23.0198   24.5747 H   0  0  0  0  0  0
  -29.0946  -21.8406   24.9625 H   0  0  0  0  0  0
  -27.7426  -22.0748   26.0623 H   0  0  0  0  0  0
  -28.8766  -19.6696   24.4843 H   0  0  0  0  0  0
  -27.3939  -18.9300   24.0013 H   0  0  0  0  0  0
  -29.7670  -25.0728   19.4416 H   0  0  0  0  0  0
  -29.6163  -22.6262   18.9805 H   0  0  0  0  0  0
  -28.8942  -16.0431   20.7695 H   0  0  0  0  0  0
  -31.5163  -18.4599   18.9203 H   0  0  0  0  0  0
  -31.9426  -16.7970   19.1898 H   0  0  0  0  0  0
  1 25  1  0  0  0
  1 30  2  0  0  0
  1 86  1  0  0  0
  2  3  1  0  0  0
  2 25  1  0  0  0
  2 91  1  0  0  0
  2 92  1  0  0  0
  3  4  1  0  0  0
  3 93  1  0  0  0
  3 94  1  0  0  0
  4  5  1  0  0  0
  4 95  1  0  0  0
  4 96  1  0  0  0
  5  6  1  0  0  0
  5 26  1  0  0  0
  5 97  1  0  0  0
  6 25  1  0  0  0
  6 98  1  0  0  0
  6 99  1  0  0  0
  7  8  2  0  0  0
  7 26  1  0  0  0
  7 29  1  0  0  0
  8  9  1  0  0  0
  8 22  1  0  0  0
  9 10  1  0  0  0
  9 27  2  0  0  0
 10 11  2  0  0  0
 10 15  1  0  0  0
 11 12  1  0  0  0
 11100  1  0  0  0
 12 13  2  0  0  0
 12101  1  0  0  0
 13 14  1  0  0  0
 13 31  1  0  0  0
 14 15  2  0  0  0
 14102  1  0  0  0
 15103  1  0  0  0
 16 17  2  0  0  0
 16 21  1  0  0  0
 16 31  1  0  0  0
 17 18  1  0  0  0
 17104  1  0  0  0
 18 19  2  0  0  0
 18105  1  0  0  0
 19 20  1  0  0  0
 19 24  1  0  0  0
 20 21  2  0  0  0
 20106  1  0  0  0
 21 23  1  0  0  0
 22 28  1  0  0  0
 22 32  2  0  0  0
 26 27  1  0  0  0
 28107  1  0  0  0
 28108  1  0  0  0
 29109  1  0  0  0
 29110  1  0  0  0
 33 34  1  0  0  0
 33 66  1  0  0  0
 33 70  2  0  0  0
 34 36  1  0  0  0
 34 59  1  0  0  0
 34111  1  0  0  0
 35 44  2  0  0  0
 35 45  1  0  0  0
 35 68  1  0  0  0
 36 56  1  0  0  0
 36112  1  0  0  0
 37 39  1  0  0  0
 37 47  1  0  0  0
 37 66  1  0  0  0
 37113  1  0  0  0
 38 43  2  0  0  0
 38 46  1  0  0  0
 38 47  1  0  0  0
 39 64  1  0  0  0
 39 67  2  0  0  0
 40 52  1  0  0  0
 40 53  2  0  0  0
 40 58  1  0  0  0
 41114  1  0  0  0
 41115  1  0  0  0
 41116  1  0  0  0
 41 48  1  0  0  0
 42 43  1  0  0  0
 42 66  1  0  0  0
 42117  1  0  0  0
 42118  1  0  0  0
 43 44  1  0  0  0
 44119  1  0  0  0
 45 46  2  0  0  0
 45120  1  0  0  0
 46121  1  0  0  0
 47122  1  0  0  0
 47123  1  0  0  0
 48 56  1  0  0  0
 48 65  1  0  0  0
 48124  1  0  0  0
 49 50  1  0  0  0
 49 53  1  0  0  0
 49 64  1  0  0  0
 49125  1  0  0  0
 50 51  1  0  0  0
 50126  1  0  0  0
 50127  1  0  0  0
 51 52  1  0  0  0
 51128  1  0  0  0
 51129  1  0  0  0
 52130  1  0  0  0
 52131  1  0  0  0
 53 54  1  0  0  0
 54 55  2  0  0  0
 54132  1  0  0  0
 55 57  1  0  0  0
 55133  1  0  0  0
 56 69  2  0  0  0
 57 58  2  0  0  0
 57134  1  0  0  0
 58135  1  0  0  0
 59 60  1  0  0  0
 59 61  1  0  0  0
 59 62  1  0  0  0
 60136  1  0  0  0
 60137  1  0  0  0
 60138  1  0  0  0
 61139  1  0  0  0
 61140  1  0  0  0
 61141  1  0  0  0
 62142  1  0  0  0
 62143  1  0  0  0
 62144  1  0  0  0
 63 65  1  0  0  0
 63145  1  0  0  0
 63146  1  0  0  0
 63147  1  0  0  0
 64148  1  0  0  0
 65149  1  0  0  0
 68 84  1  0  0  0
 71 74  2  0  0  0
 71 75  1  0  0  0
 71150  1  0  0  0
 72 74  1  0  0  0
 72 76  2  0  0  0
 72151  1  0  0  0
 73 75  2  0  0  0
 73 76  1  0  0  0
 73152  1  0  0  0
 74 77  1  0  0  0
 75 83  1  0  0  0
 76 85  1  0  0  0
 77 86  1  0  0  0
 77 88  2  0  0  0
 78 80  1  0  0  0
 78 87  1  0  0  0
 78 89  2  0  0  0
 79 84  1  0  0  0
 79 85  1  0  0  0
 79 90  2  0  0  0
 80153  1  0  0  0
 80154  1  0  0  0
 80155  1  0  0  0
 81156  1  0  0  0
 81157  1  0  0  0
 81158  1  0  0  0
 81 84  1  0  0  0
 82 87  1  0  0  0
 82159  1  0  0  0
 82160  1  0  0  0
 82161  1  0  0  0
 83 87  1  0  0  0
 83162  1  0  0  0
 83163  1  0  0  0
 84164  1  0  0  0
 85165  1  0  0  0
 86166  1  0  0  0
 88167  1  0  0  0
 88168  1  0  0  0
M  CHG  1  88   1
M  ISO  4   1 100  68 101  84 101  86 100
M  END
> <chiral flag>
0

> <version>
0

> <s_m_source_file>
/data/baiqing/PycharmProjects/Reinvent-master-3.2/result/LINK_invent/BTK/process_docking_weight1_custom_product_contain_oxygen_bond_distance_aromatic_linkinvent_7_9_3/rearranged_h_0159.sdf

> <i_m_source_file_index>
78

> <r_mmod_Potential_Energy-OPLS-2005>
-89.6188659667969

> <r_mmod_Stretch_Energy-OPLS-2005>
145.951431274414

> <r_mmod_Bend_Energy-OPLS-2005>
209.411651611328

> <r_mmod_Torsional_Energy-OPLS-2005>
245.294692993164

> <r_mmod_Improper_Torsional_Energy-OPLS-2005>
8.9609956741333

> <r_mmod_Van_der_Waal_Energy-OPLS-2005>
147.557861328125

> <r_mmod_Electrostatic_Energy-OPLS-2005>
-467.454620361328

> <r_mmod_Solvation_Energy-OPLS-2005>
-481.204437255859

> <b_mmod_Minimization_Converged-OPLS-2005>
0

> <r_mmod_RMS_Derivative-OPLS-2005>
9.162522315979

$$$$
79
                    3D
 Structure written by MMmdl.
170179  0  0  1  0            999 V2000
  -30.6853  -14.6053   20.4355 C   0  0  0  0  0  0
  -30.4288  -12.3576   19.4626 C   0  0  0  0  0  0
  -29.5185  -12.4740   18.2235 C   0  0  0  0  0  0
  -28.0386  -12.3226   18.6343 C   0  0  0  0  0  0
  -27.6531  -13.2209   19.8415 C   0  0  2  0  0  0
  -28.6963  -13.1315   20.9780 C   0  0  0  0  0  0
  -25.2604  -13.8180   20.5670 C   0  0  0  0  0  0
  -24.1876  -13.0439   20.9169 C   0  0  0  0  0  0
  -24.6446  -11.6901   20.8731 C   0  0  0  0  0  0
  -23.9118  -10.4286   21.0417 C   0  0  0  0  0  0
  -24.3655   -9.4185   21.9190 C   0  0  0  0  0  0
  -23.6321   -8.2232   22.0762 C   0  0  0  0  0  0
  -22.4282   -8.0297   21.3549 C   0  0  0  0  0  0
  -21.9930   -9.0284   20.4665 C   0  0  0  0  0  0
  -22.7280  -10.2146   20.3056 C   0  0  0  0  0  0
  -21.6848   -6.0749   22.5293 C   0  0  0  0  0  0
  -21.4021   -6.5656   23.8244 C   0  0  0  0  0  0
  -21.3635   -5.6804   24.9192 C   0  0  0  0  0  0
  -21.6021   -4.3070   24.7235 C   0  0  0  0  0  0
  -21.8823   -3.8151   23.4348 C   0  0  0  0  0  0
  -21.9185   -4.6984   22.3410 C   0  0  0  0  0  0
  -22.7883  -13.5234   21.1784 C   0  0  0  0  0  0
  -22.1666   -4.2170   21.0986 F   0  0  0  0  0  0
  -21.5587   -3.4537   25.7731 F   0  0  0  0  0  0
  -30.0143  -13.4175   20.4006 N   0  0  0  0  0  0
  -26.3023  -12.9376   20.3221 N   0  0  0  0  0  0
  -25.9366  -11.6518   20.5711 N   0  0  0  0  0  0
  -22.0477  -12.8313   22.0369 N   0  0  0  0  0  0
  -25.4272  -15.1911   20.4117 N   0  0  0  0  0  0
  -31.8906  -14.6464   20.1925 O   0  0  0  0  0  0
  -21.6625   -6.8901   21.4267 O   0  0  0  0  0  0
  -22.3590  -14.5498   20.6548 O   0  0  0  0  0  0
  -24.6316  -31.8603   23.2054 C   0  0  0  0  0  0
  -25.9142  -32.4798   23.8388 C   0  0  1  0  0  0
  -27.1975  -27.2984   20.0941 C   0  0  0  0  0  0
  -25.5957  -33.8596   24.2300 N   0  0  0  0  0  0
  -23.4244  -30.4863   21.5571 C   0  0  2  0  0  0
  -24.8577  -28.9490   20.1212 C   0  0  0  0  0  0
  -22.7526  -29.4585   22.5010 C   0  0  0  0  0  0
  -18.0284  -28.1403   22.8498 C   0  0  0  0  0  0
  -24.1500  -36.7313   23.2630 C   0  0  0  0  0  0
  -25.9716  -30.7835   21.3751 C   0  0  0  0  0  0
  -26.0391  -29.4117   20.7130 C   0  0  0  0  0  0
  -27.2185  -28.6011   20.6833 C   0  0  0  0  0  0
  -25.9762  -26.8983   19.4896 C   0  0  0  0  0  0
  -24.8253  -27.6959   19.5067 C   0  0  0  0  0  0
  -23.6373  -29.8397   20.1697 C   0  0  0  0  0  0
  -25.4121  -36.3084   24.0316 C   0  0  1  0  0  0
  -20.5889  -28.3675   23.1353 C   0  0  2  0  0  0
  -20.6800  -26.9413   22.5441 C   0  0  0  0  0  0
  -19.5785  -26.6382   21.5240 C   0  0  0  0  0  0
  -18.1941  -26.7968   22.1594 C   0  0  0  0  0  0
  -19.1542  -28.8862   23.2906 C   0  0  0  0  0  0
  -18.9451  -30.1476   23.8898 C   0  0  0  0  0  0
  -17.6441  -30.6606   24.0551 C   0  0  0  0  0  0
  -25.9053  -34.9449   23.5088 C   0  0  0  0  0  0
  -16.5336  -29.9086   23.6336 C   0  0  0  0  0  0
  -16.7269  -28.6511   23.0366 C   0  0  0  0  0  0
  -26.4492  -31.6616   25.0763 C   0  0  0  0  0  0
  -25.3708  -31.3791   26.1492 C   0  0  0  0  0  0
  -27.0297  -30.3051   24.6177 C   0  0  0  0  0  0
  -27.6078  -32.4320   25.7523 C   0  0  0  0  0  0
  -27.5593  -37.1812   24.8439 C   0  0  0  0  0  0
  -21.4233  -29.3019   22.3768 N   0  0  0  0  0  0
  -26.4302  -37.3776   23.9395 N   0  0  0  0  0  0
  -24.6964  -31.0581   22.1026 N   0  0  0  0  0  0
  -23.4252  -28.8107   23.3065 O   0  0  0  0  0  0
  -28.2957  -26.4131   20.1319 O   0  0  0  0  0  0
  -26.5612  -34.8902   22.4654 O   0  0  0  0  0  0
  -23.5462  -32.1419   23.7364 O   0  0  0  0  0  0
  -31.4029  -19.1149   19.0962 C   0  0  0  0  0  0
  -30.2241  -19.4078   19.7713 C   0  0  0  0  0  0
  -30.3242  -17.0792   20.0598 C   0  0  0  0  0  0
  -28.3451  -22.6478   18.9531 C   0  0  0  0  0  0
  -29.4097  -23.0087   21.0998 C   0  0  0  0  0  0
  -29.1856  -21.3677   18.7070 C   0  0  0  0  0  0
  -30.2910  -21.7202   20.8430 C   0  0  1  0  0  0
  -29.0288  -23.7814   19.7950 C   0  0  1  0  0  0
  -30.7229  -21.0769   22.1659 C   0  0  0  0  0  0
  -30.3060  -24.3419   19.1420 C   0  0  0  0  0  0
  -33.7443  -20.0108   19.2558 C   0  0  0  0  0  0
  -27.9825  -24.9811   19.9020 C   0  0  0  0  0  0
  -32.4224  -20.0334   18.4687 C   0  0  1  0  0  0
  -29.6276  -18.2225   20.3057 N   0  0  0  0  0  0
  -29.6511  -20.7254   19.9457 N   0  0  0  0  0  0
  -29.9414  -15.7528   20.5242 N   0  0  0  0  0  0
  -32.6392  -19.7459   17.0366 N   0  3  0  0  0  0
  -31.7267  -17.3951   19.0497 S   0  0  0  0  0  0
  -31.4807  -12.4374   19.1767 H   0  0  0  0  0  0
  -30.3239  -11.3770   19.9295 H   0  0  0  0  0  0
  -29.7877  -11.7097   17.4951 H   0  0  0  0  0  0
  -29.6755  -13.4353   17.7305 H   0  0  0  0  0  0
  -27.8829  -11.2742   18.8926 H   0  0  0  0  0  0
  -27.3862  -12.5202   17.7845 H   0  0  0  0  0  0
  -27.6585  -14.2441   19.4632 H   0  0  0  0  0  0
  -28.6977  -12.1393   21.4317 H   0  0  0  0  0  0
  -28.4627  -13.8348   21.7790 H   0  0  0  0  0  0
  -25.2818   -9.5628   22.4768 H   0  0  0  0  0  0
  -24.0011   -7.4598   22.7460 H   0  0  0  0  0  0
  -21.0838   -8.8817   19.8986 H   0  0  0  0  0  0
  -22.3770  -10.9681   19.6143 H   0  0  0  0  0  0
  -21.2075   -7.6174   23.9764 H   0  0  0  0  0  0
  -21.1424   -6.0526   25.9108 H   0  0  0  0  0  0
  -22.0623   -2.7619   23.2843 H   0  0  0  0  0  0
  -22.4078  -12.0085   22.4951 H   0  0  0  0  0  0
  -21.1053  -13.1341   22.2357 H   0  0  0  0  0  0
  -24.6537  -15.8357   20.5409 H   0  0  0  0  0  0
  -26.2724  -15.6446   20.0897 H   0  0  0  0  0  0
  -26.7211  -32.5443   23.1124 H   0  0  0  0  0  0
  -25.0137  -33.9794   25.0472 H   0  0  0  0  0  0
  -22.7159  -31.3051   21.4226 H   0  0  0  0  0  0
  -23.3739  -35.9667   23.3272 H   0  0  0  0  0  0
  -24.3582  -36.8966   22.2044 H   0  0  0  0  0  0
  -23.7274  -37.6516   23.6680 H   0  0  0  0  0  0
  -26.1014  -31.5409   20.6021 H   0  0  0  0  0  0
  -26.8542  -30.8377   22.0000 H   0  0  0  0  0  0
  -28.1358  -28.9513   21.1362 H   0  0  0  0  0  0
  -25.8344  -25.9476   19.0027 H   0  0  0  0  0  0
  -23.9099  -27.3332   19.0582 H   0  0  0  0  0  0
  -23.7905  -30.6241   19.4264 H   0  0  0  0  0  0
  -22.7489  -29.2908   19.8519 H   0  0  0  0  0  0
  -25.1299  -36.1928   25.0810 H   0  0  0  0  0  0
  -20.9943  -28.3201   24.1490 H   0  0  0  0  0  0
  -20.5786  -26.2237   23.3601 H   0  0  0  0  0  0
  -21.6670  -26.7514   22.1187 H   0  0  0  0  0  0
  -19.6947  -25.6282   21.1297 H   0  0  0  0  0  0
  -19.6780  -27.3170   20.6764 H   0  0  0  0  0  0
  -17.4260  -26.6795   21.3926 H   0  0  0  0  0  0
  -18.0243  -26.0093   22.8952 H   0  0  0  0  0  0
  -19.7908  -30.7312   24.2272 H   0  0  0  0  0  0
  -17.4979  -31.6296   24.5129 H   0  0  0  0  0  0
  -15.5337  -30.2975   23.7678 H   0  0  0  0  0  0
  -15.8669  -28.0814   22.7097 H   0  0  0  0  0  0
  -24.5877  -30.7144   25.7825 H   0  0  0  0  0  0
  -24.8893  -32.2969   26.4876 H   0  0  0  0  0  0
  -25.8008  -30.8996   27.0294 H   0  0  0  0  0  0
  -26.2849  -29.6856   24.1166 H   0  0  0  0  0  0
  -27.3980  -29.7262   25.4648 H   0  0  0  0  0  0
  -27.8728  -30.4359   23.9397 H   0  0  0  0  0  0
  -27.2717  -33.3578   26.2209 H   0  0  0  0  0  0
  -28.3835  -32.6962   25.0321 H   0  0  0  0  0  0
  -28.0823  -31.8382   26.5349 H   0  0  0  0  0  0
  -28.2594  -38.0128   24.7475 H   0  0  0  0  0  0
  -28.1121  -36.2648   24.6259 H   0  0  0  0  0  0
  -27.2334  -37.1447   25.8858 H   0  0  0  0  0  0
  -20.9422  -29.8741   21.6977 H   0  0  0  0  0  0
  -26.0166  -38.2856   24.1398 H   0  0  0  0  0  0
  -27.4339  -22.3338   19.4679 H   0  0  0  0  0  0
  -28.0140  -23.0237   17.9849 H   0  0  0  0  0  0
  -29.9321  -23.6862   21.7758 H   0  0  0  0  0  0
  -28.5051  -22.7219   21.6403 H   0  0  0  0  0  0
  -30.0289  -21.6391   18.0755 H   0  0  0  0  0  0
  -28.5997  -20.6437   18.1354 H   0  0  0  0  0  0
  -31.2038  -22.0595   20.3543 H   0  0  0  0  0  0
  -29.8669  -20.6635   22.6988 H   0  0  0  0  0  0
  -31.2086  -21.8039   22.8174 H   0  0  0  0  0  0
  -31.4413  -20.2721   22.0039 H   0  0  0  0  0  0
  -30.9488  -23.5627   18.7403 H   0  0  0  0  0  0
  -30.8958  -24.8965   19.8736 H   0  0  0  0  0  0
  -30.0726  -25.0352   18.3353 H   0  0  0  0  0  0
  -33.5667  -20.2460   20.3056 H   0  0  0  0  0  0
  -34.4577  -20.7401   18.8730 H   0  0  0  0  0  0
  -34.2200  -19.0297   19.2247 H   0  0  0  0  0  0
  -27.1730  -24.6689   20.5647 H   0  0  0  0  0  0
  -27.5677  -24.9819   18.8963 H   0  0  0  0  0  0
  -32.0571  -21.0561   18.5101 H   0  0  0  0  0  0
  -28.9806  -15.6369   20.7987 H   0  0  0  0  0  0
  -33.0591  -18.8442   16.9001 H   0  0  0  0  0  0
  -33.2477  -20.4292   16.6215 H   0  0  0  0  0  0
  -31.7693  -19.7753   16.5352 H   0  0  0  0  0  0
  1 25  1  0  0  0
  1 30  2  0  0  0
  1 86  1  0  0  0
  2  3  1  0  0  0
  2 25  1  0  0  0
  2 89  1  0  0  0
  2 90  1  0  0  0
  3  4  1  0  0  0
  3 91  1  0  0  0
  3 92  1  0  0  0
  4  5  1  0  0  0
  4 93  1  0  0  0
  4 94  1  0  0  0
  5  6  1  0  0  0
  5 26  1  0  0  0
  5 95  1  0  0  0
  6 25  1  0  0  0
  6 96  1  0  0  0
  6 97  1  0  0  0
  7  8  2  0  0  0
  7 26  1  0  0  0
  7 29  1  0  0  0
  8  9  1  0  0  0
  8 22  1  0  0  0
  9 10  1  0  0  0
  9 27  2  0  0  0
 10 11  2  0  0  0
 10 15  1  0  0  0
 11 12  1  0  0  0
 11 98  1  0  0  0
 12 13  2  0  0  0
 12 99  1  0  0  0
 13 14  1  0  0  0
 13 31  1  0  0  0
 14 15  2  0  0  0
 14100  1  0  0  0
 15101  1  0  0  0
 16 17  2  0  0  0
 16 21  1  0  0  0
 16 31  1  0  0  0
 17 18  1  0  0  0
 17102  1  0  0  0
 18 19  2  0  0  0
 18103  1  0  0  0
 19 20  1  0  0  0
 19 24  1  0  0  0
 20 21  2  0  0  0
 20104  1  0  0  0
 21 23  1  0  0  0
 22 28  1  0  0  0
 22 32  2  0  0  0
 26 27  1  0  0  0
 28105  1  0  0  0
 28106  1  0  0  0
 29107  1  0  0  0
 29108  1  0  0  0
 33 34  1  0  0  0
 33 66  1  0  0  0
 33 70  2  0  0  0
 34 36  1  0  0  0
 34 59  1  0  0  0
 34109  1  0  0  0
 35 44  2  0  0  0
 35 45  1  0  0  0
 35 68  1  0  0  0
 36 56  1  0  0  0
 36110  1  0  0  0
 37 39  1  0  0  0
 37 47  1  0  0  0
 37 66  1  0  0  0
 37111  1  0  0  0
 38 43  2  0  0  0
 38 46  1  0  0  0
 38 47  1  0  0  0
 39 64  1  0  0  0
 39 67  2  0  0  0
 40 52  1  0  0  0
 40 53  2  0  0  0
 40 58  1  0  0  0
 41112  1  0  0  0
 41113  1  0  0  0
 41114  1  0  0  0
 41 48  1  0  0  0
 42 43  1  0  0  0
 42 66  1  0  0  0
 42115  1  0  0  0
 42116  1  0  0  0
 43 44  1  0  0  0
 44117  1  0  0  0
 45 46  2  0  0  0
 45118  1  0  0  0
 46119  1  0  0  0
 47120  1  0  0  0
 47121  1  0  0  0
 48 56  1  0  0  0
 48 65  1  0  0  0
 48122  1  0  0  0
 49 50  1  0  0  0
 49 53  1  0  0  0
 49 64  1  0  0  0
 49123  1  0  0  0
 50 51  1  0  0  0
 50124  1  0  0  0
 50125  1  0  0  0
 51 52  1  0  0  0
 51126  1  0  0  0
 51127  1  0  0  0
 52128  1  0  0  0
 52129  1  0  0  0
 53 54  1  0  0  0
 54 55  2  0  0  0
 54130  1  0  0  0
 55 57  1  0  0  0
 55131  1  0  0  0
 56 69  2  0  0  0
 57 58  2  0  0  0
 57132  1  0  0  0
 58133  1  0  0  0
 59 60  1  0  0  0
 59 61  1  0  0  0
 59 62  1  0  0  0
 60134  1  0  0  0
 60135  1  0  0  0
 60136  1  0  0  0
 61137  1  0  0  0
 61138  1  0  0  0
 61139  1  0  0  0
 62140  1  0  0  0
 62141  1  0  0  0
 62142  1  0  0  0
 63 65  1  0  0  0
 63143  1  0  0  0
 63144  1  0  0  0
 63145  1  0  0  0
 64146  1  0  0  0
 65147  1  0  0  0
 68 82  1  0  0  0
 71 72  2  0  0  0
 71 83  1  0  0  0
 71 88  1  0  0  0
 72 84  1  0  0  0
 72 85  1  0  0  0
 73 84  2  0  0  0
 73 86  1  0  0  0
 73 88  1  0  0  0
 74 76  1  0  0  0
 74 78  1  0  0  0
 74148  1  0  0  0
 74149  1  0  0  0
 75 77  1  0  0  0
 75 78  1  0  0  0
 75150  1  0  0  0
 75151  1  0  0  0
 76 85  1  0  0  0
 76152  1  0  0  0
 76153  1  0  0  0
 77 79  1  0  0  0
 77 85  1  0  0  0
 77154  1  0  0  0
 78 80  1  0  0  0
 78 82  1  0  0  0
 79155  1  0  0  0
 79156  1  0  0  0
 79157  1  0  0  0
 80158  1  0  0  0
 80159  1  0  0  0
 80160  1  0  0  0
 81161  1  0  0  0
 81162  1  0  0  0
 81163  1  0  0  0
 81 83  1  0  0  0
 82164  1  0  0  0
 82165  1  0  0  0
 83 87  1  0  0  0
 83166  1  0  0  0
 86167  1  0  0  0
 87168  1  0  0  0
 87169  1  0  0  0
 87170  1  0  0  0
M  CHG  1  87   1
M  ISO  4   1 100  68 101  82 101  86 100
M  END
> <chiral flag>
0

> <version>
0

> <s_m_source_file>
/data/baiqing/PycharmProjects/Reinvent-master-3.2/result/LINK_invent/BTK/process_docking_weight1_custom_product_contain_oxygen_bond_distance_aromatic_linkinvent_7_9_3/rearranged_h_0159.sdf

> <i_m_source_file_index>
79

> <r_mmod_Potential_Energy-OPLS-2005>
-197.300033569336

> <r_mmod_Stretch_Energy-OPLS-2005>
77.0291595458984

> <r_mmod_Bend_Energy-OPLS-2005>
156.949188232422

> <r_mmod_Torsional_Energy-OPLS-2005>
267.863433837891

> <r_mmod_Improper_Torsional_Energy-OPLS-2005>
9.18359184265137

> <r_mmod_Van_der_Waal_Energy-OPLS-2005>
144.244827270508

> <r_mmod_Electrostatic_Energy-OPLS-2005>
-406.383239746094

> <r_mmod_Solvation_Energy-OPLS-2005>
-504.611480712891

> <b_mmod_Minimization_Converged-OPLS-2005>
0

> <r_mmod_RMS_Derivative-OPLS-2005>
5.16109609603882

$$$$
80
                    3D
 Structure written by MMmdl.
147155  0  0  1  0            999 V2000
  -30.2678  -15.8568   20.3242 C   0  0  0  0  0  0
  -30.3927  -13.2570   19.5310 C   0  0  0  0  0  0
  -29.5470  -12.7100   18.3414 C   0  0  0  0  0  0
  -28.1440  -12.3042   18.8051 C   0  0  0  0  0  0
  -27.5837  -13.3338   19.8084 C   0  0  2  0  0  0
  -28.5857  -13.7827   20.9057 C   0  0  0  0  0  0
  -25.2276  -13.8332   20.5854 C   0  0  0  0  0  0
  -24.1688  -13.0444   20.9311 C   0  0  0  0  0  0
  -24.6424  -11.6964   20.8770 C   0  0  0  0  0  0
  -23.9134  -10.4298   21.0390 C   0  0  0  0  0  0
  -24.3663   -9.4210   21.9175 C   0  0  0  0  0  0
  -23.6320   -8.2253   22.0752 C   0  0  0  0  0  0
  -22.4300   -8.0292   21.3544 C   0  0  0  0  0  0
  -21.9950   -9.0268   20.4642 C   0  0  0  0  0  0
  -22.7297  -10.2138   20.3045 C   0  0  0  0  0  0
  -21.6862   -6.0743   22.5277 C   0  0  0  0  0  0
  -21.4021   -6.5643   23.8211 C   0  0  0  0  0  0
  -21.3661   -5.6795   24.9172 C   0  0  0  0  0  0
  -21.6044   -4.3057   24.7222 C   0  0  0  0  0  0
  -21.8818   -3.8150   23.4343 C   0  0  0  0  0  0
  -21.9196   -4.6969   22.3400 C   0  0  0  0  0  0
  -22.7694  -13.5152   21.1931 C   0  0  0  0  0  0
  -22.1662   -4.2154   21.0977 F   0  0  0  0  0  0
  -21.5627   -3.4540   25.7734 F   0  0  0  0  0  0
  -29.7137  -14.4750   20.2175 N   0  0  0  0  0  0
  -26.2747  -12.9709   20.3298 N   0  0  0  0  0  0
  -25.9381  -11.6749   20.5709 N   0  0  0  0  0  0
  -22.0367  -12.8120   22.0481 N   0  0  0  0  0  0
  -25.3854  -15.2078   20.4312 N   0  0  0  0  0  0
  -31.5027  -15.6774   20.2012 O   0  0  0  0  0  0
  -21.6654   -6.8893   21.4242 O   0  0  0  0  0  0
  -22.3362  -14.5446   20.6764 O   0  0  0  0  0  0
  -24.6986  -31.7815   23.1379 C   0  0  0  0  0  0
  -25.9492  -32.4374   23.7985 C   0  0  1  0  0  0
  -27.2302  -26.5427   20.2295 C   0  0  0  0  0  0
  -25.6007  -33.8208   24.1856 N   0  0  0  0  0  0
  -23.5322  -30.3760   21.4953 C   0  0  2  0  0  0
  -24.9911  -28.6836   20.1205 C   0  0  0  0  0  0
  -22.7834  -29.4215   22.4663 C   0  0  0  0  0  0
  -18.0349  -28.1431   22.8448 C   0  0  0  0  0  0
  -24.1493  -36.7109   23.2657 C   0  0  0  0  0  0
  -26.1189  -30.4610   21.4269 C   0  0  0  0  0  0
  -26.1819  -29.0083   20.7797 C   0  0  0  0  0  0
  -27.2778  -27.9702   20.7978 C   0  0  0  0  0  0
  -26.0064  -26.4687   19.5059 C   0  0  0  0  0  0
  -24.9520  -27.4420   19.4588 C   0  0  0  0  0  0
  -23.7950  -29.6585   20.1371 C   0  0  0  0  0  0
  -25.4150  -36.2839   24.0270 C   0  0  1  0  0  0
  -20.5992  -28.3797   23.1112 C   0  0  2  0  0  0
  -20.6805  -26.9440   22.5407 C   0  0  0  0  0  0
  -19.5784  -26.6365   21.5219 C   0  0  0  0  0  0
  -18.1966  -26.7956   22.1618 C   0  0  0  0  0  0
  -19.1620  -28.8941   23.2756 C   0  0  0  0  0  0
  -18.9524  -30.1521   23.8807 C   0  0  0  0  0  0
  -17.6512  -30.6609   24.0547 C   0  0  0  0  0  0
  -25.9142  -34.9235   23.4912 C   0  0  0  0  0  0
  -16.5399  -29.9088   23.6355 C   0  0  0  0  0  0
  -16.7328  -28.6512   23.0371 C   0  0  0  0  0  0
  -26.4620  -31.6479   25.0676 C   0  0  0  0  0  0
  -25.3643  -31.3844   26.1261 C   0  0  0  0  0  0
  -27.0580  -30.2800   24.6695 C   0  0  0  0  0  0
  -27.6037  -32.4380   25.7503 C   0  0  0  0  0  0
  -27.5556  -37.1708   24.8467 C   0  0  0  0  0  0
  -21.4467  -29.3012   22.3413 N   0  0  0  0  0  0
  -26.4260  -37.3619   23.9412 N   0  0  0  0  0  0
  -24.8085  -30.9101   22.0720 N   0  0  0  0  0  0
  -23.4203  -28.7841   23.3082 O   0  0  0  0  0  0
  -28.1711  -25.2519   20.3204 O   0  0  0  0  0  0
  -26.5805  -34.8845   22.4546 O   0  0  0  0  0  0
  -23.5970  -32.0965   23.6232 O   0  0  0  0  0  0
  -29.8879  -20.4661   19.6856 C   0  0  0  0  0  0
  -27.9692  -19.9954   20.5254 C   0  0  0  0  0  0
  -30.4428  -18.7933   20.0452 C   0  0  0  0  0  0
  -28.4776  -18.2898   20.8404 C   0  0  0  0  0  0
  -28.7797  -21.5379   20.4681 C   0  0  0  0  0  0
  -28.0510  -23.4252   20.1041 C   0  0  0  0  0  0
  -29.6840  -17.3757   20.2690 N   0  0  0  0  0  0
  -31.3683  -13.5347   19.1313 H   0  0  0  0  0  0
  -30.6083  -12.4639   20.2492 H   0  0  0  0  0  0
  -30.0486  -11.8644   17.8689 H   0  0  0  0  0  0
  -29.4650  -13.4850   17.5779 H   0  0  0  0  0  0
  -28.2185  -11.3301   19.2900 H   0  0  0  0  0  0
  -27.4736  -12.1783   17.9539 H   0  0  0  0  0  0
  -27.4087  -14.2173   19.1923 H   0  0  0  0  0  0
  -28.9049  -12.9505   21.5351 H   0  0  0  0  0  0
  -28.1065  -14.5000   21.5736 H   0  0  0  0  0  0
  -25.2800   -9.5683   22.4764 H   0  0  0  0  0  0
  -24.0017   -7.4647   22.7481 H   0  0  0  0  0  0
  -21.0878   -8.8799   19.8950 H   0  0  0  0  0  0
  -22.3754  -10.9680   19.6159 H   0  0  0  0  0  0
  -21.2016   -7.6152   23.9716 H   0  0  0  0  0  0
  -21.1483   -6.0524   25.9075 H   0  0  0  0  0  0
  -22.0595   -2.7612   23.2842 H   0  0  0  0  0  0
  -22.4021  -11.9802   22.4877 H   0  0  0  0  0  0
  -21.0969  -13.1102   22.2678 H   0  0  0  0  0  0
  -24.6150  -15.8567   20.5499 H   0  0  0  0  0  0
  -26.2354  -15.6543   20.1123 H   0  0  0  0  0  0
  -26.7589  -32.4804   23.0702 H   0  0  0  0  0  0
  -25.0042  -33.9220   24.9936 H   0  0  0  0  0  0
  -22.8666  -31.2173   21.2917 H   0  0  0  0  0  0
  -23.3781  -35.9410   23.3250 H   0  0  0  0  0  0
  -24.3555  -36.8852   22.2085 H   0  0  0  0  0  0
  -23.7227  -37.6251   23.6794 H   0  0  0  0  0  0
  -26.3387  -31.1750   20.6320 H   0  0  0  0  0  0
  -26.9636  -30.5345   22.0991 H   0  0  0  0  0  0
  -28.1686  -28.2294   21.3525 H   0  0  0  0  0  0
  -25.8133  -25.5381   18.9909 H   0  0  0  0  0  0
  -24.0579  -27.1821   18.9089 H   0  0  0  0  0  0
  -23.9835  -30.4121   19.3716 H   0  0  0  0  0  0
  -22.8965  -29.1332   19.8089 H   0  0  0  0  0  0
  -25.1365  -36.1575   25.0758 H   0  0  0  0  0  0
  -21.0070  -28.3435   24.1241 H   0  0  0  0  0  0
  -20.5654  -26.2425   23.3684 H   0  0  0  0  0  0
  -21.6665  -26.7357   22.1234 H   0  0  0  0  0  0
  -19.6937  -25.6253   21.1306 H   0  0  0  0  0  0
  -19.6732  -27.3127   20.6710 H   0  0  0  0  0  0
  -17.4237  -26.6701   21.4020 H   0  0  0  0  0  0
  -18.0347  -26.0119   22.9033 H   0  0  0  0  0  0
  -19.8000  -30.7359   24.2137 H   0  0  0  0  0  0
  -17.5063  -31.6280   24.5166 H   0  0  0  0  0  0
  -15.5397  -30.2962   23.7733 H   0  0  0  0  0  0
  -15.8729  -28.0801   22.7137 H   0  0  0  0  0  0
  -24.5863  -30.7162   25.7553 H   0  0  0  0  0  0
  -24.8798  -32.3081   26.4435 H   0  0  0  0  0  0
  -25.7779  -30.9168   27.0206 H   0  0  0  0  0  0
  -26.3328  -29.6361   24.1710 H   0  0  0  0  0  0
  -27.3965  -29.7314   25.5495 H   0  0  0  0  0  0
  -27.9323  -30.3888   24.0277 H   0  0  0  0  0  0
  -27.2558  -33.3774   26.1812 H   0  0  0  0  0  0
  -28.3980  -32.6794   25.0428 H   0  0  0  0  0  0
  -28.0561  -31.8695   26.5639 H   0  0  0  0  0  0
  -28.2527  -38.0045   24.7519 H   0  0  0  0  0  0
  -28.1097  -36.2564   24.6286 H   0  0  0  0  0  0
  -27.2272  -37.1329   25.8868 H   0  0  0  0  0  0
  -20.9810  -29.8645   21.6434 H   0  0  0  0  0  0
  -26.0070  -38.2657   24.1440 H   0  0  0  0  0  0
  -29.5696  -20.4340   18.6413 H   0  0  0  0  0  0
  -30.8115  -21.0437   19.6313 H   0  0  0  0  0  0
  -27.1595  -20.1586   21.2374 H   0  0  0  0  0  0
  -27.4334  -19.9361   19.5754 H   0  0  0  0  0  0
  -31.0627  -18.8886   20.9384 H   0  0  0  0  0  0
  -31.1673  -18.5649   19.2626 H   0  0  0  0  0  0
  -27.5875  -17.6844   20.6658 H   0  0  0  0  0  0
  -28.6135  -18.2320   21.9215 H   0  0  0  0  0  0
  -29.1787  -21.6640   21.4749 H   0  0  0  0  0  0
  -27.0604  -23.3092   20.5441 H   0  0  0  0  0  0
  -27.8517  -23.3763   19.0336 H   0  0  0  0  0  0
  1 25  1  0  0  0
  1 30  2  0  0  0
  1 77  1  0  0  0
  2  3  1  0  0  0
  2 25  1  0  0  0
  2 78  1  0  0  0
  2 79  1  0  0  0
  3  4  1  0  0  0
  3 80  1  0  0  0
  3 81  1  0  0  0
  4  5  1  0  0  0
  4 82  1  0  0  0
  4 83  1  0  0  0
  5  6  1  0  0  0
  5 26  1  0  0  0
  5 84  1  0  0  0
  6 25  1  0  0  0
  6 85  1  0  0  0
  6 86  1  0  0  0
  7  8  2  0  0  0
  7 26  1  0  0  0
  7 29  1  0  0  0
  8  9  1  0  0  0
  8 22  1  0  0  0
  9 10  1  0  0  0
  9 27  2  0  0  0
 10 11  2  0  0  0
 10 15  1  0  0  0
 11 12  1  0  0  0
 11 87  1  0  0  0
 12 13  2  0  0  0
 12 88  1  0  0  0
 13 14  1  0  0  0
 13 31  1  0  0  0
 14 15  2  0  0  0
 14 89  1  0  0  0
 15 90  1  0  0  0
 16 17  2  0  0  0
 16 21  1  0  0  0
 16 31  1  0  0  0
 17 18  1  0  0  0
 17 91  1  0  0  0
 18 19  2  0  0  0
 18 92  1  0  0  0
 19 20  1  0  0  0
 19 24  1  0  0  0
 20 21  2  0  0  0
 20 93  1  0  0  0
 21 23  1  0  0  0
 22 28  1  0  0  0
 22 32  2  0  0  0
 26 27  1  0  0  0
 28 94  1  0  0  0
 28 95  1  0  0  0
 29 96  1  0  0  0
 29 97  1  0  0  0
 33 34  1  0  0  0
 33 66  1  0  0  0
 33 70  2  0  0  0
 34 36  1  0  0  0
 34 59  1  0  0  0
 34 98  1  0  0  0
 35 44  2  0  0  0
 35 45  1  0  0  0
 35 68  1  0  0  0
 36 56  1  0  0  0
 36 99  1  0  0  0
 37 39  1  0  0  0
 37 47  1  0  0  0
 37 66  1  0  0  0
 37100  1  0  0  0
 38 43  2  0  0  0
 38 46  1  0  0  0
 38 47  1  0  0  0
 39 64  1  0  0  0
 39 67  2  0  0  0
 40 52  1  0  0  0
 40 53  2  0  0  0
 40 58  1  0  0  0
 41101  1  0  0  0
 41102  1  0  0  0
 41103  1  0  0  0
 41 48  1  0  0  0
 42 43  1  0  0  0
 42 66  1  0  0  0
 42104  1  0  0  0
 42105  1  0  0  0
 43 44  1  0  0  0
 44106  1  0  0  0
 45 46  2  0  0  0
 45107  1  0  0  0
 46108  1  0  0  0
 47109  1  0  0  0
 47110  1  0  0  0
 48 56  1  0  0  0
 48 65  1  0  0  0
 48111  1  0  0  0
 49 50  1  0  0  0
 49 53  1  0  0  0
 49 64  1  0  0  0
 49112  1  0  0  0
 50 51  1  0  0  0
 50113  1  0  0  0
 50114  1  0  0  0
 51 52  1  0  0  0
 51115  1  0  0  0
 51116  1  0  0  0
 52117  1  0  0  0
 52118  1  0  0  0
 53 54  1  0  0  0
 54 55  2  0  0  0
 54119  1  0  0  0
 55 57  1  0  0  0
 55120  1  0  0  0
 56 69  2  0  0  0
 57 58  2  0  0  0
 57121  1  0  0  0
 58122  1  0  0  0
 59 60  1  0  0  0
 59 61  1  0  0  0
 59 62  1  0  0  0
 60123  1  0  0  0
 60124  1  0  0  0
 60125  1  0  0  0
 61126  1  0  0  0
 61127  1  0  0  0
 61128  1  0  0  0
 62129  1  0  0  0
 62130  1  0  0  0
 62131  1  0  0  0
 63 65  1  0  0  0
 63132  1  0  0  0
 63133  1  0  0  0
 63134  1  0  0  0
 64135  1  0  0  0
 65136  1  0  0  0
 68 76  1  0  0  0
 71 73  1  0  0  0
 71 75  1  0  0  0
 71137  1  0  0  0
 71138  1  0  0  0
 72 74  1  0  0  0
 72 75  1  0  0  0
 72139  1  0  0  0
 72140  1  0  0  0
 73 77  1  0  0  0
 73141  1  0  0  0
 73142  1  0  0  0
 74 77  1  0  0  0
 74143  1  0  0  0
 74144  1  0  0  0
 75 76  1  0  0  0
 75145  1  0  0  0
 76146  1  0  0  0
 76147  1  0  0  0
M  ISO  4   1 100  68 101  76 101  77 100
M  END
> <chiral flag>
0

> <version>
0

> <s_m_source_file>
/data/baiqing/PycharmProjects/Reinvent-master-3.2/result/LINK_invent/BTK/process_docking_weight1_custom_product_contain_oxygen_bond_distance_aromatic_linkinvent_7_9_3/rearranged_h_0159.sdf

> <i_m_source_file_index>
80

> <r_mmod_Potential_Energy-OPLS-2005>
3558.36840820312

> <r_mmod_Stretch_Energy-OPLS-2005>
1375.01708984375

> <r_mmod_Bend_Energy-OPLS-2005>
961.027893066406

> <r_mmod_Torsional_Energy-OPLS-2005>
310.429077148438

> <r_mmod_Improper_Torsional_Energy-OPLS-2005>
10.2289934158325

> <r_mmod_Van_der_Waal_Energy-OPLS-2005>
121.921272277832

> <r_mmod_Electrostatic_Energy-OPLS-2005>
-266.876007080078

> <r_mmod_Solvation_Energy-OPLS-2005>
-210.197875976562

> <b_mmod_Minimization_Converged-OPLS-2005>
0

> <r_mmod_RMS_Derivative-OPLS-2005>
0.203677028417587

$$$$
81
                    3D
 Structure written by MMmdl.
156164  0  0  1  0            999 V2000
  -30.5266  -14.7660   20.4194 C   0  0  0  0  0  0
  -30.4542  -12.4611   19.4148 C   0  0  0  0  0  0
  -29.5023  -12.4861   18.1982 C   0  0  0  0  0  0
  -28.0341  -12.3080   18.6411 C   0  0  0  0  0  0
  -27.6509  -13.2025   19.8492 C   0  0  2  0  0  0
  -28.7072  -13.1000   20.9687 C   0  0  0  0  0  0
  -25.2647  -13.8098   20.5715 C   0  0  0  0  0  0
  -24.1863  -13.0404   20.9214 C   0  0  0  0  0  0
  -24.6389  -11.6880   20.8723 C   0  0  0  0  0  0
  -23.9010  -10.4284   21.0418 C   0  0  0  0  0  0
  -24.3586   -9.4211   21.9211 C   0  0  0  0  0  0
  -23.6297   -8.2235   22.0760 C   0  0  0  0  0  0
  -22.4288   -8.0235   21.3534 C   0  0  0  0  0  0
  -21.9913   -9.0215   20.4666 C   0  0  0  0  0  0
  -22.7189  -10.2130   20.3078 C   0  0  0  0  0  0
  -21.6851   -6.0735   22.5287 C   0  0  0  0  0  0
  -21.3995   -6.5639   23.8207 C   0  0  0  0  0  0
  -21.3653   -5.6772   24.9164 C   0  0  0  0  0  0
  -21.6052   -4.3042   24.7199 C   0  0  0  0  0  0
  -21.8825   -3.8136   23.4325 C   0  0  0  0  0  0
  -21.9208   -4.6971   22.3387 C   0  0  0  0  0  0
  -22.7936  -13.5252   21.1821 C   0  0  0  0  0  0
  -22.1694   -4.2163   21.0964 F   0  0  0  0  0  0
  -21.5654   -3.4505   25.7717 F   0  0  0  0  0  0
  -29.9922  -13.4979   20.3728 N   0  0  0  0  0  0
  -26.3011  -12.9265   20.3240 N   0  0  0  0  0  0
  -25.9303  -11.6451   20.5717 N   0  0  0  0  0  0
  -22.0470  -12.8277   22.0376 N   0  0  0  0  0  0
  -25.4355  -15.1823   20.4209 N   0  0  0  0  0  0
  -31.7343  -14.9217   20.1919 O   0  0  0  0  0  0
  -21.6638   -6.8853   21.4229 O   0  0  0  0  0  0
  -22.3660  -14.5529   20.6616 O   0  0  0  0  0  0
  -24.6323  -31.8507   23.2001 C   0  0  0  0  0  0
  -25.9120  -32.4760   23.8355 C   0  0  1  0  0  0
  -27.1992  -27.1822   20.1710 C   0  0  0  0  0  0
  -25.5919  -33.8574   24.2310 N   0  0  0  0  0  0
  -23.4396  -30.4752   21.5360 C   0  0  2  0  0  0
  -24.8825  -28.9227   20.1194 C   0  0  0  0  0  0
  -22.7533  -29.4560   22.4828 C   0  0  0  0  0  0
  -18.0310  -28.1427   22.8490 C   0  0  0  0  0  0
  -24.1450  -36.7240   23.2627 C   0  0  0  0  0  0
  -25.9908  -30.7426   21.3952 C   0  0  0  0  0  0
  -26.0585  -29.3647   20.7371 C   0  0  0  0  0  0
  -27.2151  -28.5106   20.7479 C   0  0  0  0  0  0
  -25.9729  -26.8283   19.5565 C   0  0  0  0  0  0
  -24.8505  -27.6661   19.5123 C   0  0  0  0  0  0
  -23.6673  -29.8226   20.1498 C   0  0  0  0  0  0
  -25.4058  -36.3094   24.0349 C   0  0  1  0  0  0
  -20.5912  -28.3722   23.1242 C   0  0  2  0  0  0
  -20.6786  -26.9444   22.5395 C   0  0  0  0  0  0
  -19.5744  -26.6447   21.5198 C   0  0  0  0  0  0
  -18.1937  -26.7983   22.1621 C   0  0  0  0  0  0
  -19.1569  -28.8890   23.2876 C   0  0  0  0  0  0
  -18.9490  -30.1477   23.8907 C   0  0  0  0  0  0
  -17.6491  -30.6630   24.0589 C   0  0  0  0  0  0
  -25.9052  -34.9442   23.5142 C   0  0  0  0  0  0
  -16.5368  -29.9125   23.6389 C   0  0  0  0  0  0
  -16.7299  -28.6544   23.0412 C   0  0  0  0  0  0
  -26.4495  -31.6637   25.0772 C   0  0  0  0  0  0
  -25.3720  -31.3791   26.1511 C   0  0  0  0  0  0
  -27.0355  -30.3042   24.6303 C   0  0  0  0  0  0
  -27.6062  -32.4374   25.7537 C   0  0  0  0  0  0
  -27.5604  -37.1718   24.8425 C   0  0  0  0  0  0
  -21.4217  -29.3029   22.3605 N   0  0  0  0  0  0
  -26.4214  -37.3814   23.9505 N   0  0  0  0  0  0
  -24.7077  -31.0408   22.1001 N   0  0  0  0  0  0
  -23.4203  -28.8048   23.2941 O   0  0  0  0  0  0
  -28.2992  -26.2758   20.2982 O   0  0  0  0  0  0
  -26.5609  -34.8903   22.4689 O   0  0  0  0  0  0
  -23.5480  -32.1329   23.7269 O   0  0  0  0  0  0
  -29.0750  -18.1872   19.7403 C   0  0  0  0  0  0
  -29.1579  -19.4803   20.4341 C   0  0  0  0  0  0
  -29.7020  -17.2153   20.5283 C   0  0  0  0  0  0
  -28.3352  -23.5114   20.5913 C   0  0  0  0  0  0
  -27.7283  -24.6121   18.4238 C   0  0  0  0  0  0
  -30.0382  -25.0128   19.2917 C   0  0  0  0  0  0
  -30.5120  -22.3105   20.7665 C   0  0  0  0  0  0
  -28.4921  -20.9203   20.1245 C   0  0  0  0  0  0
  -28.5526  -24.8724   19.7000 C   0  0  0  0  0  0
  -29.7592  -19.2244   21.5985 N   0  0  0  0  0  0
  -29.6157  -15.8164   20.4284 N   0  0  0  0  0  0
  -29.0833  -22.3206   20.4191 N   0  0  0  0  0  0
  -27.3288  -23.4777   21.3036 O   0  0  0  0  0  0
  -30.1047  -17.8523   21.6666 O   0  0  0  0  0  0
  -31.4780  -12.6342   19.0771 H   0  0  0  0  0  0
  -30.4529  -11.4663   19.8644 H   0  0  0  0  0  0
  -29.7673  -11.6976   17.4908 H   0  0  0  0  0  0
  -29.6130  -13.4255   17.6520 H   0  0  0  0  0  0
  -27.9021  -11.2574   18.9072 H   0  0  0  0  0  0
  -27.3471  -12.4802   17.8081 H   0  0  0  0  0  0
  -27.6530  -14.2220   19.4773 H   0  0  0  0  0  0
  -28.7627  -12.0878   21.3651 H   0  0  0  0  0  0
  -28.4436  -13.7371   21.8138 H   0  0  0  0  0  0
  -25.2756   -9.5719   22.4758 H   0  0  0  0  0  0
  -24.0023   -7.4631   22.7491 H   0  0  0  0  0  0
  -21.0856   -8.8741   19.8998 H   0  0  0  0  0  0
  -22.3643  -10.9674   19.6175 H   0  0  0  0  0  0
  -21.1945   -7.6153   23.9699 H   0  0  0  0  0  0
  -21.1489   -6.0512   25.9067 H   0  0  0  0  0  0
  -22.0611   -2.7611   23.2793 H   0  0  0  0  0  0
  -22.4063  -11.9946   22.4840 H   0  0  0  0  0  0
  -21.1079  -13.1388   22.2414 H   0  0  0  0  0  0
  -24.6726  -15.8253   20.5931 H   0  0  0  0  0  0
  -26.2508  -15.6418   20.0379 H   0  0  0  0  0  0
  -26.7148  -32.5395   23.1061 H   0  0  0  0  0  0
  -25.0089  -33.9709   25.0490 H   0  0  0  0  0  0
  -22.7402  -31.3037   21.3966 H   0  0  0  0  0  0
  -23.3807  -35.9490   23.3172 H   0  0  0  0  0  0
  -24.3625  -36.8985   22.2093 H   0  0  0  0  0  0
  -23.7072  -37.6318   23.6724 H   0  0  0  0  0  0
  -26.1433  -31.5024   20.6283 H   0  0  0  0  0  0
  -26.8582  -30.7842   22.0391 H   0  0  0  0  0  0
  -28.1124  -28.8502   21.2495 H   0  0  0  0  0  0
  -25.7825  -25.8659   19.1320 H   0  0  0  0  0  0
  -23.9468  -27.3051   19.0442 H   0  0  0  0  0  0
  -23.8397  -30.6072   19.4138 H   0  0  0  0  0  0
  -22.7797  -29.2808   19.8232 H   0  0  0  0  0  0
  -25.1248  -36.1909   25.0846 H   0  0  0  0  0  0
  -21.0005  -28.3288   24.1367 H   0  0  0  0  0  0
  -20.5662  -26.2323   23.3584 H   0  0  0  0  0  0
  -21.6641  -26.7483   22.1167 H   0  0  0  0  0  0
  -19.6863  -25.6375   21.1201 H   0  0  0  0  0  0
  -19.6657  -27.3284   20.6725 H   0  0  0  0  0  0
  -17.4190  -26.6736   21.4017 H   0  0  0  0  0  0
  -18.0326  -26.0155   22.9043 H   0  0  0  0  0  0
  -19.7953  -30.7289   24.2273 H   0  0  0  0  0  0
  -17.5063  -31.6305   24.5210 H   0  0  0  0  0  0
  -15.5373  -30.3023   23.7761 H   0  0  0  0  0  0
  -15.8690  -28.0870   22.7137 H   0  0  0  0  0  0
  -24.5917  -30.7113   25.7865 H   0  0  0  0  0  0
  -24.8865  -32.2957   26.4883 H   0  0  0  0  0  0
  -25.8052  -30.9040   27.0332 H   0  0  0  0  0  0
  -26.2966  -29.6765   24.1286 H   0  0  0  0  0  0
  -27.3981  -29.7350   25.4881 H   0  0  0  0  0  0
  -27.8920  -30.4316   23.9645 H   0  0  0  0  0  0
  -27.2721  -33.3725   26.2036 H   0  0  0  0  0  0
  -28.3926  -32.6823   25.0389 H   0  0  0  0  0  0
  -28.0662  -31.8512   26.5501 H   0  0  0  0  0  0
  -28.2443  -38.0184   24.7839 H   0  0  0  0  0  0
  -28.1278  -36.2768   24.5830 H   0  0  0  0  0  0
  -27.2409  -37.0893   25.8817 H   0  0  0  0  0  0
  -20.9413  -29.8792   21.6840 H   0  0  0  0  0  0
  -26.0093  -38.2844   24.1694 H   0  0  0  0  0  0
  -28.5645  -17.9941   18.8018 H   0  0  0  0  0  0
  -28.2749  -24.0529   17.6685 H   0  0  0  0  0  0
  -27.3992  -25.5283   17.9440 H   0  0  0  0  0  0
  -26.8439  -24.0154   18.6649 H   0  0  0  0  0  0
  -30.4492  -24.0852   18.8940 H   0  0  0  0  0  0
  -30.6582  -25.3082   20.1457 H   0  0  0  0  0  0
  -30.1672  -25.7503   18.5006 H   0  0  0  0  0  0
  -30.7295  -21.5434   21.5058 H   0  0  0  0  0  0
  -30.8071  -23.2419   21.2556 H   0  0  0  0  0  0
  -31.1535  -22.1337   19.8958 H   0  0  0  0  0  0
  -27.4971  -20.9154   20.5804 H   0  0  0  0  0  0
  -28.2992  -20.9471   19.0497 H   0  0  0  0  0  0
  -28.6658  -15.4792   20.4852 H   0  0  0  0  0  0
  1 25  1  0  0  0
  1 30  2  0  0  0
  1 81  1  0  0  0
  2  3  1  0  0  0
  2 25  1  0  0  0
  2 85  1  0  0  0
  2 86  1  0  0  0
  3  4  1  0  0  0
  3 87  1  0  0  0
  3 88  1  0  0  0
  4  5  1  0  0  0
  4 89  1  0  0  0
  4 90  1  0  0  0
  5  6  1  0  0  0
  5 26  1  0  0  0
  5 91  1  0  0  0
  6 25  1  0  0  0
  6 92  1  0  0  0
  6 93  1  0  0  0
  7  8  2  0  0  0
  7 26  1  0  0  0
  7 29  1  0  0  0
  8  9  1  0  0  0
  8 22  1  0  0  0
  9 10  1  0  0  0
  9 27  2  0  0  0
 10 11  2  0  0  0
 10 15  1  0  0  0
 11 12  1  0  0  0
 11 94  1  0  0  0
 12 13  2  0  0  0
 12 95  1  0  0  0
 13 14  1  0  0  0
 13 31  1  0  0  0
 14 15  2  0  0  0
 14 96  1  0  0  0
 15 97  1  0  0  0
 16 17  2  0  0  0
 16 21  1  0  0  0
 16 31  1  0  0  0
 17 18  1  0  0  0
 17 98  1  0  0  0
 18 19  2  0  0  0
 18 99  1  0  0  0
 19 20  1  0  0  0
 19 24  1  0  0  0
 20 21  2  0  0  0
 20100  1  0  0  0
 21 23  1  0  0  0
 22 28  1  0  0  0
 22 32  2  0  0  0
 26 27  1  0  0  0
 28101  1  0  0  0
 28102  1  0  0  0
 29103  1  0  0  0
 29104  1  0  0  0
 33 34  1  0  0  0
 33 66  1  0  0  0
 33 70  2  0  0  0
 34 36  1  0  0  0
 34 59  1  0  0  0
 34105  1  0  0  0
 35 44  2  0  0  0
 35 45  1  0  0  0
 35 68  1  0  0  0
 36 56  1  0  0  0
 36106  1  0  0  0
 37 39  1  0  0  0
 37 47  1  0  0  0
 37 66  1  0  0  0
 37107  1  0  0  0
 38 43  2  0  0  0
 38 46  1  0  0  0
 38 47  1  0  0  0
 39 64  1  0  0  0
 39 67  2  0  0  0
 40 52  1  0  0  0
 40 53  2  0  0  0
 40 58  1  0  0  0
 41108  1  0  0  0
 41109  1  0  0  0
 41110  1  0  0  0
 41 48  1  0  0  0
 42 43  1  0  0  0
 42 66  1  0  0  0
 42111  1  0  0  0
 42112  1  0  0  0
 43 44  1  0  0  0
 44113  1  0  0  0
 45 46  2  0  0  0
 45114  1  0  0  0
 46115  1  0  0  0
 47116  1  0  0  0
 47117  1  0  0  0
 48 56  1  0  0  0
 48 65  1  0  0  0
 48118  1  0  0  0
 49 50  1  0  0  0
 49 53  1  0  0  0
 49 64  1  0  0  0
 49119  1  0  0  0
 50 51  1  0  0  0
 50120  1  0  0  0
 50121  1  0  0  0
 51 52  1  0  0  0
 51122  1  0  0  0
 51123  1  0  0  0
 52124  1  0  0  0
 52125  1  0  0  0
 53 54  1  0  0  0
 54 55  2  0  0  0
 54126  1  0  0  0
 55 57  1  0  0  0
 55127  1  0  0  0
 56 69  2  0  0  0
 57 58  2  0  0  0
 57128  1  0  0  0
 58129  1  0  0  0
 59 60  1  0  0  0
 59 61  1  0  0  0
 59 62  1  0  0  0
 60130  1  0  0  0
 60131  1  0  0  0
 60132  1  0  0  0
 61133  1  0  0  0
 61134  1  0  0  0
 61135  1  0  0  0
 62136  1  0  0  0
 62137  1  0  0  0
 62138  1  0  0  0
 63 65  1  0  0  0
 63139  1  0  0  0
 63140  1  0  0  0
 63141  1  0  0  0
 64142  1  0  0  0
 65143  1  0  0  0
 68 79  1  0  0  0
 71 72  1  0  0  0
 71 73  2  0  0  0
 71144  1  0  0  0
 72 78  1  0  0  0
 72 80  2  0  0  0
 73 81  1  0  0  0
 73 84  1  0  0  0
 74 79  1  0  0  0
 74 82  1  0  0  0
 74 83  2  0  0  0
 75145  1  0  0  0
 75146  1  0  0  0
 75147  1  0  0  0
 75 79  1  0  0  0
 76 79  1  0  0  0
 76148  1  0  0  0
 76149  1  0  0  0
 76150  1  0  0  0
 77 82  1  0  0  0
 77151  1  0  0  0
 77152  1  0  0  0
 77153  1  0  0  0
 78 82  1  0  0  0
 78154  1  0  0  0
 78155  1  0  0  0
 80 84  1  0  0  0
 81156  1  0  0  0
M  ISO  4   1 100  68 101  79 101  81 100
M  END
> <chiral flag>
0

> <version>
0

> <s_m_source_file>
/data/baiqing/PycharmProjects/Reinvent-master-3.2/result/LINK_invent/BTK/process_docking_weight1_custom_product_contain_oxygen_bond_distance_aromatic_linkinvent_7_9_3/rearranged_h_0159.sdf

> <i_m_source_file_index>
81

> <r_mmod_Potential_Energy-OPLS-2005>
318.854400634766

> <r_mmod_Stretch_Energy-OPLS-2005>
162.339645385742

> <r_mmod_Bend_Energy-OPLS-2005>
245.288375854492

> <r_mmod_Torsional_Energy-OPLS-2005>
316.650024414062

> <r_mmod_Improper_Torsional_Energy-OPLS-2005>
15.2194290161133

> <r_mmod_Van_der_Waal_Energy-OPLS-2005>
136.424774169922

> <r_mmod_Electrostatic_Energy-OPLS-2005>
-422.168334960938

> <r_mmod_Solvation_Energy-OPLS-2005>
-254.422424316406

> <b_mmod_Minimization_Converged-OPLS-2005>
0

> <r_mmod_RMS_Derivative-OPLS-2005>
10.8367938995361

$$$$
82
                    3D
 Structure written by MMmdl.
162170  0  0  1  0            999 V2000
  -30.7400  -14.3856   20.6721 C   0  0  0  0  0  0
  -30.4206  -12.3000   19.3842 C   0  0  0  0  0  0
  -29.4784  -12.5150   18.1839 C   0  0  0  0  0  0
  -28.0017  -12.3806   18.6044 C   0  0  0  0  0  0
  -27.6637  -13.2014   19.8775 C   0  0  2  0  0  0
  -28.7044  -12.9281   20.9846 C   0  0  0  0  0  0
  -25.2579  -13.8172   20.5601 C   0  0  0  0  0  0
  -24.1848  -13.0458   20.9194 C   0  0  0  0  0  0
  -24.6387  -11.6926   20.8759 C   0  0  0  0  0  0
  -23.9057  -10.4307   21.0417 C   0  0  0  0  0  0
  -24.3606   -9.4209   21.9187 C   0  0  0  0  0  0
  -23.6289   -8.2239   22.0744 C   0  0  0  0  0  0
  -22.4269   -8.0278   21.3544 C   0  0  0  0  0  0
  -21.9908   -9.0253   20.4639 C   0  0  0  0  0  0
  -22.7229  -10.2135   20.3059 C   0  0  0  0  0  0
  -21.6849   -6.0736   22.5282 C   0  0  0  0  0  0
  -21.4003   -6.5635   23.8219 C   0  0  0  0  0  0
  -21.3656   -5.6783   24.9175 C   0  0  0  0  0  0
  -21.6050   -4.3050   24.7224 C   0  0  0  0  0  0
  -21.8824   -3.8141   23.4342 C   0  0  0  0  0  0
  -21.9193   -4.6961   22.3396 C   0  0  0  0  0  0
  -22.7877  -13.5257   21.1864 C   0  0  0  0  0  0
  -22.1663   -4.2150   21.0978 F   0  0  0  0  0  0
  -21.5632   -3.4526   25.7733 F   0  0  0  0  0  0
  -30.0403  -13.2442   20.4453 N   0  0  0  0  0  0
  -26.3029  -12.9334   20.3376 N   0  0  0  0  0  0
  -25.9314  -11.6498   20.5803 N   0  0  0  0  0  0
  -22.0508  -12.8239   22.0406 N   0  0  0  0  0  0
  -25.4267  -15.1869   20.3791 N   0  0  0  0  0  0
  -31.7891  -14.6681   20.0835 O   0  0  0  0  0  0
  -21.6639   -6.8867   21.4240 O   0  0  0  0  0  0
  -22.3560  -14.5555   20.6702 O   0  0  0  0  0  0
  -24.6120  -31.8696   23.2111 C   0  0  0  0  0  0
  -25.9024  -32.4822   23.8388 C   0  0  1  0  0  0
  -27.2305  -27.4410   20.0666 C   0  0  0  0  0  0
  -25.5916  -33.8622   24.2336 N   0  0  0  0  0  0
  -23.4006  -30.4943   21.5519 C   0  0  2  0  0  0
  -24.8430  -28.9620   20.1151 C   0  0  0  0  0  0
  -22.7401  -29.4659   22.4981 C   0  0  0  0  0  0
  -18.0275  -28.1373   22.8492 C   0  0  0  0  0  0
  -24.1481  -36.7289   23.2644 C   0  0  0  0  0  0
  -25.9296  -30.8300   21.3672 C   0  0  0  0  0  0
  -26.0041  -29.4643   20.7148 C   0  0  0  0  0  0
  -27.1974  -28.7048   20.7024 C   0  0  0  0  0  0
  -26.0434  -26.9511   19.4757 C   0  0  0  0  0  0
  -24.8548  -27.7006   19.5011 C   0  0  0  0  0  0
  -23.6077  -29.8311   20.1652 C   0  0  0  0  0  0
  -25.4108  -36.3119   24.0358 C   0  0  1  0  0  0
  -20.5871  -28.3653   23.1320 C   0  0  2  0  0  0
  -20.6777  -26.9394   22.5411 C   0  0  0  0  0  0
  -19.5760  -26.6383   21.5211 C   0  0  0  0  0  0
  -18.1934  -26.7918   22.1621 C   0  0  0  0  0  0
  -19.1532  -28.8823   23.2910 C   0  0  0  0  0  0
  -18.9464  -30.1438   23.8903 C   0  0  0  0  0  0
  -17.6468  -30.6588   24.0552 C   0  0  0  0  0  0
  -25.9045  -34.9485   23.5141 C   0  0  0  0  0  0
  -16.5351  -29.9094   23.6321 C   0  0  0  0  0  0
  -16.7267  -28.6511   23.0333 C   0  0  0  0  0  0
  -26.4472  -31.6591   25.0690 C   0  0  0  0  0  0
  -25.3755  -31.3685   26.1449 C   0  0  0  0  0  0
  -27.0288  -30.3038   24.6027 C   0  0  0  0  0  0
  -27.6034  -32.4312   25.7464 C   0  0  0  0  0  0
  -27.5586  -37.1802   24.8486 C   0  0  0  0  0  0
  -21.4131  -29.3034   22.3721 N   0  0  0  0  0  0
  -26.4291  -37.3801   23.9432 N   0  0  0  0  0  0
  -24.6662  -31.0786   22.1023 N   0  0  0  0  0  0
  -23.4179  -28.8194   23.3008 O   0  0  0  0  0  0
  -28.4084  -26.7210   20.0545 O   0  0  0  0  0  0
  -26.5568  -34.8931   22.4685 O   0  0  0  0  0  0
  -23.5317  -32.1448   23.7520 O   0  0  0  0  0  0
  -28.5173  -19.3974   21.4576 C   0  0  0  0  0  0
  -28.7633  -18.0757   21.9666 C   0  0  0  0  0  0
  -30.0661  -17.6681   21.7418 C   0  0  0  0  0  0
  -29.6068  -19.9934   20.8674 C   0  0  0  0  0  0
  -27.7533  -17.2694   22.6679 C   0  0  0  0  0  0
  -28.4090  -24.3954   19.1191 C   0  0  0  0  0  0
  -29.0752  -22.3593   20.6004 C   0  0  0  0  0  0
  -25.3410  -17.0360   23.5697 C   0  0  0  0  0  0
  -30.7899  -16.4113   22.1529 C   0  0  0  0  0  0
  -26.3481  -17.8838   22.7703 C   0  0  0  0  0  0
  -29.5237  -23.6287   19.8451 C   0  0  0  0  0  0
  -28.6860  -25.8906   18.9159 C   0  0  0  0  0  0
  -27.3705  -23.8536   18.6261 N   0  0  0  0  0  0
  -29.7391  -21.2244   20.3059 N   0  0  0  0  0  0
  -30.2122  -15.1870   21.6061 N   0  0  0  0  0  0
  -27.9534  -16.1561   23.1636 O   0  0  0  0  0  0
  -28.1801  -22.4158   21.4502 O   0  0  0  0  0  0
  -30.9569  -18.8919   20.8714 S   0  0  0  0  0  0
  -31.4601  -12.4179   19.0735 H   0  0  0  0  0  0
  -30.3390  -11.2775   19.7532 H   0  0  0  0  0  0
  -29.7051  -11.7953   17.3961 H   0  0  0  0  0  0
  -29.6490  -13.5010   17.7512 H   0  0  0  0  0  0
  -27.7987  -11.3241   18.7809 H   0  0  0  0  0  0
  -27.3474  -12.6768   17.7825 H   0  0  0  0  0  0
  -27.7257  -14.2567   19.6119 H   0  0  0  0  0  0
  -28.6772  -11.8748   21.2687 H   0  0  0  0  0  0
  -28.4513  -13.4714   21.8952 H   0  0  0  0  0  0
  -25.2745   -9.5683   22.4767 H   0  0  0  0  0  0
  -24.0001   -7.4620   22.7452 H   0  0  0  0  0  0
  -21.0843   -8.8762   19.8937 H   0  0  0  0  0  0
  -22.3685  -10.9670   19.6165 H   0  0  0  0  0  0
  -21.1985   -7.6142   23.9721 H   0  0  0  0  0  0
  -21.1474   -6.0509   25.9084 H   0  0  0  0  0  0
  -22.0603   -2.7606   23.2840 H   0  0  0  0  0  0
  -22.4105  -11.9888   22.4792 H   0  0  0  0  0  0
  -21.1130  -13.1272   22.2607 H   0  0  0  0  0  0
  -24.6421  -15.8272   20.4261 H   0  0  0  0  0  0
  -26.2578  -15.6039   19.9814 H   0  0  0  0  0  0
  -26.7069  -32.5519   23.1131 H   0  0  0  0  0  0
  -25.0151  -33.9794   25.0534 H   0  0  0  0  0  0
  -22.6919  -31.3134   21.4119 H   0  0  0  0  0  0
  -23.3769  -35.9596   23.3328 H   0  0  0  0  0  0
  -24.3606  -36.8860   22.2058 H   0  0  0  0  0  0
  -23.7182  -37.6488   23.6612 H   0  0  0  0  0  0
  -26.0447  -31.5943   20.5983 H   0  0  0  0  0  0
  -26.8170  -30.8803   21.9854 H   0  0  0  0  0  0
  -28.0964  -29.0889   21.1656 H   0  0  0  0  0  0
  -26.0121  -25.9865   18.9952 H   0  0  0  0  0  0
  -23.9580  -27.3057   19.0434 H   0  0  0  0  0  0
  -23.7214  -30.6074   19.4085 H   0  0  0  0  0  0
  -22.7253  -29.2602   19.8669 H   0  0  0  0  0  0
  -25.1282  -36.1995   25.0848 H   0  0  0  0  0  0
  -20.9987  -28.3200   24.1435 H   0  0  0  0  0  0
  -20.5696  -26.2258   23.3601 H   0  0  0  0  0  0
  -21.6636  -26.7449   22.1178 H   0  0  0  0  0  0
  -19.6945  -25.6302   21.1215 H   0  0  0  0  0  0
  -19.6702  -27.3209   20.6756 H   0  0  0  0  0  0
  -17.4209  -26.6665   21.4015 H   0  0  0  0  0  0
  -18.0337  -26.0049   22.9010 H   0  0  0  0  0  0
  -19.7944  -30.7256   24.2264 H   0  0  0  0  0  0
  -17.5028  -31.6262   24.5172 H   0  0  0  0  0  0
  -15.5350  -30.2999   23.7661 H   0  0  0  0  0  0
  -15.8668  -28.0855   22.7026 H   0  0  0  0  0  0
  -24.5954  -30.7010   25.7803 H   0  0  0  0  0  0
  -24.8917  -32.2830   26.4879 H   0  0  0  0  0  0
  -25.8141  -30.8887   27.0208 H   0  0  0  0  0  0
  -26.2812  -29.6812   24.1114 H   0  0  0  0  0  0
  -27.4122  -29.7251   25.4431 H   0  0  0  0  0  0
  -27.8611  -30.4368   23.9123 H   0  0  0  0  0  0
  -27.2659  -33.3626   26.2027 H   0  0  0  0  0  0
  -28.3859  -32.6868   25.0311 H   0  0  0  0  0  0
  -28.0675  -31.8447   26.5401 H   0  0  0  0  0  0
  -28.2598  -38.0106   24.7541 H   0  0  0  0  0  0
  -28.1082  -36.2637   24.6288 H   0  0  0  0  0  0
  -27.2316  -37.1405   25.8892 H   0  0  0  0  0  0
  -20.9289  -29.8767   21.6960 H   0  0  0  0  0  0
  -26.0199  -38.2883   24.1444 H   0  0  0  0  0  0
  -27.5541  -19.8791   21.5473 H   0  0  0  0  0  0
  -24.3699  -17.5296   23.6089 H   0  0  0  0  0  0
  -25.6763  -16.8859   24.5966 H   0  0  0  0  0  0
  -25.1927  -16.0545   23.1173 H   0  0  0  0  0  0
  -30.7686  -16.3224   23.2405 H   0  0  0  0  0  0
  -31.8470  -16.4856   21.8928 H   0  0  0  0  0  0
  -25.9719  -18.0404   21.7592 H   0  0  0  0  0  0
  -26.4343  -18.8655   23.2353 H   0  0  0  0  0  0
  -30.0046  -24.2945   20.5621 H   0  0  0  0  0  0
  -30.2888  -23.3711   19.1126 H   0  0  0  0  0  0
  -28.1709  -26.2471   18.0215 H   0  0  0  0  0  0
  -29.7444  -26.0090   18.6847 H   0  0  0  0  0  0
  -27.3265  -22.8551   18.8023 H   0  0  0  0  0  0
  -30.5036  -21.3263   19.6511 H   0  0  0  0  0  0
  -29.3499  -14.8804   22.0339 H   0  0  0  0  0  0
  1 25  1  0  0  0
  1 30  2  0  0  0
  1 85  1  0  0  0
  2  3  1  0  0  0
  2 25  1  0  0  0
  2 89  1  0  0  0
  2 90  1  0  0  0
  3  4  1  0  0  0
  3 91  1  0  0  0
  3 92  1  0  0  0
  4  5  1  0  0  0
  4 93  1  0  0  0
  4 94  1  0  0  0
  5  6  1  0  0  0
  5 26  1  0  0  0
  5 95  1  0  0  0
  6 25  1  0  0  0
  6 96  1  0  0  0
  6 97  1  0  0  0
  7  8  2  0  0  0
  7 26  1  0  0  0
  7 29  1  0  0  0
  8  9  1  0  0  0
  8 22  1  0  0  0
  9 10  1  0  0  0
  9 27  2  0  0  0
 10 11  2  0  0  0
 10 15  1  0  0  0
 11 12  1  0  0  0
 11 98  1  0  0  0
 12 13  2  0  0  0
 12 99  1  0  0  0
 13 14  1  0  0  0
 13 31  1  0  0  0
 14 15  2  0  0  0
 14100  1  0  0  0
 15101  1  0  0  0
 16 17  2  0  0  0
 16 21  1  0  0  0
 16 31  1  0  0  0
 17 18  1  0  0  0
 17102  1  0  0  0
 18 19  2  0  0  0
 18103  1  0  0  0
 19 20  1  0  0  0
 19 24  1  0  0  0
 20 21  2  0  0  0
 20104  1  0  0  0
 21 23  1  0  0  0
 22 28  1  0  0  0
 22 32  2  0  0  0
 26 27  1  0  0  0
 28105  1  0  0  0
 28106  1  0  0  0
 29107  1  0  0  0
 29108  1  0  0  0
 33 34  1  0  0  0
 33 66  1  0  0  0
 33 70  2  0  0  0
 34 36  1  0  0  0
 34 59  1  0  0  0
 34109  1  0  0  0
 35 44  2  0  0  0
 35 45  1  0  0  0
 35 68  1  0  0  0
 36 56  1  0  0  0
 36110  1  0  0  0
 37 39  1  0  0  0
 37 47  1  0  0  0
 37 66  1  0  0  0
 37111  1  0  0  0
 38 43  2  0  0  0
 38 46  1  0  0  0
 38 47  1  0  0  0
 39 64  1  0  0  0
 39 67  2  0  0  0
 40 52  1  0  0  0
 40 53  2  0  0  0
 40 58  1  0  0  0
 41112  1  0  0  0
 41113  1  0  0  0
 41114  1  0  0  0
 41 48  1  0  0  0
 42 43  1  0  0  0
 42 66  1  0  0  0
 42115  1  0  0  0
 42116  1  0  0  0
 43 44  1  0  0  0
 44117  1  0  0  0
 45 46  2  0  0  0
 45118  1  0  0  0
 46119  1  0  0  0
 47120  1  0  0  0
 47121  1  0  0  0
 48 56  1  0  0  0
 48 65  1  0  0  0
 48122  1  0  0  0
 49 50  1  0  0  0
 49 53  1  0  0  0
 49 64  1  0  0  0
 49123  1  0  0  0
 50 51  1  0  0  0
 50124  1  0  0  0
 50125  1  0  0  0
 51 52  1  0  0  0
 51126  1  0  0  0
 51127  1  0  0  0
 52128  1  0  0  0
 52129  1  0  0  0
 53 54  1  0  0  0
 54 55  2  0  0  0
 54130  1  0  0  0
 55 57  1  0  0  0
 55131  1  0  0  0
 56 69  2  0  0  0
 57 58  2  0  0  0
 57132  1  0  0  0
 58133  1  0  0  0
 59 60  1  0  0  0
 59 61  1  0  0  0
 59 62  1  0  0  0
 60134  1  0  0  0
 60135  1  0  0  0
 60136  1  0  0  0
 61137  1  0  0  0
 61138  1  0  0  0
 61139  1  0  0  0
 62140  1  0  0  0
 62141  1  0  0  0
 62142  1  0  0  0
 63 65  1  0  0  0
 63143  1  0  0  0
 63144  1  0  0  0
 63145  1  0  0  0
 64146  1  0  0  0
 65147  1  0  0  0
 68 82  1  0  0  0
 71 72  1  0  0  0
 71 74  2  0  0  0
 71148  1  0  0  0
 72 73  2  0  0  0
 72 75  1  0  0  0
 73 79  1  0  0  0
 73 88  1  0  0  0
 74 84  1  0  0  0
 74 88  1  0  0  0
 75 80  1  0  0  0
 75 86  2  0  0  0
 76 81  1  0  0  0
 76 82  1  0  0  0
 76 83  2  0  0  0
 77 81  1  0  0  0
 77 84  1  0  0  0
 77 87  2  0  0  0
 78 80  1  0  0  0
 78149  1  0  0  0
 78150  1  0  0  0
 78151  1  0  0  0
 79 85  1  0  0  0
 79152  1  0  0  0
 79153  1  0  0  0
 80154  1  0  0  0
 80155  1  0  0  0
 81156  1  0  0  0
 81157  1  0  0  0
 82158  1  0  0  0
 82159  1  0  0  0
 83160  1  0  0  0
 84161  1  0  0  0
 85162  1  0  0  0
M  ISO  4   1 100  68 101  82 101  85 100
M  END
> <chiral flag>
0

> <version>
0

> <s_m_source_file>
/data/baiqing/PycharmProjects/Reinvent-master-3.2/result/LINK_invent/BTK/process_docking_weight1_custom_product_contain_oxygen_bond_distance_aromatic_linkinvent_7_9_3/rearranged_h_0159.sdf

> <i_m_source_file_index>
82

> <r_mmod_Potential_Energy-OPLS-2005>
-149.373901367188

> <r_mmod_Stretch_Energy-OPLS-2005>
36.1637344360352

> <r_mmod_Bend_Energy-OPLS-2005>
107.388450622559

> <r_mmod_Torsional_Energy-OPLS-2005>
225.051498413086

> <r_mmod_Improper_Torsional_Energy-OPLS-2005>
3.11895871162415

> <r_mmod_Van_der_Waal_Energy-OPLS-2005>
136.069320678711

> <r_mmod_Electrostatic_Energy-OPLS-2005>
-427.269866943359

> <r_mmod_Solvation_Energy-OPLS-2005>
-238.436584472656

> <b_mmod_Minimization_Converged-OPLS-2005>
0

> <r_mmod_RMS_Derivative-OPLS-2005>
2.45191216468811

$$$$
83
                    3D
 Structure written by MMmdl.
156165  0  0  1  0            999 V2000
  -30.5962  -14.7207   20.4599 C   0  0  0  0  0  0
  -30.4348  -12.4319   19.4844 C   0  0  0  0  0  0
  -29.5147  -12.5133   18.2444 C   0  0  0  0  0  0
  -28.0377  -12.3466   18.6538 C   0  0  0  0  0  0
  -27.6485  -13.2270   19.8696 C   0  0  2  0  0  0
  -28.6916  -13.1283   21.0053 C   0  0  0  0  0  0
  -25.2527  -13.8185   20.5744 C   0  0  0  0  0  0
  -24.1801  -13.0440   20.9223 C   0  0  0  0  0  0
  -24.6379  -11.6913   20.8766 C   0  0  0  0  0  0
  -23.9049  -10.4293   21.0416 C   0  0  0  0  0  0
  -24.3602   -9.4213   21.9189 C   0  0  0  0  0  0
  -23.6276   -8.2244   22.0762 C   0  0  0  0  0  0
  -22.4259   -8.0288   21.3555 C   0  0  0  0  0  0
  -21.9890   -9.0250   20.4662 C   0  0  0  0  0  0
  -22.7217  -10.2135   20.3061 C   0  0  0  0  0  0
  -21.6854   -6.0739   22.5273 C   0  0  0  0  0  0
  -21.4028   -6.5637   23.8215 C   0  0  0  0  0  0
  -21.3672   -5.6788   24.9172 C   0  0  0  0  0  0
  -21.6040   -4.3048   24.7227 C   0  0  0  0  0  0
  -21.8807   -3.8144   23.4351 C   0  0  0  0  0  0
  -21.9192   -4.6957   22.3402 C   0  0  0  0  0  0
  -22.7819  -13.5223   21.1875 C   0  0  0  0  0  0
  -22.1656   -4.2152   21.0985 F   0  0  0  0  0  0
  -21.5619   -3.4532   25.7743 F   0  0  0  0  0  0
  -30.0014  -13.4784   20.4385 N   0  0  0  0  0  0
  -26.2965  -12.9388   20.3374 N   0  0  0  0  0  0
  -25.9315  -11.6529   20.5788 N   0  0  0  0  0  0
  -22.0462  -12.8220   22.0442 N   0  0  0  0  0  0
  -25.4199  -15.1916   20.4199 N   0  0  0  0  0  0
  -31.7563  -14.8525   20.0528 O   0  0  0  0  0  0
  -21.6633   -6.8876   21.4243 O   0  0  0  0  0  0
  -22.3510  -14.5537   20.6730 O   0  0  0  0  0  0
  -24.6317  -31.8554   23.2003 C   0  0  0  0  0  0
  -25.9136  -32.4760   23.8339 C   0  0  1  0  0  0
  -27.2199  -27.2699   20.1189 C   0  0  0  0  0  0
  -25.5942  -33.8557   24.2267 N   0  0  0  0  0  0
  -23.4285  -30.4809   21.5424 C   0  0  2  0  0  0
  -24.8754  -28.9334   20.1087 C   0  0  0  0  0  0
  -22.7509  -29.4599   22.4892 C   0  0  0  0  0  0
  -18.0300  -28.1387   22.8475 C   0  0  0  0  0  0
  -24.1483  -36.7288   23.2637 C   0  0  0  0  0  0
  -25.9760  -30.7699   21.3817 C   0  0  0  0  0  0
  -26.0482  -29.3953   20.7204 C   0  0  0  0  0  0
  -27.2220  -28.5746   20.7172 C   0  0  0  0  0  0
  -26.0221  -26.8817   19.4729 C   0  0  0  0  0  0
  -24.8665  -27.6836   19.4759 C   0  0  0  0  0  0
  -23.6498  -29.8230   20.1556 C   0  0  0  0  0  0
  -25.4105  -36.3067   24.0327 C   0  0  1  0  0  0
  -20.5903  -28.3692   23.1261 C   0  0  2  0  0  0
  -20.6789  -26.9407   22.5406 C   0  0  0  0  0  0
  -19.5765  -26.6380   21.5209 C   0  0  0  0  0  0
  -18.1944  -26.7931   22.1618 C   0  0  0  0  0  0
  -19.1553  -28.8856   23.2874 C   0  0  0  0  0  0
  -18.9477  -30.1452   23.8901 C   0  0  0  0  0  0
  -17.6475  -30.6579   24.0568 C   0  0  0  0  0  0
  -25.9051  -34.9442   23.5097 C   0  0  0  0  0  0
  -16.5367  -29.9081   23.6326 C   0  0  0  0  0  0
  -16.7288  -28.6506   23.0339 C   0  0  0  0  0  0
  -26.4496  -31.6586   25.0731 C   0  0  0  0  0  0
  -25.3725  -31.3756   26.1466 C   0  0  0  0  0  0
  -27.0338  -30.2997   24.6230 C   0  0  0  0  0  0
  -27.6036  -32.4327   25.7518 C   0  0  0  0  0  0
  -27.5570  -37.1805   24.8458 C   0  0  0  0  0  0
  -21.4216  -29.3037   22.3638 N   0  0  0  0  0  0
  -26.4276  -37.3770   23.9410 N   0  0  0  0  0  0
  -24.6976  -31.0519   22.0981 N   0  0  0  0  0  0
  -23.4213  -28.8125   23.2973 O   0  0  0  0  0  0
  -28.3106  -26.3684   20.1842 O   0  0  0  0  0  0
  -26.5616  -34.8913   22.4664 O   0  0  0  0  0  0
  -23.5460  -32.1368   23.7301 O   0  0  0  0  0  0
  -28.5941  -18.0487   18.1041 C   0  0  0  0  0  0
  -28.6945  -19.3318   18.6628 C   0  0  0  0  0  0
  -29.0352  -16.9295   18.8321 C   0  0  0  0  0  0
  -29.2289  -19.4932   19.9547 C   0  0  0  0  0  0
  -29.5767  -17.0747   20.1264 C   0  0  0  0  0  0
  -29.3316  -20.9515   20.5207 C   0  0  0  0  0  0
  -28.7436  -22.2466   19.7797 C   0  0  0  0  0  0
  -29.1533  -23.5493   21.8648 C   0  0  0  0  0  0
  -30.1736  -22.4464   22.2252 C   0  0  0  0  0  0
  -29.0553  -23.7173   20.3491 C   0  0  2  0  0  0
  -28.0547  -24.9126   19.9222 C   0  0  0  0  0  0
  -29.6460  -18.3590   20.6637 N   0  0  0  0  0  0
  -29.9038  -21.1234   21.6562 N   0  0  0  0  0  0
  -29.8311  -15.8093   20.8402 N   0  0  0  0  0  0
  -31.4793  -12.5471   19.1882 H   0  0  0  0  0  0
  -30.3666  -11.4458   19.9474 H   0  0  0  0  0  0
  -29.7878  -11.7482   17.5175 H   0  0  0  0  0  0
  -29.6545  -13.4710   17.7397 H   0  0  0  0  0  0
  -27.8836  -11.2951   18.8992 H   0  0  0  0  0  0
  -27.3814  -12.5627   17.8104 H   0  0  0  0  0  0
  -27.6506  -14.2554   19.5127 H   0  0  0  0  0  0
  -28.7154  -12.1199   21.4226 H   0  0  0  0  0  0
  -28.4251  -13.7879   21.8322 H   0  0  0  0  0  0
  -25.2745   -9.5680   22.4757 H   0  0  0  0  0  0
  -24.0001   -7.4624   22.7451 H   0  0  0  0  0  0
  -21.0831   -8.8756   19.8955 H   0  0  0  0  0  0
  -22.3675  -10.9665   19.6168 H   0  0  0  0  0  0
  -21.2040   -7.6143   23.9723 H   0  0  0  0  0  0
  -21.1508   -6.0519   25.9077 H   0  0  0  0  0  0
  -22.0582   -2.7603   23.2843 H   0  0  0  0  0  0
  -22.4078  -11.9904   22.4865 H   0  0  0  0  0  0
  -21.1089  -13.1265   22.2661 H   0  0  0  0  0  0
  -24.6449  -15.8365   20.5335 H   0  0  0  0  0  0
  -26.2593  -15.6427   20.0777 H   0  0  0  0  0  0
  -26.7210  -32.5412   23.1081 H   0  0  0  0  0  0
  -25.0094  -33.9693   25.0418 H   0  0  0  0  0  0
  -22.7256  -31.3041   21.3984 H   0  0  0  0  0  0
  -23.3740  -35.9628   23.3297 H   0  0  0  0  0  0
  -24.3574  -36.8909   22.2051 H   0  0  0  0  0  0
  -23.7247  -37.6493   23.6665 H   0  0  0  0  0  0
  -26.1188  -31.5334   20.6155 H   0  0  0  0  0  0
  -26.8518  -30.8145   22.0175 H   0  0  0  0  0  0
  -28.1166  -28.9211   21.2165 H   0  0  0  0  0  0
  -25.9398  -25.9313   18.9686 H   0  0  0  0  0  0
  -23.9701  -27.3241   18.9898 H   0  0  0  0  0  0
  -23.7890  -30.6055   19.4084 H   0  0  0  0  0  0
  -22.7663  -29.2669   19.8368 H   0  0  0  0  0  0
  -25.1288  -36.1908   25.0820 H   0  0  0  0  0  0
  -21.0007  -28.3273   24.1377 H   0  0  0  0  0  0
  -20.5679  -26.2297   23.3610 H   0  0  0  0  0  0
  -21.6659  -26.7421   22.1207 H   0  0  0  0  0  0
  -19.6922  -25.6291   21.1239 H   0  0  0  0  0  0
  -19.6702  -27.3186   20.6737 H   0  0  0  0  0  0
  -17.4210  -26.6660   21.4030 H   0  0  0  0  0  0
  -18.0351  -26.0082   22.9025 H   0  0  0  0  0  0
  -19.7953  -30.7265   24.2277 H   0  0  0  0  0  0
  -17.5031  -31.6255   24.5176 H   0  0  0  0  0  0
  -15.5370  -30.2981   23.7660 H   0  0  0  0  0  0
  -15.8690  -28.0834   22.7040 H   0  0  0  0  0  0
  -24.5877  -30.7123   25.7820 H   0  0  0  0  0  0
  -24.8950  -32.2941   26.4891 H   0  0  0  0  0  0
  -25.8051  -30.8942   27.0246 H   0  0  0  0  0  0
  -26.2924  -29.6751   24.1239 H   0  0  0  0  0  0
  -27.3990  -29.7260   25.4757 H   0  0  0  0  0  0
  -27.8814  -30.4261   23.9491 H   0  0  0  0  0  0
  -27.2621  -33.3614   26.2103 H   0  0  0  0  0  0
  -28.3854  -32.6912   25.0364 H   0  0  0  0  0  0
  -28.0696  -31.8454   26.5442 H   0  0  0  0  0  0
  -28.2587  -38.0102   24.7507 H   0  0  0  0  0  0
  -28.1070  -36.2640   24.6276 H   0  0  0  0  0  0
  -27.2302  -37.1441   25.8864 H   0  0  0  0  0  0
  -20.9394  -29.8775   21.6867 H   0  0  0  0  0  0
  -26.0151  -38.2840   24.1427 H   0  0  0  0  0  0
  -28.1618  -17.9197   17.1223 H   0  0  0  0  0  0
  -28.3510  -20.1771   18.0845 H   0  0  0  0  0  0
  -28.9138  -15.9506   18.3901 H   0  0  0  0  0  0
  -27.6626  -22.1175   19.7528 H   0  0  0  0  0  0
  -29.0596  -22.2185   18.7367 H   0  0  0  0  0  0
  -29.4672  -24.4903   22.3160 H   0  0  0  0  0  0
  -28.1740  -23.3203   22.2881 H   0  0  0  0  0  0
  -30.2083  -22.3553   23.3117 H   0  0  0  0  0  0
  -31.1752  -22.7668   21.9305 H   0  0  0  0  0  0
  -30.0468  -23.9955   19.9866 H   0  0  0  0  0  0
  -27.0980  -24.6548   20.3783 H   0  0  0  0  0  0
  -27.9110  -24.8229   18.8446 H   0  0  0  0  0  0
  -29.0510  -15.5346   21.4156 H   0  0  0  0  0  0
  1 25  1  0  0  0
  1 30  2  0  0  0
  1 84  1  0  0  0
  2  3  1  0  0  0
  2 25  1  0  0  0
  2 85  1  0  0  0
  2 86  1  0  0  0
  3  4  1  0  0  0
  3 87  1  0  0  0
  3 88  1  0  0  0
  4  5  1  0  0  0
  4 89  1  0  0  0
  4 90  1  0  0  0
  5  6  1  0  0  0
  5 26  1  0  0  0
  5 91  1  0  0  0
  6 25  1  0  0  0
  6 92  1  0  0  0
  6 93  1  0  0  0
  7  8  2  0  0  0
  7 26  1  0  0  0
  7 29  1  0  0  0
  8  9  1  0  0  0
  8 22  1  0  0  0
  9 10  1  0  0  0
  9 27  2  0  0  0
 10 11  2  0  0  0
 10 15  1  0  0  0
 11 12  1  0  0  0
 11 94  1  0  0  0
 12 13  2  0  0  0
 12 95  1  0  0  0
 13 14  1  0  0  0
 13 31  1  0  0  0
 14 15  2  0  0  0
 14 96  1  0  0  0
 15 97  1  0  0  0
 16 17  2  0  0  0
 16 21  1  0  0  0
 16 31  1  0  0  0
 17 18  1  0  0  0
 17 98  1  0  0  0
 18 19  2  0  0  0
 18 99  1  0  0  0
 19 20  1  0  0  0
 19 24  1  0  0  0
 20 21  2  0  0  0
 20100  1  0  0  0
 21 23  1  0  0  0
 22 28  1  0  0  0
 22 32  2  0  0  0
 26 27  1  0  0  0
 28101  1  0  0  0
 28102  1  0  0  0
 29103  1  0  0  0
 29104  1  0  0  0
 33 34  1  0  0  0
 33 66  1  0  0  0
 33 70  2  0  0  0
 34 36  1  0  0  0
 34 59  1  0  0  0
 34105  1  0  0  0
 35 44  2  0  0  0
 35 45  1  0  0  0
 35 68  1  0  0  0
 36 56  1  0  0  0
 36106  1  0  0  0
 37 39  1  0  0  0
 37 47  1  0  0  0
 37 66  1  0  0  0
 37107  1  0  0  0
 38 43  2  0  0  0
 38 46  1  0  0  0
 38 47  1  0  0  0
 39 64  1  0  0  0
 39 67  2  0  0  0
 40 52  1  0  0  0
 40 53  2  0  0  0
 40 58  1  0  0  0
 41108  1  0  0  0
 41109  1  0  0  0
 41110  1  0  0  0
 41 48  1  0  0  0
 42 43  1  0  0  0
 42 66  1  0  0  0
 42111  1  0  0  0
 42112  1  0  0  0
 43 44  1  0  0  0
 44113  1  0  0  0
 45 46  2  0  0  0
 45114  1  0  0  0
 46115  1  0  0  0
 47116  1  0  0  0
 47117  1  0  0  0
 48 56  1  0  0  0
 48 65  1  0  0  0
 48118  1  0  0  0
 49 50  1  0  0  0
 49 53  1  0  0  0
 49 64  1  0  0  0
 49119  1  0  0  0
 50 51  1  0  0  0
 50120  1  0  0  0
 50121  1  0  0  0
 51 52  1  0  0  0
 51122  1  0  0  0
 51123  1  0  0  0
 52124  1  0  0  0
 52125  1  0  0  0
 53 54  1  0  0  0
 54 55  2  0  0  0
 54126  1  0  0  0
 55 57  1  0  0  0
 55127  1  0  0  0
 56 69  2  0  0  0
 57 58  2  0  0  0
 57128  1  0  0  0
 58129  1  0  0  0
 59 60  1  0  0  0
 59 61  1  0  0  0
 59 62  1  0  0  0
 60130  1  0  0  0
 60131  1  0  0  0
 60132  1  0  0  0
 61133  1  0  0  0
 61134  1  0  0  0
 61135  1  0  0  0
 62136  1  0  0  0
 62137  1  0  0  0
 62138  1  0  0  0
 63 65  1  0  0  0
 63139  1  0  0  0
 63140  1  0  0  0
 63141  1  0  0  0
 64142  1  0  0  0
 65143  1  0  0  0
 68 81  1  0  0  0
 71 72  2  0  0  0
 71 73  1  0  0  0
 71144  1  0  0  0
 72 74  1  0  0  0
 72145  1  0  0  0
 73 75  2  0  0  0
 73146  1  0  0  0
 74 76  1  0  0  0
 74 82  2  0  0  0
 75 82  1  0  0  0
 75 84  1  0  0  0
 76 77  1  0  0  0
 76 83  2  0  0  0
 77 80  1  0  0  0
 77147  1  0  0  0
 77148  1  0  0  0
 78 79  1  0  0  0
 78 80  1  0  0  0
 78149  1  0  0  0
 78150  1  0  0  0
 79 83  1  0  0  0
 79151  1  0  0  0
 79152  1  0  0  0
 80 81  1  0  0  0
 80153  1  0  0  0
 81154  1  0  0  0
 81155  1  0  0  0
 84156  1  0  0  0
M  ISO  4   1 100  68 101  81 101  84 100
M  END
> <chiral flag>
0

> <version>
0

> <s_m_source_file>
/data/baiqing/PycharmProjects/Reinvent-master-3.2/result/LINK_invent/BTK/process_docking_weight1_custom_product_contain_oxygen_bond_distance_aromatic_linkinvent_7_9_3/rearranged_h_0159.sdf

> <i_m_source_file_index>
83

> <r_mmod_Potential_Energy-OPLS-2005>
53.564136505127

> <r_mmod_Stretch_Energy-OPLS-2005>
122.373779296875

> <r_mmod_Bend_Energy-OPLS-2005>
169.761993408203

> <r_mmod_Torsional_Energy-OPLS-2005>
259.701293945312

> <r_mmod_Improper_Torsional_Energy-OPLS-2005>
6.0934042930603

> <r_mmod_Van_der_Waal_Energy-OPLS-2005>
150.728057861328

> <r_mmod_Electrostatic_Energy-OPLS-2005>
-485.226043701172

> <r_mmod_Solvation_Energy-OPLS-2005>
-247.878875732422

> <b_mmod_Minimization_Converged-OPLS-2005>
0

> <r_mmod_RMS_Derivative-OPLS-2005>
2.53641533851624

$$$$
84
                    3D
 Structure written by MMmdl.
164172  0  0  1  0            999 V2000
  -30.7202  -14.6446   20.6699 C   0  0  0  0  0  0
  -30.4388  -12.4456   19.4972 C   0  0  0  0  0  0
  -29.5239  -12.5312   18.2594 C   0  0  0  0  0  0
  -28.0515  -12.3435   18.6580 C   0  0  0  0  0  0
  -27.6476  -13.2345   19.8599 C   0  0  2  0  0  0
  -28.6792  -13.1306   21.0115 C   0  0  0  0  0  0
  -25.2244  -13.7924   20.5278 C   0  0  0  0  0  0
  -24.1698  -13.0267   20.9206 C   0  0  0  0  0  0
  -24.6421  -11.6779   20.8794 C   0  0  0  0  0  0
  -23.9101  -10.4167   21.0390 C   0  0  0  0  0  0
  -24.3639   -9.4100   21.9160 C   0  0  0  0  0  0
  -23.6306   -8.2148   22.0733 C   0  0  0  0  0  0
  -22.4291   -8.0202   21.3528 C   0  0  0  0  0  0
  -21.9940   -9.0178   20.4638 C   0  0  0  0  0  0
  -22.7263  -10.2042   20.3061 C   0  0  0  0  0  0
  -21.6838   -6.0719   22.5297 C   0  0  0  0  0  0
  -21.4000   -6.5610   23.8227 C   0  0  0  0  0  0
  -21.3698   -5.6753   24.9171 C   0  0  0  0  0  0
  -21.6041   -4.3021   24.7216 C   0  0  0  0  0  0
  -21.8814   -3.8133   23.4343 C   0  0  0  0  0  0
  -21.9183   -4.6957   22.3411 C   0  0  0  0  0  0
  -22.7738  -13.5086   21.1897 C   0  0  0  0  0  0
  -22.1633   -4.2162   21.0985 F   0  0  0  0  0  0
  -21.5660   -3.4478   25.7726 F   0  0  0  0  0  0
  -30.0167  -13.4688   20.4882 N   0  0  0  0  0  0
  -26.2921  -12.9349   20.3181 N   0  0  0  0  0  0
  -25.9352  -11.6488   20.5787 N   0  0  0  0  0  0
  -22.0356  -12.8201   22.0528 N   0  0  0  0  0  0
  -25.3296  -15.1572   20.2980 N   0  0  0  0  0  0
  -31.7685  -14.8394   20.0489 O   0  0  0  0  0  0
  -21.6671   -6.8828   21.4226 O   0  0  0  0  0  0
  -22.3508  -14.5414   20.6671 O   0  0  0  0  0  0
  -24.6178  -31.8690   23.2094 C   0  0  0  0  0  0
  -25.9047  -32.4865   23.8419 C   0  0  1  0  0  0
  -27.2383  -27.3913   20.1099 C   0  0  0  0  0  0
  -25.5902  -33.8664   24.2347 N   0  0  0  0  0  0
  -23.4098  -30.4886   21.5531 C   0  0  2  0  0  0
  -24.8586  -28.9515   20.1167 C   0  0  0  0  0  0
  -22.7444  -29.4626   22.4964 C   0  0  0  0  0  0
  -18.0284  -28.1407   22.8511 C   0  0  0  0  0  0
  -24.1479  -36.7311   23.2638 C   0  0  0  0  0  0
  -25.9436  -30.8230   21.3675 C   0  0  0  0  0  0
  -26.0210  -29.4530   20.7151 C   0  0  0  0  0  0
  -27.2153  -28.6873   20.6970 C   0  0  0  0  0  0
  -26.0526  -26.9185   19.4995 C   0  0  0  0  0  0
  -24.8731  -27.6891   19.5009 C   0  0  0  0  0  0
  -23.6243  -29.8295   20.1647 C   0  0  0  0  0  0
  -25.4115  -36.3136   24.0333 C   0  0  1  0  0  0
  -20.5878  -28.3687   23.1327 C   0  0  2  0  0  0
  -20.6785  -26.9417   22.5438 C   0  0  0  0  0  0
  -19.5784  -26.6381   21.5238 C   0  0  0  0  0  0
  -18.1934  -26.7956   22.1629 C   0  0  0  0  0  0
  -19.1531  -28.8865   23.2923 C   0  0  0  0  0  0
  -18.9459  -30.1446   23.8949 C   0  0  0  0  0  0
  -17.6474  -30.6600   24.0571 C   0  0  0  0  0  0
  -25.9048  -34.9495   23.5135 C   0  0  0  0  0  0
  -16.5349  -29.9114   23.6332 C   0  0  0  0  0  0
  -16.7266  -28.6528   23.0349 C   0  0  0  0  0  0
  -26.4462  -31.6649   25.0754 C   0  0  0  0  0  0
  -25.3721  -31.3751   26.1496 C   0  0  0  0  0  0
  -27.0295  -30.3119   24.6080 C   0  0  0  0  0  0
  -27.6059  -32.4366   25.7507 C   0  0  0  0  0  0
  -27.5596  -37.1821   24.8475 C   0  0  0  0  0  0
  -21.4164  -29.3051   22.3727 N   0  0  0  0  0  0
  -26.4321  -37.3824   23.9393 N   0  0  0  0  0  0
  -24.6764  -31.0726   22.1026 N   0  0  0  0  0  0
  -23.4204  -28.8176   23.3022 O   0  0  0  0  0  0
  -28.4071  -26.6401   20.1042 O   0  0  0  0  0  0
  -26.5589  -34.8953   22.4685 O   0  0  0  0  0  0
  -23.5357  -32.1416   23.7467 O   0  0  0  0  0  0
  -29.0308  -19.1196   21.3951 C   0  0  0  0  0  0
  -28.9525  -17.6960   21.5513 C   0  0  0  0  0  0
  -30.2926  -19.5995   21.1591 C   0  0  0  0  0  0
  -30.1088  -16.9545   21.3943 C   0  0  0  0  0  0
  -29.9252  -21.9530   20.9253 C   0  0  0  0  0  0
  -27.6529  -17.1245   21.8337 C   0  0  0  0  0  0
  -29.6255  -24.4666   20.0317 C   0  0  0  0  0  0
  -30.4596  -15.1917   22.9995 C   0  0  0  0  0  0
  -26.2002  -15.7094   23.3436 C   0  0  0  0  0  0
  -28.3082  -25.2117   20.3885 C   0  0  0  0  0  0
  -30.3064  -23.4690   21.0367 C   0  0  2  0  0  0
  -30.7386  -20.9361   21.0475 N   0  0  0  0  0  0
  -26.6727  -17.3904   20.9718 N   0  0  0  0  0  0
  -30.2716  -15.5765   21.5940 N   0  0  0  0  0  0
  -27.4467  -16.3764   22.9331 N   0  3  0  0  0  0
  -31.7370  -23.6387   20.7484 N   0  3  0  0  0  0
  -30.1591  -24.7256   18.9427 O   0  0  0  0  0  0
  -31.3835  -18.1757   21.1040 S   0  0  0  0  0  0
  -31.4810  -12.5676   19.1968 H   0  0  0  0  0  0
  -30.3842  -11.4543   19.9485 H   0  0  0  0  0  0
  -29.8120  -11.7752   17.5297 H   0  0  0  0  0  0
  -29.6646  -13.4957   17.7709 H   0  0  0  0  0  0
  -27.9128  -11.2902   18.9161 H   0  0  0  0  0  0
  -27.3937  -12.5310   17.8091 H   0  0  0  0  0  0
  -27.6492  -14.2690   19.5070 H   0  0  0  0  0  0
  -28.6986  -12.1244   21.4375 H   0  0  0  0  0  0
  -28.3720  -13.7832   21.8231 H   0  0  0  0  0  0
  -25.2769   -9.5597   22.4724 H   0  0  0  0  0  0
  -23.9997   -7.4578   22.7502 H   0  0  0  0  0  0
  -21.0844   -8.8725   19.8987 H   0  0  0  0  0  0
  -22.3713  -10.9586   19.6199 H   0  0  0  0  0  0
  -21.1989   -7.6120   23.9745 H   0  0  0  0  0  0
  -21.1524   -6.0456   25.9073 H   0  0  0  0  0  0
  -22.0596   -2.7617   23.2819 H   0  0  0  0  0  0
  -22.3910  -11.9879   22.5019 H   0  0  0  0  0  0
  -21.0973  -13.1239   22.2686 H   0  0  0  0  0  0
  -24.3779  -15.5019   20.1787 H   0  0  0  0  0  0
  -25.8588  -15.3140   19.4483 H   0  0  0  0  0  0
  -26.7113  -32.5577   23.1188 H   0  0  0  0  0  0
  -25.0154  -33.9873   25.0560 H   0  0  0  0  0  0
  -22.7009  -31.3073   21.4149 H   0  0  0  0  0  0
  -23.3783  -35.9618   23.3333 H   0  0  0  0  0  0
  -24.3576  -36.8891   22.2053 H   0  0  0  0  0  0
  -23.7193  -37.6504   23.6640 H   0  0  0  0  0  0
  -26.0536  -31.5876   20.5963 H   0  0  0  0  0  0
  -26.8329  -30.8842   21.9835 H   0  0  0  0  0  0
  -28.1165  -29.0756   21.1519 H   0  0  0  0  0  0
  -26.0247  -25.9623   19.0000 H   0  0  0  0  0  0
  -23.9833  -27.3114   19.0198 H   0  0  0  0  0  0
  -23.7506  -30.6134   19.4158 H   0  0  0  0  0  0
  -22.7466  -29.2631   19.8513 H   0  0  0  0  0  0
  -25.1289  -36.2039   25.0840 H   0  0  0  0  0  0
  -20.9975  -28.3249   24.1459 H   0  0  0  0  0  0
  -20.5730  -26.2275   23.3616 H   0  0  0  0  0  0
  -21.6641  -26.7484   22.1207 H   0  0  0  0  0  0
  -19.6933  -25.6291   21.1278 H   0  0  0  0  0  0
  -19.6736  -27.3189   20.6779 H   0  0  0  0  0  0
  -17.4209  -26.6707   21.4005 H   0  0  0  0  0  0
  -18.0324  -26.0079   22.9030 H   0  0  0  0  0  0
  -19.7913  -30.7252   24.2340 H   0  0  0  0  0  0
  -17.5012  -31.6303   24.5170 H   0  0  0  0  0  0
  -15.5350  -30.3050   23.7621 H   0  0  0  0  0  0
  -15.8656  -28.0866   22.7058 H   0  0  0  0  0  0
  -24.5913  -30.7079   25.7814 H   0  0  0  0  0  0
  -24.8892  -32.2907   26.4932 H   0  0  0  0  0  0
  -25.8066  -30.8931   27.0258 H   0  0  0  0  0  0
  -26.2811  -29.6930   24.1117 H   0  0  0  0  0  0
  -27.4079  -29.7322   25.4497 H   0  0  0  0  0  0
  -27.8645  -30.4495   23.9210 H   0  0  0  0  0  0
  -27.2701  -33.3681   26.2077 H   0  0  0  0  0  0
  -28.3865  -32.6893   25.0324 H   0  0  0  0  0  0
  -28.0721  -31.8495   26.5420 H   0  0  0  0  0  0
  -28.2620  -38.0111   24.7524 H   0  0  0  0  0  0
  -28.1058  -36.2636   24.6290 H   0  0  0  0  0  0
  -27.2300  -37.1465   25.8875 H   0  0  0  0  0  0
  -20.9310  -29.8784   21.6971 H   0  0  0  0  0  0
  -26.0207  -38.2907   24.1422 H   0  0  0  0  0  0
  -28.1454  -19.7288   21.5154 H   0  0  0  0  0  0
  -28.8483  -21.8108   20.7847 H   0  0  0  0  0  0
  -30.5622  -16.0572   23.6583 H   0  0  0  0  0  0
  -29.6296  -14.5986   23.3757 H   0  0  0  0  0  0
  -31.3625  -14.5924   23.1387 H   0  0  0  0  0  0
  -26.1054  -14.7513   22.8336 H   0  0  0  0  0  0
  -25.3192  -16.3170   23.1290 H   0  0  0  0  0  0
  -26.2094  -15.5049   24.4149 H   0  0  0  0  0  0
  -28.0640  -25.0658   21.4397 H   0  0  0  0  0  0
  -27.5149  -24.7509   19.8033 H   0  0  0  0  0  0
  -30.1049  -23.8011   22.0586 H   0  0  0  0  0  0
  -26.8892  -17.9135   20.1357 H   0  0  0  0  0  0
  -25.9389  -16.6817   20.8776 H   0  0  0  0  0  0
  -28.2116  -16.3134   23.5918 H   0  0  0  0  0  0
  -32.2192  -22.7648   20.8654 H   0  0  0  0  0  0
  -32.1356  -24.3659   21.3158 H   0  0  0  0  0  0
  -31.7656  -23.9399   19.7833 H   0  0  0  0  0  0
  1 25  1  0  0  0
  1 30  2  0  0  0
  1 84  1  0  0  0
  2  3  1  0  0  0
  2 25  1  0  0  0
  2 89  1  0  0  0
  2 90  1  0  0  0
  3  4  1  0  0  0
  3 91  1  0  0  0
  3 92  1  0  0  0
  4  5  1  0  0  0
  4 93  1  0  0  0
  4 94  1  0  0  0
  5  6  1  0  0  0
  5 26  1  0  0  0
  5 95  1  0  0  0
  6 25  1  0  0  0
  6 96  1  0  0  0
  6 97  1  0  0  0
  7  8  2  0  0  0
  7 26  1  0  0  0
  7 29  1  0  0  0
  8  9  1  0  0  0
  8 22  1  0  0  0
  9 10  1  0  0  0
  9 27  2  0  0  0
 10 11  2  0  0  0
 10 15  1  0  0  0
 11 12  1  0  0  0
 11 98  1  0  0  0
 12 13  2  0  0  0
 12 99  1  0  0  0
 13 14  1  0  0  0
 13 31  1  0  0  0
 14 15  2  0  0  0
 14100  1  0  0  0
 15101  1  0  0  0
 16 17  2  0  0  0
 16 21  1  0  0  0
 16 31  1  0  0  0
 17 18  1  0  0  0
 17102  1  0  0  0
 18 19  2  0  0  0
 18103  1  0  0  0
 19 20  1  0  0  0
 19 24  1  0  0  0
 20 21  2  0  0  0
 20104  1  0  0  0
 21 23  1  0  0  0
 22 28  1  0  0  0
 22 32  2  0  0  0
 26 27  1  0  0  0
 28105  1  0  0  0
 28106  1  0  0  0
 29107  1  0  0  0
 29108  1  0  0  0
 33 34  1  0  0  0
 33 66  1  0  0  0
 33 70  2  0  0  0
 34 36  1  0  0  0
 34 59  1  0  0  0
 34109  1  0  0  0
 35 44  2  0  0  0
 35 45  1  0  0  0
 35 68  1  0  0  0
 36 56  1  0  0  0
 36110  1  0  0  0
 37 39  1  0  0  0
 37 47  1  0  0  0
 37 66  1  0  0  0
 37111  1  0  0  0
 38 43  2  0  0  0
 38 46  1  0  0  0
 38 47  1  0  0  0
 39 64  1  0  0  0
 39 67  2  0  0  0
 40 52  1  0  0  0
 40 53  2  0  0  0
 40 58  1  0  0  0
 41112  1  0  0  0
 41113  1  0  0  0
 41114  1  0  0  0
 41 48  1  0  0  0
 42 43  1  0  0  0
 42 66  1  0  0  0
 42115  1  0  0  0
 42116  1  0  0  0
 43 44  1  0  0  0
 44117  1  0  0  0
 45 46  2  0  0  0
 45118  1  0  0  0
 46119  1  0  0  0
 47120  1  0  0  0
 47121  1  0  0  0
 48 56  1  0  0  0
 48 65  1  0  0  0
 48122  1  0  0  0
 49 50  1  0  0  0
 49 53  1  0  0  0
 49 64  1  0  0  0
 49123  1  0  0  0
 50 51  1  0  0  0
 50124  1  0  0  0
 50125  1  0  0  0
 51 52  1  0  0  0
 51126  1  0  0  0
 51127  1  0  0  0
 52128  1  0  0  0
 52129  1  0  0  0
 53 54  1  0  0  0
 54 55  2  0  0  0
 54130  1  0  0  0
 55 57  1  0  0  0
 55131  1  0  0  0
 56 69  2  0  0  0
 57 58  2  0  0  0
 57132  1  0  0  0
 58133  1  0  0  0
 59 60  1  0  0  0
 59 61  1  0  0  0
 59 62  1  0  0  0
 60134  1  0  0  0
 60135  1  0  0  0
 60136  1  0  0  0
 61137  1  0  0  0
 61138  1  0  0  0
 61139  1  0  0  0
 62140  1  0  0  0
 62141  1  0  0  0
 62142  1  0  0  0
 63 65  1  0  0  0
 63143  1  0  0  0
 63144  1  0  0  0
 63145  1  0  0  0
 64146  1  0  0  0
 65147  1  0  0  0
 68 80  1  0  0  0
 71 72  1  0  0  0
 71 73  2  0  0  0
 71148  1  0  0  0
 72 74  2  0  0  0
 72 76  1  0  0  0
 73 82  1  0  0  0
 73 88  1  0  0  0
 74 84  1  0  0  0
 74 88  1  0  0  0
 75 81  1  0  0  0
 75 82  2  0  0  0
 75149  1  0  0  0
 76 83  1  0  0  0
 76 85  2  0  0  0
 77 80  1  0  0  0
 77 81  1  0  0  0
 77 87  2  0  0  0
 78 84  1  0  0  0
 78150  1  0  0  0
 78151  1  0  0  0
 78152  1  0  0  0
 79 85  1  0  0  0
 79153  1  0  0  0
 79154  1  0  0  0
 79155  1  0  0  0
 80156  1  0  0  0
 80157  1  0  0  0
 81 86  1  0  0  0
 81158  1  0  0  0
 83159  1  0  0  0
 83160  1  0  0  0
 85161  1  0  0  0
 86162  1  0  0  0
 86163  1  0  0  0
 86164  1  0  0  0
M  CHG  2  85   1  86   1
M  ISO  4   1 100  68 101  80 101  84 100
M  END
> <chiral flag>
0

> <version>
0

> <s_m_source_file>
/data/baiqing/PycharmProjects/Reinvent-master-3.2/result/LINK_invent/BTK/process_docking_weight1_custom_product_contain_oxygen_bond_distance_aromatic_linkinvent_7_9_3/rearranged_h_0159.sdf

> <i_m_source_file_index>
84

> <r_mmod_Potential_Energy-OPLS-2005>
-366.609436035156

> <r_mmod_Stretch_Energy-OPLS-2005>
76.1897354125977

> <r_mmod_Bend_Energy-OPLS-2005>
148.291168212891

> <r_mmod_Torsional_Energy-OPLS-2005>
353.681915283203

> <r_mmod_Improper_Torsional_Energy-OPLS-2005>
13.7376737594604

> <r_mmod_Van_der_Waal_Energy-OPLS-2005>
143.659149169922

> <r_mmod_Electrostatic_Energy-OPLS-2005>
-224.065292358398

> <r_mmod_Solvation_Energy-OPLS-2005>
-919.764526367188

> <b_mmod_Minimization_Converged-OPLS-2005>
0

> <r_mmod_RMS_Derivative-OPLS-2005>
6.48855638504028

$$$$
85
                    3D
 Structure written by MMmdl.
153161  0  0  1  0            999 V2000
  -30.5467  -14.7738   20.4933 C   0  0  0  0  0  0
  -30.4569  -12.4773   19.4723 C   0  0  0  0  0  0
  -29.5213  -12.5260   18.2408 C   0  0  0  0  0  0
  -28.0469  -12.3369   18.6518 C   0  0  0  0  0  0
  -27.6521  -13.2213   19.8645 C   0  0  2  0  0  0
  -28.6963  -13.1083   20.9970 C   0  0  0  0  0  0
  -25.2539  -13.8163   20.5646 C   0  0  0  0  0  0
  -24.1824  -13.0427   20.9199 C   0  0  0  0  0  0
  -24.6409  -11.6908   20.8769 C   0  0  0  0  0  0
  -23.9078  -10.4284   21.0424 C   0  0  0  0  0  0
  -24.3624   -9.4197   21.9196 C   0  0  0  0  0  0
  -23.6298   -8.2231   22.0765 C   0  0  0  0  0  0
  -22.4281   -8.0275   21.3549 C   0  0  0  0  0  0
  -21.9924   -9.0250   20.4649 C   0  0  0  0  0  0
  -22.7255  -10.2131   20.3066 C   0  0  0  0  0  0
  -21.6847   -6.0740   22.5283 C   0  0  0  0  0  0
  -21.4008   -6.5644   23.8219 C   0  0  0  0  0  0
  -21.3661   -5.6793   24.9178 C   0  0  0  0  0  0
  -21.6048   -4.3056   24.7224 C   0  0  0  0  0  0
  -21.8820   -3.8152   23.4345 C   0  0  0  0  0  0
  -21.9190   -4.6971   22.3400 C   0  0  0  0  0  0
  -22.7845  -13.5220   21.1846 C   0  0  0  0  0  0
  -22.1660   -4.2160   21.0976 F   0  0  0  0  0  0
  -21.5634   -3.4539   25.7735 F   0  0  0  0  0  0
  -29.9985  -13.5062   20.4351 N   0  0  0  0  0  0
  -26.2989  -12.9358   20.3323 N   0  0  0  0  0  0
  -25.9341  -11.6517   20.5791 N   0  0  0  0  0  0
  -22.0478  -12.8218   22.0401 N   0  0  0  0  0  0
  -25.4175  -15.1871   20.3905 N   0  0  0  0  0  0
  -31.7012  -14.9710   20.0979 O   0  0  0  0  0  0
  -21.6640   -6.8881   21.4245 O   0  0  0  0  0  0
  -22.3530  -14.5523   20.6687 O   0  0  0  0  0  0
  -24.6358  -31.8525   23.1970 C   0  0  0  0  0  0
  -25.9175  -32.4734   23.8318 C   0  0  1  0  0  0
  -27.2177  -27.2270   20.1280 C   0  0  0  0  0  0
  -25.5962  -33.8538   24.2242 N   0  0  0  0  0  0
  -23.4339  -30.4768   21.5414 C   0  0  2  0  0  0
  -24.8803  -28.9215   20.1114 C   0  0  0  0  0  0
  -22.7521  -29.4597   22.4896 C   0  0  0  0  0  0
  -18.0297  -28.1391   22.8481 C   0  0  0  0  0  0
  -24.1492  -36.7267   23.2634 C   0  0  0  0  0  0
  -25.9846  -30.7541   21.3836 C   0  0  0  0  0  0
  -26.0565  -29.3754   20.7217 C   0  0  0  0  0  0
  -27.2286  -28.5435   20.7150 C   0  0  0  0  0  0
  -26.0133  -26.8551   19.4862 C   0  0  0  0  0  0
  -24.8666  -27.6711   19.4815 C   0  0  0  0  0  0
  -23.6541  -29.8136   20.1572 C   0  0  0  0  0  0
  -25.4123  -36.3057   24.0318 C   0  0  1  0  0  0
  -20.5905  -28.3711   23.1250 C   0  0  2  0  0  0
  -20.6784  -26.9424   22.5399 C   0  0  0  0  0  0
  -19.5758  -26.6386   21.5208 C   0  0  0  0  0  0
  -18.1936  -26.7937   22.1615 C   0  0  0  0  0  0
  -19.1550  -28.8871   23.2862 C   0  0  0  0  0  0
  -18.9465  -30.1470   23.8882 C   0  0  0  0  0  0
  -17.6466  -30.6590   24.0564 C   0  0  0  0  0  0
  -25.9067  -34.9428   23.5080 C   0  0  0  0  0  0
  -16.5358  -29.9082   23.6342 C   0  0  0  0  0  0
  -16.7285  -28.6502   23.0361 C   0  0  0  0  0  0
  -26.4528  -31.6567   25.0721 C   0  0  0  0  0  0
  -25.3743  -31.3726   26.1435 C   0  0  0  0  0  0
  -27.0377  -30.2970   24.6246 C   0  0  0  0  0  0
  -27.6067  -32.4321   25.7509 C   0  0  0  0  0  0
  -27.5596  -37.1776   24.8454 C   0  0  0  0  0  0
  -21.4221  -29.3054   22.3634 N   0  0  0  0  0  0
  -26.4286  -37.3767   23.9427 N   0  0  0  0  0  0
  -24.7041  -31.0464   22.0964 N   0  0  0  0  0  0
  -23.4205  -28.8137   23.3004 O   0  0  0  0  0  0
  -28.2922  -26.2929   20.1820 O   0  0  0  0  0  0
  -26.5636  -34.8912   22.4645 O   0  0  0  0  0  0
  -23.5502  -32.1366   23.7246 O   0  0  0  0  0  0
  -30.1492  -18.3963   20.1947 C   0  0  0  0  0  0
  -29.5455  -17.2779   20.9261 C   0  0  0  0  0  0
  -28.5899  -17.8889   21.7229 C   0  0  0  0  0  0
  -29.4937  -19.5763   20.5933 C   0  0  0  0  0  0
  -27.6407  -17.3476   22.7008 C   0  0  0  0  0  0
  -29.0795  -23.6655   20.2428 C   0  0  0  0  0  0
  -26.7231  -18.3202   23.4329 C   0  0  0  0  0  0
  -28.7046  -22.1152   20.5341 C   0  0  0  0  0  0
  -27.9437  -24.8103   20.1512 C   0  0  0  0  0  0
  -29.6818  -15.7805   20.9042 N   0  0  0  0  0  0
  -29.6608  -20.9688   20.1938 N   0  0  0  0  0  0
  -27.5727  -16.1421   22.9575 O   0  0  0  0  0  0
  -30.2654  -23.9626   20.0662 O   0  0  0  0  0  0
  -28.5588  -19.2569   21.5194 O   0  0  0  0  0  0
  -31.4913  -12.6424   19.1659 H   0  0  0  0  0  0
  -30.4364  -11.4891   19.9343 H   0  0  0  0  0  0
  -29.8083  -11.7617   17.5178 H   0  0  0  0  0  0
  -29.6393  -13.4852   17.7335 H   0  0  0  0  0  0
  -27.9066  -11.2846   18.9027 H   0  0  0  0  0  0
  -27.3885  -12.5368   17.8056 H   0  0  0  0  0  0
  -27.6582  -14.2513   19.5085 H   0  0  0  0  0  0
  -28.7402  -12.0859   21.3759 H   0  0  0  0  0  0
  -28.4144  -13.7241   21.8524 H   0  0  0  0  0  0
  -25.2763   -9.5678   22.4778 H   0  0  0  0  0  0
  -24.0008   -7.4625   22.7485 H   0  0  0  0  0  0
  -21.0861   -8.8767   19.8941 H   0  0  0  0  0  0
  -22.3718  -10.9673   19.6182 H   0  0  0  0  0  0
  -21.1993   -7.6150   23.9729 H   0  0  0  0  0  0
  -21.1488   -6.0520   25.9085 H   0  0  0  0  0  0
  -22.0599   -2.7615   23.2843 H   0  0  0  0  0  0
  -22.4095  -11.9881   22.4790 H   0  0  0  0  0  0
  -21.1094  -13.1257   22.2597 H   0  0  0  0  0  0
  -24.6320  -15.8248   20.4582 H   0  0  0  0  0  0
  -26.2396  -15.6135   19.9840 H   0  0  0  0  0  0
  -26.7239  -32.5369   23.1051 H   0  0  0  0  0  0
  -25.0132  -33.9676   25.0404 H   0  0  0  0  0  0
  -22.7329  -31.3009   21.3949 H   0  0  0  0  0  0
  -23.3775  -35.9575   23.3245 H   0  0  0  0  0  0
  -24.3591  -36.8947   22.2059 H   0  0  0  0  0  0
  -23.7214  -37.6436   23.6694 H   0  0  0  0  0  0
  -26.1325  -31.5167   20.6175 H   0  0  0  0  0  0
  -26.8584  -30.7984   22.0221 H   0  0  0  0  0  0
  -28.1267  -28.8861   21.2086 H   0  0  0  0  0  0
  -25.9139  -25.9055   18.9845 H   0  0  0  0  0  0
  -23.9679  -27.3192   18.9934 H   0  0  0  0  0  0
  -23.7836  -30.5924   19.4044 H   0  0  0  0  0  0
  -22.7700  -29.2529   19.8483 H   0  0  0  0  0  0
  -25.1297  -36.1884   25.0807 H   0  0  0  0  0  0
  -20.9999  -28.3293   24.1370 H   0  0  0  0  0  0
  -20.5691  -26.2319   23.3606 H   0  0  0  0  0  0
  -21.6649  -26.7445   22.1189 H   0  0  0  0  0  0
  -19.6919  -25.6293   21.1244 H   0  0  0  0  0  0
  -19.6699  -27.3194   20.6735 H   0  0  0  0  0  0
  -17.4207  -26.6699   21.4010 H   0  0  0  0  0  0
  -18.0329  -26.0075   22.9006 H   0  0  0  0  0  0
  -19.7943  -30.7299   24.2234 H   0  0  0  0  0  0
  -17.5015  -31.6270   24.5167 H   0  0  0  0  0  0
  -15.5357  -30.2978   23.7675 H   0  0  0  0  0  0
  -15.8682  -28.0818   22.7082 H   0  0  0  0  0  0
  -24.5925  -30.7070   25.7760 H   0  0  0  0  0  0
  -24.8936  -32.2900   26.4839 H   0  0  0  0  0  0
  -25.8059  -30.8916   27.0220 H   0  0  0  0  0  0
  -26.2964  -29.6701   24.1275 H   0  0  0  0  0  0
  -27.4035  -29.7255   25.4786 H   0  0  0  0  0  0
  -27.8859  -30.4214   23.9511 H   0  0  0  0  0  0
  -27.2658  -33.3630   26.2051 H   0  0  0  0  0  0
  -28.3902  -32.6866   25.0359 H   0  0  0  0  0  0
  -28.0705  -31.8468   26.5459 H   0  0  0  0  0  0
  -28.2545  -38.0140   24.7588 H   0  0  0  0  0  0
  -28.1162  -36.2672   24.6165 H   0  0  0  0  0  0
  -27.2326  -37.1282   25.8856 H   0  0  0  0  0  0
  -20.9414  -29.8772   21.6834 H   0  0  0  0  0  0
  -26.0152  -38.2821   24.1489 H   0  0  0  0  0  0
  -30.9348  -18.3384   19.4538 H   0  0  0  0  0  0
  -26.4011  -19.1212   22.7676 H   0  0  0  0  0  0
  -27.2493  -18.7610   24.2799 H   0  0  0  0  0  0
  -25.8361  -17.8055   23.8020 H   0  0  0  0  0  0
  -27.7547  -21.9167   20.0382 H   0  0  0  0  0  0
  -28.4906  -22.0501   21.6016 H   0  0  0  0  0  0
  -27.2164  -24.6128   20.9404 H   0  0  0  0  0  0
  -27.4397  -24.5968   19.2106 H   0  0  0  0  0  0
  -28.8711  -15.3370   21.3133 H   0  0  0  0  0  0
  -30.3650  -21.2085   19.4988 H   0  0  0  0  0  0
  1 25  1  0  0  0
  1 30  2  0  0  0
  1 80  1  0  0  0
  2  3  1  0  0  0
  2 25  1  0  0  0
  2 85  1  0  0  0
  2 86  1  0  0  0
  3  4  1  0  0  0
  3 87  1  0  0  0
  3 88  1  0  0  0
  4  5  1  0  0  0
  4 89  1  0  0  0
  4 90  1  0  0  0
  5  6  1  0  0  0
  5 26  1  0  0  0
  5 91  1  0  0  0
  6 25  1  0  0  0
  6 92  1  0  0  0
  6 93  1  0  0  0
  7  8  2  0  0  0
  7 26  1  0  0  0
  7 29  1  0  0  0
  8  9  1  0  0  0
  8 22  1  0  0  0
  9 10  1  0  0  0
  9 27  2  0  0  0
 10 11  2  0  0  0
 10 15  1  0  0  0
 11 12  1  0  0  0
 11 94  1  0  0  0
 12 13  2  0  0  0
 12 95  1  0  0  0
 13 14  1  0  0  0
 13 31  1  0  0  0
 14 15  2  0  0  0
 14 96  1  0  0  0
 15 97  1  0  0  0
 16 17  2  0  0  0
 16 21  1  0  0  0
 16 31  1  0  0  0
 17 18  1  0  0  0
 17 98  1  0  0  0
 18 19  2  0  0  0
 18 99  1  0  0  0
 19 20  1  0  0  0
 19 24  1  0  0  0
 20 21  2  0  0  0
 20100  1  0  0  0
 21 23  1  0  0  0
 22 28  1  0  0  0
 22 32  2  0  0  0
 26 27  1  0  0  0
 28101  1  0  0  0
 28102  1  0  0  0
 29103  1  0  0  0
 29104  1  0  0  0
 33 34  1  0  0  0
 33 66  1  0  0  0
 33 70  2  0  0  0
 34 36  1  0  0  0
 34 59  1  0  0  0
 34105  1  0  0  0
 35 44  2  0  0  0
 35 45  1  0  0  0
 35 68  1  0  0  0
 36 56  1  0  0  0
 36106  1  0  0  0
 37 39  1  0  0  0
 37 47  1  0  0  0
 37 66  1  0  0  0
 37107  1  0  0  0
 38 43  2  0  0  0
 38 46  1  0  0  0
 38 47  1  0  0  0
 39 64  1  0  0  0
 39 67  2  0  0  0
 40 52  1  0  0  0
 40 53  2  0  0  0
 40 58  1  0  0  0
 41108  1  0  0  0
 41109  1  0  0  0
 41110  1  0  0  0
 41 48  1  0  0  0
 42 43  1  0  0  0
 42 66  1  0  0  0
 42111  1  0  0  0
 42112  1  0  0  0
 43 44  1  0  0  0
 44113  1  0  0  0
 45 46  2  0  0  0
 45114  1  0  0  0
 46115  1  0  0  0
 47116  1  0  0  0
 47117  1  0  0  0
 48 56  1  0  0  0
 48 65  1  0  0  0
 48118  1  0  0  0
 49 50  1  0  0  0
 49 53  1  0  0  0
 49 64  1  0  0  0
 49119  1  0  0  0
 50 51  1  0  0  0
 50120  1  0  0  0
 50121  1  0  0  0
 51 52  1  0  0  0
 51122  1  0  0  0
 51123  1  0  0  0
 52124  1  0  0  0
 52125  1  0  0  0
 53 54  1  0  0  0
 54 55  2  0  0  0
 54126  1  0  0  0
 55 57  1  0  0  0
 55127  1  0  0  0
 56 69  2  0  0  0
 57 58  2  0  0  0
 57128  1  0  0  0
 58129  1  0  0  0
 59 60  1  0  0  0
 59 61  1  0  0  0
 59 62  1  0  0  0
 60130  1  0  0  0
 60131  1  0  0  0
 60132  1  0  0  0
 61133  1  0  0  0
 61134  1  0  0  0
 61135  1  0  0  0
 62136  1  0  0  0
 62137  1  0  0  0
 62138  1  0  0  0
 63 65  1  0  0  0
 63139  1  0  0  0
 63140  1  0  0  0
 63141  1  0  0  0
 64142  1  0  0  0
 65143  1  0  0  0
 68 79  1  0  0  0
 71 72  1  0  0  0
 71 74  2  0  0  0
 71144  1  0  0  0
 72 73  2  0  0  0
 72 80  1  0  0  0
 73 75  1  0  0  0
 73 84  1  0  0  0
 74 81  1  0  0  0
 74 84  1  0  0  0
 75 77  1  0  0  0
 75 82  2  0  0  0
 76 78  1  0  0  0
 76 79  1  0  0  0
 76 83  2  0  0  0
 77145  1  0  0  0
 77146  1  0  0  0
 77147  1  0  0  0
 78 81  1  0  0  0
 78148  1  0  0  0
 78149  1  0  0  0
 79150  1  0  0  0
 79151  1  0  0  0
 80152  1  0  0  0
 81153  1  0  0  0
M  ISO  4   1 100  68 101  79 101  80 100
M  END
> <chiral flag>
0

> <version>
0

> <s_m_source_file>
/data/baiqing/PycharmProjects/Reinvent-master-3.2/result/LINK_invent/BTK/process_docking_weight1_custom_product_contain_oxygen_bond_distance_aromatic_linkinvent_7_9_3/rearranged_h_0159.sdf

> <i_m_source_file_index>
85

> <r_mmod_Potential_Energy-OPLS-2005>
220.807586669922

> <r_mmod_Stretch_Energy-OPLS-2005>
140.890243530273

> <r_mmod_Bend_Energy-OPLS-2005>
220.2958984375

> <r_mmod_Torsional_Energy-OPLS-2005>
205.84001159668

> <r_mmod_Improper_Torsional_Energy-OPLS-2005>
4.08905792236328

> <r_mmod_Van_der_Waal_Energy-OPLS-2005>
112.785026550293

> <r_mmod_Electrostatic_Energy-OPLS-2005>
-315.956359863281

> <r_mmod_Solvation_Energy-OPLS-2005>
-251.26594543457

> <b_mmod_Minimization_Converged-OPLS-2005>
0

> <r_mmod_RMS_Derivative-OPLS-2005>
1.4978334903717

$$$$
86
                    3D
 Structure written by MMmdl.
172180  0  0  1  0            999 V2000
  -30.5830  -14.7563   20.4679 C   0  0  0  0  0  0
  -30.4377  -12.4595   19.4810 C   0  0  0  0  0  0
  -29.5141  -12.5198   18.2420 C   0  0  0  0  0  0
  -28.0385  -12.3404   18.6500 C   0  0  0  0  0  0
  -27.6461  -13.2298   19.8593 C   0  0  2  0  0  0
  -28.6882  -13.1413   20.9972 C   0  0  0  0  0  0
  -25.2525  -13.8202   20.5699 C   0  0  0  0  0  0
  -24.1807  -13.0443   20.9195 C   0  0  0  0  0  0
  -24.6393  -11.6923   20.8737 C   0  0  0  0  0  0
  -23.9067  -10.4299   21.0399 C   0  0  0  0  0  0
  -24.3623   -9.4212   21.9177 C   0  0  0  0  0  0
  -23.6304   -8.2243   22.0750 C   0  0  0  0  0  0
  -22.4281   -8.0280   21.3542 C   0  0  0  0  0  0
  -21.9911   -9.0248   20.4639 C   0  0  0  0  0  0
  -22.7234  -10.2131   20.3047 C   0  0  0  0  0  0
  -21.6848   -6.0736   22.5281 C   0  0  0  0  0  0
  -21.4008   -6.5640   23.8215 C   0  0  0  0  0  0
  -21.3664   -5.6793   24.9179 C   0  0  0  0  0  0
  -21.6050   -4.3057   24.7226 C   0  0  0  0  0  0
  -21.8819   -3.8145   23.4348 C   0  0  0  0  0  0
  -21.9189   -4.6965   22.3404 C   0  0  0  0  0  0
  -22.7828  -13.5217   21.1861 C   0  0  0  0  0  0
  -22.1660   -4.2148   21.0981 F   0  0  0  0  0  0
  -21.5635   -3.4542   25.7742 F   0  0  0  0  0  0
  -29.9950  -13.5079   20.4331 N   0  0  0  0  0  0
  -26.2954  -12.9403   20.3304 N   0  0  0  0  0  0
  -25.9326  -11.6545   20.5759 N   0  0  0  0  0  0
  -22.0470  -12.8212   22.0421 N   0  0  0  0  0  0
  -25.4237  -15.1926   20.4154 N   0  0  0  0  0  0
  -31.7393  -14.8981   20.0546 O   0  0  0  0  0  0
  -21.6645   -6.8878   21.4243 O   0  0  0  0  0  0
  -22.3509  -14.5517   20.6698 O   0  0  0  0  0  0
  -24.6336  -31.8550   23.1975 C   0  0  0  0  0  0
  -25.9159  -32.4748   23.8329 C   0  0  1  0  0  0
  -27.2179  -27.2412   20.1256 C   0  0  0  0  0  0
  -25.5948  -33.8550   24.2249 N   0  0  0  0  0  0
  -23.4314  -30.4786   21.5412 C   0  0  2  0  0  0
  -24.8779  -28.9256   20.1081 C   0  0  0  0  0  0
  -22.7514  -29.4608   22.4894 C   0  0  0  0  0  0
  -18.0298  -28.1395   22.8487 C   0  0  0  0  0  0
  -24.1492  -36.7268   23.2637 C   0  0  0  0  0  0
  -25.9804  -30.7597   21.3829 C   0  0  0  0  0  0
  -26.0511  -29.3820   20.7217 C   0  0  0  0  0  0
  -27.2212  -28.5525   20.7198 C   0  0  0  0  0  0
  -26.0183  -26.8640   19.4777 C   0  0  0  0  0  0
  -24.8684  -27.6756   19.4751 C   0  0  0  0  0  0
  -23.6512  -29.8163   20.1562 C   0  0  0  0  0  0
  -25.4119  -36.3059   24.0324 C   0  0  1  0  0  0
  -20.5905  -28.3714   23.1259 C   0  0  2  0  0  0
  -20.6784  -26.9426   22.5408 C   0  0  0  0  0  0
  -19.5759  -26.6391   21.5214 C   0  0  0  0  0  0
  -18.1940  -26.7940   22.1625 C   0  0  0  0  0  0
  -19.1553  -28.8869   23.2873 C   0  0  0  0  0  0
  -18.9475  -30.1466   23.8896 C   0  0  0  0  0  0
  -17.6471  -30.6596   24.0567 C   0  0  0  0  0  0
  -25.9069  -34.9435   23.5089 C   0  0  0  0  0  0
  -16.5363  -29.9091   23.6331 C   0  0  0  0  0  0
  -16.7286  -28.6510   23.0359 C   0  0  0  0  0  0
  -26.4517  -31.6579   25.0729 C   0  0  0  0  0  0
  -25.3725  -31.3741   26.1437 C   0  0  0  0  0  0
  -27.0364  -30.2987   24.6240 C   0  0  0  0  0  0
  -27.6079  -32.4313   25.7496 C   0  0  0  0  0  0
  -27.5583  -37.1778   24.8463 C   0  0  0  0  0  0
  -21.4221  -29.3057   22.3635 N   0  0  0  0  0  0
  -26.4284  -37.3767   23.9420 N   0  0  0  0  0  0
  -24.7011  -31.0489   22.0966 N   0  0  0  0  0  0
  -23.4205  -28.8148   23.3002 O   0  0  0  0  0  0
  -28.3120  -26.3346   20.2055 O   0  0  0  0  0  0
  -26.5649  -34.8915   22.4661 O   0  0  0  0  0  0
  -23.5478  -32.1396   23.7245 O   0  0  0  0  0  0
  -29.7794  -18.4792   21.2504 C   0  0  0  0  0  0
  -29.4846  -17.6959   19.1855 C   0  0  0  0  0  0
  -29.7692  -17.2633   20.4517 C   0  0  0  0  0  0
  -29.5606  -19.6258   20.4675 C   0  0  0  0  0  0
  -29.6118  -21.1206   20.7853 C   0  0  0  0  0  0
  -28.4178  -24.7735   18.3399 C   0  0  0  0  0  0
  -28.9000  -19.7699   14.8490 C   0  0  0  0  0  0
  -31.1726  -20.7997   14.8746 C   0  0  0  0  0  0
  -29.2393  -22.0679   15.8207 C   0  0  0  0  0  0
  -30.1758  -20.0362   17.0445 C   0  0  0  0  0  0
  -28.9683  -19.8220   17.9779 C   0  0  0  0  0  0
  -29.0684  -23.7274   20.5995 C   0  0  0  0  0  0
  -28.1694  -24.8639   19.8545 C   0  0  1  0  0  0
  -29.8564  -20.6655   15.6622 C   0  0  0  0  0  0
  -29.3284  -19.0958   19.1854 N   0  0  0  0  0  0
  -30.5010  -21.4175   21.7403 N   0  0  0  0  0  0
  -29.8215  -15.8398   20.8895 N   0  0  0  0  0  0
  -28.9104  -22.2157   20.2633 N   0  3  0  0  0  0
  -31.4776  -12.5914   19.1788 H   0  0  0  0  0  0
  -30.3894  -11.4751   19.9484 H   0  0  0  0  0  0
  -29.7985  -11.7523   17.5205 H   0  0  0  0  0  0
  -29.6409  -13.4771   17.7345 H   0  0  0  0  0  0
  -27.8918  -11.2902   18.9042 H   0  0  0  0  0  0
  -27.3819  -12.5403   17.8022 H   0  0  0  0  0  0
  -27.6473  -14.2565   19.4930 H   0  0  0  0  0  0
  -28.7235  -12.1335   21.4138 H   0  0  0  0  0  0
  -28.4143  -13.7978   21.8230 H   0  0  0  0  0  0
  -25.2769   -9.5697   22.4750 H   0  0  0  0  0  0
  -24.0018   -7.4634   22.7467 H   0  0  0  0  0  0
  -21.0837   -8.8756   19.8947 H   0  0  0  0  0  0
  -22.3683  -10.9667   19.6157 H   0  0  0  0  0  0
  -21.1997   -7.6148   23.9724 H   0  0  0  0  0  0
  -21.1487   -6.0518   25.9083 H   0  0  0  0  0  0
  -22.0594   -2.7607   23.2845 H   0  0  0  0  0  0
  -22.4082  -11.9884   22.4827 H   0  0  0  0  0  0
  -21.1078  -13.1233   22.2607 H   0  0  0  0  0  0
  -24.6594  -15.8491   20.5319 H   0  0  0  0  0  0
  -26.2809  -15.6344   20.1076 H   0  0  0  0  0  0
  -26.7223  -32.5389   23.1065 H   0  0  0  0  0  0
  -25.0078  -33.9686   25.0381 H   0  0  0  0  0  0
  -22.7298  -31.3024   21.3949 H   0  0  0  0  0  0
  -23.3770  -35.9584   23.3279 H   0  0  0  0  0  0
  -24.3590  -36.8913   22.2057 H   0  0  0  0  0  0
  -23.7222  -37.6448   23.6683 H   0  0  0  0  0  0
  -26.1270  -31.5210   20.6155 H   0  0  0  0  0  0
  -26.8545  -30.8043   22.0209 H   0  0  0  0  0  0
  -28.1170  -28.8964   21.2185 H   0  0  0  0  0  0
  -25.9250  -25.9159   18.9729 H   0  0  0  0  0  0
  -23.9718  -27.3227   18.9846 H   0  0  0  0  0  0
  -23.7801  -30.5957   19.4043 H   0  0  0  0  0  0
  -22.7685  -29.2541   19.8465 H   0  0  0  0  0  0
  -25.1293  -36.1899   25.0814 H   0  0  0  0  0  0
  -21.0009  -28.3302   24.1377 H   0  0  0  0  0  0
  -20.5685  -26.2327   23.3620 H   0  0  0  0  0  0
  -21.6650  -26.7446   22.1199 H   0  0  0  0  0  0
  -19.6923  -25.6299   21.1250 H   0  0  0  0  0  0
  -19.6697  -27.3196   20.6741 H   0  0  0  0  0  0
  -17.4209  -26.6694   21.4029 H   0  0  0  0  0  0
  -18.0341  -26.0082   22.9020 H   0  0  0  0  0  0
  -19.7948  -30.7285   24.2265 H   0  0  0  0  0  0
  -17.5027  -31.6278   24.5163 H   0  0  0  0  0  0
  -15.5363  -30.2998   23.7653 H   0  0  0  0  0  0
  -15.8687  -28.0827   22.7077 H   0  0  0  0  0  0
  -24.5912  -30.7082   25.7755 H   0  0  0  0  0  0
  -24.8904  -32.2914   26.4831 H   0  0  0  0  0  0
  -25.8021  -30.8935   27.0236 H   0  0  0  0  0  0
  -26.2958  -29.6723   24.1257 H   0  0  0  0  0  0
  -27.4021  -29.7262   25.4774 H   0  0  0  0  0  0
  -27.8854  -30.4240   23.9517 H   0  0  0  0  0  0
  -27.2708  -33.3624   26.2063 H   0  0  0  0  0  0
  -28.3900  -32.6847   25.0328 H   0  0  0  0  0  0
  -28.0752  -31.8447   26.5416 H   0  0  0  0  0  0
  -28.2569  -38.0104   24.7543 H   0  0  0  0  0  0
  -28.1103  -36.2631   24.6237 H   0  0  0  0  0  0
  -27.2311  -37.1364   25.8867 H   0  0  0  0  0  0
  -20.9409  -29.8775   21.6832 H   0  0  0  0  0  0
  -26.0157  -38.2831   24.1454 H   0  0  0  0  0  0
  -29.9469  -18.5205   22.3171 H   0  0  0  0  0  0
  -29.3367  -17.1368   18.2704 H   0  0  0  0  0  0
  -28.1592  -23.7868   17.9617 H   0  0  0  0  0  0
  -29.4672  -24.9529   18.1045 H   0  0  0  0  0  0
  -27.8302  -25.4979   17.7776 H   0  0  0  0  0  0
  -28.7771  -20.1432   13.8318 H   0  0  0  0  0  0
  -27.9031  -19.7259   15.2878 H   0  0  0  0  0  0
  -29.2746  -18.7481   14.7755 H   0  0  0  0  0  0
  -31.0057  -21.2295   13.8859 H   0  0  0  0  0  0
  -31.6505  -19.8302   14.7282 H   0  0  0  0  0  0
  -31.8849  -21.4424   15.3936 H   0  0  0  0  0  0
  -29.1214  -22.5616   14.8552 H   0  0  0  0  0  0
  -29.8654  -22.7111   16.4406 H   0  0  0  0  0  0
  -28.2498  -22.0284   16.2763 H   0  0  0  0  0  0
  -30.6670  -19.0749   16.8854 H   0  0  0  0  0  0
  -30.9085  -20.6549   17.5646 H   0  0  0  0  0  0
  -28.1983  -19.2376   17.4753 H   0  0  0  0  0  0
  -28.4960  -20.7643   18.2357 H   0  0  0  0  0  0
  -28.8942  -23.8277   21.6710 H   0  0  0  0  0  0
  -30.1190  -23.9760   20.4472 H   0  0  0  0  0  0
  -27.1436  -24.5644   20.0652 H   0  0  0  0  0  0
  -31.0620  -20.6768   22.1330 H   0  0  0  0  0  0
  -30.6499  -22.3475   22.0948 H   0  0  0  0  0  0
  -29.0100  -15.5490   21.4157 H   0  0  0  0  0  0
  -28.1651  -22.0020   19.6171 H   0  0  0  0  0  0
  1 25  1  0  0  0
  1 30  2  0  0  0
  1 87  1  0  0  0
  2  3  1  0  0  0
  2 25  1  0  0  0
  2 89  1  0  0  0
  2 90  1  0  0  0
  3  4  1  0  0  0
  3 91  1  0  0  0
  3 92  1  0  0  0
  4  5  1  0  0  0
  4 93  1  0  0  0
  4 94  1  0  0  0
  5  6  1  0  0  0
  5 26  1  0  0  0
  5 95  1  0  0  0
  6 25  1  0  0  0
  6 96  1  0  0  0
  6 97  1  0  0  0
  7  8  2  0  0  0
  7 26  1  0  0  0
  7 29  1  0  0  0
  8  9  1  0  0  0
  8 22  1  0  0  0
  9 10  1  0  0  0
  9 27  2  0  0  0
 10 11  2  0  0  0
 10 15  1  0  0  0
 11 12  1  0  0  0
 11 98  1  0  0  0
 12 13  2  0  0  0
 12 99  1  0  0  0
 13 14  1  0  0  0
 13 31  1  0  0  0
 14 15  2  0  0  0
 14100  1  0  0  0
 15101  1  0  0  0
 16 17  2  0  0  0
 16 21  1  0  0  0
 16 31  1  0  0  0
 17 18  1  0  0  0
 17102  1  0  0  0
 18 19  2  0  0  0
 18103  1  0  0  0
 19 20  1  0  0  0
 19 24  1  0  0  0
 20 21  2  0  0  0
 20104  1  0  0  0
 21 23  1  0  0  0
 22 28  1  0  0  0
 22 32  2  0  0  0
 26 27  1  0  0  0
 28105  1  0  0  0
 28106  1  0  0  0
 29107  1  0  0  0
 29108  1  0  0  0
 33 34  1  0  0  0
 33 66  1  0  0  0
 33 70  2  0  0  0
 34 36  1  0  0  0
 34 59  1  0  0  0
 34109  1  0  0  0
 35 44  2  0  0  0
 35 45  1  0  0  0
 35 68  1  0  0  0
 36 56  1  0  0  0
 36110  1  0  0  0
 37 39  1  0  0  0
 37 47  1  0  0  0
 37 66  1  0  0  0
 37111  1  0  0  0
 38 43  2  0  0  0
 38 46  1  0  0  0
 38 47  1  0  0  0
 39 64  1  0  0  0
 39 67  2  0  0  0
 40 52  1  0  0  0
 40 53  2  0  0  0
 40 58  1  0  0  0
 41112  1  0  0  0
 41113  1  0  0  0
 41114  1  0  0  0
 41 48  1  0  0  0
 42 43  1  0  0  0
 42 66  1  0  0  0
 42115  1  0  0  0
 42116  1  0  0  0
 43 44  1  0  0  0
 44117  1  0  0  0
 45 46  2  0  0  0
 45118  1  0  0  0
 46119  1  0  0  0
 47120  1  0  0  0
 47121  1  0  0  0
 48 56  1  0  0  0
 48 65  1  0  0  0
 48122  1  0  0  0
 49 50  1  0  0  0
 49 53  1  0  0  0
 49 64  1  0  0  0
 49123  1  0  0  0
 50 51  1  0  0  0
 50124  1  0  0  0
 50125  1  0  0  0
 51 52  1  0  0  0
 51126  1  0  0  0
 51127  1  0  0  0
 52128  1  0  0  0
 52129  1  0  0  0
 53 54  1  0  0  0
 54 55  2  0  0  0
 54130  1  0  0  0
 55 57  1  0  0  0
 55131  1  0  0  0
 56 69  2  0  0  0
 57 58  2  0  0  0
 57132  1  0  0  0
 58133  1  0  0  0
 59 60  1  0  0  0
 59 61  1  0  0  0
 59 62  1  0  0  0
 60134  1  0  0  0
 60135  1  0  0  0
 60136  1  0  0  0
 61137  1  0  0  0
 61138  1  0  0  0
 61139  1  0  0  0
 62140  1  0  0  0
 62141  1  0  0  0
 62142  1  0  0  0
 63 65  1  0  0  0
 63143  1  0  0  0
 63144  1  0  0  0
 63145  1  0  0  0
 64146  1  0  0  0
 65147  1  0  0  0
 68 83  1  0  0  0
 71 73  1  0  0  0
 71 74  2  0  0  0
 71148  1  0  0  0
 72 73  2  0  0  0
 72 85  1  0  0  0
 72149  1  0  0  0
 73 87  1  0  0  0
 74 75  1  0  0  0
 74 85  1  0  0  0
 75 86  1  0  0  0
 75 88  2  0  0  0
 76150  1  0  0  0
 76151  1  0  0  0
 76152  1  0  0  0
 76 83  1  0  0  0
 77153  1  0  0  0
 77154  1  0  0  0
 77155  1  0  0  0
 77 84  1  0  0  0
 78 84  1  0  0  0
 78156  1  0  0  0
 78157  1  0  0  0
 78158  1  0  0  0
 79 84  1  0  0  0
 79159  1  0  0  0
 79160  1  0  0  0
 79161  1  0  0  0
 80 81  1  0  0  0
 80 84  1  0  0  0
 80162  1  0  0  0
 80163  1  0  0  0
 81 85  1  0  0  0
 81164  1  0  0  0
 81165  1  0  0  0
 82 83  1  0  0  0
 82 88  1  0  0  0
 82166  1  0  0  0
 82167  1  0  0  0
 83168  1  0  0  0
 86169  1  0  0  0
 86170  1  0  0  0
 87171  1  0  0  0
 88172  1  0  0  0
M  CHG  1  88   1
M  ISO  4   1 100  68 101  83 101  87 100
M  END
> <chiral flag>
0

> <version>
0

> <s_m_source_file>
/data/baiqing/PycharmProjects/Reinvent-master-3.2/result/LINK_invent/BTK/process_docking_weight1_custom_product_contain_oxygen_bond_distance_aromatic_linkinvent_7_9_3/rearranged_h_0159.sdf

> <i_m_source_file_index>
86

> <r_mmod_Potential_Energy-OPLS-2005>
43.2311820983887

> <r_mmod_Stretch_Energy-OPLS-2005>
133.937469482422

> <r_mmod_Bend_Energy-OPLS-2005>
195.625640869141

> <r_mmod_Torsional_Energy-OPLS-2005>
266.039886474609

> <r_mmod_Improper_Torsional_Energy-OPLS-2005>
4.63371515274048

> <r_mmod_Van_der_Waal_Energy-OPLS-2005>
116.930419921875

> <r_mmod_Electrostatic_Energy-OPLS-2005>
-315.948211669922

> <r_mmod_Solvation_Energy-OPLS-2005>
-451.126495361328

> <b_mmod_Minimization_Converged-OPLS-2005>
0

> <r_mmod_RMS_Derivative-OPLS-2005>
1.17953419685364

$$$$
87
                    3D
 Structure written by MMmdl.
156164  0  0  1  0            999 V2000
  -30.6274  -14.5415   20.4411 C   0  0  0  0  0  0
  -30.4236  -12.3080   19.4288 C   0  0  0  0  0  0
  -29.5007  -12.4830   18.2041 C   0  0  0  0  0  0
  -28.0194  -12.3494   18.6165 C   0  0  0  0  0  0
  -27.6593  -13.1997   19.8663 C   0  0  2  0  0  0
  -28.7048  -13.0040   20.9884 C   0  0  0  0  0  0
  -25.2595  -13.8114   20.5647 C   0  0  0  0  0  0
  -24.1856  -13.0403   20.9189 C   0  0  0  0  0  0
  -24.6394  -11.6874   20.8755 C   0  0  0  0  0  0
  -23.9039  -10.4265   21.0413 C   0  0  0  0  0  0
  -24.3601   -9.4194   21.9195 C   0  0  0  0  0  0
  -23.6281   -8.2230   22.0757 C   0  0  0  0  0  0
  -22.4267   -8.0270   21.3557 C   0  0  0  0  0  0
  -21.9904   -9.0240   20.4661 C   0  0  0  0  0  0
  -22.7210  -10.2120   20.3062 C   0  0  0  0  0  0
  -21.6849   -6.0731   22.5278 C   0  0  0  0  0  0
  -21.4010   -6.5633   23.8210 C   0  0  0  0  0  0
  -21.3649   -5.6785   24.9180 C   0  0  0  0  0  0
  -21.6033   -4.3048   24.7229 C   0  0  0  0  0  0
  -21.8822   -3.8144   23.4357 C   0  0  0  0  0  0
  -21.9204   -4.6960   22.3408 C   0  0  0  0  0  0
  -22.7892  -13.5250   21.1849 C   0  0  0  0  0  0
  -22.1672   -4.2148   21.0989 F   0  0  0  0  0  0
  -21.5623   -3.4529   25.7744 F   0  0  0  0  0  0
  -30.0253  -13.3185   20.4241 N   0  0  0  0  0  0
  -26.3022  -12.9267   20.3320 N   0  0  0  0  0  0
  -25.9314  -11.6441   20.5751 N   0  0  0  0  0  0
  -22.0510  -12.8255   22.0386 N   0  0  0  0  0  0
  -25.4323  -15.1826   20.3988 N   0  0  0  0  0  0
  -31.7994  -14.7050   20.0880 O   0  0  0  0  0  0
  -21.6637   -6.8874   21.4240 O   0  0  0  0  0  0
  -22.3606  -14.5566   20.6687 O   0  0  0  0  0  0
  -24.6234  -31.8628   23.2033 C   0  0  0  0  0  0
  -25.9109  -32.4768   23.8379 C   0  0  1  0  0  0
  -27.2313  -27.3651   20.0865 C   0  0  0  0  0  0
  -25.5932  -33.8568   24.2300 N   0  0  0  0  0  0
  -23.4160  -30.4902   21.5424 C   0  0  2  0  0  0
  -24.8676  -28.9468   20.1026 C   0  0  0  0  0  0
  -22.7449  -29.4695   22.4912 C   0  0  0  0  0  0
  -18.0319  -28.1376   22.8530 C   0  0  0  0  0  0
  -24.1464  -36.7279   23.2652 C   0  0  0  0  0  0
  -25.9558  -30.7985   21.3760 C   0  0  0  0  0  0
  -26.0337  -29.4334   20.7108 C   0  0  0  0  0  0
  -27.2234  -28.6483   20.7007 C   0  0  0  0  0  0
  -26.0503  -26.9208   19.4608 C   0  0  0  0  0  0
  -24.8756  -27.6954   19.4671 C   0  0  0  0  0  0
  -23.6337  -29.8266   20.1559 C   0  0  0  0  0  0
  -25.4091  -36.3079   24.0345 C   0  0  1  0  0  0
  -20.5913  -28.3700   23.1258 C   0  0  2  0  0  0
  -20.6783  -26.9428   22.5403 C   0  0  0  0  0  0
  -19.5738  -26.6416   21.5218 C   0  0  0  0  0  0
  -18.1943  -26.7950   22.1652 C   0  0  0  0  0  0
  -19.1563  -28.8867   23.2908 C   0  0  0  0  0  0
  -18.9480  -30.1481   23.8911 C   0  0  0  0  0  0
  -17.6474  -30.6582   24.0593 C   0  0  0  0  0  0
  -25.9036  -34.9438   23.5096 C   0  0  0  0  0  0
  -16.5372  -29.9082   23.6334 C   0  0  0  0  0  0
  -16.7317  -28.6492   23.0373 C   0  0  0  0  0  0
  -26.4481  -31.6566   25.0705 C   0  0  0  0  0  0
  -25.3765  -31.3727   26.1474 C   0  0  0  0  0  0
  -27.0316  -30.2993   24.6137 C   0  0  0  0  0  0
  -27.6059  -32.4296   25.7470 C   0  0  0  0  0  0
  -27.5564  -37.1782   24.8462 C   0  0  0  0  0  0
  -21.4182  -29.3057   22.3632 N   0  0  0  0  0  0
  -26.4259  -37.3788   23.9419 N   0  0  0  0  0  0
  -24.6834  -31.0687   22.0972 N   0  0  0  0  0  0
  -23.4186  -28.8263   23.2988 O   0  0  0  0  0  0
  -28.2747  -26.4425   20.1803 O   0  0  0  0  0  0
  -26.5628  -34.8883   22.4656 O   0  0  0  0  0  0
  -23.5382  -32.1418   23.7376 O   0  0  0  0  0  0
  -29.8576  -18.2208   17.9498 C   0  0  0  0  0  0
  -29.5751  -19.4014   18.6768 C   0  0  0  0  0  0
  -29.9765  -16.9766   18.6069 C   0  0  0  0  0  0
  -29.4793  -18.0748   20.7165 C   0  0  0  0  0  0
  -29.4033  -19.3630   20.0847 C   0  0  0  0  0  0
  -29.7853  -16.8760   20.0071 C   0  0  0  0  0  0
  -27.9677  -25.4238   21.0830 C   0  0  0  0  0  0
  -28.1416  -24.0597   21.1341 C   0  0  0  0  0  0
  -28.8957  -23.1335   20.2476 C   0  0  0  0  0  0
  -28.7029  -20.4143   22.3418 C   0  0  0  0  0  0
  -29.2645  -20.6844   20.9227 C   0  0  2  0  0  0
  -29.8053  -15.5972   20.6859 N   0  0  0  0  0  0
  -28.4864  -21.8335   20.3652 N   0  0  0  0  0  0
  -29.8792  -23.4355   19.5696 O   0  0  0  0  0  0
  -27.5600  -23.4811   22.1978 O   0  0  0  0  0  0
  -31.4712  -12.4014   19.1361 H   0  0  0  0  0  0
  -30.3199  -11.3030   19.8393 H   0  0  0  0  0  0
  -29.7416  -11.7425   17.4402 H   0  0  0  0  0  0
  -29.6754  -13.4581   17.7445 H   0  0  0  0  0  0
  -27.8271  -11.2964   18.8259 H   0  0  0  0  0  0
  -27.3708  -12.6134   17.7802 H   0  0  0  0  0  0
  -27.6945  -14.2409   19.5486 H   0  0  0  0  0  0
  -28.6896  -11.9737   21.3464 H   0  0  0  0  0  0
  -28.4796  -13.6217   21.8592 H   0  0  0  0  0  0
  -25.2753   -9.5681   22.4773 H   0  0  0  0  0  0
  -23.9988   -7.4637   22.7486 H   0  0  0  0  0  0
  -21.0822   -8.8755   19.8991 H   0  0  0  0  0  0
  -22.3654  -10.9663   19.6173 H   0  0  0  0  0  0
  -21.1985   -7.6140   23.9715 H   0  0  0  0  0  0
  -21.1461   -6.0516   25.9081 H   0  0  0  0  0  0
  -22.0612   -2.7606   23.2856 H   0  0  0  0  0  0
  -22.4075  -11.9880   22.4738 H   0  0  0  0  0  0
  -21.1161  -13.1353   22.2609 H   0  0  0  0  0  0
  -24.6548  -15.8281   20.4811 H   0  0  0  0  0  0
  -26.2646  -15.6128   20.0159 H   0  0  0  0  0  0
  -26.7184  -32.5445   23.1173 H   0  0  0  0  0  0
  -25.0149  -33.9715   25.0481 H   0  0  0  0  0  0
  -22.7136  -31.3166   21.4046 H   0  0  0  0  0  0
  -23.3720  -35.9619   23.3301 H   0  0  0  0  0  0
  -24.3633  -36.8867   22.2089 H   0  0  0  0  0  0
  -23.7151  -37.6448   23.6655 H   0  0  0  0  0  0
  -26.0919  -31.5672   20.6138 H   0  0  0  0  0  0
  -26.8373  -30.8460   22.0044 H   0  0  0  0  0  0
  -28.1094  -29.0093   21.2067 H   0  0  0  0  0  0
  -26.0326  -25.9451   18.9954 H   0  0  0  0  0  0
  -23.9817  -27.3188   18.9907 H   0  0  0  0  0  0
  -23.7598  -30.6040   19.4034 H   0  0  0  0  0  0
  -22.7543  -29.2624   19.8417 H   0  0  0  0  0  0
  -25.1250  -36.1998   25.0856 H   0  0  0  0  0  0
  -21.0044  -28.3277   24.1356 H   0  0  0  0  0  0
  -20.5678  -26.2340   23.3609 H   0  0  0  0  0  0
  -21.6667  -26.7452   22.1222 H   0  0  0  0  0  0
  -19.6858  -25.6320   21.1255 H   0  0  0  0  0  0
  -19.6633  -27.3232   20.6742 H   0  0  0  0  0  0
  -17.4231  -26.6772   21.4033 H   0  0  0  0  0  0
  -18.0313  -26.0046   22.9001 H   0  0  0  0  0  0
  -19.7950  -30.7329   24.2221 H   0  0  0  0  0  0
  -17.5034  -31.6245   24.5224 H   0  0  0  0  0  0
  -15.5370  -30.2996   23.7606 H   0  0  0  0  0  0
  -15.8733  -28.0805   22.7052 H   0  0  0  0  0  0
  -24.5921  -30.7077   25.7840 H   0  0  0  0  0  0
  -24.8987  -32.2917   26.4896 H   0  0  0  0  0  0
  -25.8159  -30.8934   27.0239 H   0  0  0  0  0  0
  -26.2849  -29.6762   24.1185 H   0  0  0  0  0  0
  -27.4055  -29.7231   25.4610 H   0  0  0  0  0  0
  -27.8721  -30.4281   23.9311 H   0  0  0  0  0  0
  -27.2710  -33.3669   26.1960 H   0  0  0  0  0  0
  -28.3931  -32.6730   25.0318 H   0  0  0  0  0  0
  -28.0667  -31.8467   26.5466 H   0  0  0  0  0  0
  -28.2560  -38.0094   24.7581 H   0  0  0  0  0  0
  -28.1071  -36.2636   24.6216 H   0  0  0  0  0  0
  -27.2349  -37.1369   25.8878 H   0  0  0  0  0  0
  -20.9351  -29.8829   21.6868 H   0  0  0  0  0  0
  -26.0130  -38.2834   24.1489 H   0  0  0  0  0  0
  -30.0052  -18.2628   16.8761 H   0  0  0  0  0  0
  -29.5191  -20.3381   18.1387 H   0  0  0  0  0  0
  -30.1907  -16.0998   18.0095 H   0  0  0  0  0  0
  -29.3286  -17.9744   21.7795 H   0  0  0  0  0  0
  -27.4343  -25.8698   21.9102 H   0  0  0  0  0  0
  -29.3312  -19.7435   22.9303 H   0  0  0  0  0  0
  -27.7019  -19.9815   22.3078 H   0  0  0  0  0  0
  -28.6451  -21.3228   22.9369 H   0  0  0  0  0  0
  -30.2873  -21.0396   21.0569 H   0  0  0  0  0  0
  -28.9576  -15.3608   21.1835 H   0  0  0  0  0  0
  -27.5333  -21.8099   20.6966 H   0  0  0  0  0  0
  -27.1866  -24.1689   22.7305 H   0  0  0  0  0  0
  1 25  1  0  0  0
  1 30  2  0  0  0
  1 82  1  0  0  0
  2  3  1  0  0  0
  2 25  1  0  0  0
  2 86  1  0  0  0
  2 87  1  0  0  0
  3  4  1  0  0  0
  3 88  1  0  0  0
  3 89  1  0  0  0
  4  5  1  0  0  0
  4 90  1  0  0  0
  4 91  1  0  0  0
  5  6  1  0  0  0
  5 26  1  0  0  0
  5 92  1  0  0  0
  6 25  1  0  0  0
  6 93  1  0  0  0
  6 94  1  0  0  0
  7  8  2  0  0  0
  7 26  1  0  0  0
  7 29  1  0  0  0
  8  9  1  0  0  0
  8 22  1  0  0  0
  9 10  1  0  0  0
  9 27  2  0  0  0
 10 11  2  0  0  0
 10 15  1  0  0  0
 11 12  1  0  0  0
 11 95  1  0  0  0
 12 13  2  0  0  0
 12 96  1  0  0  0
 13 14  1  0  0  0
 13 31  1  0  0  0
 14 15  2  0  0  0
 14 97  1  0  0  0
 15 98  1  0  0  0
 16 17  2  0  0  0
 16 21  1  0  0  0
 16 31  1  0  0  0
 17 18  1  0  0  0
 17 99  1  0  0  0
 18 19  2  0  0  0
 18100  1  0  0  0
 19 20  1  0  0  0
 19 24  1  0  0  0
 20 21  2  0  0  0
 20101  1  0  0  0
 21 23  1  0  0  0
 22 28  1  0  0  0
 22 32  2  0  0  0
 26 27  1  0  0  0
 28102  1  0  0  0
 28103  1  0  0  0
 29104  1  0  0  0
 29105  1  0  0  0
 33 34  1  0  0  0
 33 66  1  0  0  0
 33 70  2  0  0  0
 34 36  1  0  0  0
 34 59  1  0  0  0
 34106  1  0  0  0
 35 44  2  0  0  0
 35 45  1  0  0  0
 35 68  1  0  0  0
 36 56  1  0  0  0
 36107  1  0  0  0
 37 39  1  0  0  0
 37 47  1  0  0  0
 37 66  1  0  0  0
 37108  1  0  0  0
 38 43  2  0  0  0
 38 46  1  0  0  0
 38 47  1  0  0  0
 39 64  1  0  0  0
 39 67  2  0  0  0
 40 52  1  0  0  0
 40 53  2  0  0  0
 40 58  1  0  0  0
 41109  1  0  0  0
 41110  1  0  0  0
 41111  1  0  0  0
 41 48  1  0  0  0
 42 43  1  0  0  0
 42 66  1  0  0  0
 42112  1  0  0  0
 42113  1  0  0  0
 43 44  1  0  0  0
 44114  1  0  0  0
 45 46  2  0  0  0
 45115  1  0  0  0
 46116  1  0  0  0
 47117  1  0  0  0
 47118  1  0  0  0
 48 56  1  0  0  0
 48 65  1  0  0  0
 48119  1  0  0  0
 49 50  1  0  0  0
 49 53  1  0  0  0
 49 64  1  0  0  0
 49120  1  0  0  0
 50 51  1  0  0  0
 50121  1  0  0  0
 50122  1  0  0  0
 51 52  1  0  0  0
 51123  1  0  0  0
 51124  1  0  0  0
 52125  1  0  0  0
 52126  1  0  0  0
 53 54  1  0  0  0
 54 55  2  0  0  0
 54127  1  0  0  0
 55 57  1  0  0  0
 55128  1  0  0  0
 56 69  2  0  0  0
 57 58  2  0  0  0
 57129  1  0  0  0
 58130  1  0  0  0
 59 60  1  0  0  0
 59 61  1  0  0  0
 59 62  1  0  0  0
 60131  1  0  0  0
 60132  1  0  0  0
 60133  1  0  0  0
 61134  1  0  0  0
 61135  1  0  0  0
 61136  1  0  0  0
 62137  1  0  0  0
 62138  1  0  0  0
 62139  1  0  0  0
 63 65  1  0  0  0
 63140  1  0  0  0
 63141  1  0  0  0
 63142  1  0  0  0
 64143  1  0  0  0
 65144  1  0  0  0
 68 77  1  0  0  0
 71 72  2  0  0  0
 71 73  1  0  0  0
 71145  1  0  0  0
 72 75  1  0  0  0
 72146  1  0  0  0
 73 76  2  0  0  0
 73147  1  0  0  0
 74 75  2  0  0  0
 74 76  1  0  0  0
 74148  1  0  0  0
 75 81  1  0  0  0
 76 82  1  0  0  0
 77 78  2  0  0  0
 77149  1  0  0  0
 78 79  1  0  0  0
 78 85  1  0  0  0
 79 83  1  0  0  0
 79 84  2  0  0  0
 80150  1  0  0  0
 80151  1  0  0  0
 80152  1  0  0  0
 80 81  1  0  0  0
 81 83  1  0  0  0
 81153  1  0  0  0
 82154  1  0  0  0
 83155  1  0  0  0
 85156  1  0  0  0
M  ISO  4   1 100  68 101  77 101  82 100
M  END
> <chiral flag>
0

> <version>
0

> <s_m_source_file>
/data/baiqing/PycharmProjects/Reinvent-master-3.2/result/LINK_invent/BTK/process_docking_weight1_custom_product_contain_oxygen_bond_distance_aromatic_linkinvent_7_9_3/rearranged_h_0159.sdf

> <i_m_source_file_index>
87

> <r_mmod_Potential_Energy-OPLS-2005>
25.8585987091064

> <r_mmod_Stretch_Energy-OPLS-2005>
63.0789833068848

> <r_mmod_Bend_Energy-OPLS-2005>
159.182052612305

> <r_mmod_Torsional_Energy-OPLS-2005>
289.889739990234

> <r_mmod_Improper_Torsional_Energy-OPLS-2005>
12.280348777771

> <r_mmod_Van_der_Waal_Energy-OPLS-2005>
152.408477783203

> <r_mmod_Electrostatic_Energy-OPLS-2005>
-448.766998291016

> <r_mmod_Solvation_Energy-OPLS-2005>
-240.807540893555

> <b_mmod_Minimization_Converged-OPLS-2005>
0

> <r_mmod_RMS_Derivative-OPLS-2005>
6.5639796257019

$$$$
88
                    3D
 Structure written by MMmdl.
155163  0  0  1  0            999 V2000
  -30.6065  -14.7750   20.4510 C   0  0  0  0  0  0
  -30.4332  -12.4736   19.4700 C   0  0  0  0  0  0
  -29.5148  -12.5195   18.2298 C   0  0  0  0  0  0
  -28.0383  -12.3402   18.6407 C   0  0  0  0  0  0
  -27.6408  -13.2363   19.8441 C   0  0  2  0  0  0
  -28.6879  -13.1804   20.9774 C   0  0  0  0  0  0
  -25.2521  -13.8196   20.5703 C   0  0  0  0  0  0
  -24.1813  -13.0427   20.9195 C   0  0  0  0  0  0
  -24.6397  -11.6911   20.8733 C   0  0  0  0  0  0
  -23.9067  -10.4286   21.0405 C   0  0  0  0  0  0
  -24.3623   -9.4200   21.9180 C   0  0  0  0  0  0
  -23.6307   -8.2236   22.0753 C   0  0  0  0  0  0
  -22.4292   -8.0261   21.3538 C   0  0  0  0  0  0
  -21.9915   -9.0234   20.4646 C   0  0  0  0  0  0
  -22.7237  -10.2118   20.3053 C   0  0  0  0  0  0
  -21.6843   -6.0743   22.5287 C   0  0  0  0  0  0
  -21.4008   -6.5652   23.8217 C   0  0  0  0  0  0
  -21.3660   -5.6799   24.9178 C   0  0  0  0  0  0
  -21.6041   -4.3059   24.7223 C   0  0  0  0  0  0
  -21.8816   -3.8153   23.4340 C   0  0  0  0  0  0
  -21.9188   -4.6977   22.3400 C   0  0  0  0  0  0
  -22.7825  -13.5200   21.1850 C   0  0  0  0  0  0
  -22.1668   -4.2170   21.0978 F   0  0  0  0  0  0
  -21.5628   -3.4531   25.7727 F   0  0  0  0  0  0
  -29.9810  -13.5452   20.3878 N   0  0  0  0  0  0
  -26.2940  -12.9412   20.3234 N   0  0  0  0  0  0
  -25.9330  -11.6548   20.5708 N   0  0  0  0  0  0
  -22.0462  -12.8213   22.0412 N   0  0  0  0  0  0
  -25.4192  -15.1922   20.4171 N   0  0  0  0  0  0
  -31.8052  -14.8484   20.1712 O   0  0  0  0  0  0
  -21.6637   -6.8878   21.4249 O   0  0  0  0  0  0
  -22.3517  -14.5498   20.6667 O   0  0  0  0  0  0
  -24.6295  -31.8536   23.1973 C   0  0  0  0  0  0
  -25.9121  -32.4746   23.8327 C   0  0  1  0  0  0
  -27.2194  -27.2702   20.1229 C   0  0  0  0  0  0
  -25.5919  -33.8552   24.2258 N   0  0  0  0  0  0
  -23.4269  -30.4768   21.5387 C   0  0  2  0  0  0
  -24.8750  -28.9189   20.1133 C   0  0  0  0  0  0
  -22.7493  -29.4588   22.4888 C   0  0  0  0  0  0
  -18.0285  -28.1407   22.8468 C   0  0  0  0  0  0
  -24.1487  -36.7268   23.2634 C   0  0  0  0  0  0
  -25.9721  -30.7713   21.3727 C   0  0  0  0  0  0
  -26.0479  -29.3924   20.7163 C   0  0  0  0  0  0
  -27.2285  -28.5817   20.7034 C   0  0  0  0  0  0
  -26.0263  -26.8573   19.4966 C   0  0  0  0  0  0
  -24.8679  -27.6594   19.4922 C   0  0  0  0  0  0
  -23.6460  -29.8059   20.1564 C   0  0  0  0  0  0
  -25.4122  -36.3060   24.0316 C   0  0  1  0  0  0
  -20.5889  -28.3697   23.1275 C   0  0  2  0  0  0
  -20.6783  -26.9427   22.5402 C   0  0  0  0  0  0
  -19.5754  -26.6401   21.5205 C   0  0  0  0  0  0
  -18.1933  -26.7943   22.1614 C   0  0  0  0  0  0
  -19.1541  -28.8876   23.2862 C   0  0  0  0  0  0
  -18.9454  -30.1470   23.8888 C   0  0  0  0  0  0
  -17.6447  -30.6597   24.0564 C   0  0  0  0  0  0
  -25.9058  -34.9431   23.5093 C   0  0  0  0  0  0
  -16.5341  -29.9093   23.6336 C   0  0  0  0  0  0
  -16.7263  -28.6518   23.0351 C   0  0  0  0  0  0
  -26.4509  -31.6571   25.0707 C   0  0  0  0  0  0
  -25.3739  -31.3713   26.1432 C   0  0  0  0  0  0
  -27.0346  -30.2987   24.6179 C   0  0  0  0  0  0
  -27.6091  -32.4292   25.7465 C   0  0  0  0  0  0
  -27.5581  -37.1785   24.8445 C   0  0  0  0  0  0
  -21.4201  -29.3033   22.3654 N   0  0  0  0  0  0
  -26.4279  -37.3765   23.9403 N   0  0  0  0  0  0
  -24.6953  -31.0521   22.0923 N   0  0  0  0  0  0
  -23.4199  -28.8141   23.2992 O   0  0  0  0  0  0
  -28.3228  -26.3934   20.1176 O   0  0  0  0  0  0
  -26.5612  -34.8890   22.4647 O   0  0  0  0  0  0
  -23.5452  -32.1333   23.7289 O   0  0  0  0  0  0
  -29.3936  -18.5266   20.2813 C   0  0  0  0  0  0
  -31.4300  -17.6911   21.3218 C   0  0  0  0  0  0
  -29.7895  -19.9291   20.4446 C   0  0  0  0  0  0
  -30.2021  -17.3745   20.7007 C   0  0  0  0  0  0
  -31.0571  -20.1127   21.0697 C   0  0  0  0  0  0
  -31.8411  -19.0234   21.5048 C   0  0  0  0  0  0
  -28.9267  -22.2815   20.4060 C   0  0  0  0  0  0
  -27.8617  -23.5848   18.3907 C   0  0  0  0  0  0
  -28.1470  -24.9652   20.5581 C   0  0  0  0  0  0
  -28.6862  -23.7093   19.6852 C   0  0  1  0  0  0
  -29.0908  -21.0863   19.8573 N   0  0  0  0  0  0
  -31.6380  -21.3742   21.1950 N   0  0  0  0  0  0
  -29.8241  -15.9290   20.5740 N   0  0  0  0  0  0
  -33.0479  -19.2698   22.0745 F   0  0  0  0  0  0
  -31.4757  -12.5954   19.1712 H   0  0  0  0  0  0
  -30.3749  -11.5002   19.9580 H   0  0  0  0  0  0
  -29.8056  -11.7505   17.5133 H   0  0  0  0  0  0
  -29.6451  -13.4753   17.7182 H   0  0  0  0  0  0
  -27.8903  -11.2903   18.8958 H   0  0  0  0  0  0
  -27.3825  -12.5404   17.7921 H   0  0  0  0  0  0
  -27.6285  -14.2565   19.4601 H   0  0  0  0  0  0
  -28.7305  -12.1826   21.4160 H   0  0  0  0  0  0
  -28.4202  -13.8621   21.7862 H   0  0  0  0  0  0
  -25.2768   -9.5686   22.4749 H   0  0  0  0  0  0
  -24.0017   -7.4623   22.7464 H   0  0  0  0  0  0
  -21.0836   -8.8734   19.8952 H   0  0  0  0  0  0
  -22.3675  -10.9653   19.6158 H   0  0  0  0  0  0
  -21.2004   -7.6160   23.9727 H   0  0  0  0  0  0
  -21.1496   -6.0529   25.9085 H   0  0  0  0  0  0
  -22.0598   -2.7618   23.2820 H   0  0  0  0  0  0
  -22.4085  -11.9887   22.4827 H   0  0  0  0  0  0
  -21.1068  -13.1241   22.2590 H   0  0  0  0  0  0
  -24.6435  -15.8365   20.5257 H   0  0  0  0  0  0
  -26.2556  -15.6377   20.0657 H   0  0  0  0  0  0
  -26.7190  -32.5403   23.1086 H   0  0  0  0  0  0
  -25.0103  -33.9689   25.0433 H   0  0  0  0  0  0
  -22.7210  -31.2979   21.3928 H   0  0  0  0  0  0
  -23.3745  -35.9594   23.3261 H   0  0  0  0  0  0
  -24.3602  -36.8913   22.2050 H   0  0  0  0  0  0
  -23.7228  -37.6457   23.6683 H   0  0  0  0  0  0
  -26.1036  -31.5324   20.6015 H   0  0  0  0  0  0
  -26.8527  -30.8290   22.0026 H   0  0  0  0  0  0
  -28.1350  -28.9404   21.1709 H   0  0  0  0  0  0
  -25.9810  -25.8962   19.0043 H   0  0  0  0  0  0
  -23.9695  -27.2957   19.0110 H   0  0  0  0  0  0
  -23.7670  -30.5756   19.3921 H   0  0  0  0  0  0
  -22.7659  -29.2347   19.8565 H   0  0  0  0  0  0
  -25.1317  -36.1890   25.0806 H   0  0  0  0  0  0
  -20.9997  -28.3255   24.1390 H   0  0  0  0  0  0
  -20.5700  -26.2297   23.3593 H   0  0  0  0  0  0
  -21.6660  -26.7464   22.1215 H   0  0  0  0  0  0
  -19.6892  -25.6309   21.1238 H   0  0  0  0  0  0
  -19.6692  -27.3217   20.6740 H   0  0  0  0  0  0
  -17.4222  -26.6681   21.3996 H   0  0  0  0  0  0
  -18.0317  -26.0111   22.9043 H   0  0  0  0  0  0
  -19.7924  -30.7298   24.2254 H   0  0  0  0  0  0
  -17.5003  -31.6276   24.5175 H   0  0  0  0  0  0
  -15.5344  -30.3000   23.7678 H   0  0  0  0  0  0
  -15.8663  -28.0846   22.7060 H   0  0  0  0  0  0
  -24.5933  -30.7040   25.7756 H   0  0  0  0  0  0
  -24.8905  -32.2876   26.4827 H   0  0  0  0  0  0
  -25.8067  -30.8908   27.0217 H   0  0  0  0  0  0
  -26.2909  -29.6730   24.1234 H   0  0  0  0  0  0
  -27.4058  -29.7255   25.4683 H   0  0  0  0  0  0
  -27.8785  -30.4244   23.9395 H   0  0  0  0  0  0
  -27.2754  -33.3625   26.2015 H   0  0  0  0  0  0
  -28.3937  -32.6783   25.0306 H   0  0  0  0  0  0
  -28.0740  -31.8412   26.5392 H   0  0  0  0  0  0
  -28.2583  -38.0109   24.7582 H   0  0  0  0  0  0
  -28.1115  -36.2648   24.6202 H   0  0  0  0  0  0
  -27.2309  -37.1352   25.8851 H   0  0  0  0  0  0
  -20.9377  -29.8726   21.6847 H   0  0  0  0  0  0
  -26.0135  -38.2806   24.1484 H   0  0  0  0  0  0
  -28.4541  -18.3392   19.7824 H   0  0  0  0  0  0
  -32.0944  -16.9148   21.6691 H   0  0  0  0  0  0
  -29.0567  -22.3970   21.4860 H   0  0  0  0  0  0
  -28.2563  -22.8077   17.7340 H   0  0  0  0  0  0
  -27.8918  -24.5199   17.8282 H   0  0  0  0  0  0
  -26.8155  -23.3577   18.6012 H   0  0  0  0  0  0
  -28.6650  -24.9204   21.5158 H   0  0  0  0  0  0
  -27.1053  -24.7806   20.8220 H   0  0  0  0  0  0
  -29.6881  -24.0017   19.3654 H   0  0  0  0  0  0
  -31.3730  -22.0132   20.4557 H   0  0  0  0  0  0
  -32.6433  -21.3310   21.3275 H   0  0  0  0  0  0
  -28.8342  -15.7470   20.5981 H   0  0  0  0  0  0
  1 25  1  0  0  0
  1 30  2  0  0  0
  1 83  1  0  0  0
  2  3  1  0  0  0
  2 25  1  0  0  0
  2 85  1  0  0  0
  2 86  1  0  0  0
  3  4  1  0  0  0
  3 87  1  0  0  0
  3 88  1  0  0  0
  4  5  1  0  0  0
  4 89  1  0  0  0
  4 90  1  0  0  0
  5  6  1  0  0  0
  5 26  1  0  0  0
  5 91  1  0  0  0
  6 25  1  0  0  0
  6 92  1  0  0  0
  6 93  1  0  0  0
  7  8  2  0  0  0
  7 26  1  0  0  0
  7 29  1  0  0  0
  8  9  1  0  0  0
  8 22  1  0  0  0
  9 10  1  0  0  0
  9 27  2  0  0  0
 10 11  2  0  0  0
 10 15  1  0  0  0
 11 12  1  0  0  0
 11 94  1  0  0  0
 12 13  2  0  0  0
 12 95  1  0  0  0
 13 14  1  0  0  0
 13 31  1  0  0  0
 14 15  2  0  0  0
 14 96  1  0  0  0
 15 97  1  0  0  0
 16 17  2  0  0  0
 16 21  1  0  0  0
 16 31  1  0  0  0
 17 18  1  0  0  0
 17 98  1  0  0  0
 18 19  2  0  0  0
 18 99  1  0  0  0
 19 20  1  0  0  0
 19 24  1  0  0  0
 20 21  2  0  0  0
 20100  1  0  0  0
 21 23  1  0  0  0
 22 28  1  0  0  0
 22 32  2  0  0  0
 26 27  1  0  0  0
 28101  1  0  0  0
 28102  1  0  0  0
 29103  1  0  0  0
 29104  1  0  0  0
 33 34  1  0  0  0
 33 66  1  0  0  0
 33 70  2  0  0  0
 34 36  1  0  0  0
 34 59  1  0  0  0
 34105  1  0  0  0
 35 44  2  0  0  0
 35 45  1  0  0  0
 35 68  1  0  0  0
 36 56  1  0  0  0
 36106  1  0  0  0
 37 39  1  0  0  0
 37 47  1  0  0  0
 37 66  1  0  0  0
 37107  1  0  0  0
 38 43  2  0  0  0
 38 46  1  0  0  0
 38 47  1  0  0  0
 39 64  1  0  0  0
 39 67  2  0  0  0
 40 52  1  0  0  0
 40 53  2  0  0  0
 40 58  1  0  0  0
 41108  1  0  0  0
 41109  1  0  0  0
 41110  1  0  0  0
 41 48  1  0  0  0
 42 43  1  0  0  0
 42 66  1  0  0  0
 42111  1  0  0  0
 42112  1  0  0  0
 43 44  1  0  0  0
 44113  1  0  0  0
 45 46  2  0  0  0
 45114  1  0  0  0
 46115  1  0  0  0
 47116  1  0  0  0
 47117  1  0  0  0
 48 56  1  0  0  0
 48 65  1  0  0  0
 48118  1  0  0  0
 49 50  1  0  0  0
 49 53  1  0  0  0
 49 64  1  0  0  0
 49119  1  0  0  0
 50 51  1  0  0  0
 50120  1  0  0  0
 50121  1  0  0  0
 51 52  1  0  0  0
 51122  1  0  0  0
 51123  1  0  0  0
 52124  1  0  0  0
 52125  1  0  0  0
 53 54  1  0  0  0
 54 55  2  0  0  0
 54126  1  0  0  0
 55 57  1  0  0  0
 55127  1  0  0  0
 56 69  2  0  0  0
 57 58  2  0  0  0
 57128  1  0  0  0
 58129  1  0  0  0
 59 60  1  0  0  0
 59 61  1  0  0  0
 59 62  1  0  0  0
 60130  1  0  0  0
 60131  1  0  0  0
 60132  1  0  0  0
 61133  1  0  0  0
 61134  1  0  0  0
 61135  1  0  0  0
 62136  1  0  0  0
 62137  1  0  0  0
 62138  1  0  0  0
 63 65  1  0  0  0
 63139  1  0  0  0
 63140  1  0  0  0
 63141  1  0  0  0
 64142  1  0  0  0
 65143  1  0  0  0
 68 79  1  0  0  0
 71 73  2  0  0  0
 71 74  1  0  0  0
 71144  1  0  0  0
 72 74  2  0  0  0
 72 76  1  0  0  0
 72145  1  0  0  0
 73 75  1  0  0  0
 73 81  1  0  0  0
 74 83  1  0  0  0
 75 76  2  0  0  0
 75 82  1  0  0  0
 76 84  1  0  0  0
 77 80  1  0  0  0
 77 81  2  0  0  0
 77146  1  0  0  0
 78147  1  0  0  0
 78148  1  0  0  0
 78149  1  0  0  0
 78 80  1  0  0  0
 79 80  1  0  0  0
 79150  1  0  0  0
 79151  1  0  0  0
 80152  1  0  0  0
 82153  1  0  0  0
 82154  1  0  0  0
 83155  1  0  0  0
M  ISO  4   1 100  68 101  79 101  83 100
M  END
> <chiral flag>
0

> <version>
0

> <s_m_source_file>
/data/baiqing/PycharmProjects/Reinvent-master-3.2/result/LINK_invent/BTK/process_docking_weight1_custom_product_contain_oxygen_bond_distance_aromatic_linkinvent_7_9_3/rearranged_h_0159.sdf

> <i_m_source_file_index>
88

> <r_mmod_Potential_Energy-OPLS-2005>
209.075881958008

> <r_mmod_Stretch_Energy-OPLS-2005>
141.726196289062

> <r_mmod_Bend_Energy-OPLS-2005>
168.39469909668

> <r_mmod_Torsional_Energy-OPLS-2005>
262.891174316406

> <r_mmod_Improper_Torsional_Energy-OPLS-2005>
12.9027290344238

> <r_mmod_Van_der_Waal_Energy-OPLS-2005>
149.308074951172

> <r_mmod_Electrostatic_Energy-OPLS-2005>
-400.462585449219

> <r_mmod_Solvation_Energy-OPLS-2005>
-213.654251098633

> <b_mmod_Minimization_Converged-OPLS-2005>
0

> <r_mmod_RMS_Derivative-OPLS-2005>
3.40711903572083

$$$$
89
                    3D
 Structure written by MMmdl.
157165  0  0  1  0            999 V2000
  -30.6072  -14.6401   20.5032 C   0  0  0  0  0  0
  -30.4317  -12.3852   19.4607 C   0  0  0  0  0  0
  -29.5035  -12.4975   18.2293 C   0  0  0  0  0  0
  -28.0293  -12.3257   18.6432 C   0  0  0  0  0  0
  -27.6499  -13.2101   19.8604 C   0  0  2  0  0  0
  -28.6893  -13.0646   20.9951 C   0  0  0  0  0  0
  -25.2542  -13.8153   20.5653 C   0  0  0  0  0  0
  -24.1814  -13.0423   20.9192 C   0  0  0  0  0  0
  -24.6383  -11.6901   20.8747 C   0  0  0  0  0  0
  -23.9057  -10.4280   21.0403 C   0  0  0  0  0  0
  -24.3609   -9.4190   21.9182 C   0  0  0  0  0  0
  -23.6275   -8.2232   22.0757 C   0  0  0  0  0  0
  -22.4263   -8.0277   21.3540 C   0  0  0  0  0  0
  -21.9896   -9.0252   20.4648 C   0  0  0  0  0  0
  -22.7228  -10.2124   20.3051 C   0  0  0  0  0  0
  -21.6853   -6.0728   22.5282 C   0  0  0  0  0  0
  -21.4009   -6.5642   23.8215 C   0  0  0  0  0  0
  -21.3665   -5.6799   24.9186 C   0  0  0  0  0  0
  -21.6051   -4.3063   24.7234 C   0  0  0  0  0  0
  -21.8814   -3.8148   23.4358 C   0  0  0  0  0  0
  -21.9182   -4.6957   22.3410 C   0  0  0  0  0  0
  -22.7850  -13.5219   21.1887 C   0  0  0  0  0  0
  -22.1656   -4.2143   21.0989 F   0  0  0  0  0  0
  -21.5630   -3.4549   25.7748 F   0  0  0  0  0  0
  -30.0093  -13.4076   20.4392 N   0  0  0  0  0  0
  -26.2953  -12.9321   20.3272 N   0  0  0  0  0  0
  -25.9291  -11.6487   20.5731 N   0  0  0  0  0  0
  -22.0518  -12.8176   22.0447 N   0  0  0  0  0  0
  -25.4263  -15.1860   20.4070 N   0  0  0  0  0  0
  -31.7504  -14.8258   20.0761 O   0  0  0  0  0  0
  -21.6633   -6.8864   21.4243 O   0  0  0  0  0  0
  -22.3536  -14.5541   20.6773 O   0  0  0  0  0  0
  -24.6264  -31.8591   23.2022 C   0  0  0  0  0  0
  -25.9096  -32.4774   23.8360 C   0  0  1  0  0  0
  -27.2295  -27.3335   20.1214 C   0  0  0  0  0  0
  -25.5919  -33.8572   24.2290 N   0  0  0  0  0  0
  -23.4208  -30.4807   21.5427 C   0  0  2  0  0  0
  -24.8706  -28.9360   20.1089 C   0  0  0  0  0  0
  -22.7473  -29.4616   22.4922 C   0  0  0  0  0  0
  -18.0272  -28.1382   22.8470 C   0  0  0  0  0  0
  -24.1491  -36.7293   23.2642 C   0  0  0  0  0  0
  -25.9587  -30.7974   21.3676 C   0  0  0  0  0  0
  -26.0369  -29.4231   20.7162 C   0  0  0  0  0  0
  -27.2226  -28.6321   20.7120 C   0  0  0  0  0  0
  -26.0511  -26.8988   19.4805 C   0  0  0  0  0  0
  -24.8800  -27.6797   19.4809 C   0  0  0  0  0  0
  -23.6373  -29.8150   20.1571 C   0  0  0  0  0  0
  -25.4120  -36.3067   24.0327 C   0  0  1  0  0  0
  -20.5884  -28.3694   23.1264 C   0  0  2  0  0  0
  -20.6764  -26.9409   22.5401 C   0  0  0  0  0  0
  -19.5742  -26.6384   21.5196 C   0  0  0  0  0  0
  -18.1924  -26.7922   22.1619 C   0  0  0  0  0  0
  -19.1527  -28.8847   23.2865 C   0  0  0  0  0  0
  -18.9466  -30.1445   23.8900 C   0  0  0  0  0  0
  -17.6473  -30.6583   24.0566 C   0  0  0  0  0  0
  -25.9051  -34.9441   23.5106 C   0  0  0  0  0  0
  -16.5356  -29.9098   23.6313 C   0  0  0  0  0  0
  -16.7266  -28.6506   23.0339 C   0  0  0  0  0  0
  -26.4490  -31.6554   25.0708 C   0  0  0  0  0  0
  -25.3745  -31.3653   26.1447 C   0  0  0  0  0  0
  -27.0352  -30.2996   24.6155 C   0  0  0  0  0  0
  -27.6055  -32.4274   25.7467 C   0  0  0  0  0  0
  -27.5573  -37.1795   24.8471 C   0  0  0  0  0  0
  -21.4181  -29.3057   22.3665 N   0  0  0  0  0  0
  -26.4308  -37.3749   23.9384 N   0  0  0  0  0  0
  -24.6872  -31.0627   22.0955 N   0  0  0  0  0  0
  -23.4192  -28.8143   23.2989 O   0  0  0  0  0  0
  -28.3396  -26.4808   20.1468 O   0  0  0  0  0  0
  -26.5609  -34.8907   22.4669 O   0  0  0  0  0  0
  -23.5430  -32.1370   23.7367 O   0  0  0  0  0  0
  -29.9680  -19.4713   21.4676 C   0  0  0  0  0  0
  -29.2141  -19.0055   19.2405 C   0  0  0  0  0  0
  -30.1597  -18.0704   21.7096 C   0  0  0  0  0  0
  -29.4745  -19.9835   20.2388 C   0  0  0  0  0  0
  -29.8613  -17.0987   20.7036 C   0  0  0  0  0  0
  -29.3886  -17.6068   19.4670 C   0  0  0  0  0  0
  -29.0474  -22.4875   20.7660 C   0  0  0  0  0  0
  -28.2706  -25.3962   22.2605 C   0  0  0  0  0  0
  -29.1034  -23.9692   20.1894 C   0  0  0  0  0  0
  -28.1510  -25.1372   20.7441 C   0  0  2  0  0  0
  -30.6770  -17.6271   23.0744 C   0  0  0  0  0  0
  -29.2990  -21.4147   19.9454 N   0  0  0  0  0  0
  -29.8268  -15.6587   20.9709 N   0  0  0  0  0  0
  -28.7950  -22.3124   21.9596 O   0  0  0  0  0  0
  -29.0531  -16.7345   18.4843 F   0  0  0  0  0  0
  -30.9311  -18.6606   23.8796 F   0  0  0  0  0  0
  -29.7769  -16.8489   23.6751 F   0  0  0  0  0  0
  -31.8079  -16.9375   22.9255 F   0  0  0  0  0  0
  -31.4756  -12.5035   19.1652 H   0  0  0  0  0  0
  -30.3578  -11.3900   19.9049 H   0  0  0  0  0  0
  -29.7696  -11.7449   17.4853 H   0  0  0  0  0  0
  -29.6377  -13.4662   17.7471 H   0  0  0  0  0  0
  -27.8816  -11.2741   18.8951 H   0  0  0  0  0  0
  -27.3675  -12.5327   17.8025 H   0  0  0  0  0  0
  -27.6697  -14.2424   19.5099 H   0  0  0  0  0  0
  -28.6975  -12.0416   21.3742 H   0  0  0  0  0  0
  -28.4262  -13.6911   21.8493 H   0  0  0  0  0  0
  -25.2750   -9.5667   22.4767 H   0  0  0  0  0  0
  -23.9991   -7.4618   22.7474 H   0  0  0  0  0  0
  -21.0823   -8.8769   19.8945 H   0  0  0  0  0  0
  -22.3683  -10.9672   19.6175 H   0  0  0  0  0  0
  -21.2007   -7.6155   23.9710 H   0  0  0  0  0  0
  -21.1494   -6.0540   25.9083 H   0  0  0  0  0  0
  -22.0581   -2.7604   23.2865 H   0  0  0  0  0  0
  -22.4162  -11.9801   22.4734 H   0  0  0  0  0  0
  -21.1167  -13.1217   22.2756 H   0  0  0  0  0  0
  -24.6518  -15.8334   20.5060 H   0  0  0  0  0  0
  -26.2586  -15.6198   20.0298 H   0  0  0  0  0  0
  -26.7176  -32.5452   23.1121 H   0  0  0  0  0  0
  -25.0067  -33.9730   25.0442 H   0  0  0  0  0  0
  -22.7138  -31.3000   21.3967 H   0  0  0  0  0  0
  -23.3731  -35.9654   23.3364 H   0  0  0  0  0  0
  -24.3557  -36.8858   22.2040 H   0  0  0  0  0  0
  -23.7294  -37.6531   23.6640 H   0  0  0  0  0  0
  -26.0736  -31.5548   20.5903 H   0  0  0  0  0  0
  -26.8457  -30.8631   21.9852 H   0  0  0  0  0  0
  -28.1190  -28.9947   21.1954 H   0  0  0  0  0  0
  -26.0303  -25.9405   18.9800 H   0  0  0  0  0  0
  -23.9920  -27.3040   18.9930 H   0  0  0  0  0  0
  -23.7596  -30.5903   19.4002 H   0  0  0  0  0  0
  -22.7584  -29.2441   19.8540 H   0  0  0  0  0  0
  -25.1306  -36.1930   25.0826 H   0  0  0  0  0  0
  -20.9978  -28.3283   24.1388 H   0  0  0  0  0  0
  -20.5632  -26.2317   23.3616 H   0  0  0  0  0  0
  -21.6641  -26.7421   22.1212 H   0  0  0  0  0  0
  -19.6919  -25.6297   21.1217 H   0  0  0  0  0  0
  -19.6677  -27.3200   20.6728 H   0  0  0  0  0  0
  -17.4187  -26.6628   21.4039 H   0  0  0  0  0  0
  -18.0359  -26.0072   22.9029 H   0  0  0  0  0  0
  -19.7945  -30.7233   24.2303 H   0  0  0  0  0  0
  -17.5030  -31.6266   24.5177 H   0  0  0  0  0  0
  -15.5359  -30.3017   23.7634 H   0  0  0  0  0  0
  -15.8650  -28.0832   22.7076 H   0  0  0  0  0  0
  -24.5929  -30.6999   25.7745 H   0  0  0  0  0  0
  -24.8931  -32.2808   26.4898 H   0  0  0  0  0  0
  -25.8110  -30.8787   27.0170 H   0  0  0  0  0  0
  -27.4170  -29.7308   25.4641 H   0  0  0  0  0  0
  -27.8709  -30.4268   23.9267 H   0  0  0  0  0  0
  -26.2910  -29.6712   24.1261 H   0  0  0  0  0  0
  -27.2691  -33.3542   26.2126 H   0  0  0  0  0  0
  -28.3798  -32.6896   25.0254 H   0  0  0  0  0  0
  -28.0799  -31.8377   26.5305 H   0  0  0  0  0  0
  -28.2634  -38.0045   24.7452 H   0  0  0  0  0  0
  -28.1019  -36.2577   24.6377 H   0  0  0  0  0  0
  -27.2273  -37.1538   25.8870 H   0  0  0  0  0  0
  -20.9370  -29.8810   21.6895 H   0  0  0  0  0  0
  -26.0201  -38.2835   24.1344 H   0  0  0  0  0  0
  -30.2113  -20.1699   22.2519 H   0  0  0  0  0  0
  -28.8475  -19.3169   18.2736 H   0  0  0  0  0  0
  -27.5718  -26.1705   22.5806 H   0  0  0  0  0  0
  -29.2711  -25.7372   22.5252 H   0  0  0  0  0  0
  -28.0430  -24.5170   22.8595 H   0  0  0  0  0  0
  -28.9516  -23.8998   19.1116 H   0  0  0  0  0  0
  -30.1350  -24.3021   20.3123 H   0  0  0  0  0  0
  -27.1352  -24.7889   20.5614 H   0  0  0  0  0  0
  -29.3645  -21.6589   18.9662 H   0  0  0  0  0  0
  -28.9598  -15.3362   21.3719 H   0  0  0  0  0  0
  1 25  1  0  0  0
  1 30  2  0  0  0
  1 83  1  0  0  0
  2  3  1  0  0  0
  2 25  1  0  0  0
  2 89  1  0  0  0
  2 90  1  0  0  0
  3  4  1  0  0  0
  3 91  1  0  0  0
  3 92  1  0  0  0
  4  5  1  0  0  0
  4 93  1  0  0  0
  4 94  1  0  0  0
  5  6  1  0  0  0
  5 26  1  0  0  0
  5 95  1  0  0  0
  6 25  1  0  0  0
  6 96  1  0  0  0
  6 97  1  0  0  0
  7  8  2  0  0  0
  7 26  1  0  0  0
  7 29  1  0  0  0
  8  9  1  0  0  0
  8 22  1  0  0  0
  9 10  1  0  0  0
  9 27  2  0  0  0
 10 11  2  0  0  0
 10 15  1  0  0  0
 11 12  1  0  0  0
 11 98  1  0  0  0
 12 13  2  0  0  0
 12 99  1  0  0  0
 13 14  1  0  0  0
 13 31  1  0  0  0
 14 15  2  0  0  0
 14100  1  0  0  0
 15101  1  0  0  0
 16 17  2  0  0  0
 16 21  1  0  0  0
 16 31  1  0  0  0
 17 18  1  0  0  0
 17102  1  0  0  0
 18 19  2  0  0  0
 18103  1  0  0  0
 19 20  1  0  0  0
 19 24  1  0  0  0
 20 21  2  0  0  0
 20104  1  0  0  0
 21 23  1  0  0  0
 22 28  1  0  0  0
 22 32  2  0  0  0
 26 27  1  0  0  0
 28105  1  0  0  0
 28106  1  0  0  0
 29107  1  0  0  0
 29108  1  0  0  0
 33 34  1  0  0  0
 33 66  1  0  0  0
 33 70  2  0  0  0
 34 36  1  0  0  0
 34 59  1  0  0  0
 34109  1  0  0  0
 35 44  2  0  0  0
 35 45  1  0  0  0
 35 68  1  0  0  0
 36 56  1  0  0  0
 36110  1  0  0  0
 37 39  1  0  0  0
 37 47  1  0  0  0
 37 66  1  0  0  0
 37111  1  0  0  0
 38 43  2  0  0  0
 38 46  1  0  0  0
 38 47  1  0  0  0
 39 64  1  0  0  0
 39 67  2  0  0  0
 40 52  1  0  0  0
 40 53  2  0  0  0
 40 58  1  0  0  0
 41112  1  0  0  0
 41113  1  0  0  0
 41114  1  0  0  0
 41 48  1  0  0  0
 42 43  1  0  0  0
 42 66  1  0  0  0
 42115  1  0  0  0
 42116  1  0  0  0
 43 44  1  0  0  0
 44117  1  0  0  0
 45 46  2  0  0  0
 45118  1  0  0  0
 46119  1  0  0  0
 47120  1  0  0  0
 47121  1  0  0  0
 48 56  1  0  0  0
 48 65  1  0  0  0
 48122  1  0  0  0
 49 50  1  0  0  0
 49 53  1  0  0  0
 49 64  1  0  0  0
 49123  1  0  0  0
 50 51  1  0  0  0
 50124  1  0  0  0
 50125  1  0  0  0
 51 52  1  0  0  0
 51126  1  0  0  0
 51127  1  0  0  0
 52128  1  0  0  0
 52129  1  0  0  0
 53 54  1  0  0  0
 54 55  2  0  0  0
 54130  1  0  0  0
 55 57  1  0  0  0
 55131  1  0  0  0
 56 69  2  0  0  0
 57 58  2  0  0  0
 57132  1  0  0  0
 58133  1  0  0  0
 59 60  1  0  0  0
 59 61  1  0  0  0
 59 62  1  0  0  0
 60134  1  0  0  0
 60135  1  0  0  0
 60136  1  0  0  0
 61137  1  0  0  0
 61138  1  0  0  0
 61139  1  0  0  0
 62140  1  0  0  0
 62141  1  0  0  0
 62142  1  0  0  0
 63 65  1  0  0  0
 63143  1  0  0  0
 63144  1  0  0  0
 63145  1  0  0  0
 64146  1  0  0  0
 65147  1  0  0  0
 68 80  1  0  0  0
 71 73  2  0  0  0
 71 74  1  0  0  0
 71148  1  0  0  0
 72 74  2  0  0  0
 72 76  1  0  0  0
 72149  1  0  0  0
 73 75  1  0  0  0
 73 81  1  0  0  0
 74 82  1  0  0  0
 75 76  2  0  0  0
 75 83  1  0  0  0
 76 85  1  0  0  0
 77 79  1  0  0  0
 77 82  1  0  0  0
 77 84  2  0  0  0
 78150  1  0  0  0
 78151  1  0  0  0
 78152  1  0  0  0
 78 80  1  0  0  0
 79 80  1  0  0  0
 79153  1  0  0  0
 79154  1  0  0  0
 80155  1  0  0  0
 81 86  1  0  0  0
 81 87  1  0  0  0
 81 88  1  0  0  0
 82156  1  0  0  0
 83157  1  0  0  0
M  ISO  4   1 100  68 101  80 101  83 100
M  END
> <chiral flag>
0

> <version>
0

> <s_m_source_file>
/data/baiqing/PycharmProjects/Reinvent-master-3.2/result/LINK_invent/BTK/process_docking_weight1_custom_product_contain_oxygen_bond_distance_aromatic_linkinvent_7_9_3/rearranged_h_0159.sdf

> <i_m_source_file_index>
89

> <r_mmod_Potential_Energy-OPLS-2005>
12.2725648880005

> <r_mmod_Stretch_Energy-OPLS-2005>
82.2055816650391

> <r_mmod_Bend_Energy-OPLS-2005>
134.981796264648

> <r_mmod_Torsional_Energy-OPLS-2005>
261.024597167969

> <r_mmod_Improper_Torsional_Energy-OPLS-2005>
4.88498592376709

> <r_mmod_Van_der_Waal_Energy-OPLS-2005>
140.609786987305

> <r_mmod_Electrostatic_Energy-OPLS-2005>
-431.843475341797

> <r_mmod_Solvation_Energy-OPLS-2005>
-226.364059448242

> <b_mmod_Minimization_Converged-OPLS-2005>
0

> <r_mmod_RMS_Derivative-OPLS-2005>
2.95249319076538

$$$$
90
                    3D
 Structure written by MMmdl.
169178  0  0  1  0            999 V2000
  -30.7161  -14.4340   20.6462 C   0  0  0  0  0  0
  -30.4276  -12.3111   19.4180 C   0  0  0  0  0  0
  -29.5019  -12.5298   18.2047 C   0  0  0  0  0  0
  -28.0224  -12.3787   18.6115 C   0  0  0  0  0  0
  -27.6647  -13.2036   19.8761 C   0  0  2  0  0  0
  -28.6996  -12.9640   20.9979 C   0  0  0  0  0  0
  -25.2595  -13.8153   20.5662 C   0  0  0  0  0  0
  -24.1833  -13.0438   20.9160 C   0  0  0  0  0  0
  -24.6369  -11.6902   20.8678 C   0  0  0  0  0  0
  -23.9026  -10.4292   21.0372 C   0  0  0  0  0  0
  -24.3589   -9.4224   21.9165 C   0  0  0  0  0  0
  -23.6280   -8.2247   22.0735 C   0  0  0  0  0  0
  -22.4261   -8.0277   21.3534 C   0  0  0  0  0  0
  -21.9884   -9.0246   20.4637 C   0  0  0  0  0  0
  -22.7194  -10.2132   20.3039 C   0  0  0  0  0  0
  -21.6856   -6.0728   22.5283 C   0  0  0  0  0  0
  -21.4022   -6.5629   23.8212 C   0  0  0  0  0  0
  -21.3650   -5.6778   24.9177 C   0  0  0  0  0  0
  -21.6042   -4.3041   24.7226 C   0  0  0  0  0  0
  -21.8816   -3.8140   23.4344 C   0  0  0  0  0  0
  -21.9192   -4.6956   22.3404 C   0  0  0  0  0  0
  -22.7858  -13.5243   21.1859 C   0  0  0  0  0  0
  -22.1667   -4.2145   21.0980 F   0  0  0  0  0  0
  -21.5630   -3.4524   25.7739 F   0  0  0  0  0  0
  -30.0359  -13.2732   20.4606 N   0  0  0  0  0  0
  -26.3018  -12.9315   20.3307 N   0  0  0  0  0  0
  -25.9296  -11.6473   20.5684 N   0  0  0  0  0  0
  -22.0482  -12.8241   22.0411 N   0  0  0  0  0  0
  -25.4345  -15.1881   20.4102 N   0  0  0  0  0  0
  -31.8141  -14.6555   20.1192 O   0  0  0  0  0  0
  -21.6635   -6.8867   21.4236 O   0  0  0  0  0  0
  -22.3535  -14.5542   20.6696 O   0  0  0  0  0  0
  -24.6123  -31.8693   23.2106 C   0  0  0  0  0  0
  -25.9021  -32.4833   23.8385 C   0  0  1  0  0  0
  -27.2191  -27.4493   20.0986 C   0  0  0  0  0  0
  -25.5874  -33.8626   24.2315 N   0  0  0  0  0  0
  -23.3993  -30.4924   21.5522 C   0  0  2  0  0  0
  -24.8448  -28.9675   20.1072 C   0  0  0  0  0  0
  -22.7404  -29.4651   22.5006 C   0  0  0  0  0  0
  -18.0269  -28.1367   22.8507 C   0  0  0  0  0  0
  -24.1484  -36.7325   23.2635 C   0  0  0  0  0  0
  -25.9261  -30.8427   21.3600 C   0  0  0  0  0  0
  -26.0042  -29.4798   20.7050 C   0  0  0  0  0  0
  -27.2005  -28.7277   20.6971 C   0  0  0  0  0  0
  -26.0512  -26.9497   19.4889 C   0  0  0  0  0  0
  -24.8635  -27.7026   19.4934 C   0  0  0  0  0  0
  -23.6041  -29.8284   20.1645 C   0  0  0  0  0  0
  -25.4104  -36.3111   24.0329 C   0  0  1  0  0  0
  -20.5858  -28.3644   23.1337 C   0  0  2  0  0  0
  -20.6761  -26.9382   22.5432 C   0  0  0  0  0  0
  -19.5736  -26.6379   21.5228 C   0  0  0  0  0  0
  -18.1911  -26.7917   22.1631 C   0  0  0  0  0  0
  -19.1520  -28.8826   23.2911 C   0  0  0  0  0  0
  -18.9443  -30.1438   23.8916 C   0  0  0  0  0  0
  -17.6447  -30.6580   24.0565 C   0  0  0  0  0  0
  -25.9033  -34.9479   23.5122 C   0  0  0  0  0  0
  -16.5335  -29.9087   23.6322 C   0  0  0  0  0  0
  -16.7259  -28.6497   23.0352 C   0  0  0  0  0  0
  -26.4451  -31.6608   25.0706 C   0  0  0  0  0  0
  -25.3723  -31.3738   26.1467 C   0  0  0  0  0  0
  -27.0259  -30.3036   24.6081 C   0  0  0  0  0  0
  -27.6023  -32.4338   25.7472 C   0  0  0  0  0  0
  -27.5585  -37.1799   24.8450 C   0  0  0  0  0  0
  -21.4133  -29.3002   22.3744 N   0  0  0  0  0  0
  -26.4287  -37.3800   23.9412 N   0  0  0  0  0  0
  -24.6642  -31.0813   22.0999 N   0  0  0  0  0  0
  -23.4184  -28.8195   23.3037 O   0  0  0  0  0  0
  -28.3394  -26.6596   20.1370 O   0  0  0  0  0  0
  -26.5604  -34.8933   22.4690 O   0  0  0  0  0  0
  -23.5322  -32.1426   23.7519 O   0  0  0  0  0  0
  -31.4369  -19.3908   21.4105 C   0  0  0  0  0  0
  -29.7074  -17.7533   20.8788 C   0  0  0  0  0  0
  -31.7084  -17.0684   22.1017 C   0  0  0  0  0  0
  -30.2024  -19.0799   20.7961 C   0  0  0  0  0  0
  -32.1709  -18.4009   22.0903 C   0  0  0  0  0  0
  -30.4909  -16.7332   21.4649 C   0  0  0  0  0  0
  -29.5259  -20.0606   19.9254 C   0  0  0  0  0  0
  -28.3359  -23.6382   19.5200 C   0  0  0  0  0  0
  -28.9996  -23.2766   21.8484 C   0  0  0  0  0  0
  -29.0562  -22.3500   19.0828 C   0  0  0  0  0  0
  -29.7921  -22.0087   21.4749 C   0  0  0  0  0  0
  -29.0096  -24.3298   20.7161 C   0  0  0  0  0  0
  -31.1789  -25.3109   21.2814 C   0  0  0  0  0  0
  -28.2293  -25.6121   21.1160 C   0  0  0  0  0  0
  -29.3472  -21.3903   20.1940 N   0  0  0  0  0  0
  -33.3775  -18.7411   22.7069 N   0  0  0  0  0  0
  -30.0766  -15.3759   21.3689 N   0  0  0  0  0  0
  -29.0996  -19.5899   18.7535 N   0  3  0  0  0  0
  -30.3456  -24.6723   20.3169 O   0  0  0  0  0  0
  -31.4749  -12.4170   19.1268 H   0  0  0  0  0  0
  -30.3273  -11.2903   19.7941 H   0  0  0  0  0  0
  -29.7498  -11.8247   17.4104 H   0  0  0  0  0  0
  -29.6696  -13.5264   17.7928 H   0  0  0  0  0  0
  -27.8328  -11.3203   18.7953 H   0  0  0  0  0  0
  -27.3729  -12.6669   17.7836 H   0  0  0  0  0  0
  -27.7150  -14.2547   19.5904 H   0  0  0  0  0  0
  -28.6727  -11.9214   21.3179 H   0  0  0  0  0  0
  -28.4479  -13.5410   21.8889 H   0  0  0  0  0  0
  -25.2741   -9.5724   22.4722 H   0  0  0  0  0  0
  -24.0015   -7.4639   22.7436 H   0  0  0  0  0  0
  -21.0818   -8.8729   19.8949 H   0  0  0  0  0  0
  -22.3627  -10.9654   19.6130 H   0  0  0  0  0  0
  -21.2019   -7.6141   23.9712 H   0  0  0  0  0  0
  -21.1476   -6.0517   25.9076 H   0  0  0  0  0  0
  -22.0605   -2.7605   23.2839 H   0  0  0  0  0  0
  -22.4075  -11.9916   22.4845 H   0  0  0  0  0  0
  -21.1096  -13.1267   22.2575 H   0  0  0  0  0  0
  -24.6677  -15.8456   20.5049 H   0  0  0  0  0  0
  -26.2876  -15.6201   20.0790 H   0  0  0  0  0  0
  -26.7093  -32.5556   23.1156 H   0  0  0  0  0  0
  -24.9988  -33.9792   25.0433 H   0  0  0  0  0  0
  -22.6853  -31.3071   21.4178 H   0  0  0  0  0  0
  -23.3740  -35.9662   23.3293 H   0  0  0  0  0  0
  -24.3576  -36.8953   22.2049 H   0  0  0  0  0  0
  -23.7242  -37.6529   23.6659 H   0  0  0  0  0  0
  -26.0337  -31.6133   20.5948 H   0  0  0  0  0  0
  -26.8152  -30.8954   21.9766 H   0  0  0  0  0  0
  -28.0952  -29.1103   21.1676 H   0  0  0  0  0  0
  -26.0564  -25.9712   19.0289 H   0  0  0  0  0  0
  -23.9727  -27.3060   19.0260 H   0  0  0  0  0  0
  -23.6994  -30.6037   19.4039 H   0  0  0  0  0  0
  -22.7312  -29.2403   19.8771 H   0  0  0  0  0  0
  -25.1279  -36.1969   25.0820 H   0  0  0  0  0  0
  -20.9945  -28.3203   24.1458 H   0  0  0  0  0  0
  -20.5679  -26.2237   23.3605 H   0  0  0  0  0  0
  -21.6627  -26.7439   22.1207 H   0  0  0  0  0  0
  -19.6890  -25.6298   21.1232 H   0  0  0  0  0  0
  -19.6678  -27.3211   20.6772 H   0  0  0  0  0  0
  -17.4185  -26.6680   21.4024 H   0  0  0  0  0  0
  -18.0293  -26.0056   22.9019 H   0  0  0  0  0  0
  -19.7920  -30.7248   24.2288 H   0  0  0  0  0  0
  -17.5002  -31.6267   24.5152 H   0  0  0  0  0  0
  -15.5333  -30.2988   23.7644 H   0  0  0  0  0  0
  -15.8656  -28.0822   22.7058 H   0  0  0  0  0  0
  -24.5869  -30.7112   25.7815 H   0  0  0  0  0  0
  -24.8944  -32.2913   26.4915 H   0  0  0  0  0  0
  -25.8069  -30.8900   27.0224 H   0  0  0  0  0  0
  -26.2790  -29.6835   24.1110 H   0  0  0  0  0  0
  -27.3980  -29.7238   25.4539 H   0  0  0  0  0  0
  -27.8653  -30.4326   23.9243 H   0  0  0  0  0  0
  -27.2613  -33.3620   26.2077 H   0  0  0  0  0  0
  -28.3811  -32.6947   25.0292 H   0  0  0  0  0  0
  -28.0717  -31.8459   26.5372 H   0  0  0  0  0  0
  -28.2584  -38.0118   24.7535 H   0  0  0  0  0  0
  -28.1096  -36.2649   24.6220 H   0  0  0  0  0  0
  -27.2307  -37.1391   25.8854 H   0  0  0  0  0  0
  -20.9291  -29.8694   21.6952 H   0  0  0  0  0  0
  -26.0174  -38.2872   24.1444 H   0  0  0  0  0  0
  -31.8520  -20.3819   21.3183 H   0  0  0  0  0  0
  -28.7675  -17.5012   20.4063 H   0  0  0  0  0  0
  -32.2946  -16.2931   22.5754 H   0  0  0  0  0  0
  -27.2943  -23.4077   19.7483 H   0  0  0  0  0  0
  -28.3037  -24.3244   18.6738 H   0  0  0  0  0  0
  -29.4012  -23.6957   22.7716 H   0  0  0  0  0  0
  -27.9732  -22.9982   22.0925 H   0  0  0  0  0  0
  -29.9957  -22.6008   18.5881 H   0  0  0  0  0  0
  -28.4282  -21.8977   18.3156 H   0  0  0  0  0  0
  -29.6965  -21.2975   22.2963 H   0  0  0  0  0  0
  -30.8479  -22.2695   21.3994 H   0  0  0  0  0  0
  -32.1583  -25.4911   20.8403 H   0  0  0  0  0  0
  -31.3362  -24.6911   22.1632 H   0  0  0  0  0  0
  -30.7905  -26.2792   21.5953 H   0  0  0  0  0  0
  -28.5896  -26.0049   22.0678 H   0  0  0  0  0  0
  -27.1892  -25.3354   21.3038 H   0  0  0  0  0  0
  -33.5264  -19.7109   22.9688 H   0  0  0  0  0  0
  -33.7730  -18.0952   23.3834 H   0  0  0  0  0  0
  -29.1430  -15.1453   21.6727 H   0  0  0  0  0  0
  -29.3289  -18.6445   18.4881 H   0  0  0  0  0  0
  -28.5305  -20.1372   18.1328 H   0  0  0  0  0  0
  1 25  1  0  0  0
  1 30  2  0  0  0
  1 87  1  0  0  0
  2  3  1  0  0  0
  2 25  1  0  0  0
  2 90  1  0  0  0
  2 91  1  0  0  0
  3  4  1  0  0  0
  3 92  1  0  0  0
  3 93  1  0  0  0
  4  5  1  0  0  0
  4 94  1  0  0  0
  4 95  1  0  0  0
  5  6  1  0  0  0
  5 26  1  0  0  0
  5 96  1  0  0  0
  6 25  1  0  0  0
  6 97  1  0  0  0
  6 98  1  0  0  0
  7  8  2  0  0  0
  7 26  1  0  0  0
  7 29  1  0  0  0
  8  9  1  0  0  0
  8 22  1  0  0  0
  9 10  1  0  0  0
  9 27  2  0  0  0
 10 11  2  0  0  0
 10 15  1  0  0  0
 11 12  1  0  0  0
 11 99  1  0  0  0
 12 13  2  0  0  0
 12100  1  0  0  0
 13 14  1  0  0  0
 13 31  1  0  0  0
 14 15  2  0  0  0
 14101  1  0  0  0
 15102  1  0  0  0
 16 17  2  0  0  0
 16 21  1  0  0  0
 16 31  1  0  0  0
 17 18  1  0  0  0
 17103  1  0  0  0
 18 19  2  0  0  0
 18104  1  0  0  0
 19 20  1  0  0  0
 19 24  1  0  0  0
 20 21  2  0  0  0
 20105  1  0  0  0
 21 23  1  0  0  0
 22 28  1  0  0  0
 22 32  2  0  0  0
 26 27  1  0  0  0
 28106  1  0  0  0
 28107  1  0  0  0
 29108  1  0  0  0
 29109  1  0  0  0
 33 34  1  0  0  0
 33 66  1  0  0  0
 33 70  2  0  0  0
 34 36  1  0  0  0
 34 59  1  0  0  0
 34110  1  0  0  0
 35 44  2  0  0  0
 35 45  1  0  0  0
 35 68  1  0  0  0
 36 56  1  0  0  0
 36111  1  0  0  0
 37 39  1  0  0  0
 37 47  1  0  0  0
 37 66  1  0  0  0
 37112  1  0  0  0
 38 43  2  0  0  0
 38 46  1  0  0  0
 38 47  1  0  0  0
 39 64  1  0  0  0
 39 67  2  0  0  0
 40 52  1  0  0  0
 40 53  2  0  0  0
 40 58  1  0  0  0
 41113  1  0  0  0
 41114  1  0  0  0
 41115  1  0  0  0
 41 48  1  0  0  0
 42 43  1  0  0  0
 42 66  1  0  0  0
 42116  1  0  0  0
 42117  1  0  0  0
 43 44  1  0  0  0
 44118  1  0  0  0
 45 46  2  0  0  0
 45119  1  0  0  0
 46120  1  0  0  0
 47121  1  0  0  0
 47122  1  0  0  0
 48 56  1  0  0  0
 48 65  1  0  0  0
 48123  1  0  0  0
 49 50  1  0  0  0
 49 53  1  0  0  0
 49 64  1  0  0  0
 49124  1  0  0  0
 50 51  1  0  0  0
 50125  1  0  0  0
 50126  1  0  0  0
 51 52  1  0  0  0
 51127  1  0  0  0
 51128  1  0  0  0
 52129  1  0  0  0
 52130  1  0  0  0
 53 54  1  0  0  0
 54 55  2  0  0  0
 54131  1  0  0  0
 55 57  1  0  0  0
 55132  1  0  0  0
 56 69  2  0  0  0
 57 58  2  0  0  0
 57133  1  0  0  0
 58134  1  0  0  0
 59 60  1  0  0  0
 59 61  1  0  0  0
 59 62  1  0  0  0
 60135  1  0  0  0
 60136  1  0  0  0
 60137  1  0  0  0
 61138  1  0  0  0
 61139  1  0  0  0
 61140  1  0  0  0
 62141  1  0  0  0
 62142  1  0  0  0
 62143  1  0  0  0
 63 65  1  0  0  0
 63144  1  0  0  0
 63145  1  0  0  0
 63146  1  0  0  0
 64147  1  0  0  0
 65148  1  0  0  0
 68 84  1  0  0  0
 71 74  2  0  0  0
 71 75  1  0  0  0
 71149  1  0  0  0
 72 74  1  0  0  0
 72 76  2  0  0  0
 72150  1  0  0  0
 73 75  2  0  0  0
 73 76  1  0  0  0
 73151  1  0  0  0
 74 77  1  0  0  0
 75 86  1  0  0  0
 76 87  1  0  0  0
 77 85  1  0  0  0
 77 88  2  0  0  0
 78 80  1  0  0  0
 78 82  1  0  0  0
 78152  1  0  0  0
 78153  1  0  0  0
 79 81  1  0  0  0
 79 82  1  0  0  0
 79154  1  0  0  0
 79155  1  0  0  0
 80 85  1  0  0  0
 80156  1  0  0  0
 80157  1  0  0  0
 81 85  1  0  0  0
 81158  1  0  0  0
 81159  1  0  0  0
 82 84  1  0  0  0
 82 89  1  0  0  0
 83 89  1  0  0  0
 83160  1  0  0  0
 83161  1  0  0  0
 83162  1  0  0  0
 84163  1  0  0  0
 84164  1  0  0  0
 86165  1  0  0  0
 86166  1  0  0  0
 87167  1  0  0  0
 88168  1  0  0  0
 88169  1  0  0  0
M  CHG  1  88   1
M  ISO  4   1 100  68 101  84 101  87 100
M  END
> <chiral flag>
0

> <version>
0

> <s_m_source_file>
/data/baiqing/PycharmProjects/Reinvent-master-3.2/result/LINK_invent/BTK/process_docking_weight1_custom_product_contain_oxygen_bond_distance_aromatic_linkinvent_7_9_3/rearranged_h_0159.sdf

> <i_m_source_file_index>
90

> <r_mmod_Potential_Energy-OPLS-2005>
-176.502838134766

> <r_mmod_Stretch_Energy-OPLS-2005>
40.6074600219727

> <r_mmod_Bend_Energy-OPLS-2005>
106.918899536133

> <r_mmod_Torsional_Energy-OPLS-2005>
309.836975097656

> <r_mmod_Improper_Torsional_Energy-OPLS-2005>
8.11368942260742

> <r_mmod_Van_der_Waal_Energy-OPLS-2005>
173.286712646484

> <r_mmod_Electrostatic_Energy-OPLS-2005>
-406.489959716797

> <r_mmod_Solvation_Energy-OPLS-2005>
-420.440551757812

> <b_mmod_Minimization_Converged-OPLS-2005>
0

> <r_mmod_RMS_Derivative-OPLS-2005>
2.82961988449097

$$$$
91
                    3D
 Structure written by MMmdl.
159168  0  0  1  0            999 V2000
  -30.6359  -14.6755   20.4766 C   0  0  0  0  0  0
  -30.4341  -12.4136   19.4618 C   0  0  0  0  0  0
  -29.5096  -12.5010   18.2276 C   0  0  0  0  0  0
  -28.0338  -12.3352   18.6414 C   0  0  0  0  0  0
  -27.6487  -13.2237   19.8545 C   0  0  2  0  0  0
  -28.6935  -13.1233   20.9887 C   0  0  0  0  0  0
  -25.2548  -13.8183   20.5678 C   0  0  0  0  0  0
  -24.1828  -13.0442   20.9207 C   0  0  0  0  0  0
  -24.6403  -11.6915   20.8749 C   0  0  0  0  0  0
  -23.9074  -10.4300   21.0410 C   0  0  0  0  0  0
  -24.3627   -9.4206   21.9185 C   0  0  0  0  0  0
  -23.6304   -8.2240   22.0753 C   0  0  0  0  0  0
  -22.4282   -8.0290   21.3546 C   0  0  0  0  0  0
  -21.9920   -9.0263   20.4647 C   0  0  0  0  0  0
  -22.7248  -10.2142   20.3056 C   0  0  0  0  0  0
  -21.6854   -6.0742   22.5287 C   0  0  0  0  0  0
  -21.4007   -6.5645   23.8220 C   0  0  0  0  0  0
  -21.3652   -5.6793   24.9180 C   0  0  0  0  0  0
  -21.6043   -4.3055   24.7229 C   0  0  0  0  0  0
  -21.8820   -3.8153   23.4350 C   0  0  0  0  0  0
  -21.9194   -4.6968   22.3405 C   0  0  0  0  0  0
  -22.7850  -13.5230   21.1868 C   0  0  0  0  0  0
  -22.1666   -4.2153   21.0985 F   0  0  0  0  0  0
  -21.5627   -3.4536   25.7739 F   0  0  0  0  0  0
  -30.0046  -13.4583   20.4157 N   0  0  0  0  0  0
  -26.2970  -12.9381   20.3283 N   0  0  0  0  0  0
  -25.9336  -11.6529   20.5751 N   0  0  0  0  0  0
  -22.0479  -12.8222   22.0411 N   0  0  0  0  0  0
  -25.4248  -15.1910   20.4078 N   0  0  0  0  0  0
  -31.8151  -14.7850   20.1296 O   0  0  0  0  0  0
  -21.6646   -6.8884   21.4247 O   0  0  0  0  0  0
  -22.3542  -14.5532   20.6709 O   0  0  0  0  0  0
  -24.6282  -31.8598   23.2031 C   0  0  0  0  0  0
  -25.9128  -32.4775   23.8366 C   0  0  1  0  0  0
  -27.2148  -27.3087   20.1141 C   0  0  0  0  0  0
  -25.5944  -33.8575   24.2283 N   0  0  0  0  0  0
  -23.4229  -30.4842   21.5462 C   0  0  2  0  0  0
  -24.8693  -28.9408   20.1102 C   0  0  0  0  0  0
  -22.7491  -29.4618   22.4931 C   0  0  0  0  0  0
  -18.0287  -28.1400   22.8492 C   0  0  0  0  0  0
  -24.1484  -36.7273   23.2626 C   0  0  0  0  0  0
  -25.9674  -30.7856   21.3781 C   0  0  0  0  0  0
  -26.0411  -29.4135   20.7171 C   0  0  0  0  0  0
  -27.2225  -28.6091   20.7103 C   0  0  0  0  0  0
  -26.0264  -26.8995   19.4736 C   0  0  0  0  0  0
  -24.8637  -27.6890   19.4793 C   0  0  0  0  0  0
  -23.6384  -29.8216   20.1610 C   0  0  0  0  0  0
  -25.4102  -36.3073   24.0336 C   0  0  1  0  0  0
  -20.5892  -28.3693   23.1290 C   0  0  2  0  0  0
  -20.6769  -26.9415   22.5420 C   0  0  0  0  0  0
  -19.5744  -26.6396   21.5222 C   0  0  0  0  0  0
  -18.1922  -26.7949   22.1618 C   0  0  0  0  0  0
  -19.1544  -28.8864   23.2883 C   0  0  0  0  0  0
  -18.9464  -30.1470   23.8890 C   0  0  0  0  0  0
  -17.6462  -30.6593   24.0565 C   0  0  0  0  0  0
  -25.9066  -34.9453   23.5108 C   0  0  0  0  0  0
  -16.5354  -29.9090   23.6345 C   0  0  0  0  0  0
  -16.7272  -28.6514   23.0359 C   0  0  0  0  0  0
  -26.4501  -31.6583   25.0741 C   0  0  0  0  0  0
  -25.3728  -31.3764   26.1476 C   0  0  0  0  0  0
  -27.0306  -30.2985   24.6204 C   0  0  0  0  0  0
  -27.6086  -32.4295   25.7487 C   0  0  0  0  0  0
  -27.5611  -37.1738   24.8421 C   0  0  0  0  0  0
  -21.4200  -29.3037   22.3669 N   0  0  0  0  0  0
  -26.4251  -37.3800   23.9476 N   0  0  0  0  0  0
  -24.6918  -31.0599   22.0988 N   0  0  0  0  0  0
  -23.4210  -28.8147   23.3008 O   0  0  0  0  0  0
  -28.2831  -26.3979   20.1515 O   0  0  0  0  0  0
  -26.5621  -34.8929   22.4668 O   0  0  0  0  0  0
  -23.5440  -32.1387   23.7353 O   0  0  0  0  0  0
  -31.3236  -17.8006   20.2174 C   0  0  0  0  0  0
  -30.1680  -17.1357   20.5692 C   0  0  0  0  0  0
  -29.8133  -19.3800   20.5179 C   0  0  0  0  0  0
  -28.1171  -22.8973   19.4877 C   0  0  0  0  0  0
  -28.5938  -23.7226   20.4637 C   0  0  0  0  0  0
  -27.0991  -23.3696   18.5369 C   0  0  0  0  0  0
  -28.4924  -21.3939   19.3475 C   0  0  0  0  0  0
  -29.5676  -23.0996   21.4906 C   0  0  0  0  0  0
  -29.0685  -20.7525   20.6466 C   0  0  2  0  0  0
  -27.5787  -24.0696   17.2714 C   0  0  0  0  0  0
  -27.9743  -25.1302   20.8625 C   0  0  0  0  0  0
  -31.0957  -19.1856   20.1927 N   0  0  0  0  0  0
  -29.8603  -15.7860   20.7371 N   0  0  0  0  0  0
  -30.0694  -21.7104   21.1837 N   0  3  0  0  0  0
  -25.8920  -23.1984   18.7172 O   0  0  0  0  0  0
  -29.2030  -18.1514   20.7497 O   0  0  0  0  0  0
  -31.4762  -12.5298   19.1578 H   0  0  0  0  0  0
  -30.3679  -11.4274   19.9238 H   0  0  0  0  0  0
  -29.7820  -11.7364   17.4984 H   0  0  0  0  0  0
  -29.6487  -13.4613   17.7290 H   0  0  0  0  0  0
  -27.8801  -11.2850   18.8909 H   0  0  0  0  0  0
  -27.3778  -12.5434   17.7958 H   0  0  0  0  0  0
  -27.6550  -14.2508   19.4903 H   0  0  0  0  0  0
  -28.7126  -12.1168   21.4098 H   0  0  0  0  0  0
  -28.4357  -13.7909   21.8125 H   0  0  0  0  0  0
  -25.2778   -9.5679   22.4750 H   0  0  0  0  0  0
  -24.0020   -7.4623   22.7460 H   0  0  0  0  0  0
  -21.0858   -8.8782   19.8952 H   0  0  0  0  0  0
  -22.3718  -10.9676   19.6160 H   0  0  0  0  0  0
  -21.1994   -7.6149   23.9722 H   0  0  0  0  0  0
  -21.1466   -6.0524   25.9085 H   0  0  0  0  0  0
  -22.0598   -2.7615   23.2850 H   0  0  0  0  0  0
  -22.4080  -11.9879   22.4806 H   0  0  0  0  0  0
  -21.1093  -13.1263   22.2594 H   0  0  0  0  0  0
  -24.6533  -15.8412   20.5102 H   0  0  0  0  0  0
  -26.2665  -15.6285   20.0556 H   0  0  0  0  0  0
  -26.7199  -32.5433   23.1117 H   0  0  0  0  0  0
  -25.0099  -33.9720   25.0436 H   0  0  0  0  0  0
  -22.7178  -31.3056   21.4053 H   0  0  0  0  0  0
  -23.3800  -35.9541   23.3169 H   0  0  0  0  0  0
  -24.3621  -36.9005   22.2066 H   0  0  0  0  0  0
  -23.7147  -37.6406   23.6715 H   0  0  0  0  0  0
  -26.1060  -31.5506   20.6126 H   0  0  0  0  0  0
  -26.8462  -30.8305   22.0093 H   0  0  0  0  0  0
  -28.1196  -28.9608   21.2001 H   0  0  0  0  0  0
  -25.9786  -25.9385   18.9853 H   0  0  0  0  0  0
  -23.9660  -27.3235   18.9989 H   0  0  0  0  0  0
  -23.7580  -30.5987   19.4061 H   0  0  0  0  0  0
  -22.7582  -29.2515   19.8577 H   0  0  0  0  0  0
  -25.1257  -36.1889   25.0818 H   0  0  0  0  0  0
  -21.0002  -28.3271   24.1404 H   0  0  0  0  0  0
  -20.5684  -26.2298   23.3617 H   0  0  0  0  0  0
  -21.6637  -26.7444   22.1207 H   0  0  0  0  0  0
  -19.6902  -25.6311   21.1242 H   0  0  0  0  0  0
  -19.6700  -27.3212   20.6758 H   0  0  0  0  0  0
  -17.4209  -26.6730   21.3997 H   0  0  0  0  0  0
  -18.0295  -26.0088   22.9006 H   0  0  0  0  0  0
  -19.7945  -30.7293   24.2248 H   0  0  0  0  0  0
  -17.5024  -31.6275   24.5170 H   0  0  0  0  0  0
  -15.5355  -30.2984   23.7697 H   0  0  0  0  0  0
  -15.8674  -28.0840   22.7063 H   0  0  0  0  0  0
  -24.5889  -30.7119   25.7830 H   0  0  0  0  0  0
  -24.8937  -32.2948   26.4875 H   0  0  0  0  0  0
  -25.8050  -30.8968   27.0266 H   0  0  0  0  0  0
  -26.2865  -29.6759   24.1223 H   0  0  0  0  0  0
  -27.3966  -29.7223   25.4711 H   0  0  0  0  0  0
  -27.8772  -30.4239   23.9447 H   0  0  0  0  0  0
  -27.2737  -33.3609   26.2061 H   0  0  0  0  0  0
  -28.3896  -32.6817   25.0304 H   0  0  0  0  0  0
  -28.0758  -31.8409   26.5390 H   0  0  0  0  0  0
  -28.2467  -38.0195   24.7732 H   0  0  0  0  0  0
  -28.1265  -36.2755   24.5890 H   0  0  0  0  0  0
  -27.2400  -37.0949   25.8821 H   0  0  0  0  0  0
  -20.9381  -29.8750   21.6869 H   0  0  0  0  0  0
  -26.0114  -38.2830   24.1647 H   0  0  0  0  0  0
  -32.2992  -17.3958   19.9843 H   0  0  0  0  0  0
  -29.2225  -21.3117   18.5421 H   0  0  0  0  0  0
  -27.6224  -20.8173   19.0290 H   0  0  0  0  0  0
  -29.0501  -23.0613   22.4497 H   0  0  0  0  0  0
  -30.4193  -23.7676   21.6255 H   0  0  0  0  0  0
  -28.2715  -20.6349   21.3822 H   0  0  0  0  0  0
  -28.4277  -23.5310   16.8499 H   0  0  0  0  0  0
  -27.8904  -25.0912   17.4927 H   0  0  0  0  0  0
  -26.7881  -24.1008   16.5199 H   0  0  0  0  0  0
  -28.2611  -25.3123   21.8990 H   0  0  0  0  0  0
  -26.8977  -24.9720   20.9344 H   0  0  0  0  0  0
  -28.9090  -15.5824   21.0017 H   0  0  0  0  0  0
  -30.4704  -21.3060   22.0143 H   0  0  0  0  0  0
  -30.8142  -21.7549   20.5067 H   0  0  0  0  0  0
  1 25  1  0  0  0
  1 30  2  0  0  0
  1 83  1  0  0  0
  2  3  1  0  0  0
  2 25  1  0  0  0
  2 87  1  0  0  0
  2 88  1  0  0  0
  3  4  1  0  0  0
  3 89  1  0  0  0
  3 90  1  0  0  0
  4  5  1  0  0  0
  4 91  1  0  0  0
  4 92  1  0  0  0
  5  6  1  0  0  0
  5 26  1  0  0  0
  5 93  1  0  0  0
  6 25  1  0  0  0
  6 94  1  0  0  0
  6 95  1  0  0  0
  7  8  2  0  0  0
  7 26  1  0  0  0
  7 29  1  0  0  0
  8  9  1  0  0  0
  8 22  1  0  0  0
  9 10  1  0  0  0
  9 27  2  0  0  0
 10 11  2  0  0  0
 10 15  1  0  0  0
 11 12  1  0  0  0
 11 96  1  0  0  0
 12 13  2  0  0  0
 12 97  1  0  0  0
 13 14  1  0  0  0
 13 31  1  0  0  0
 14 15  2  0  0  0
 14 98  1  0  0  0
 15 99  1  0  0  0
 16 17  2  0  0  0
 16 21  1  0  0  0
 16 31  1  0  0  0
 17 18  1  0  0  0
 17100  1  0  0  0
 18 19  2  0  0  0
 18101  1  0  0  0
 19 20  1  0  0  0
 19 24  1  0  0  0
 20 21  2  0  0  0
 20102  1  0  0  0
 21 23  1  0  0  0
 22 28  1  0  0  0
 22 32  2  0  0  0
 26 27  1  0  0  0
 28103  1  0  0  0
 28104  1  0  0  0
 29105  1  0  0  0
 29106  1  0  0  0
 33 34  1  0  0  0
 33 66  1  0  0  0
 33 70  2  0  0  0
 34 36  1  0  0  0
 34 59  1  0  0  0
 34107  1  0  0  0
 35 44  2  0  0  0
 35 45  1  0  0  0
 35 68  1  0  0  0
 36 56  1  0  0  0
 36108  1  0  0  0
 37 39  1  0  0  0
 37 47  1  0  0  0
 37 66  1  0  0  0
 37109  1  0  0  0
 38 43  2  0  0  0
 38 46  1  0  0  0
 38 47  1  0  0  0
 39 64  1  0  0  0
 39 67  2  0  0  0
 40 52  1  0  0  0
 40 53  2  0  0  0
 40 58  1  0  0  0
 41110  1  0  0  0
 41111  1  0  0  0
 41112  1  0  0  0
 41 48  1  0  0  0
 42 43  1  0  0  0
 42 66  1  0  0  0
 42113  1  0  0  0
 42114  1  0  0  0
 43 44  1  0  0  0
 44115  1  0  0  0
 45 46  2  0  0  0
 45116  1  0  0  0
 46117  1  0  0  0
 47118  1  0  0  0
 47119  1  0  0  0
 48 56  1  0  0  0
 48 65  1  0  0  0
 48120  1  0  0  0
 49 50  1  0  0  0
 49 53  1  0  0  0
 49 64  1  0  0  0
 49121  1  0  0  0
 50 51  1  0  0  0
 50122  1  0  0  0
 50123  1  0  0  0
 51 52  1  0  0  0
 51124  1  0  0  0
 51125  1  0  0  0
 52126  1  0  0  0
 52127  1  0  0  0
 53 54  1  0  0  0
 54 55  2  0  0  0
 54128  1  0  0  0
 55 57  1  0  0  0
 55129  1  0  0  0
 56 69  2  0  0  0
 57 58  2  0  0  0
 57130  1  0  0  0
 58131  1  0  0  0
 59 60  1  0  0  0
 59 61  1  0  0  0
 59 62  1  0  0  0
 60132  1  0  0  0
 60133  1  0  0  0
 60134  1  0  0  0
 61135  1  0  0  0
 61136  1  0  0  0
 61137  1  0  0  0
 62138  1  0  0  0
 62139  1  0  0  0
 62140  1  0  0  0
 63 65  1  0  0  0
 63141  1  0  0  0
 63142  1  0  0  0
 63143  1  0  0  0
 64144  1  0  0  0
 65145  1  0  0  0
 68 81  1  0  0  0
 71 72  2  0  0  0
 71 82  1  0  0  0
 71146  1  0  0  0
 72 83  1  0  0  0
 72 86  1  0  0  0
 73 82  2  0  0  0
 73 86  1  0  0  0
 73 79  1  0  0  0
 74 75  2  0  0  0
 74 76  1  0  0  0
 74 77  1  0  0  0
 75 78  1  0  0  0
 75 81  1  0  0  0
 76 80  1  0  0  0
 76 85  2  0  0  0
 77 79  1  0  0  0
 77147  1  0  0  0
 77148  1  0  0  0
 78 84  1  0  0  0
 78149  1  0  0  0
 78150  1  0  0  0
 79 84  1  0  0  0
 79151  1  0  0  0
 80152  1  0  0  0
 80153  1  0  0  0
 80154  1  0  0  0
 81155  1  0  0  0
 81156  1  0  0  0
 83157  1  0  0  0
 84158  1  0  0  0
 84159  1  0  0  0
M  CHG  1  84   1
M  ISO  4   1 100  68 101  81 101  83 100
M  END
> <chiral flag>
0

> <version>
0

> <s_m_source_file>
/data/baiqing/PycharmProjects/Reinvent-master-3.2/result/LINK_invent/BTK/process_docking_weight1_custom_product_contain_oxygen_bond_distance_aromatic_linkinvent_7_9_3/rearranged_h_0159.sdf

> <i_m_source_file_index>
91

> <r_mmod_Potential_Energy-OPLS-2005>
-296.474334716797

> <r_mmod_Stretch_Energy-OPLS-2005>
86.8284759521484

> <r_mmod_Bend_Energy-OPLS-2005>
143.062225341797

> <r_mmod_Torsional_Energy-OPLS-2005>
259.855316162109

> <r_mmod_Improper_Torsional_Energy-OPLS-2005>
5.44268321990967

> <r_mmod_Van_der_Waal_Energy-OPLS-2005>
125.793815612793

> <r_mmod_Electrostatic_Energy-OPLS-2005>
-484.523803710938

> <r_mmod_Solvation_Energy-OPLS-2005>
-495.397766113281

> <b_mmod_Minimization_Converged-OPLS-2005>
0

> <r_mmod_RMS_Derivative-OPLS-2005>
1.59271442890167

$$$$
92
                    3D
 Structure written by MMmdl.
159168  0  0  1  0            999 V2000
  -30.6464  -14.6114   20.4988 C   0  0  0  0  0  0
  -30.4303  -12.3725   19.4588 C   0  0  0  0  0  0
  -29.5064  -12.5032   18.2280 C   0  0  0  0  0  0
  -28.0284  -12.3487   18.6373 C   0  0  0  0  0  0
  -27.6543  -13.2190   19.8670 C   0  0  2  0  0  0
  -28.6968  -13.0736   20.9989 C   0  0  0  0  0  0
  -25.2558  -13.8182   20.5694 C   0  0  0  0  0  0
  -24.1825  -13.0444   20.9190 C   0  0  0  0  0  0
  -24.6395  -11.6915   20.8742 C   0  0  0  0  0  0
  -23.9065  -10.4296   21.0408 C   0  0  0  0  0  0
  -24.3617   -9.4211   21.9184 C   0  0  0  0  0  0
  -23.6293   -8.2246   22.0753 C   0  0  0  0  0  0
  -22.4275   -8.0283   21.3545 C   0  0  0  0  0  0
  -21.9911   -9.0257   20.4647 C   0  0  0  0  0  0
  -22.7239  -10.2137   20.3056 C   0  0  0  0  0  0
  -21.6853   -6.0737   22.5281 C   0  0  0  0  0  0
  -21.4014   -6.5641   23.8214 C   0  0  0  0  0  0
  -21.3659   -5.6793   24.9176 C   0  0  0  0  0  0
  -21.6044   -4.3056   24.7227 C   0  0  0  0  0  0
  -21.8818   -3.8148   23.4348 C   0  0  0  0  0  0
  -21.9193   -4.6965   22.3404 C   0  0  0  0  0  0
  -22.7846  -13.5233   21.1855 C   0  0  0  0  0  0
  -22.1661   -4.2150   21.0980 F   0  0  0  0  0  0
  -21.5629   -3.4538   25.7739 F   0  0  0  0  0  0
  -30.0167  -13.3975   20.4377 N   0  0  0  0  0  0
  -26.2991  -12.9368   20.3340 N   0  0  0  0  0  0
  -25.9326  -11.6520   20.5768 N   0  0  0  0  0  0
  -22.0488  -12.8224   22.0411 N   0  0  0  0  0  0
  -25.4276  -15.1904   20.4115 N   0  0  0  0  0  0
  -31.8022  -14.7538   20.0896 O   0  0  0  0  0  0
  -21.6639   -6.8880   21.4242 O   0  0  0  0  0  0
  -22.3533  -14.5543   20.6709 O   0  0  0  0  0  0
  -24.6229  -31.8611   23.2043 C   0  0  0  0  0  0
  -25.9088  -32.4788   23.8364 C   0  0  1  0  0  0
  -27.2315  -27.3572   20.1160 C   0  0  0  0  0  0
  -25.5913  -33.8588   24.2294 N   0  0  0  0  0  0
  -23.4167  -30.4836   21.5447 C   0  0  2  0  0  0
  -24.8684  -28.9420   20.1099 C   0  0  0  0  0  0
  -22.7462  -29.4628   22.4938 C   0  0  0  0  0  0
  -18.0284  -28.1385   22.8486 C   0  0  0  0  0  0
  -24.1491  -36.7302   23.2640 C   0  0  0  0  0  0
  -25.9534  -30.8035   21.3711 C   0  0  0  0  0  0
  -26.0323  -29.4321   20.7179 C   0  0  0  0  0  0
  -27.2196  -28.6469   20.7211 C   0  0  0  0  0  0
  -26.0552  -26.9079   19.4867 C   0  0  0  0  0  0
  -24.8785  -27.6820   19.4875 C   0  0  0  0  0  0
  -23.6320  -29.8160   20.1599 C   0  0  0  0  0  0
  -25.4111  -36.3091   24.0336 C   0  0  1  0  0  0
  -20.5883  -28.3684   23.1289 C   0  0  2  0  0  0
  -20.6776  -26.9410   22.5414 C   0  0  0  0  0  0
  -19.5752  -26.6385   21.5215 C   0  0  0  0  0  0
  -18.1929  -26.7929   22.1624 C   0  0  0  0  0  0
  -19.1536  -28.8851   23.2884 C   0  0  0  0  0  0
  -18.9459  -30.1453   23.8900 C   0  0  0  0  0  0
  -17.6460  -30.6587   24.0564 C   0  0  0  0  0  0
  -25.9042  -34.9459   23.5115 C   0  0  0  0  0  0
  -16.5351  -29.9087   23.6330 C   0  0  0  0  0  0
  -16.7272  -28.6506   23.0348 C   0  0  0  0  0  0
  -26.4486  -31.6586   25.0720 C   0  0  0  0  0  0
  -25.3736  -31.3710   26.1458 C   0  0  0  0  0  0
  -27.0322  -30.3015   24.6144 C   0  0  0  0  0  0
  -27.6048  -32.4318   25.7490 C   0  0  0  0  0  0
  -27.5579  -37.1804   24.8465 C   0  0  0  0  0  0
  -21.4178  -29.3037   22.3680 N   0  0  0  0  0  0
  -26.4292  -37.3780   23.9409 N   0  0  0  0  0  0
  -24.6826  -31.0651   22.0976 N   0  0  0  0  0  0
  -23.4194  -28.8177   23.3018 O   0  0  0  0  0  0
  -28.3077  -26.4744   20.1434 O   0  0  0  0  0  0
  -26.5609  -34.8922   22.4680 O   0  0  0  0  0  0
  -23.5399  -32.1394   23.7387 O   0  0  0  0  0  0
  -30.8676  -17.6188   19.6467 C   0  0  0  0  0  0
  -30.0878  -17.0316   20.6222 C   0  0  0  0  0  0
  -30.1352  -19.6197   20.5911 C   0  0  0  0  0  0
  -28.4925  -25.8014   21.3437 C   0  0  0  0  0  0
  -28.8246  -24.5045   21.6601 C   0  0  0  0  0  0
  -29.1082  -23.3441   20.7474 C   0  0  0  0  0  0
  -30.8412  -20.7904   23.4002 C   0  0  0  0  0  0
  -29.4645  -21.4102   23.7231 C   0  0  0  0  0  0
  -31.4132  -21.2600   22.0473 C   0  0  0  0  0  0
  -28.5213  -21.5727   22.4939 C   0  0  0  0  0  0
  -30.3657  -21.1333   20.9227 C   0  0  2  0  0  0
  -30.8749  -19.0298   19.6385 N   0  0  0  0  0  0
  -29.2431  -22.0701   21.3057 N   0  0  0  0  0  0
  -29.8917  -15.6839   20.8896 N   0  0  0  0  0  0
  -29.3584  -23.5158   19.5519 O   0  0  0  0  0  0
  -28.9491  -24.3177   22.9791 O   0  0  0  0  0  0
  -29.2680  -18.3387   21.5081 S   0  0  0  0  0  0
  -31.4747  -12.4797   19.1598 H   0  0  0  0  0  0
  -30.3486  -11.3774   19.8990 H   0  0  0  0  0  0
  -29.7670  -11.7532   17.4800 H   0  0  0  0  0  0
  -29.6570  -13.4743   17.7537 H   0  0  0  0  0  0
  -27.8600  -11.2958   18.8664 H   0  0  0  0  0  0
  -27.3761  -12.5841   17.7956 H   0  0  0  0  0  0
  -27.6749  -14.2552   19.5287 H   0  0  0  0  0  0
  -28.6978  -12.0555   21.3909 H   0  0  0  0  0  0
  -28.4468  -13.7169   21.8438 H   0  0  0  0  0  0
  -25.2762   -9.5687   22.4760 H   0  0  0  0  0  0
  -24.0003   -7.4637   22.7472 H   0  0  0  0  0  0
  -21.0841   -8.8777   19.8952 H   0  0  0  0  0  0
  -22.3697  -10.9676   19.6167 H   0  0  0  0  0  0
  -21.2006   -7.6148   23.9719 H   0  0  0  0  0  0
  -21.1482   -6.0522   25.9078 H   0  0  0  0  0  0
  -22.0598   -2.7610   23.2848 H   0  0  0  0  0  0
  -22.4097  -11.9879   22.4791 H   0  0  0  0  0  0
  -21.1110  -13.1257   22.2626 H   0  0  0  0  0  0
  -24.6613  -15.8460   20.5207 H   0  0  0  0  0  0
  -26.2790  -15.6292   20.0839 H   0  0  0  0  0  0
  -26.7160  -32.5482   23.1121 H   0  0  0  0  0  0
  -25.0064  -33.9736   25.0442 H   0  0  0  0  0  0
  -22.7096  -31.3031   21.4008 H   0  0  0  0  0  0
  -23.3747  -35.9641   23.3306 H   0  0  0  0  0  0
  -24.3578  -36.8915   22.2052 H   0  0  0  0  0  0
  -23.7253  -37.6512   23.6653 H   0  0  0  0  0  0
  -26.0779  -31.5666   20.6013 H   0  0  0  0  0  0
  -26.8361  -30.8561   21.9965 H   0  0  0  0  0  0
  -28.1130  -29.0118   21.2081 H   0  0  0  0  0  0
  -26.0449  -25.9329   19.0201 H   0  0  0  0  0  0
  -23.9853  -27.2985   19.0137 H   0  0  0  0  0  0
  -23.7461  -30.5917   19.4017 H   0  0  0  0  0  0
  -22.7545  -29.2401   19.8601 H   0  0  0  0  0  0
  -25.1289  -36.1945   25.0829 H   0  0  0  0  0  0
  -20.9971  -28.3263   24.1411 H   0  0  0  0  0  0
  -20.5681  -26.2294   23.3610 H   0  0  0  0  0  0
  -21.6645  -26.7450   22.1200 H   0  0  0  0  0  0
  -19.6914  -25.6298   21.1240 H   0  0  0  0  0  0
  -19.6692  -27.3200   20.6749 H   0  0  0  0  0  0
  -17.4199  -26.6678   21.4025 H   0  0  0  0  0  0
  -18.0329  -26.0073   22.9022 H   0  0  0  0  0  0
  -19.7936  -30.7266   24.2270 H   0  0  0  0  0  0
  -17.5017  -31.6267   24.5165 H   0  0  0  0  0  0
  -15.5353  -30.2988   23.7653 H   0  0  0  0  0  0
  -15.8673  -28.0827   22.7058 H   0  0  0  0  0  0
  -24.5912  -30.7053   25.7793 H   0  0  0  0  0  0
  -24.8925  -32.2873   26.4894 H   0  0  0  0  0  0
  -25.8078  -30.8886   27.0225 H   0  0  0  0  0  0
  -26.2882  -29.6773   24.1179 H   0  0  0  0  0  0
  -27.4042  -29.7257   25.4628 H   0  0  0  0  0  0
  -27.8745  -30.4306   23.9342 H   0  0  0  0  0  0
  -27.2655  -33.3614   26.2071 H   0  0  0  0  0  0
  -28.3855  -32.6884   25.0318 H   0  0  0  0  0  0
  -28.0719  -31.8443   26.5403 H   0  0  0  0  0  0
  -28.2598  -38.0099   24.7502 H   0  0  0  0  0  0
  -28.1072  -36.2629   24.6299 H   0  0  0  0  0  0
  -27.2296  -37.1469   25.8868 H   0  0  0  0  0  0
  -20.9352  -29.8755   21.6890 H   0  0  0  0  0  0
  -26.0177  -38.2859   24.1399 H   0  0  0  0  0  0
  -31.4734  -17.1076   18.9109 H   0  0  0  0  0  0
  -28.3383  -26.4970   22.1589 H   0  0  0  0  0  0
  -30.7605  -19.7047   23.4064 H   0  0  0  0  0  0
  -31.5464  -21.0221   24.1996 H   0  0  0  0  0  0
  -29.6417  -22.3609   24.2200 H   0  0  0  0  0  0
  -28.9661  -20.8024   24.4801 H   0  0  0  0  0  0
  -32.3107  -20.6927   21.7971 H   0  0  0  0  0  0
  -31.7310  -22.3003   22.1341 H   0  0  0  0  0  0
  -27.6642  -22.2001   22.7423 H   0  0  0  0  0  0
  -28.0563  -20.6220   22.2485 H   0  0  0  0  0  0
  -30.8342  -21.5446   20.0268 H   0  0  0  0  0  0
  -29.0208  -15.4470   21.3406 H   0  0  0  0  0  0
  -29.2035  -23.4109   23.1051 H   0  0  0  0  0  0
  1 25  1  0  0  0
  1 30  2  0  0  0
  1 84  1  0  0  0
  2  3  1  0  0  0
  2 25  1  0  0  0
  2 88  1  0  0  0
  2 89  1  0  0  0
  3  4  1  0  0  0
  3 90  1  0  0  0
  3 91  1  0  0  0
  4  5  1  0  0  0
  4 92  1  0  0  0
  4 93  1  0  0  0
  5  6  1  0  0  0
  5 26  1  0  0  0
  5 94  1  0  0  0
  6 25  1  0  0  0
  6 95  1  0  0  0
  6 96  1  0  0  0
  7  8  2  0  0  0
  7 26  1  0  0  0
  7 29  1  0  0  0
  8  9  1  0  0  0
  8 22  1  0  0  0
  9 10  1  0  0  0
  9 27  2  0  0  0
 10 11  2  0  0  0
 10 15  1  0  0  0
 11 12  1  0  0  0
 11 97  1  0  0  0
 12 13  2  0  0  0
 12 98  1  0  0  0
 13 14  1  0  0  0
 13 31  1  0  0  0
 14 15  2  0  0  0
 14 99  1  0  0  0
 15100  1  0  0  0
 16 17  2  0  0  0
 16 21  1  0  0  0
 16 31  1  0  0  0
 17 18  1  0  0  0
 17101  1  0  0  0
 18 19  2  0  0  0
 18102  1  0  0  0
 19 20  1  0  0  0
 19 24  1  0  0  0
 20 21  2  0  0  0
 20103  1  0  0  0
 21 23  1  0  0  0
 22 28  1  0  0  0
 22 32  2  0  0  0
 26 27  1  0  0  0
 28104  1  0  0  0
 28105  1  0  0  0
 29106  1  0  0  0
 29107  1  0  0  0
 33 34  1  0  0  0
 33 66  1  0  0  0
 33 70  2  0  0  0
 34 36  1  0  0  0
 34 59  1  0  0  0
 34108  1  0  0  0
 35 44  2  0  0  0
 35 45  1  0  0  0
 35 68  1  0  0  0
 36 56  1  0  0  0
 36109  1  0  0  0
 37 39  1  0  0  0
 37 47  1  0  0  0
 37 66  1  0  0  0
 37110  1  0  0  0
 38 43  2  0  0  0
 38 46  1  0  0  0
 38 47  1  0  0  0
 39 64  1  0  0  0
 39 67  2  0  0  0
 40 52  1  0  0  0
 40 53  2  0  0  0
 40 58  1  0  0  0
 41111  1  0  0  0
 41112  1  0  0  0
 41113  1  0  0  0
 41 48  1  0  0  0
 42 43  1  0  0  0
 42 66  1  0  0  0
 42114  1  0  0  0
 42115  1  0  0  0
 43 44  1  0  0  0
 44116  1  0  0  0
 45 46  2  0  0  0
 45117  1  0  0  0
 46118  1  0  0  0
 47119  1  0  0  0
 47120  1  0  0  0
 48 56  1  0  0  0
 48 65  1  0  0  0
 48121  1  0  0  0
 49 50  1  0  0  0
 49 53  1  0  0  0
 49 64  1  0  0  0
 49122  1  0  0  0
 50 51  1  0  0  0
 50123  1  0  0  0
 50124  1  0  0  0
 51 52  1  0  0  0
 51125  1  0  0  0
 51126  1  0  0  0
 52127  1  0  0  0
 52128  1  0  0  0
 53 54  1  0  0  0
 54 55  2  0  0  0
 54129  1  0  0  0
 55 57  1  0  0  0
 55130  1  0  0  0
 56 69  2  0  0  0
 57 58  2  0  0  0
 57131  1  0  0  0
 58132  1  0  0  0
 59 60  1  0  0  0
 59 61  1  0  0  0
 59 62  1  0  0  0
 60133  1  0  0  0
 60134  1  0  0  0
 60135  1  0  0  0
 61136  1  0  0  0
 61137  1  0  0  0
 61138  1  0  0  0
 62139  1  0  0  0
 62140  1  0  0  0
 62141  1  0  0  0
 63 65  1  0  0  0
 63142  1  0  0  0
 63143  1  0  0  0
 63144  1  0  0  0
 64145  1  0  0  0
 65146  1  0  0  0
 68 74  1  0  0  0
 71 72  2  0  0  0
 71 82  1  0  0  0
 71147  1  0  0  0
 72 84  1  0  0  0
 72 87  1  0  0  0
 73 82  2  0  0  0
 73 87  1  0  0  0
 73 81  1  0  0  0
 74 75  2  0  0  0
 74148  1  0  0  0
 75 76  1  0  0  0
 75 86  1  0  0  0
 76 83  1  0  0  0
 76 85  2  0  0  0
 77 78  1  0  0  0
 77 79  1  0  0  0
 77149  1  0  0  0
 77150  1  0  0  0
 78 80  1  0  0  0
 78151  1  0  0  0
 78152  1  0  0  0
 79 81  1  0  0  0
 79153  1  0  0  0
 79154  1  0  0  0
 80 83  1  0  0  0
 80155  1  0  0  0
 80156  1  0  0  0
 81 83  1  0  0  0
 81157  1  0  0  0
 84158  1  0  0  0
 86159  1  0  0  0
M  ISO  4   1 100  68 101  74 101  84 100
M  END
> <chiral flag>
0

> <version>
0

> <s_m_source_file>
/data/baiqing/PycharmProjects/Reinvent-master-3.2/result/LINK_invent/BTK/process_docking_weight1_custom_product_contain_oxygen_bond_distance_aromatic_linkinvent_7_9_3/rearranged_h_0159.sdf

> <i_m_source_file_index>
92

> <r_mmod_Potential_Energy-OPLS-2005>
175.045928955078

> <r_mmod_Stretch_Energy-OPLS-2005>
77.6689147949219

> <r_mmod_Bend_Energy-OPLS-2005>
186.416732788086

> <r_mmod_Torsional_Energy-OPLS-2005>
306.233551025391

> <r_mmod_Improper_Torsional_Energy-OPLS-2005>
8.18713760375977

> <r_mmod_Van_der_Waal_Energy-OPLS-2005>
144.693267822266

> <r_mmod_Electrostatic_Energy-OPLS-2005>
-345.990905761719

> <r_mmod_Solvation_Energy-OPLS-2005>
-242.511428833008

> <b_mmod_Minimization_Converged-OPLS-2005>
0

> <r_mmod_RMS_Derivative-OPLS-2005>
0.463216453790665

$$$$
93
                    3D
 Structure written by MMmdl.
154162  0  0  1  0            999 V2000
  -30.5841  -14.7528   20.4832 C   0  0  0  0  0  0
  -30.4456  -12.4606   19.4793 C   0  0  0  0  0  0
  -29.5198  -12.5209   18.2418 C   0  0  0  0  0  0
  -28.0437  -12.3433   18.6505 C   0  0  0  0  0  0
  -27.6510  -13.2298   19.8623 C   0  0  2  0  0  0
  -28.6934  -13.1316   20.9988 C   0  0  0  0  0  0
  -25.2544  -13.8197   20.5699 C   0  0  0  0  0  0
  -24.1814  -13.0450   20.9184 C   0  0  0  0  0  0
  -24.6401  -11.6928   20.8732 C   0  0  0  0  0  0
  -23.9075  -10.4305   21.0405 C   0  0  0  0  0  0
  -24.3625   -9.4217   21.9184 C   0  0  0  0  0  0
  -23.6294   -8.2256   22.0759 C   0  0  0  0  0  0
  -22.4269   -8.0293   21.3557 C   0  0  0  0  0  0
  -21.9907   -9.0269   20.4658 C   0  0  0  0  0  0
  -22.7247  -10.2143   20.3061 C   0  0  0  0  0  0
  -21.6850   -6.0739   22.5279 C   0  0  0  0  0  0
  -21.4016   -6.5639   23.8215 C   0  0  0  0  0  0
  -21.3661   -5.6789   24.9172 C   0  0  0  0  0  0
  -21.6038   -4.3052   24.7220 C   0  0  0  0  0  0
  -21.8820   -3.8149   23.4341 C   0  0  0  0  0  0
  -21.9192   -4.6970   22.3398 C   0  0  0  0  0  0
  -22.7836  -13.5240   21.1840 C   0  0  0  0  0  0
  -22.1661   -4.2162   21.0976 F   0  0  0  0  0  0
  -21.5630   -3.4532   25.7731 F   0  0  0  0  0  0
  -30.0001  -13.5036   20.4348 N   0  0  0  0  0  0
  -26.2981  -12.9401   20.3316 N   0  0  0  0  0  0
  -25.9331  -11.6546   20.5749 N   0  0  0  0  0  0
  -22.0468  -12.8248   22.0398 N   0  0  0  0  0  0
  -25.4264  -15.1918   20.4161 N   0  0  0  0  0  0
  -31.7398  -14.9076   20.0723 O   0  0  0  0  0  0
  -21.6643   -6.8884   21.4244 O   0  0  0  0  0  0
  -22.3532  -14.5553   20.6691 O   0  0  0  0  0  0
  -24.6352  -31.8540   23.1961 C   0  0  0  0  0  0
  -25.9169  -32.4746   23.8324 C   0  0  1  0  0  0
  -27.2189  -27.2359   20.1375 C   0  0  0  0  0  0
  -25.5946  -33.8545   24.2256 N   0  0  0  0  0  0
  -23.4328  -30.4772   21.5404 C   0  0  2  0  0  0
  -24.8795  -28.9201   20.1093 C   0  0  0  0  0  0
  -22.7530  -29.4608   22.4896 C   0  0  0  0  0  0
  -18.0302  -28.1389   22.8497 C   0  0  0  0  0  0
  -24.1488  -36.7280   23.2638 C   0  0  0  0  0  0
  -25.9808  -30.7610   21.3762 C   0  0  0  0  0  0
  -26.0530  -29.3805   20.7200 C   0  0  0  0  0  0
  -27.2256  -28.5536   20.7177 C   0  0  0  0  0  0
  -26.0205  -26.8504   19.4952 C   0  0  0  0  0  0
  -24.8710  -27.6651   19.4829 C   0  0  0  0  0  0
  -23.6523  -29.8119   20.1564 C   0  0  0  0  0  0
  -25.4107  -36.3062   24.0332 C   0  0  1  0  0  0
  -20.5911  -28.3717   23.1266 C   0  0  2  0  0  0
  -20.6791  -26.9430   22.5416 C   0  0  0  0  0  0
  -19.5756  -26.6385   21.5232 C   0  0  0  0  0  0
  -18.1935  -26.7932   22.1640 C   0  0  0  0  0  0
  -19.1558  -28.8869   23.2877 C   0  0  0  0  0  0
  -18.9469  -30.1463   23.8908 C   0  0  0  0  0  0
  -17.6465  -30.6591   24.0562 C   0  0  0  0  0  0
  -25.9058  -34.9436   23.5099 C   0  0  0  0  0  0
  -16.5359  -29.9088   23.6320 C   0  0  0  0  0  0
  -16.7285  -28.6496   23.0363 C   0  0  0  0  0  0
  -26.4515  -31.6565   25.0717 C   0  0  0  0  0  0
  -25.3718  -31.3734   26.1424 C   0  0  0  0  0  0
  -27.0357  -30.2976   24.6205 C   0  0  0  0  0  0
  -27.6067  -32.4304   25.7492 C   0  0  0  0  0  0
  -27.5580  -37.1785   24.8458 C   0  0  0  0  0  0
  -21.4232  -29.3057   22.3649 N   0  0  0  0  0  0
  -26.4274  -37.3768   23.9427 N   0  0  0  0  0  0
  -24.7028  -31.0496   22.0942 N   0  0  0  0  0  0
  -23.4221  -28.8144   23.3000 O   0  0  0  0  0  0
  -28.3062  -26.3229   20.2080 O   0  0  0  0  0  0
  -26.5634  -34.8917   22.4670 O   0  0  0  0  0  0
  -23.5501  -32.1366   23.7250 O   0  0  0  0  0  0
  -30.1170  -18.4681   21.1103 C   0  0  0  0  0  0
  -28.8506  -17.6471   19.4684 C   0  0  0  0  0  0
  -29.6797  -17.2333   20.4753 C   0  0  0  0  0  0
  -29.5885  -19.6010   20.4637 C   0  0  0  0  0  0
  -29.7631  -21.1069   20.6561 C   0  0  0  0  0  0
  -28.0244  -19.8003   18.4715 C   0  0  0  0  0  0
  -29.1860  -23.7137   20.4833 C   0  0  0  0  0  0
  -28.0553  -24.8282   20.1054 C   0  0  0  0  0  0
  -28.7988  -19.0523   19.4439 N   0  0  0  0  0  0
  -30.9301  -21.4307   21.2267 N   0  0  0  0  0  0
  -29.8058  -15.8172   20.9183 N   0  0  0  0  0  0
  -28.9252  -22.1852   20.3315 N   0  3  0  0  0  0
  -31.4856  -12.5981   19.1778 H   0  0  0  0  0  0
  -30.4027  -11.4750   19.9450 H   0  0  0  0  0  0
  -29.8021  -11.7539   17.5186 H   0  0  0  0  0  0
  -29.6477  -13.4784   17.7346 H   0  0  0  0  0  0
  -27.8925  -11.2920   18.8977 H   0  0  0  0  0  0
  -27.3892  -12.5509   17.8033 H   0  0  0  0  0  0
  -27.6579  -14.2585   19.5005 H   0  0  0  0  0  0
  -28.7287  -12.1190   21.4036 H   0  0  0  0  0  0
  -28.4186  -13.7759   21.8346 H   0  0  0  0  0  0
  -25.2770   -9.5692   22.4752 H   0  0  0  0  0  0
  -24.0006   -7.4641   22.7465 H   0  0  0  0  0  0
  -21.0847   -8.8795   19.8955 H   0  0  0  0  0  0
  -22.3716  -10.9680   19.6170 H   0  0  0  0  0  0
  -21.2018   -7.6145   23.9721 H   0  0  0  0  0  0
  -21.1474   -6.0514   25.9075 H   0  0  0  0  0  0
  -22.0598   -2.7614   23.2832 H   0  0  0  0  0  0
  -22.4071  -11.9922   22.4819 H   0  0  0  0  0  0
  -21.1090  -13.1295   22.2596 H   0  0  0  0  0  0
  -24.6652  -15.8498   20.5374 H   0  0  0  0  0  0
  -26.2859  -15.6326   20.1150 H   0  0  0  0  0  0
  -26.7238  -32.5389   23.1068 H   0  0  0  0  0  0
  -25.0075  -33.9667   25.0392 H   0  0  0  0  0  0
  -22.7302  -31.3005   21.3943 H   0  0  0  0  0  0
  -23.3755  -35.9603   23.3270 H   0  0  0  0  0  0
  -24.3597  -36.8934   22.2060 H   0  0  0  0  0  0
  -23.7225  -37.6468   23.6677 H   0  0  0  0  0  0
  -26.1183  -31.5181   20.6027 H   0  0  0  0  0  0
  -26.8601  -30.8155   22.0069 H   0  0  0  0  0  0
  -28.1222  -28.9032   21.2095 H   0  0  0  0  0  0
  -25.9411  -25.8904   19.0086 H   0  0  0  0  0  0
  -23.9733  -27.3101   18.9952 H   0  0  0  0  0  0
  -23.7814  -30.5897   19.4030 H   0  0  0  0  0  0
  -22.7680  -29.2512   19.8482 H   0  0  0  0  0  0
  -25.1274  -36.1907   25.0821 H   0  0  0  0  0  0
  -21.0008  -28.3305   24.1385 H   0  0  0  0  0  0
  -20.5722  -26.2323   23.3627 H   0  0  0  0  0  0
  -21.6650  -26.7466   22.1186 H   0  0  0  0  0  0
  -19.6916  -25.6294   21.1264 H   0  0  0  0  0  0
  -19.6680  -27.3197   20.6763 H   0  0  0  0  0  0
  -17.4209  -26.6707   21.4033 H   0  0  0  0  0  0
  -18.0317  -26.0072   22.9032 H   0  0  0  0  0  0
  -19.7938  -30.7281   24.2292 H   0  0  0  0  0  0
  -17.5013  -31.6272   24.5156 H   0  0  0  0  0  0
  -15.5360  -30.2995   23.7623 H   0  0  0  0  0  0
  -15.8685  -28.0807   22.7089 H   0  0  0  0  0  0
  -24.5888  -30.7088   25.7753 H   0  0  0  0  0  0
  -24.8907  -32.2910   26.4820 H   0  0  0  0  0  0
  -25.8011  -30.8926   27.0220 H   0  0  0  0  0  0
  -26.2942  -29.6723   24.1212 H   0  0  0  0  0  0
  -27.4021  -29.7236   25.4728 H   0  0  0  0  0  0
  -27.8830  -30.4248   23.9461 H   0  0  0  0  0  0
  -27.2672  -33.3606   26.2058 H   0  0  0  0  0  0
  -28.3879  -32.6857   25.0320 H   0  0  0  0  0  0
  -28.0727  -31.8430   26.5414 H   0  0  0  0  0  0
  -28.2557  -38.0121   24.7549 H   0  0  0  0  0  0
  -28.1113  -36.2653   24.6209 H   0  0  0  0  0  0
  -27.2315  -37.1348   25.8864 H   0  0  0  0  0  0
  -20.9427  -29.8772   21.6842 H   0  0  0  0  0  0
  -26.0151  -38.2836   24.1453 H   0  0  0  0  0  0
  -30.7566  -18.5282   21.9792 H   0  0  0  0  0  0
  -28.2635  -17.0691   18.7658 H   0  0  0  0  0  0
  -27.5897  -19.1249   17.7334 H   0  0  0  0  0  0
  -28.6639  -20.5120   17.9490 H   0  0  0  0  0  0
  -27.2117  -20.3302   18.9682 H   0  0  0  0  0  0
  -29.4847  -23.8833   21.5171 H   0  0  0  0  0  0
  -30.0695  -23.9345   19.8857 H   0  0  0  0  0  0
  -27.1851  -24.6086   20.7257 H   0  0  0  0  0  0
  -27.7483  -24.6213   19.0803 H   0  0  0  0  0  0
  -31.5819  -20.6977   21.4605 H   0  0  0  0  0  0
  -31.2057  -22.3756   21.4351 H   0  0  0  0  0  0
  -28.9588  -15.4677   21.3425 H   0  0  0  0  0  0
  -28.0170  -21.9477   19.9598 H   0  0  0  0  0  0
  1 25  1  0  0  0
  1 30  2  0  0  0
  1 81  1  0  0  0
  2  3  1  0  0  0
  2 25  1  0  0  0
  2 83  1  0  0  0
  2 84  1  0  0  0
  3  4  1  0  0  0
  3 85  1  0  0  0
  3 86  1  0  0  0
  4  5  1  0  0  0
  4 87  1  0  0  0
  4 88  1  0  0  0
  5  6  1  0  0  0
  5 26  1  0  0  0
  5 89  1  0  0  0
  6 25  1  0  0  0
  6 90  1  0  0  0
  6 91  1  0  0  0
  7  8  2  0  0  0
  7 26  1  0  0  0
  7 29  1  0  0  0
  8  9  1  0  0  0
  8 22  1  0  0  0
  9 10  1  0  0  0
  9 27  2  0  0  0
 10 11  2  0  0  0
 10 15  1  0  0  0
 11 12  1  0  0  0
 11 92  1  0  0  0
 12 13  2  0  0  0
 12 93  1  0  0  0
 13 14  1  0  0  0
 13 31  1  0  0  0
 14 15  2  0  0  0
 14 94  1  0  0  0
 15 95  1  0  0  0
 16 17  2  0  0  0
 16 21  1  0  0  0
 16 31  1  0  0  0
 17 18  1  0  0  0
 17 96  1  0  0  0
 18 19  2  0  0  0
 18 97  1  0  0  0
 19 20  1  0  0  0
 19 24  1  0  0  0
 20 21  2  0  0  0
 20 98  1  0  0  0
 21 23  1  0  0  0
 22 28  1  0  0  0
 22 32  2  0  0  0
 26 27  1  0  0  0
 28 99  1  0  0  0
 28100  1  0  0  0
 29101  1  0  0  0
 29102  1  0  0  0
 33 34  1  0  0  0
 33 66  1  0  0  0
 33 70  2  0  0  0
 34 36  1  0  0  0
 34 59  1  0  0  0
 34103  1  0  0  0
 35 44  2  0  0  0
 35 45  1  0  0  0
 35 68  1  0  0  0
 36 56  1  0  0  0
 36104  1  0  0  0
 37 39  1  0  0  0
 37 47  1  0  0  0
 37 66  1  0  0  0
 37105  1  0  0  0
 38 43  2  0  0  0
 38 46  1  0  0  0
 38 47  1  0  0  0
 39 64  1  0  0  0
 39 67  2  0  0  0
 40 52  1  0  0  0
 40 53  2  0  0  0
 40 58  1  0  0  0
 41106  1  0  0  0
 41107  1  0  0  0
 41108  1  0  0  0
 41 48  1  0  0  0
 42 43  1  0  0  0
 42 66  1  0  0  0
 42109  1  0  0  0
 42110  1  0  0  0
 43 44  1  0  0  0
 44111  1  0  0  0
 45 46  2  0  0  0
 45112  1  0  0  0
 46113  1  0  0  0
 47114  1  0  0  0
 47115  1  0  0  0
 48 56  1  0  0  0
 48 65  1  0  0  0
 48116  1  0  0  0
 49 50  1  0  0  0
 49 53  1  0  0  0
 49 64  1  0  0  0
 49117  1  0  0  0
 50 51  1  0  0  0
 50118  1  0  0  0
 50119  1  0  0  0
 51 52  1  0  0  0
 51120  1  0  0  0
 51121  1  0  0  0
 52122  1  0  0  0
 52123  1  0  0  0
 53 54  1  0  0  0
 54 55  2  0  0  0
 54124  1  0  0  0
 55 57  1  0  0  0
 55125  1  0  0  0
 56 69  2  0  0  0
 57 58  2  0  0  0
 57126  1  0  0  0
 58127  1  0  0  0
 59 60  1  0  0  0
 59 61  1  0  0  0
 59 62  1  0  0  0
 60128  1  0  0  0
 60129  1  0  0  0
 60130  1  0  0  0
 61131  1  0  0  0
 61132  1  0  0  0
 61133  1  0  0  0
 62134  1  0  0  0
 62135  1  0  0  0
 62136  1  0  0  0
 63 65  1  0  0  0
 63137  1  0  0  0
 63138  1  0  0  0
 63139  1  0  0  0
 64140  1  0  0  0
 65141  1  0  0  0
 68 78  1  0  0  0
 71 73  1  0  0  0
 71 74  2  0  0  0
 71142  1  0  0  0
 72 73  2  0  0  0
 72 79  1  0  0  0
 72143  1  0  0  0
 73 81  1  0  0  0
 74 75  1  0  0  0
 74 79  1  0  0  0
 75 80  1  0  0  0
 75 82  2  0  0  0
 76 79  1  0  0  0
 76144  1  0  0  0
 76145  1  0  0  0
 76146  1  0  0  0
 77 78  1  0  0  0
 77 82  1  0  0  0
 77147  1  0  0  0
 77148  1  0  0  0
 78149  1  0  0  0
 78150  1  0  0  0
 80151  1  0  0  0
 80152  1  0  0  0
 81153  1  0  0  0
 82154  1  0  0  0
M  CHG  1  82   1
M  ISO  4   1 100  68 101  78 101  81 100
M  END
> <chiral flag>
0

> <version>
0

> <s_m_source_file>
/data/baiqing/PycharmProjects/Reinvent-master-3.2/result/LINK_invent/BTK/process_docking_weight1_custom_product_contain_oxygen_bond_distance_aromatic_linkinvent_7_9_3/rearranged_h_0159.sdf

> <i_m_source_file_index>
93

> <r_mmod_Potential_Energy-OPLS-2005>
16.7762355804443

> <r_mmod_Stretch_Energy-OPLS-2005>
132.934707641602

> <r_mmod_Bend_Energy-OPLS-2005>
183.448867797852

> <r_mmod_Torsional_Energy-OPLS-2005>
246.159164428711

> <r_mmod_Improper_Torsional_Energy-OPLS-2005>
6.27843332290649

> <r_mmod_Van_der_Waal_Energy-OPLS-2005>
116.599769592285

> <r_mmod_Electrostatic_Energy-OPLS-2005>
-291.239501953125

> <r_mmod_Solvation_Energy-OPLS-2005>
-471.121276855469

> <b_mmod_Minimization_Converged-OPLS-2005>
0

> <r_mmod_RMS_Derivative-OPLS-2005>
1.55668079853058

$$$$
94
                    3D
 Structure written by MMmdl.
153161  0  0  1  0            999 V2000
  -30.5888  -14.7943   20.5262 C   0  0  0  0  0  0
  -30.4622  -12.4932   19.4928 C   0  0  0  0  0  0
  -29.5309  -12.5467   18.2570 C   0  0  0  0  0  0
  -28.0578  -12.3428   18.6566 C   0  0  0  0  0  0
  -27.6606  -13.2285   19.8694 C   0  0  2  0  0  0
  -28.7056  -13.1393   21.0090 C   0  0  0  0  0  0
  -25.2584  -13.8157   20.5622 C   0  0  0  0  0  0
  -24.1855  -13.0420   20.9196 C   0  0  0  0  0  0
  -24.6447  -11.6897   20.8734 C   0  0  0  0  0  0
  -23.9127  -10.4262   21.0407 C   0  0  0  0  0  0
  -24.3650   -9.4183   21.9203 C   0  0  0  0  0  0
  -23.6307   -8.2203   22.0774 C   0  0  0  0  0  0
  -22.4282   -8.0269   21.3543 C   0  0  0  0  0  0
  -21.9923   -9.0250   20.4647 C   0  0  0  0  0  0
  -22.7281  -10.2125   20.3076 C   0  0  0  0  0  0
  -21.6850   -6.0749   22.5265 C   0  0  0  0  0  0
  -21.4023   -6.5641   23.8222 C   0  0  0  0  0  0
  -21.3662   -5.6798   24.9170 C   0  0  0  0  0  0
  -21.6053   -4.3053   24.7223 C   0  0  0  0  0  0
  -21.8825   -3.8159   23.4323 C   0  0  0  0  0  0
  -21.9189   -4.6971   22.3398 C   0  0  0  0  0  0
  -22.7856  -13.5217   21.1851 C   0  0  0  0  0  0
  -22.1651   -4.2143   21.0979 F   0  0  0  0  0  0
  -21.5615   -3.4546   25.7740 F   0  0  0  0  0  0
  -30.0187  -13.5313   20.4591 N   0  0  0  0  0  0
  -26.3053  -12.9367   20.3317 N   0  0  0  0  0  0
  -25.9391  -11.6520   20.5763 N   0  0  0  0  0  0
  -22.0478  -12.8218   22.0411 N   0  0  0  0  0  0
  -25.4244  -15.1872   20.3899 N   0  0  0  0  0  0
  -31.7066  -14.9953   20.0329 O   0  0  0  0  0  0
  -21.6647   -6.8841   21.4218 O   0  0  0  0  0  0
  -22.3526  -14.5507   20.6672 O   0  0  0  0  0  0
  -24.6320  -31.8527   23.1971 C   0  0  0  0  0  0
  -25.9144  -32.4750   23.8290 C   0  0  1  0  0  0
  -27.2213  -27.2062   20.1372 C   0  0  0  0  0  0
  -25.5913  -33.8543   24.2228 N   0  0  0  0  0  0
  -23.4322  -30.4697   21.5421 C   0  0  2  0  0  0
  -24.8827  -28.9102   20.1196 C   0  0  0  0  0  0
  -22.7493  -29.4571   22.4937 C   0  0  0  0  0  0
  -18.0357  -28.1386   22.8478 C   0  0  0  0  0  0
  -24.1488  -36.7269   23.2643 C   0  0  0  0  0  0
  -25.9831  -30.7482   21.3853 C   0  0  0  0  0  0
  -26.0631  -29.3650   20.7266 C   0  0  0  0  0  0
  -27.2296  -28.5239   20.7320 C   0  0  0  0  0  0
  -26.0236  -26.8489   19.4743 C   0  0  0  0  0  0
  -24.8672  -27.6563   19.4907 C   0  0  0  0  0  0
  -23.6567  -29.8024   20.1605 C   0  0  0  0  0  0
  -25.4118  -36.3064   24.0324 C   0  0  1  0  0  0
  -20.5930  -28.3707   23.1293 C   0  0  2  0  0  0
  -20.6840  -26.9404   22.5460 C   0  0  0  0  0  0
  -19.5856  -26.6312   21.5233 C   0  0  0  0  0  0
  -18.2020  -26.7925   22.1587 C   0  0  0  0  0  0
  -19.1580  -28.8842   23.2904 C   0  0  0  0  0  0
  -18.9523  -30.1458   23.8891 C   0  0  0  0  0  0
  -17.6492  -30.6545   24.0572 C   0  0  0  0  0  0
  -25.9053  -34.9433   23.5079 C   0  0  0  0  0  0
  -16.5373  -29.9043   23.6306 C   0  0  0  0  0  0
  -16.7322  -28.6476   23.0336 C   0  0  0  0  0  0
  -26.4485  -31.6568   25.0687 C   0  0  0  0  0  0
  -25.3705  -31.3731   26.1416 C   0  0  0  0  0  0
  -27.0369  -30.2974   24.6217 C   0  0  0  0  0  0
  -27.6029  -32.4317   25.7492 C   0  0  0  0  0  0
  -27.5576  -37.1788   24.8466 C   0  0  0  0  0  0
  -21.4217  -29.3000   22.3651 N   0  0  0  0  0  0
  -26.4298  -37.3756   23.9405 N   0  0  0  0  0  0
  -24.7010  -31.0446   22.0975 N   0  0  0  0  0  0
  -23.4152  -28.8127   23.3096 O   0  0  0  0  0  0
  -28.2868  -26.2583   20.2112 O   0  0  0  0  0  0
  -26.5632  -34.8896   22.4663 O   0  0  0  0  0  0
  -23.5458  -32.1391   23.7204 O   0  0  0  0  0  0
  -28.2735  -19.0457   21.5084 C   0  0  0  0  0  0
  -28.4225  -17.6474   21.7909 C   0  0  0  0  0  0
  -29.3393  -19.4515   20.7668 C   0  0  0  0  0  0
  -29.5371  -17.1728   21.1190 C   0  0  0  0  0  0
  -27.5727  -16.8286   22.6947 C   0  0  0  0  0  0
  -29.0240  -23.5958   20.3924 C   0  0  0  0  0  0
  -26.1316  -17.2595   22.8886 C   0  0  0  0  0  0
  -28.6014  -22.0101   20.4065 C   0  0  0  0  0  0
  -27.9609  -24.7727   20.0205 C   0  0  0  0  0  0
  -29.8377  -15.7782   21.1520 N   0  0  0  0  0  0
  -29.6158  -20.8459   20.4101 N   0  0  0  0  0  0
  -27.9977  -15.8326   23.2798 O   0  0  0  0  0  0
  -30.1862  -23.9030   20.6828 O   0  0  0  0  0  0
  -30.1537  -18.3034   20.4921 O   0  0  0  0  0  0
  -31.5019  -12.6365   19.1877 H   0  0  0  0  0  0
  -30.4275  -11.5011   19.9540 H   0  0  0  0  0  0
  -29.8232  -11.7888   17.5334 H   0  0  0  0  0  0
  -29.6499  -13.5098   17.7615 H   0  0  0  0  0  0
  -27.9203  -11.2859   18.9092 H   0  0  0  0  0  0
  -27.4012  -12.5406   17.8085 H   0  0  0  0  0  0
  -27.6588  -14.2565   19.5087 H   0  0  0  0  0  0
  -28.7455  -12.1269   21.4160 H   0  0  0  0  0  0
  -28.4087  -13.7767   21.8399 H   0  0  0  0  0  0
  -25.2765   -9.5638   22.4835 H   0  0  0  0  0  0
  -24.0009   -7.4581   22.7514 H   0  0  0  0  0  0
  -21.0850   -8.8792   19.8948 H   0  0  0  0  0  0
  -22.3737  -10.9695   19.6229 H   0  0  0  0  0  0
  -21.2030   -7.6153   23.9709 H   0  0  0  0  0  0
  -21.1477   -6.0530   25.9075 H   0  0  0  0  0  0
  -22.0603   -2.7606   23.2849 H   0  0  0  0  0  0
  -22.4067  -11.9910   22.4874 H   0  0  0  0  0  0
  -21.1097  -13.1234   22.2605 H   0  0  0  0  0  0
  -24.6282  -15.8132   20.4106 H   0  0  0  0  0  0
  -26.2276  -15.5866   19.9254 H   0  0  0  0  0  0
  -26.7226  -32.5340   23.1033 H   0  0  0  0  0  0
  -25.0084  -33.9712   25.0380 H   0  0  0  0  0  0
  -22.7328  -31.2959   21.3902 H   0  0  0  0  0  0
  -23.3758  -35.9590   23.3302 H   0  0  0  0  0  0
  -24.3604  -36.8899   22.2065 H   0  0  0  0  0  0
  -23.7237  -37.6455   23.6686 H   0  0  0  0  0  0
  -26.1307  -31.5070   20.6189 H   0  0  0  0  0  0
  -26.8616  -30.7986   22.0176 H   0  0  0  0  0  0
  -28.1180  -28.8662   21.2452 H   0  0  0  0  0  0
  -25.9407  -25.9068   18.9505 H   0  0  0  0  0  0
  -23.9613  -27.2946   19.0215 H   0  0  0  0  0  0
  -23.7995  -30.5815   19.4122 H   0  0  0  0  0  0
  -22.7704  -29.2453   19.8529 H   0  0  0  0  0  0
  -25.1309  -36.1912   25.0817 H   0  0  0  0  0  0
  -20.9945  -28.3334   24.1414 H   0  0  0  0  0  0
  -20.5837  -26.2278   23.3717 H   0  0  0  0  0  0
  -21.6683  -26.7318   22.1305 H   0  0  0  0  0  0
  -19.7170  -25.6252   21.1219 H   0  0  0  0  0  0
  -19.6754  -27.3099   20.6769 H   0  0  0  0  0  0
  -17.4392  -26.6898   21.3873 H   0  0  0  0  0  0
  -18.0390  -26.0060   22.8935 H   0  0  0  0  0  0
  -19.8039  -30.7206   24.2294 H   0  0  0  0  0  0
  -17.5011  -31.6236   24.5105 H   0  0  0  0  0  0
  -15.5381  -30.2915   23.7624 H   0  0  0  0  0  0
  -15.8704  -28.0802   22.7076 H   0  0  0  0  0  0
  -24.5884  -30.7089   25.7738 H   0  0  0  0  0  0
  -24.8894  -32.2901   26.4805 H   0  0  0  0  0  0
  -25.8000  -30.8924   27.0215 H   0  0  0  0  0  0
  -26.2991  -29.6705   24.1210 H   0  0  0  0  0  0
  -27.4012  -29.7258   25.4763 H   0  0  0  0  0  0
  -27.8857  -30.4250   23.9508 H   0  0  0  0  0  0
  -27.2629  -33.3628   26.2028 H   0  0  0  0  0  0
  -28.3852  -32.6857   25.0339 H   0  0  0  0  0  0
  -28.0670  -31.8469   26.5445 H   0  0  0  0  0  0
  -28.2580  -38.0089   24.7505 H   0  0  0  0  0  0
  -28.1077  -36.2623   24.6302 H   0  0  0  0  0  0
  -27.2295  -37.1433   25.8864 H   0  0  0  0  0  0
  -20.9336  -29.8511   21.6727 H   0  0  0  0  0  0
  -26.0166  -38.2819   24.1410 H   0  0  0  0  0  0
  -27.4948  -19.6881   21.8791 H   0  0  0  0  0  0
  -26.0500  -17.9456   23.7274 H   0  0  0  0  0  0
  -25.5076  -16.3885   23.0836 H   0  0  0  0  0  0
  -25.7619  -17.7450   21.9885 H   0  0  0  0  0  0
  -27.9700  -21.8419   19.5297 H   0  0  0  0  0  0
  -27.9396  -21.8704   21.2684 H   0  0  0  0  0  0
  -27.7226  -24.6277   18.9676 H   0  0  0  0  0  0
  -27.0405  -24.5448   20.5660 H   0  0  0  0  0  0
  -29.1582  -15.2984   21.7287 H   0  0  0  0  0  0
  -30.4773  -21.0477   19.9112 H   0  0  0  0  0  0
  1 25  1  0  0  0
  1 30  2  0  0  0
  1 80  1  0  0  0
  2  3  1  0  0  0
  2 25  1  0  0  0
  2 85  1  0  0  0
  2 86  1  0  0  0
  3  4  1  0  0  0
  3 87  1  0  0  0
  3 88  1  0  0  0
  4  5  1  0  0  0
  4 89  1  0  0  0
  4 90  1  0  0  0
  5  6  1  0  0  0
  5 26  1  0  0  0
  5 91  1  0  0  0
  6 25  1  0  0  0
  6 92  1  0  0  0
  6 93  1  0  0  0
  7  8  2  0  0  0
  7 26  1  0  0  0
  7 29  1  0  0  0
  8  9  1  0  0  0
  8 22  1  0  0  0
  9 10  1  0  0  0
  9 27  2  0  0  0
 10 11  2  0  0  0
 10 15  1  0  0  0
 11 12  1  0  0  0
 11 94  1  0  0  0
 12 13  2  0  0  0
 12 95  1  0  0  0
 13 14  1  0  0  0
 13 31  1  0  0  0
 14 15  2  0  0  0
 14 96  1  0  0  0
 15 97  1  0  0  0
 16 17  2  0  0  0
 16 21  1  0  0  0
 16 31  1  0  0  0
 17 18  1  0  0  0
 17 98  1  0  0  0
 18 19  2  0  0  0
 18 99  1  0  0  0
 19 20  1  0  0  0
 19 24  1  0  0  0
 20 21  2  0  0  0
 20100  1  0  0  0
 21 23  1  0  0  0
 22 28  1  0  0  0
 22 32  2  0  0  0
 26 27  1  0  0  0
 28101  1  0  0  0
 28102  1  0  0  0
 29103  1  0  0  0
 29104  1  0  0  0
 33 34  1  0  0  0
 33 66  1  0  0  0
 33 70  2  0  0  0
 34 36  1  0  0  0
 34 59  1  0  0  0
 34105  1  0  0  0
 35 44  2  0  0  0
 35 45  1  0  0  0
 35 68  1  0  0  0
 36 56  1  0  0  0
 36106  1  0  0  0
 37 39  1  0  0  0
 37 47  1  0  0  0
 37 66  1  0  0  0
 37107  1  0  0  0
 38 43  2  0  0  0
 38 46  1  0  0  0
 38 47  1  0  0  0
 39 64  1  0  0  0
 39 67  2  0  0  0
 40 52  1  0  0  0
 40 53  2  0  0  0
 40 58  1  0  0  0
 41108  1  0  0  0
 41109  1  0  0  0
 41110  1  0  0  0
 41 48  1  0  0  0
 42 43  1  0  0  0
 42 66  1  0  0  0
 42111  1  0  0  0
 42112  1  0  0  0
 43 44  1  0  0  0
 44113  1  0  0  0
 45 46  2  0  0  0
 45114  1  0  0  0
 46115  1  0  0  0
 47116  1  0  0  0
 47117  1  0  0  0
 48 56  1  0  0  0
 48 65  1  0  0  0
 48118  1  0  0  0
 49 50  1  0  0  0
 49 53  1  0  0  0
 49 64  1  0  0  0
 49119  1  0  0  0
 50 51  1  0  0  0
 50120  1  0  0  0
 50121  1  0  0  0
 51 52  1  0  0  0
 51122  1  0  0  0
 51123  1  0  0  0
 52124  1  0  0  0
 52125  1  0  0  0
 53 54  1  0  0  0
 54 55  2  0  0  0
 54126  1  0  0  0
 55 57  1  0  0  0
 55127  1  0  0  0
 56 69  2  0  0  0
 57 58  2  0  0  0
 57128  1  0  0  0
 58129  1  0  0  0
 59 60  1  0  0  0
 59 61  1  0  0  0
 59 62  1  0  0  0
 60130  1  0  0  0
 60131  1  0  0  0
 60132  1  0  0  0
 61133  1  0  0  0
 61134  1  0  0  0
 61135  1  0  0  0
 62136  1  0  0  0
 62137  1  0  0  0
 62138  1  0  0  0
 63 65  1  0  0  0
 63139  1  0  0  0
 63140  1  0  0  0
 63141  1  0  0  0
 64142  1  0  0  0
 65143  1  0  0  0
 68 79  1  0  0  0
 71 72  1  0  0  0
 71 73  2  0  0  0
 71144  1  0  0  0
 72 74  2  0  0  0
 72 75  1  0  0  0
 73 81  1  0  0  0
 73 84  1  0  0  0
 74 80  1  0  0  0
 74 84  1  0  0  0
 75 77  1  0  0  0
 75 82  2  0  0  0
 76 78  1  0  0  0
 76 79  1  0  0  0
 76 83  2  0  0  0
 77145  1  0  0  0
 77146  1  0  0  0
 77147  1  0  0  0
 78 81  1  0  0  0
 78148  1  0  0  0
 78149  1  0  0  0
 79150  1  0  0  0
 79151  1  0  0  0
 80152  1  0  0  0
 81153  1  0  0  0
M  ISO  4   1 100  68 101  79 101  80 100
M  END
> <chiral flag>
0

> <version>
0

> <s_m_source_file>
/data/baiqing/PycharmProjects/Reinvent-master-3.2/result/LINK_invent/BTK/process_docking_weight1_custom_product_contain_oxygen_bond_distance_aromatic_linkinvent_7_9_3/rearranged_h_0159.sdf

> <i_m_source_file_index>
94

> <r_mmod_Potential_Energy-OPLS-2005>
267.329711914062

> <r_mmod_Stretch_Energy-OPLS-2005>
169.264450073242

> <r_mmod_Bend_Energy-OPLS-2005>
243.557769775391

> <r_mmod_Torsional_Energy-OPLS-2005>
236.159118652344

> <r_mmod_Improper_Torsional_Energy-OPLS-2005>
4.69681882858276

> <r_mmod_Van_der_Waal_Energy-OPLS-2005>
116.79126739502

> <r_mmod_Electrostatic_Energy-OPLS-2005>
-356.727172851562

> <r_mmod_Solvation_Energy-OPLS-2005>
-262.440948486328

> <b_mmod_Minimization_Converged-OPLS-2005>
0

> <r_mmod_RMS_Derivative-OPLS-2005>
9.58563709259033

$$$$
95
                    3D
 Structure written by MMmdl.
149157  0  0  1  0            999 V2000
  -30.5833  -14.8225   20.4132 C   0  0  0  0  0  0
  -30.4317  -12.4916   19.4981 C   0  0  0  0  0  0
  -29.5183  -12.5155   18.2504 C   0  0  0  0  0  0
  -28.0413  -12.3425   18.6524 C   0  0  0  0  0  0
  -27.6394  -13.2466   19.8488 C   0  0  2  0  0  0
  -28.6805  -13.2099   20.9888 C   0  0  0  0  0  0
  -25.2478  -13.8255   20.5680 C   0  0  0  0  0  0
  -24.1768  -13.0482   20.9186 C   0  0  0  0  0  0
  -24.6388  -11.6968   20.8743 C   0  0  0  0  0  0
  -23.9077  -10.4328   21.0412 C   0  0  0  0  0  0
  -24.3636   -9.4237   21.9185 C   0  0  0  0  0  0
  -23.6308   -8.2270   22.0766 C   0  0  0  0  0  0
  -22.4286   -8.0295   21.3556 C   0  0  0  0  0  0
  -21.9922   -9.0271   20.4657 C   0  0  0  0  0  0
  -22.7254  -10.2152   20.3057 C   0  0  0  0  0  0
  -21.6865   -6.0735   22.5270 C   0  0  0  0  0  0
  -21.4025   -6.5635   23.8206 C   0  0  0  0  0  0
  -21.3658   -5.6786   24.9167 C   0  0  0  0  0  0
  -21.6047   -4.3053   24.7216 C   0  0  0  0  0  0
  -21.8823   -3.8140   23.4339 C   0  0  0  0  0  0
  -21.9197   -4.6961   22.3394 C   0  0  0  0  0  0
  -22.7780  -13.5255   21.1816 C   0  0  0  0  0  0
  -22.1670   -4.2149   21.0974 F   0  0  0  0  0  0
  -21.5623   -3.4535   25.7731 F   0  0  0  0  0  0
  -29.9826  -13.5728   20.4127 N   0  0  0  0  0  0
  -26.2924  -12.9488   20.3273 N   0  0  0  0  0  0
  -25.9331  -11.6618   20.5751 N   0  0  0  0  0  0
  -22.0411  -12.8274   22.0384 N   0  0  0  0  0  0
  -25.4159  -15.1997   20.4142 N   0  0  0  0  0  0
  -31.7549  -14.9153   20.0341 O   0  0  0  0  0  0
  -21.6650   -6.8887   21.4245 O   0  0  0  0  0  0
  -22.3458  -14.5520   20.6604 O   0  0  0  0  0  0
  -24.6364  -31.8485   23.1962 C   0  0  0  0  0  0
  -25.9173  -32.4708   23.8316 C   0  0  1  0  0  0
  -27.2143  -27.2097   20.1354 C   0  0  0  0  0  0
  -25.5959  -33.8521   24.2225 N   0  0  0  0  0  0
  -23.4362  -30.4761   21.5380 C   0  0  2  0  0  0
  -24.8831  -28.9193   20.1068 C   0  0  0  0  0  0
  -22.7542  -29.4587   22.4861 C   0  0  0  0  0  0
  -18.0305  -28.1401   22.8481 C   0  0  0  0  0  0
  -24.1486  -36.7277   23.2641 C   0  0  0  0  0  0
  -25.9874  -30.7471   21.3860 C   0  0  0  0  0  0
  -26.0573  -29.3668   20.7258 C   0  0  0  0  0  0
  -27.2229  -28.5247   20.7296 C   0  0  0  0  0  0
  -26.0176  -26.8510   19.4708 C   0  0  0  0  0  0
  -24.8719  -27.6722   19.4673 C   0  0  0  0  0  0
  -23.6587  -29.8144   20.1528 C   0  0  0  0  0  0
  -25.4111  -36.3044   24.0316 C   0  0  1  0  0  0
  -20.5910  -28.3716   23.1247 C   0  0  2  0  0  0
  -20.6797  -26.9428   22.5410 C   0  0  0  0  0  0
  -19.5771  -26.6381   21.5224 C   0  0  0  0  0  0
  -18.1947  -26.7939   22.1621 C   0  0  0  0  0  0
  -19.1563  -28.8879   23.2853 C   0  0  0  0  0  0
  -18.9480  -30.1470   23.8885 C   0  0  0  0  0  0
  -17.6480  -30.6596   24.0577 C   0  0  0  0  0  0
  -25.9053  -34.9418   23.5061 C   0  0  0  0  0  0
  -16.5370  -29.9099   23.6338 C   0  0  0  0  0  0
  -16.7290  -28.6519   23.0355 C   0  0  0  0  0  0
  -26.4531  -31.6568   25.0735 C   0  0  0  0  0  0
  -25.3738  -31.3778   26.1454 C   0  0  0  0  0  0
  -27.0403  -30.2970   24.6283 C   0  0  0  0  0  0
  -27.6036  -32.4353   25.7540 C   0  0  0  0  0  0
  -27.5575  -37.1796   24.8459 C   0  0  0  0  0  0
  -21.4244  -29.3053   22.3627 N   0  0  0  0  0  0
  -26.4276  -37.3755   23.9409 N   0  0  0  0  0  0
  -24.7061  -31.0427   22.0956 N   0  0  0  0  0  0
  -23.4222  -28.8109   23.2961 O   0  0  0  0  0  0
  -28.2863  -26.2696   20.2225 O   0  0  0  0  0  0
  -26.5618  -34.8906   22.4622 O   0  0  0  0  0  0
  -23.5501  -32.1336   23.7220 O   0  0  0  0  0  0
  -29.7359  -19.1021   18.8651 C   0  0  0  0  0  0
  -29.9168  -17.6707   18.9377 C   0  0  0  0  0  0
  -29.5812  -19.6240   20.1286 C   0  0  0  0  0  0
  -29.8667  -17.2972   20.2569 C   0  0  0  0  0  0
  -29.5245  -21.0415   20.6997 C   0  0  0  0  0  0
  -28.9844  -23.6431   20.5818 C   0  0  0  0  0  0
  -28.0507  -24.7876   19.9121 C   0  0  0  0  0  0
  -29.8295  -15.9603   20.7324 N   0  0  0  0  0  0
  -28.9225  -22.1896   20.1324 N   0  0  0  0  0  0
  -30.1844  -21.1578   21.8628 N   0  3  0  0  0  0
  -29.7430  -23.9461   21.5138 O   0  0  0  0  0  0
  -29.6382  -18.4897   20.9995 O   0  0  0  0  0  0
  -31.4764  -12.6080   19.2036 H   0  0  0  0  0  0
  -30.3718  -11.5247   19.9995 H   0  0  0  0  0  0
  -29.8077  -11.7288   17.5512 H   0  0  0  0  0  0
  -29.6467  -13.4597   17.7202 H   0  0  0  0  0  0
  -27.8947  -11.2941   18.9122 H   0  0  0  0  0  0
  -27.3913  -12.5391   17.7988 H   0  0  0  0  0  0
  -27.6264  -14.2650   19.4609 H   0  0  0  0  0  0
  -28.7203  -12.2231   21.4527 H   0  0  0  0  0  0
  -28.3993  -13.9086   21.7782 H   0  0  0  0  0  0
  -25.2794   -9.5709   22.4739 H   0  0  0  0  0  0
  -24.0024   -7.4675   22.7496 H   0  0  0  0  0  0
  -21.0850   -8.8798   19.8970 H   0  0  0  0  0  0
  -22.3731  -10.9684   19.6148 H   0  0  0  0  0  0
  -21.2026   -7.6148   23.9724 H   0  0  0  0  0  0
  -21.1473   -6.0504   25.9074 H   0  0  0  0  0  0
  -22.0602   -2.7600   23.2833 H   0  0  0  0  0  0
  -22.4029  -11.9989   22.4855 H   0  0  0  0  0  0
  -21.1013  -13.1287   22.2511 H   0  0  0  0  0  0
  -24.6442  -15.8519   20.5063 H   0  0  0  0  0  0
  -26.2697  -15.6457   20.1027 H   0  0  0  0  0  0
  -26.7236  -32.5330   23.1056 H   0  0  0  0  0  0
  -25.0188  -33.9642   25.0427 H   0  0  0  0  0  0
  -22.7366  -31.3016   21.3917 H   0  0  0  0  0  0
  -23.3736  -35.9624   23.3281 H   0  0  0  0  0  0
  -24.3595  -36.8920   22.2066 H   0  0  0  0  0  0
  -23.7254  -37.6474   23.6683 H   0  0  0  0  0  0
  -26.1358  -31.5073   20.6174 H   0  0  0  0  0  0
  -26.8607  -30.7946   22.0245 H   0  0  0  0  0  0
  -28.1162  -28.8582   21.2392 H   0  0  0  0  0  0
  -25.9263  -25.9065   18.9555 H   0  0  0  0  0  0
  -23.9748  -27.3295   18.9703 H   0  0  0  0  0  0
  -23.7981  -30.5941   19.4035 H   0  0  0  0  0  0
  -22.7725  -29.2616   19.8366 H   0  0  0  0  0  0
  -25.1297  -36.1890   25.0811 H   0  0  0  0  0  0
  -21.0004  -28.3310   24.1364 H   0  0  0  0  0  0
  -20.5723  -26.2331   23.3623 H   0  0  0  0  0  0
  -21.6661  -26.7473   22.1189 H   0  0  0  0  0  0
  -19.6936  -25.6288   21.1266 H   0  0  0  0  0  0
  -19.6697  -27.3186   20.6747 H   0  0  0  0  0  0
  -17.4220  -26.6691   21.4014 H   0  0  0  0  0  0
  -18.0332  -26.0091   22.9021 H   0  0  0  0  0  0
  -19.7959  -30.7294   24.2237 H   0  0  0  0  0  0
  -17.5036  -31.6271   24.5189 H   0  0  0  0  0  0
  -15.5369  -30.3001   23.7662 H   0  0  0  0  0  0
  -15.8689  -28.0838   22.7062 H   0  0  0  0  0  0
  -24.5876  -30.7154   25.7811 H   0  0  0  0  0  0
  -24.8978  -32.2982   26.4849 H   0  0  0  0  0  0
  -25.8036  -30.8985   27.0255 H   0  0  0  0  0  0
  -26.3016  -29.6678   24.1295 H   0  0  0  0  0  0
  -27.4050  -29.7288   25.4850 H   0  0  0  0  0  0
  -27.8911  -30.4218   23.9576 H   0  0  0  0  0  0
  -27.2578  -33.3646   26.2093 H   0  0  0  0  0  0
  -28.3886  -32.6928   25.0418 H   0  0  0  0  0  0
  -28.0668  -31.8508   26.5504 H   0  0  0  0  0  0
  -28.2563  -38.0117   24.7511 H   0  0  0  0  0  0
  -28.1089  -36.2640   24.6263 H   0  0  0  0  0  0
  -27.2293  -37.1436   25.8860 H   0  0  0  0  0  0
  -20.9432  -29.8795   21.6847 H   0  0  0  0  0  0
  -26.0137  -38.2812   24.1428 H   0  0  0  0  0  0
  -29.7588  -19.7010   17.9658 H   0  0  0  0  0  0
  -30.0491  -16.9990   18.1011 H   0  0  0  0  0  0
  -28.0791  -24.6583   18.8304 H   0  0  0  0  0  0
  -27.0448  -24.5184   20.2319 H   0  0  0  0  0  0
  -29.0055  -15.7441   21.2713 H   0  0  0  0  0  0
  -28.3632  -21.9473   19.3317 H   0  0  0  0  0  0
  -30.3092  -22.0586   22.3053 H   0  0  0  0  0  0
  -30.6320  -20.3409   22.2537 H   0  0  0  0  0  0
  1 25  1  0  0  0
  1 30  2  0  0  0
  1 78  1  0  0  0
  2  3  1  0  0  0
  2 25  1  0  0  0
  2 83  1  0  0  0
  2 84  1  0  0  0
  3  4  1  0  0  0
  3 85  1  0  0  0
  3 86  1  0  0  0
  4  5  1  0  0  0
  4 87  1  0  0  0
  4 88  1  0  0  0
  5  6  1  0  0  0
  5 26  1  0  0  0
  5 89  1  0  0  0
  6 25  1  0  0  0
  6 90  1  0  0  0
  6 91  1  0  0  0
  7  8  2  0  0  0
  7 26  1  0  0  0
  7 29  1  0  0  0
  8  9  1  0  0  0
  8 22  1  0  0  0
  9 10  1  0  0  0
  9 27  2  0  0  0
 10 11  2  0  0  0
 10 15  1  0  0  0
 11 12  1  0  0  0
 11 92  1  0  0  0
 12 13  2  0  0  0
 12 93  1  0  0  0
 13 14  1  0  0  0
 13 31  1  0  0  0
 14 15  2  0  0  0
 14 94  1  0  0  0
 15 95  1  0  0  0
 16 17  2  0  0  0
 16 21  1  0  0  0
 16 31  1  0  0  0
 17 18  1  0  0  0
 17 96  1  0  0  0
 18 19  2  0  0  0
 18 97  1  0  0  0
 19 20  1  0  0  0
 19 24  1  0  0  0
 20 21  2  0  0  0
 20 98  1  0  0  0
 21 23  1  0  0  0
 22 28  1  0  0  0
 22 32  2  0  0  0
 26 27  1  0  0  0
 28 99  1  0  0  0
 28100  1  0  0  0
 29101  1  0  0  0
 29102  1  0  0  0
 33 34  1  0  0  0
 33 66  1  0  0  0
 33 70  2  0  0  0
 34 36  1  0  0  0
 34 59  1  0  0  0
 34103  1  0  0  0
 35 44  2  0  0  0
 35 45  1  0  0  0
 35 68  1  0  0  0
 36 56  1  0  0  0
 36104  1  0  0  0
 37 39  1  0  0  0
 37 47  1  0  0  0
 37 66  1  0  0  0
 37105  1  0  0  0
 38 43  2  0  0  0
 38 46  1  0  0  0
 38 47  1  0  0  0
 39 64  1  0  0  0
 39 67  2  0  0  0
 40 52  1  0  0  0
 40 53  2  0  0  0
 40 58  1  0  0  0
 41106  1  0  0  0
 41107  1  0  0  0
 41108  1  0  0  0
 41 48  1  0  0  0
 42 43  1  0  0  0
 42 66  1  0  0  0
 42109  1  0  0  0
 42110  1  0  0  0
 43 44  1  0  0  0
 44111  1  0  0  0
 45 46  2  0  0  0
 45112  1  0  0  0
 46113  1  0  0  0
 47114  1  0  0  0
 47115  1  0  0  0
 48 56  1  0  0  0
 48 65  1  0  0  0
 48116  1  0  0  0
 49 50  1  0  0  0
 49 53  1  0  0  0
 49 64  1  0  0  0
 49117  1  0  0  0
 50 51  1  0  0  0
 50118  1  0  0  0
 50119  1  0  0  0
 51 52  1  0  0  0
 51120  1  0  0  0
 51121  1  0  0  0
 52122  1  0  0  0
 52123  1  0  0  0
 53 54  1  0  0  0
 54 55  2  0  0  0
 54124  1  0  0  0
 55 57  1  0  0  0
 55125  1  0  0  0
 56 69  2  0  0  0
 57 58  2  0  0  0
 57126  1  0  0  0
 58127  1  0  0  0
 59 60  1  0  0  0
 59 61  1  0  0  0
 59 62  1  0  0  0
 60128  1  0  0  0
 60129  1  0  0  0
 60130  1  0  0  0
 61131  1  0  0  0
 61132  1  0  0  0
 61133  1  0  0  0
 62134  1  0  0  0
 62135  1  0  0  0
 62136  1  0  0  0
 63 65  1  0  0  0
 63137  1  0  0  0
 63138  1  0  0  0
 63139  1  0  0  0
 64140  1  0  0  0
 65141  1  0  0  0
 68 77  1  0  0  0
 71 72  1  0  0  0
 71 73  2  0  0  0
 71142  1  0  0  0
 72 74  2  0  0  0
 72143  1  0  0  0
 73 75  1  0  0  0
 73 82  1  0  0  0
 74 78  1  0  0  0
 74 82  1  0  0  0
 75 79  1  0  0  0
 75 80  2  0  0  0
 76 77  1  0  0  0
 76 79  1  0  0  0
 76 81  2  0  0  0
 77144  1  0  0  0
 77145  1  0  0  0
 78146  1  0  0  0
 79147  1  0  0  0
 80148  1  0  0  0
 80149  1  0  0  0
M  CHG  1  80   1
M  ISO  4   1 100  68 101  77 101  78 100
M  END
> <chiral flag>
0

> <version>
0

> <s_m_source_file>
/data/baiqing/PycharmProjects/Reinvent-master-3.2/result/LINK_invent/BTK/process_docking_weight1_custom_product_contain_oxygen_bond_distance_aromatic_linkinvent_7_9_3/rearranged_h_0159.sdf

> <i_m_source_file_index>
95

> <r_mmod_Potential_Energy-OPLS-2005>
-38.0198020935059

> <r_mmod_Stretch_Energy-OPLS-2005>
158.038558959961

> <r_mmod_Bend_Energy-OPLS-2005>
193.015731811523

> <r_mmod_Torsional_Energy-OPLS-2005>
234.554885864258

> <r_mmod_Improper_Torsional_Energy-OPLS-2005>
4.89811611175537

> <r_mmod_Van_der_Waal_Energy-OPLS-2005>
123.02001953125

> <r_mmod_Electrostatic_Energy-OPLS-2005>
-365.39453125

> <r_mmod_Solvation_Energy-OPLS-2005>
-509.990173339844

> <b_mmod_Minimization_Converged-OPLS-2005>
0

> <r_mmod_RMS_Derivative-OPLS-2005>
2.54613161087036

$$$$
96
                    3D
 Structure written by MMmdl.
152160  0  0  1  0            999 V2000
  -30.6606  -14.5155   20.5584 C   0  0  0  0  0  0
  -30.4355  -12.3277   19.4288 C   0  0  0  0  0  0
  -29.5019  -12.5117   18.2122 C   0  0  0  0  0  0
  -28.0223  -12.3654   18.6221 C   0  0  0  0  0  0
  -27.6643  -13.2042   19.8777 C   0  0  2  0  0  0
  -28.7059  -12.9803   20.9981 C   0  0  0  0  0  0
  -25.2607  -13.8151   20.5682 C   0  0  0  0  0  0
  -24.1848  -13.0436   20.9170 C   0  0  0  0  0  0
  -24.6395  -11.6900   20.8727 C   0  0  0  0  0  0
  -23.9057  -10.4291   21.0400 C   0  0  0  0  0  0
  -24.3611   -9.4208   21.9180 C   0  0  0  0  0  0
  -23.6288   -8.2243   22.0753 C   0  0  0  0  0  0
  -22.4271   -8.0280   21.3543 C   0  0  0  0  0  0
  -21.9902   -9.0253   20.4647 C   0  0  0  0  0  0
  -22.7227  -10.2133   20.3053 C   0  0  0  0  0  0
  -21.6853   -6.0733   22.5278 C   0  0  0  0  0  0
  -21.4015   -6.5638   23.8210 C   0  0  0  0  0  0
  -21.3659   -5.6791   24.9173 C   0  0  0  0  0  0
  -21.6044   -4.3053   24.7225 C   0  0  0  0  0  0
  -21.8820   -3.8144   23.4346 C   0  0  0  0  0  0
  -21.9194   -4.6960   22.3402 C   0  0  0  0  0  0
  -22.7873  -13.5242   21.1837 C   0  0  0  0  0  0
  -22.1663   -4.2146   21.0980 F   0  0  0  0  0  0
  -21.5628   -3.4538   25.7739 F   0  0  0  0  0  0
  -30.0372  -13.3067   20.4541 N   0  0  0  0  0  0
  -26.3039  -12.9313   20.3369 N   0  0  0  0  0  0
  -25.9322  -11.6476   20.5759 N   0  0  0  0  0  0
  -22.0510  -12.8238   22.0394 N   0  0  0  0  0  0
  -25.4350  -15.1870   20.4104 N   0  0  0  0  0  0
  -31.7786  -14.7330   20.0792 O   0  0  0  0  0  0
  -21.6637   -6.8875   21.4240 O   0  0  0  0  0  0
  -22.3562  -14.5553   20.6690 O   0  0  0  0  0  0
  -24.6173  -31.8659   23.2077 C   0  0  0  0  0  0
  -25.9052  -32.4814   23.8387 C   0  0  1  0  0  0
  -27.2346  -27.4101   20.1049 C   0  0  0  0  0  0
  -25.5897  -33.8613   24.2318 N   0  0  0  0  0  0
  -23.4079  -30.4882   21.5484 C   0  0  2  0  0  0
  -24.8574  -28.9526   20.1122 C   0  0  0  0  0  0
  -22.7432  -29.4644   22.4973 C   0  0  0  0  0  0
  -18.0276  -28.1376   22.8492 C   0  0  0  0  0  0
  -24.1488  -36.7314   23.2638 C   0  0  0  0  0  0
  -25.9395  -30.8252   21.3645 C   0  0  0  0  0  0
  -26.0197  -29.4583   20.7098 C   0  0  0  0  0  0
  -27.2153  -28.6964   20.6994 C   0  0  0  0  0  0
  -26.0581  -26.9289   19.4925 C   0  0  0  0  0  0
  -24.8731  -27.6889   19.4973 C   0  0  0  0  0  0
  -23.6189  -29.8207   20.1633 C   0  0  0  0  0  0
  -25.4108  -36.3108   24.0337 C   0  0  1  0  0  0
  -20.5870  -28.3668   23.1311 C   0  0  2  0  0  0
  -20.6765  -26.9400   22.5416 C   0  0  0  0  0  0
  -19.5744  -26.6383   21.5213 C   0  0  0  0  0  0
  -18.1924  -26.7922   22.1625 C   0  0  0  0  0  0
  -19.1526  -28.8838   23.2898 C   0  0  0  0  0  0
  -18.9452  -30.1443   23.8909 C   0  0  0  0  0  0
  -17.6454  -30.6581   24.0565 C   0  0  0  0  0  0
  -25.9035  -34.9473   23.5127 C   0  0  0  0  0  0
  -16.5346  -29.9083   23.6324 C   0  0  0  0  0  0
  -16.7265  -28.6499   23.0347 C   0  0  0  0  0  0
  -26.4471  -31.6597   25.0721 C   0  0  0  0  0  0
  -25.3734  -31.3710   26.1469 C   0  0  0  0  0  0
  -27.0298  -30.3036   24.6105 C   0  0  0  0  0  0
  -27.6050  -32.4313   25.7480 C   0  0  0  0  0  0
  -27.5581  -37.1812   24.8465 C   0  0  0  0  0  0
  -21.4154  -29.3033   22.3717 N   0  0  0  0  0  0
  -26.4296  -37.3792   23.9407 N   0  0  0  0  0  0
  -24.6733  -31.0740   22.0987 N   0  0  0  0  0  0
  -23.4192  -28.8183   23.3023 O   0  0  0  0  0  0
  -28.3585  -26.6051   20.1293 O   0  0  0  0  0  0
  -26.5602  -34.8926   22.4691 O   0  0  0  0  0  0
  -23.5357  -32.1416   23.7456 O   0  0  0  0  0  0
  -28.8882  -17.7793   21.3824 C   0  0  0  0  0  0
  -30.6963  -17.6551   20.0680 C   0  0  0  0  0  0
  -29.8830  -16.8974   20.8682 C   0  0  0  0  0  0
  -29.1157  -19.0170   20.8245 C   0  0  0  0  0  0
  -28.3745  -20.2808   20.8754 C   0  0  0  0  0  0
  -28.8088  -24.1168   20.3744 C   0  0  0  0  0  0
  -28.1382  -22.7929   20.8109 C   0  0  0  0  0  0
  -28.1788  -25.4179   20.9449 C   0  0  0  0  0  0
  -27.0692  -20.1809   21.1694 N   0  0  0  0  0  0
  -29.9194  -15.4861   21.1406 N   0  0  0  0  0  0
  -28.9023  -21.5162   20.6557 N   0  3  0  0  0  0
  -29.7945  -24.1285   19.6275 O   0  0  0  0  0  0
  -30.2338  -18.9539   20.0297 O   0  0  0  0  0  0
  -31.4782  -12.4440   19.1274 H   0  0  0  0  0  0
  -30.3531  -11.3149   19.8262 H   0  0  0  0  0  0
  -29.7474  -11.7857   17.4360 H   0  0  0  0  0  0
  -29.6631  -13.4964   17.7704 H   0  0  0  0  0  0
  -27.8364  -11.3089   18.8188 H   0  0  0  0  0  0
  -27.3720  -12.6374   17.7899 H   0  0  0  0  0  0
  -27.7085  -14.2526   19.5820 H   0  0  0  0  0  0
  -28.6903  -11.9393   21.3245 H   0  0  0  0  0  0
  -28.4568  -13.5615   21.8868 H   0  0  0  0  0  0
  -25.2760   -9.5684   22.4749 H   0  0  0  0  0  0
  -24.0001   -7.4636   22.7473 H   0  0  0  0  0  0
  -21.0831   -8.8771   19.8956 H   0  0  0  0  0  0
  -22.3686  -10.9672   19.6162 H   0  0  0  0  0  0
  -21.2007   -7.6146   23.9713 H   0  0  0  0  0  0
  -21.1481   -6.0521   25.9076 H   0  0  0  0  0  0
  -22.0599   -2.7606   23.2849 H   0  0  0  0  0  0
  -22.4118  -11.9893   22.4776 H   0  0  0  0  0  0
  -21.1132  -13.1273   22.2604 H   0  0  0  0  0  0
  -24.6676  -15.8425   20.5087 H   0  0  0  0  0  0
  -26.2876  -15.6198   20.0784 H   0  0  0  0  0  0
  -26.7126  -32.5522   23.1154 H   0  0  0  0  0  0
  -25.0046  -33.9774   25.0463 H   0  0  0  0  0  0
  -22.6975  -31.3055   21.4078 H   0  0  0  0  0  0
  -23.3744  -35.9653   23.3312 H   0  0  0  0  0  0
  -24.3583  -36.8918   22.2051 H   0  0  0  0  0  0
  -23.7246  -37.6524   23.6646 H   0  0  0  0  0  0
  -26.0548  -31.5913   20.5964 H   0  0  0  0  0  0
  -26.8257  -30.8788   21.9850 H   0  0  0  0  0  0
  -28.1107  -29.0792   21.1692 H   0  0  0  0  0  0
  -26.0540  -25.9571   19.0194 H   0  0  0  0  0  0
  -23.9812  -27.2953   19.0294 H   0  0  0  0  0  0
  -23.7276  -30.5959   19.4039 H   0  0  0  0  0  0
  -22.7428  -29.2412   19.8667 H   0  0  0  0  0  0
  -25.1286  -36.1976   25.0831 H   0  0  0  0  0  0
  -20.9963  -28.3233   24.1432 H   0  0  0  0  0  0
  -20.5664  -26.2275   23.3606 H   0  0  0  0  0  0
  -21.6637  -26.7437   22.1213 H   0  0  0  0  0  0
  -19.6907  -25.6298   21.1232 H   0  0  0  0  0  0
  -19.6684  -27.3202   20.6750 H   0  0  0  0  0  0
  -17.4194  -26.6670   21.4027 H   0  0  0  0  0  0
  -18.0326  -26.0060   22.9017 H   0  0  0  0  0  0
  -19.7928  -30.7256   24.2285 H   0  0  0  0  0  0
  -17.5008  -31.6263   24.5163 H   0  0  0  0  0  0
  -15.5347  -30.2989   23.7637 H   0  0  0  0  0  0
  -15.8666  -28.0822   22.7055 H   0  0  0  0  0  0
  -24.5900  -30.7065   25.7805 H   0  0  0  0  0  0
  -24.8932  -32.2868   26.4926 H   0  0  0  0  0  0
  -25.8083  -30.8869   27.0222 H   0  0  0  0  0  0
  -26.2844  -29.6803   24.1150 H   0  0  0  0  0  0
  -27.4055  -29.7268   25.4566 H   0  0  0  0  0  0
  -27.8687  -30.4353   23.9266 H   0  0  0  0  0  0
  -27.2675  -33.3603   26.2088 H   0  0  0  0  0  0
  -28.3841  -32.6888   25.0293 H   0  0  0  0  0  0
  -28.0738  -31.8417   26.5369 H   0  0  0  0  0  0
  -28.2609  -38.0099   24.7503 H   0  0  0  0  0  0
  -28.1068  -36.2632   24.6300 H   0  0  0  0  0  0
  -27.2300  -37.1474   25.8869 H   0  0  0  0  0  0
  -20.9316  -29.8762   21.6944 H   0  0  0  0  0  0
  -26.0187  -38.2874   24.1398 H   0  0  0  0  0  0
  -28.0684  -17.5359   22.0429 H   0  0  0  0  0  0
  -31.5700  -17.4494   19.4635 H   0  0  0  0  0  0
  -27.2122  -22.7114   20.2426 H   0  0  0  0  0  0
  -27.8533  -22.8926   21.8582 H   0  0  0  0  0  0
  -28.6290  -25.6081   21.9192 H   0  0  0  0  0  0
  -27.1228  -25.2234   21.1355 H   0  0  0  0  0  0
  -26.6658  -19.2668   21.3054 H   0  0  0  0  0  0
  -26.4479  -20.9682   21.2377 H   0  0  0  0  0  0
  -29.1148  -15.1259   21.6313 H   0  0  0  0  0  0
  -29.8750  -21.5932   20.3896 H   0  0  0  0  0  0
  1 25  1  0  0  0
  1 30  2  0  0  0
  1 80  1  0  0  0
  2  3  1  0  0  0
  2 25  1  0  0  0
  2 84  1  0  0  0
  2 85  1  0  0  0
  3  4  1  0  0  0
  3 86  1  0  0  0
  3 87  1  0  0  0
  4  5  1  0  0  0
  4 88  1  0  0  0
  4 89  1  0  0  0
  5  6  1  0  0  0
  5 26  1  0  0  0
  5 90  1  0  0  0
  6 25  1  0  0  0
  6 91  1  0  0  0
  6 92  1  0  0  0
  7  8  2  0  0  0
  7 26  1  0  0  0
  7 29  1  0  0  0
  8  9  1  0  0  0
  8 22  1  0  0  0
  9 10  1  0  0  0
  9 27  2  0  0  0
 10 11  2  0  0  0
 10 15  1  0  0  0
 11 12  1  0  0  0
 11 93  1  0  0  0
 12 13  2  0  0  0
 12 94  1  0  0  0
 13 14  1  0  0  0
 13 31  1  0  0  0
 14 15  2  0  0  0
 14 95  1  0  0  0
 15 96  1  0  0  0
 16 17  2  0  0  0
 16 21  1  0  0  0
 16 31  1  0  0  0
 17 18  1  0  0  0
 17 97  1  0  0  0
 18 19  2  0  0  0
 18 98  1  0  0  0
 19 20  1  0  0  0
 19 24  1  0  0  0
 20 21  2  0  0  0
 20 99  1  0  0  0
 21 23  1  0  0  0
 22 28  1  0  0  0
 22 32  2  0  0  0
 26 27  1  0  0  0
 28100  1  0  0  0
 28101  1  0  0  0
 29102  1  0  0  0
 29103  1  0  0  0
 33 34  1  0  0  0
 33 66  1  0  0  0
 33 70  2  0  0  0
 34 36  1  0  0  0
 34 59  1  0  0  0
 34104  1  0  0  0
 35 44  2  0  0  0
 35 45  1  0  0  0
 35 68  1  0  0  0
 36 56  1  0  0  0
 36105  1  0  0  0
 37 39  1  0  0  0
 37 47  1  0  0  0
 37 66  1  0  0  0
 37106  1  0  0  0
 38 43  2  0  0  0
 38 46  1  0  0  0
 38 47  1  0  0  0
 39 64  1  0  0  0
 39 67  2  0  0  0
 40 52  1  0  0  0
 40 53  2  0  0  0
 40 58  1  0  0  0
 41107  1  0  0  0
 41108  1  0  0  0
 41109  1  0  0  0
 41 48  1  0  0  0
 42 43  1  0  0  0
 42 66  1  0  0  0
 42110  1  0  0  0
 42111  1  0  0  0
 43 44  1  0  0  0
 44112  1  0  0  0
 45 46  2  0  0  0
 45113  1  0  0  0
 46114  1  0  0  0
 47115  1  0  0  0
 47116  1  0  0  0
 48 56  1  0  0  0
 48 65  1  0  0  0
 48117  1  0  0  0
 49 50  1  0  0  0
 49 53  1  0  0  0
 49 64  1  0  0  0
 49118  1  0  0  0
 50 51  1  0  0  0
 50119  1  0  0  0
 50120  1  0  0  0
 51 52  1  0  0  0
 51121  1  0  0  0
 51122  1  0  0  0
 52123  1  0  0  0
 52124  1  0  0  0
 53 54  1  0  0  0
 54 55  2  0  0  0
 54125  1  0  0  0
 55 57  1  0  0  0
 55126  1  0  0  0
 56 69  2  0  0  0
 57 58  2  0  0  0
 57127  1  0  0  0
 58128  1  0  0  0
 59 60  1  0  0  0
 59 61  1  0  0  0
 59 62  1  0  0  0
 60129  1  0  0  0
 60130  1  0  0  0
 60131  1  0  0  0
 61132  1  0  0  0
 61133  1  0  0  0
 61134  1  0  0  0
 62135  1  0  0  0
 62136  1  0  0  0
 62137  1  0  0  0
 63 65  1  0  0  0
 63138  1  0  0  0
 63139  1  0  0  0
 63140  1  0  0  0
 64141  1  0  0  0
 65142  1  0  0  0
 68 78  1  0  0  0
 71 73  1  0  0  0
 71 74  2  0  0  0
 71143  1  0  0  0
 72 73  2  0  0  0
 72 83  1  0  0  0
 72144  1  0  0  0
 73 80  1  0  0  0
 74 75  1  0  0  0
 74 83  1  0  0  0
 75 79  1  0  0  0
 75 81  2  0  0  0
 76 77  1  0  0  0
 76 78  1  0  0  0
 76 82  2  0  0  0
 77 81  1  0  0  0
 77145  1  0  0  0
 77146  1  0  0  0
 78147  1  0  0  0
 78148  1  0  0  0
 79149  1  0  0  0
 79150  1  0  0  0
 80151  1  0  0  0
 81152  1  0  0  0
M  CHG  1  81   1
M  ISO  4   1 100  68 101  78 101  80 100
M  END
> <chiral flag>
0

> <version>
0

> <s_m_source_file>
/data/baiqing/PycharmProjects/Reinvent-master-3.2/result/LINK_invent/BTK/process_docking_weight1_custom_product_contain_oxygen_bond_distance_aromatic_linkinvent_7_9_3/rearranged_h_0159.sdf

> <i_m_source_file_index>
96

> <r_mmod_Potential_Energy-OPLS-2005>
-278.932098388672

> <r_mmod_Stretch_Energy-OPLS-2005>
43.2454719543457

> <r_mmod_Bend_Energy-OPLS-2005>
116.12181854248

> <r_mmod_Torsional_Energy-OPLS-2005>
234.411880493164

> <r_mmod_Improper_Torsional_Energy-OPLS-2005>
3.94715809822083

> <r_mmod_Van_der_Waal_Energy-OPLS-2005>
127.949363708496

> <r_mmod_Electrostatic_Energy-OPLS-2005>
-319.247833251953

> <r_mmod_Solvation_Energy-OPLS-2005>
-503.920135498047

> <b_mmod_Minimization_Converged-OPLS-2005>
0

> <r_mmod_RMS_Derivative-OPLS-2005>
0.23425655066967

$$$$
97
                    3D
 Structure written by MMmdl.
165173  0  0  1  0            999 V2000
  -30.5093  -14.8202   20.5059 C   0  0  0  0  0  0
  -30.4635  -12.5114   19.4628 C   0  0  0  0  0  0
  -29.5195  -12.5315   18.2326 C   0  0  0  0  0  0
  -28.0466  -12.3279   18.6472 C   0  0  0  0  0  0
  -27.6501  -13.2111   19.8549 C   0  0  2  0  0  0
  -28.6995  -13.1042   20.9883 C   0  0  0  0  0  0
  -25.2600  -13.8137   20.5694 C   0  0  0  0  0  0
  -24.1865  -13.0426   20.9275 C   0  0  0  0  0  0
  -24.6414  -11.6894   20.8793 C   0  0  0  0  0  0
  -23.9064  -10.4285   21.0442 C   0  0  0  0  0  0
  -24.3610   -9.4191   21.9196 C   0  0  0  0  0  0
  -23.6289   -8.2222   22.0751 C   0  0  0  0  0  0
  -22.4267   -8.0273   21.3544 C   0  0  0  0  0  0
  -21.9912   -9.0257   20.4648 C   0  0  0  0  0  0
  -22.7246  -10.2142   20.3076 C   0  0  0  0  0  0
  -21.6847   -6.0727   22.5272 C   0  0  0  0  0  0
  -21.4016   -6.5633   23.8208 C   0  0  0  0  0  0
  -21.3663   -5.6789   24.9171 C   0  0  0  0  0  0
  -21.6042   -4.3050   24.7222 C   0  0  0  0  0  0
  -21.8820   -3.8141   23.4344 C   0  0  0  0  0  0
  -21.9199   -4.6955   22.3400 C   0  0  0  0  0  0
  -22.7887  -13.5267   21.1876 C   0  0  0  0  0  0
  -22.1658   -4.2138   21.0981 F   0  0  0  0  0  0
  -21.5628   -3.4536   25.7741 F   0  0  0  0  0  0
  -29.9955  -13.5346   20.4314 N   0  0  0  0  0  0
  -26.2982  -12.9282   20.3258 N   0  0  0  0  0  0
  -25.9336  -11.6462   20.5738 N   0  0  0  0  0  0
  -22.0510  -12.8257   22.0412 N   0  0  0  0  0  0
  -25.4404  -15.1851   20.4042 N   0  0  0  0  0  0
  -31.6416  -15.0792   20.0711 O   0  0  0  0  0  0
  -21.6634   -6.8868   21.4232 O   0  0  0  0  0  0
  -22.3641  -14.5584   20.6709 O   0  0  0  0  0  0
  -24.6358  -31.8523   23.1944 C   0  0  0  0  0  0
  -25.9174  -32.4747   23.8336 C   0  0  1  0  0  0
  -27.2394  -27.2291   20.1137 C   0  0  0  0  0  0
  -25.5929  -33.8545   24.2261 N   0  0  0  0  0  0
  -23.4399  -30.4733   21.5354 C   0  0  2  0  0  0
  -24.8934  -28.9200   20.1161 C   0  0  0  0  0  0
  -22.7589  -29.4579   22.4865 C   0  0  0  0  0  0
  -18.0325  -28.1382   22.8487 C   0  0  0  0  0  0
  -24.1505  -36.7265   23.2647 C   0  0  0  0  0  0
  -25.9930  -30.7560   21.3864 C   0  0  0  0  0  0
  -26.0707  -29.3755   20.7243 C   0  0  0  0  0  0
  -27.2442  -28.5432   20.7121 C   0  0  0  0  0  0
  -26.0243  -26.8546   19.4902 C   0  0  0  0  0  0
  -24.8755  -27.6670   19.4968 C   0  0  0  0  0  0
  -23.6680  -29.8087   20.1548 C   0  0  0  0  0  0
  -25.4131  -36.3065   24.0341 C   0  0  1  0  0  0
  -20.5943  -28.3700   23.1268 C   0  0  2  0  0  0
  -20.6807  -26.9471   22.5285 C   0  0  0  0  0  0
  -19.5720  -26.6432   21.5134 C   0  0  0  0  0  0
  -18.1935  -26.7923   22.1620 C   0  0  0  0  0  0
  -19.1590  -28.8846   23.2890 C   0  0  0  0  0  0
  -18.9496  -30.1456   23.8902 C   0  0  0  0  0  0
  -17.6511  -30.6590   24.0593 C   0  0  0  0  0  0
  -25.9060  -34.9423   23.5107 C   0  0  0  0  0  0
  -16.5406  -29.9081   23.6348 C   0  0  0  0  0  0
  -16.7318  -28.6495   23.0380 C   0  0  0  0  0  0
  -26.4526  -31.6576   25.0740 C   0  0  0  0  0  0
  -25.3732  -31.3690   26.1435 C   0  0  0  0  0  0
  -27.0405  -30.2985   24.6276 C   0  0  0  0  0  0
  -27.6065  -32.4309   25.7508 C   0  0  0  0  0  0
  -27.5583  -37.1799   24.8466 C   0  0  0  0  0  0
  -21.4255  -29.3118   22.3707 N   0  0  0  0  0  0
  -26.4298  -37.3765   23.9410 N   0  0  0  0  0  0
  -24.7076  -31.0460   22.0931 N   0  0  0  0  0  0
  -23.4274  -28.8055   23.2920 O   0  0  0  0  0  0
  -28.3352  -26.3094   20.1303 O   0  0  0  0  0  0
  -26.5621  -34.8898   22.4668 O   0  0  0  0  0  0
  -23.5481  -32.1346   23.7199 O   0  0  0  0  0  0
  -29.1792  -19.9250   20.9593 C   0  0  0  0  0  0
  -30.4686  -18.8219   19.3752 C   0  0  0  0  0  0
  -29.6798  -18.6097   20.4785 C   0  0  0  0  0  0
  -29.4601  -21.0849   20.2257 C   0  0  0  0  0  0
  -29.2214  -17.2453   21.0887 C   0  0  0  0  0  0
  -29.1695  -23.6742   19.9928 C   0  0  0  0  0  0
  -27.0523  -18.1627   21.7305 C   0  0  0  0  0  0
  -26.9889  -19.0922   24.0842 C   0  0  0  0  0  0
  -25.4047  -17.2512   23.3544 C   0  0  0  0  0  0
  -25.1128  -19.6033   22.5180 C   0  0  0  0  0  0
  -28.0270  -24.8169   20.1303 C   0  0  0  0  0  0
  -26.1505  -18.5236   22.9182 C   0  0  0  0  0  0
  -28.8813  -22.3688   20.3944 N   0  0  0  0  0  0
  -29.5490  -15.8613   21.0196 N   0  3  0  0  0  0
  -26.6277  -18.5455   20.5001 N   0  3  0  0  0  0
  -28.1577  -17.3771   21.9257 N   0  0  0  0  0  0
  -30.2668  -23.9672   19.5107 O   0  0  0  0  0  0
  -30.5527  -20.5560   18.9438 S   0  0  0  0  0  0
  -31.4953  -12.6887   19.1509 H   0  0  0  0  0  0
  -30.4556  -11.5211   19.9226 H   0  0  0  0  0  0
  -29.8117  -11.7609   17.5189 H   0  0  0  0  0  0
  -29.6227  -13.4804   17.7072 H   0  0  0  0  0  0
  -27.9155  -11.2753   18.9051 H   0  0  0  0  0  0
  -27.3816  -12.5172   17.8029 H   0  0  0  0  0  0
  -27.6482  -14.2369   19.4881 H   0  0  0  0  0  0
  -28.7672  -12.0747   21.3459 H   0  0  0  0  0  0
  -28.4069  -13.6924   21.8597 H   0  0  0  0  0  0
  -25.2759   -9.5652   22.4760 H   0  0  0  0  0  0
  -24.0003   -7.4608   22.7460 H   0  0  0  0  0  0
  -21.0845   -8.8788   19.8945 H   0  0  0  0  0  0
  -22.3719  -10.9681   19.6184 H   0  0  0  0  0  0
  -21.1999   -7.6139   23.9714 H   0  0  0  0  0  0
  -21.1489   -6.0512   25.9079 H   0  0  0  0  0  0
  -22.0601   -2.7598   23.2849 H   0  0  0  0  0  0
  -22.4112  -11.9911   22.4784 H   0  0  0  0  0  0
  -21.1127  -13.1284   22.2578 H   0  0  0  0  0  0
  -24.5716  -15.7100   20.3990 H   0  0  0  0  0  0
  -26.0191  -15.4549   19.6194 H   0  0  0  0  0  0
  -26.7258  -32.5420   23.1091 H   0  0  0  0  0  0
  -25.0102  -33.9675   25.0426 H   0  0  0  0  0  0
  -22.7329  -31.2916   21.3799 H   0  0  0  0  0  0
  -23.3775  -35.9582   23.3307 H   0  0  0  0  0  0
  -24.3597  -36.8885   22.2056 H   0  0  0  0  0  0
  -23.7236  -37.6462   23.6666 H   0  0  0  0  0  0
  -26.1469  -31.5226   20.6251 H   0  0  0  0  0  0
  -26.8612  -30.8009   22.0330 H   0  0  0  0  0  0
  -28.1459  -28.8827   21.2058 H   0  0  0  0  0  0
  -25.9139  -25.9106   18.9836 H   0  0  0  0  0  0
  -23.9678  -27.3215   19.0254 H   0  0  0  0  0  0
  -23.8065  -30.5818   19.3959 H   0  0  0  0  0  0
  -22.7912  -29.2400   19.8428 H   0  0  0  0  0  0
  -25.1312  -36.1916   25.0831 H   0  0  0  0  0  0
  -21.0037  -28.3152   24.1370 H   0  0  0  0  0  0
  -20.5755  -26.2256   23.3402 H   0  0  0  0  0  0
  -21.6661  -26.7546   22.0993 H   0  0  0  0  0  0
  -19.6881  -25.6334   21.1185 H   0  0  0  0  0  0
  -19.6543  -27.3217   20.6629 H   0  0  0  0  0  0
  -17.4209  -26.6724   21.4017 H   0  0  0  0  0  0
  -18.0374  -26.0019   22.8965 H   0  0  0  0  0  0
  -19.7974  -30.7243   24.2290 H   0  0  0  0  0  0
  -17.5077  -31.6280   24.5209 H   0  0  0  0  0  0
  -15.5436  -30.2987   23.7686 H   0  0  0  0  0  0
  -15.8709  -28.0855   22.7068 H   0  0  0  0  0  0
  -24.5912  -30.7048   25.7722 H   0  0  0  0  0  0
  -24.8928  -32.2852   26.4882 H   0  0  0  0  0  0
  -25.8043  -30.8829   27.0206 H   0  0  0  0  0  0
  -26.3030  -29.6681   24.1288 H   0  0  0  0  0  0
  -27.4054  -29.7279   25.4838 H   0  0  0  0  0  0
  -27.8923  -30.4239   23.9576 H   0  0  0  0  0  0
  -27.2681  -33.3598   26.2099 H   0  0  0  0  0  0
  -28.3873  -32.6888   25.0340 H   0  0  0  0  0  0
  -28.0757  -31.8440   26.5417 H   0  0  0  0  0  0
  -28.2594  -38.0104   24.7519 H   0  0  0  0  0  0
  -28.1091  -36.2629   24.6301 H   0  0  0  0  0  0
  -27.2289  -37.1441   25.8866 H   0  0  0  0  0  0
  -20.9413  -29.9019   21.7073 H   0  0  0  0  0  0
  -26.0182  -38.2843   24.1397 H   0  0  0  0  0  0
  -28.5214  -19.9952   21.8066 H   0  0  0  0  0  0
  -30.9850  -18.0900   18.7669 H   0  0  0  0  0  0
  -27.5897  -19.9477   23.7746 H   0  0  0  0  0  0
  -27.6600  -18.3587   24.5302 H   0  0  0  0  0  0
  -26.3410  -19.4519   24.8855 H   0  0  0  0  0  0
  -26.0856  -16.4578   23.6639 H   0  0  0  0  0  0
  -24.7934  -16.8583   22.5443 H   0  0  0  0  0  0
  -24.7417  -17.4558   24.1961 H   0  0  0  0  0  0
  -25.5947  -20.5316   22.2134 H   0  0  0  0  0  0
  -24.4638  -19.8498   23.3590 H   0  0  0  0  0  0
  -24.4608  -19.2801   21.7091 H   0  0  0  0  0  0
  -27.4274  -24.5949   21.0140 H   0  0  0  0  0  0
  -27.4053  -24.5864   19.2691 H   0  0  0  0  0  0
  -27.9906  -22.3360   20.8689 H   0  0  0  0  0  0
  -28.7445  -15.3972   21.4026 H   0  0  0  0  0  0
  -25.7563  -19.0568   20.4374 H   0  0  0  0  0  0
  -27.0699  -18.3195   19.6211 H   0  0  0  0  0  0
  -28.2525  -16.9632   22.8389 H   0  0  0  0  0  0
  1 25  1  0  0  0
  1 30  2  0  0  0
  1 84  1  0  0  0
  2  3  1  0  0  0
  2 25  1  0  0  0
  2 89  1  0  0  0
  2 90  1  0  0  0
  3  4  1  0  0  0
  3 91  1  0  0  0
  3 92  1  0  0  0
  4  5  1  0  0  0
  4 93  1  0  0  0
  4 94  1  0  0  0
  5  6  1  0  0  0
  5 26  1  0  0  0
  5 95  1  0  0  0
  6 25  1  0  0  0
  6 96  1  0  0  0
  6 97  1  0  0  0
  7  8  2  0  0  0
  7 26  1  0  0  0
  7 29  1  0  0  0
  8  9  1  0  0  0
  8 22  1  0  0  0
  9 10  1  0  0  0
  9 27  2  0  0  0
 10 11  2  0  0  0
 10 15  1  0  0  0
 11 12  1  0  0  0
 11 98  1  0  0  0
 12 13  2  0  0  0
 12 99  1  0  0  0
 13 14  1  0  0  0
 13 31  1  0  0  0
 14 15  2  0  0  0
 14100  1  0  0  0
 15101  1  0  0  0
 16 17  2  0  0  0
 16 21  1  0  0  0
 16 31  1  0  0  0
 17 18  1  0  0  0
 17102  1  0  0  0
 18 19  2  0  0  0
 18103  1  0  0  0
 19 20  1  0  0  0
 19 24  1  0  0  0
 20 21  2  0  0  0
 20104  1  0  0  0
 21 23  1  0  0  0
 22 28  1  0  0  0
 22 32  2  0  0  0
 26 27  1  0  0  0
 28105  1  0  0  0
 28106  1  0  0  0
 29107  1  0  0  0
 29108  1  0  0  0
 33 34  1  0  0  0
 33 66  1  0  0  0
 33 70  2  0  0  0
 34 36  1  0  0  0
 34 59  1  0  0  0
 34109  1  0  0  0
 35 44  2  0  0  0
 35 45  1  0  0  0
 35 68  1  0  0  0
 36 56  1  0  0  0
 36110  1  0  0  0
 37 39  1  0  0  0
 37 47  1  0  0  0
 37 66  1  0  0  0
 37111  1  0  0  0
 38 43  2  0  0  0
 38 46  1  0  0  0
 38 47  1  0  0  0
 39 64  1  0  0  0
 39 67  2  0  0  0
 40 52  1  0  0  0
 40 53  2  0  0  0
 40 58  1  0  0  0
 41112  1  0  0  0
 41113  1  0  0  0
 41114  1  0  0  0
 41 48  1  0  0  0
 42 43  1  0  0  0
 42 66  1  0  0  0
 42115  1  0  0  0
 42116  1  0  0  0
 43 44  1  0  0  0
 44117  1  0  0  0
 45 46  2  0  0  0
 45118  1  0  0  0
 46119  1  0  0  0
 47120  1  0  0  0
 47121  1  0  0  0
 48 56  1  0  0  0
 48 65  1  0  0  0
 48122  1  0  0  0
 49 50  1  0  0  0
 49 53  1  0  0  0
 49 64  1  0  0  0
 49123  1  0  0  0
 50 51  1  0  0  0
 50124  1  0  0  0
 50125  1  0  0  0
 51 52  1  0  0  0
 51126  1  0  0  0
 51127  1  0  0  0
 52128  1  0  0  0
 52129  1  0  0  0
 53 54  1  0  0  0
 54 55  2  0  0  0
 54130  1  0  0  0
 55 57  1  0  0  0
 55131  1  0  0  0
 56 69  2  0  0  0
 57 58  2  0  0  0
 57132  1  0  0  0
 58133  1  0  0  0
 59 60  1  0  0  0
 59 61  1  0  0  0
 59 62  1  0  0  0
 60134  1  0  0  0
 60135  1  0  0  0
 60136  1  0  0  0
 61137  1  0  0  0
 61138  1  0  0  0
 61139  1  0  0  0
 62140  1  0  0  0
 62141  1  0  0  0
 62142  1  0  0  0
 63 65  1  0  0  0
 63143  1  0  0  0
 63144  1  0  0  0
 63145  1  0  0  0
 64146  1  0  0  0
 65147  1  0  0  0
 68 81  1  0  0  0
 71 73  1  0  0  0
 71 74  2  0  0  0
 71148  1  0  0  0
 72 73  2  0  0  0
 72 88  1  0  0  0
 72149  1  0  0  0
 73 75  1  0  0  0
 74 83  1  0  0  0
 74 88  1  0  0  0
 75 84  2  0  0  0
 75 86  1  0  0  0
 76 81  1  0  0  0
 76 83  1  0  0  0
 76 87  2  0  0  0
 77 82  1  0  0  0
 77 85  2  0  0  0
 77 86  1  0  0  0
 78150  1  0  0  0
 78151  1  0  0  0
 78152  1  0  0  0
 78 82  1  0  0  0
 79 82  1  0  0  0
 79153  1  0  0  0
 79154  1  0  0  0
 79155  1  0  0  0
 80 82  1  0  0  0
 80156  1  0  0  0
 80157  1  0  0  0
 80158  1  0  0  0
 81159  1  0  0  0
 81160  1  0  0  0
 83161  1  0  0  0
 84162  1  0  0  0
 85163  1  0  0  0
 85164  1  0  0  0
 86165  1  0  0  0
M  CHG  2  84   1  85   1
M  ISO  4   1 100  68 101  81 101  84 100
M  END
> <chiral flag>
0

> <version>
0

> <s_m_source_file>
/data/baiqing/PycharmProjects/Reinvent-master-3.2/result/LINK_invent/BTK/process_docking_weight1_custom_product_contain_oxygen_bond_distance_aromatic_linkinvent_7_9_3/rearranged_h_0159.sdf

> <i_m_source_file_index>
97

> <r_mmod_Potential_Energy-OPLS-2005>
-123.941261291504

> <r_mmod_Stretch_Energy-OPLS-2005>
161.566345214844

> <r_mmod_Bend_Energy-OPLS-2005>
317.217529296875

> <r_mmod_Torsional_Energy-OPLS-2005>
272.303985595703

> <r_mmod_Improper_Torsional_Energy-OPLS-2005>
10.6256427764893

> <r_mmod_Van_der_Waal_Energy-OPLS-2005>
122.428489685059

> <r_mmod_Electrostatic_Energy-OPLS-2005>
61.4904174804688

> <r_mmod_Solvation_Energy-OPLS-2005>
-1188.18029785156

> <b_mmod_Minimization_Converged-OPLS-2005>
0

> <r_mmod_RMS_Derivative-OPLS-2005>
5.2612829208374

$$$$
98
                    3D
 Structure written by MMmdl.
168176  0  0  1  0            999 V2000
  -30.5061  -14.9754   20.4116 C   0  0  0  0  0  0
  -30.4488  -12.6046   19.4951 C   0  0  0  0  0  0
  -29.5163  -12.5404   18.2599 C   0  0  0  0  0  0
  -28.0500  -12.3229   18.6807 C   0  0  0  0  0  0
  -27.6287  -13.2425   19.8563 C   0  0  2  0  0  0
  -28.6815  -13.2615   20.9860 C   0  0  0  0  0  0
  -25.2338  -13.8094   20.5803 C   0  0  0  0  0  0
  -24.1688  -13.0324   20.9270 C   0  0  0  0  0  0
  -24.6354  -11.6836   20.8773 C   0  0  0  0  0  0
  -23.9059  -10.4227   21.0401 C   0  0  0  0  0  0
  -24.3606   -9.4149   21.9181 C   0  0  0  0  0  0
  -23.6265   -8.2203   22.0746 C   0  0  0  0  0  0
  -22.4258   -8.0249   21.3522 C   0  0  0  0  0  0
  -21.9895   -9.0230   20.4630 C   0  0  0  0  0  0
  -22.7245  -10.2086   20.3030 C   0  0  0  0  0  0
  -21.6837   -6.0722   22.5267 C   0  0  0  0  0  0
  -21.4018   -6.5635   23.8198 C   0  0  0  0  0  0
  -21.3648   -5.6786   24.9155 C   0  0  0  0  0  0
  -21.6028   -4.3049   24.7210 C   0  0  0  0  0  0
  -21.8830   -3.8146   23.4333 C   0  0  0  0  0  0
  -21.9188   -4.6957   22.3384 C   0  0  0  0  0  0
  -22.7712  -13.5093   21.1923 C   0  0  0  0  0  0
  -22.1654   -4.2148   21.0966 F   0  0  0  0  0  0
  -21.5618   -3.4537   25.7729 F   0  0  0  0  0  0
  -29.9537  -13.6933   20.3844 N   0  0  0  0  0  0
  -26.2849  -12.9394   20.3374 N   0  0  0  0  0  0
  -25.9300  -11.6512   20.5813 N   0  0  0  0  0  0
  -22.0403  -12.8065   22.0486 N   0  0  0  0  0  0
  -25.3721  -15.1801   20.4260 N   0  0  0  0  0  0
  -31.7066  -15.0904   20.1451 O   0  0  0  0  0  0
  -21.6607   -6.8862   21.4234 O   0  0  0  0  0  0
  -22.3386  -14.5419   20.6794 O   0  0  0  0  0  0
  -24.6432  -31.8437   23.1882 C   0  0  0  0  0  0
  -25.9204  -32.4698   23.8276 C   0  0  1  0  0  0
  -27.2257  -27.1395   20.1565 C   0  0  0  0  0  0
  -25.5956  -33.8506   24.2205 N   0  0  0  0  0  0
  -23.4476  -30.4583   21.5369 C   0  0  2  0  0  0
  -24.9003  -28.8850   20.1158 C   0  0  0  0  0  0
  -22.7569  -29.4525   22.4908 C   0  0  0  0  0  0
  -18.0297  -28.1388   22.8503 C   0  0  0  0  0  0
  -24.1487  -36.7222   23.2646 C   0  0  0  0  0  0
  -26.0027  -30.7165   21.3905 C   0  0  0  0  0  0
  -26.0759  -29.3254   20.7392 C   0  0  0  0  0  0
  -27.2414  -28.4681   20.7470 C   0  0  0  0  0  0
  -26.0343  -26.8113   19.4784 C   0  0  0  0  0  0
  -24.8922  -27.6400   19.4682 C   0  0  0  0  0  0
  -23.6731  -29.7817   20.1586 C   0  0  0  0  0  0
  -25.4121  -36.3020   24.0326 C   0  0  1  0  0  0
  -20.5910  -28.3704   23.1259 C   0  0  2  0  0  0
  -20.6782  -26.9414   22.5408 C   0  0  0  0  0  0
  -19.5734  -26.6384   21.5232 C   0  0  0  0  0  0
  -18.1919  -26.7937   22.1641 C   0  0  0  0  0  0
  -19.1557  -28.8877   23.2866 C   0  0  0  0  0  0
  -18.9472  -30.1489   23.8866 C   0  0  0  0  0  0
  -17.6459  -30.6591   24.0565 C   0  0  0  0  0  0
  -25.9069  -34.9405   23.5071 C   0  0  0  0  0  0
  -16.5355  -29.9067   23.6344 C   0  0  0  0  0  0
  -16.7284  -28.6485   23.0377 C   0  0  0  0  0  0
  -26.4533  -31.6565   25.0713 C   0  0  0  0  0  0
  -25.3708  -31.3745   26.1397 C   0  0  0  0  0  0
  -27.0429  -30.2973   24.6288 C   0  0  0  0  0  0
  -27.6056  -32.4356   25.7482 C   0  0  0  0  0  0
  -27.5576  -37.1759   24.8461 C   0  0  0  0  0  0
  -21.4262  -29.3029   22.3644 N   0  0  0  0  0  0
  -26.4265  -37.3755   23.9432 N   0  0  0  0  0  0
  -24.7173  -31.0268   22.0933 N   0  0  0  0  0  0
  -23.4199  -28.8085   23.3083 O   0  0  0  0  0  0
  -28.2827  -26.1561   20.1225 O   0  0  0  0  0  0
  -26.5646  -34.8902   22.4638 O   0  0  0  0  0  0
  -23.5550  -32.1315   23.7096 O   0  0  0  0  0  0
  -28.3632  -19.8210   19.9272 C   0  0  0  0  0  0
  -30.5800  -18.5812   20.8929 C   0  0  0  0  0  0
  -28.4878  -18.3724   19.8650 C   0  0  0  0  0  0
  -29.6214  -17.6378   20.3895 C   0  0  0  0  0  0
  -29.3457  -20.6871   20.4895 C   0  0  0  0  0  0
  -28.6368  -23.3340   20.0716 C   0  0  0  0  0  0
  -26.8480  -24.5239   21.4542 C   0  0  0  0  0  0
  -29.2386  -24.9987   21.9885 C   0  0  0  0  0  0
  -27.8991  -18.6653   16.9746 C   0  0  0  0  0  0
  -27.7090  -16.1804   17.2140 C   0  0  0  0  0  0
  -25.6696  -17.5959   17.3444 C   0  0  0  0  0  0
  -27.3020  -17.6117   19.2756 C   0  0  0  0  0  0
  -28.2433  -24.7664   20.8409 C   0  0  0  0  0  0
  -27.1653  -17.5310   17.7198 C   0  0  0  0  0  0
  -30.4393  -19.9765   20.9536 N   0  0  0  0  0  0
  -29.6285  -16.0927   20.5198 N   0  0  0  0  0  0
  -29.1219  -22.1835   20.7560 N   0  0  0  0  0  0
  -28.4636  -23.2912   18.8514 O   0  0  0  0  0  0
  -31.4767  -12.7834   19.1752 H   0  0  0  0  0  0
  -30.4617  -11.6516   20.0269 H   0  0  0  0  0  0
  -29.8307  -11.7387   17.5912 H   0  0  0  0  0  0
  -29.5971  -13.4661   17.6880 H   0  0  0  0  0  0
  -27.9531  -11.2804   18.9839 H   0  0  0  0  0  0
  -27.3794  -12.4563   17.8300 H   0  0  0  0  0  0
  -27.5916  -14.2479   19.4469 H   0  0  0  0  0  0
  -28.7768  -12.2776   21.4478 H   0  0  0  0  0  0
  -28.3847  -13.9472   21.7816 H   0  0  0  0  0  0
  -25.2753   -9.5631   22.4752 H   0  0  0  0  0  0
  -23.9975   -7.4590   22.7459 H   0  0  0  0  0  0
  -21.0831   -8.8741   19.8939 H   0  0  0  0  0  0
  -22.3717  -10.9617   19.6117 H   0  0  0  0  0  0
  -21.2036   -7.6145   23.9703 H   0  0  0  0  0  0
  -21.1443   -6.0514   25.9053 H   0  0  0  0  0  0
  -22.0629   -2.7619   23.2836 H   0  0  0  0  0  0
  -22.4060  -11.9709   22.4834 H   0  0  0  0  0  0
  -21.1015  -13.1036   22.2739 H   0  0  0  0  0  0
  -24.5715  -15.7960   20.5160 H   0  0  0  0  0  0
  -26.1572  -15.6158   19.9693 H   0  0  0  0  0  0
  -26.7282  -32.5317   23.1023 H   0  0  0  0  0  0
  -25.0133  -33.9643   25.0377 H   0  0  0  0  0  0
  -22.7518  -31.2846   21.3798 H   0  0  0  0  0  0
  -23.3786  -35.9511   23.3245 H   0  0  0  0  0  0
  -24.3578  -36.8907   22.2069 H   0  0  0  0  0  0
  -23.7194  -37.6381   23.6717 H   0  0  0  0  0  0
  -26.1543  -31.4713   20.6177 H   0  0  0  0  0  0
  -26.8740  -30.7704   22.0311 H   0  0  0  0  0  0
  -28.1371  -28.8061   21.2508 H   0  0  0  0  0  0
  -25.9776  -25.8617   18.9658 H   0  0  0  0  0  0
  -24.0038  -27.3002   18.9539 H   0  0  0  0  0  0
  -23.7983  -30.5510   19.3957 H   0  0  0  0  0  0
  -22.7926  -29.2104   19.8577 H   0  0  0  0  0  0
  -25.1324  -36.1819   25.0821 H   0  0  0  0  0  0
  -21.0013  -28.3272   24.1376 H   0  0  0  0  0  0
  -20.5694  -26.2318   23.3623 H   0  0  0  0  0  0
  -21.6643  -26.7432   22.1185 H   0  0  0  0  0  0
  -19.6873  -25.6299   21.1245 H   0  0  0  0  0  0
  -19.6645  -27.3221   20.6781 H   0  0  0  0  0  0
  -17.4200  -26.6745   21.4027 H   0  0  0  0  0  0
  -18.0271  -26.0078   22.9027 H   0  0  0  0  0  0
  -19.7948  -30.7343   24.2197 H   0  0  0  0  0  0
  -17.4992  -31.6268   24.5173 H   0  0  0  0  0  0
  -15.5351  -30.2937   23.7694 H   0  0  0  0  0  0
  -15.8695  -28.0781   22.7105 H   0  0  0  0  0  0
  -24.5915  -30.7064   25.7713 H   0  0  0  0  0  0
  -24.8862  -32.2921   26.4743 H   0  0  0  0  0  0
  -25.7988  -30.8971   27.0219 H   0  0  0  0  0  0
  -26.3072  -29.6660   24.1292 H   0  0  0  0  0  0
  -27.4070  -29.7300   25.4861 H   0  0  0  0  0  0
  -27.8949  -30.4251   23.9607 H   0  0  0  0  0  0
  -27.2667  -33.3722   26.1923 H   0  0  0  0  0  0
  -28.3914  -32.6809   25.0327 H   0  0  0  0  0  0
  -28.0648  -31.8550   26.5490 H   0  0  0  0  0  0
  -28.2555  -38.0103   24.7613 H   0  0  0  0  0  0
  -28.1124  -36.2642   24.6179 H   0  0  0  0  0  0
  -27.2292  -37.1269   25.8861 H   0  0  0  0  0  0
  -20.9468  -29.8728   21.6815 H   0  0  0  0  0  0
  -26.0104  -38.2795   24.1509 H   0  0  0  0  0  0
  -27.4451  -20.2700   19.5728 H   0  0  0  0  0  0
  -31.4878  -18.2062   21.3416 H   0  0  0  0  0  0
  -26.8495  -23.6457   22.1003 H   0  0  0  0  0  0
  -26.1005  -24.3431   20.6831 H   0  0  0  0  0  0
  -26.5124  -25.3614   22.0657 H   0  0  0  0  0  0
  -29.2745  -24.1605   22.6848 H   0  0  0  0  0  0
  -28.9673  -25.8854   22.5621 H   0  0  0  0  0  0
  -30.2427  -25.1588   21.5961 H   0  0  0  0  0  0
  -27.7936  -18.5653   15.8939 H   0  0  0  0  0  0
  -28.9678  -18.6702   17.1891 H   0  0  0  0  0  0
  -27.4957  -19.6432   17.2391 H   0  0  0  0  0  0
  -27.6863  -16.1242   16.1248 H   0  0  0  0  0  0
  -27.1085  -15.3468   17.5752 H   0  0  0  0  0  0
  -28.7393  -16.0178   17.5312 H   0  0  0  0  0  0
  -25.5130  -17.4470   16.2748 H   0  0  0  0  0  0
  -25.2335  -18.5611   17.6058 H   0  0  0  0  0  0
  -25.0922  -16.8279   17.8608 H   0  0  0  0  0  0
  -26.4139  -18.0923   19.6877 H   0  0  0  0  0  0
  -27.2902  -16.6145   19.6945 H   0  0  0  0  0  0
  -28.6978  -15.7336   20.6558 H   0  0  0  0  0  0
  -29.3962  -22.4359   21.6932 H   0  0  0  0  0  0
  1 25  1  0  0  0
  1 30  2  0  0  0
  1 86  1  0  0  0
  2  3  1  0  0  0
  2 25  1  0  0  0
  2 89  1  0  0  0
  2 90  1  0  0  0
  3  4  1  0  0  0
  3 91  1  0  0  0
  3 92  1  0  0  0
  4  5  1  0  0  0
  4 93  1  0  0  0
  4 94  1  0  0  0
  5  6  1  0  0  0
  5 26  1  0  0  0
  5 95  1  0  0  0
  6 25  1  0  0  0
  6 96  1  0  0  0
  6 97  1  0  0  0
  7  8  2  0  0  0
  7 26  1  0  0  0
  7 29  1  0  0  0
  8  9  1  0  0  0
  8 22  1  0  0  0
  9 10  1  0  0  0
  9 27  2  0  0  0
 10 11  2  0  0  0
 10 15  1  0  0  0
 11 12  1  0  0  0
 11 98  1  0  0  0
 12 13  2  0  0  0
 12 99  1  0  0  0
 13 14  1  0  0  0
 13 31  1  0  0  0
 14 15  2  0  0  0
 14100  1  0  0  0
 15101  1  0  0  0
 16 17  2  0  0  0
 16 21  1  0  0  0
 16 31  1  0  0  0
 17 18  1  0  0  0
 17102  1  0  0  0
 18 19  2  0  0  0
 18103  1  0  0  0
 19 20  1  0  0  0
 19 24  1  0  0  0
 20 21  2  0  0  0
 20104  1  0  0  0
 21 23  1  0  0  0
 22 28  1  0  0  0
 22 32  2  0  0  0
 26 27  1  0  0  0
 28105  1  0  0  0
 28106  1  0  0  0
 29107  1  0  0  0
 29108  1  0  0  0
 33 34  1  0  0  0
 33 66  1  0  0  0
 33 70  2  0  0  0
 34 36  1  0  0  0
 34 59  1  0  0  0
 34109  1  0  0  0
 35 44  2  0  0  0
 35 45  1  0  0  0
 35 68  1  0  0  0
 36 56  1  0  0  0
 36110  1  0  0  0
 37 39  1  0  0  0
 37 47  1  0  0  0
 37 66  1  0  0  0
 37111  1  0  0  0
 38 43  2  0  0  0
 38 46  1  0  0  0
 38 47  1  0  0  0
 39 64  1  0  0  0
 39 67  2  0  0  0
 40 52  1  0  0  0
 40 53  2  0  0  0
 40 58  1  0  0  0
 41112  1  0  0  0
 41113  1  0  0  0
 41114  1  0  0  0
 41 48  1  0  0  0
 42 43  1  0  0  0
 42 66  1  0  0  0
 42115  1  0  0  0
 42116  1  0  0  0
 43 44  1  0  0  0
 44117  1  0  0  0
 45 46  2  0  0  0
 45118  1  0  0  0
 46119  1  0  0  0
 47120  1  0  0  0
 47121  1  0  0  0
 48 56  1  0  0  0
 48 65  1  0  0  0
 48122  1  0  0  0
 49 50  1  0  0  0
 49 53  1  0  0  0
 49 64  1  0  0  0
 49123  1  0  0  0
 50 51  1  0  0  0
 50124  1  0  0  0
 50125  1  0  0  0
 51 52  1  0  0  0
 51126  1  0  0  0
 51127  1  0  0  0
 52128  1  0  0  0
 52129  1  0  0  0
 53 54  1  0  0  0
 54 55  2  0  0  0
 54130  1  0  0  0
 55 57  1  0  0  0
 55131  1  0  0  0
 56 69  2  0  0  0
 57 58  2  0  0  0
 57132  1  0  0  0
 58133  1  0  0  0
 59 60  1  0  0  0
 59 61  1  0  0  0
 59 62  1  0  0  0
 60134  1  0  0  0
 60135  1  0  0  0
 60136  1  0  0  0
 61137  1  0  0  0
 61138  1  0  0  0
 61139  1  0  0  0
 62140  1  0  0  0
 62141  1  0  0  0
 62142  1  0  0  0
 63 65  1  0  0  0
 63143  1  0  0  0
 63144  1  0  0  0
 63145  1  0  0  0
 64146  1  0  0  0
 65147  1  0  0  0
 68 83  1  0  0  0
 71 73  2  0  0  0
 71 75  1  0  0  0
 71148  1  0  0  0
 72 74  2  0  0  0
 72 85  1  0  0  0
 72149  1  0  0  0
 73 74  1  0  0  0
 73 82  1  0  0  0
 74 86  1  0  0  0
 75 85  2  0  0  0
 75 87  1  0  0  0
 76 83  1  0  0  0
 76 87  1  0  0  0
 76 88  2  0  0  0
 77150  1  0  0  0
 77151  1  0  0  0
 77152  1  0  0  0
 77 83  1  0  0  0
 78 83  1  0  0  0
 78153  1  0  0  0
 78154  1  0  0  0
 78155  1  0  0  0
 79156  1  0  0  0
 79157  1  0  0  0
 79158  1  0  0  0
 79 84  1  0  0  0
 80 84  1  0  0  0
 80159  1  0  0  0
 80160  1  0  0  0
 80161  1  0  0  0
 81 84  1  0  0  0
 81162  1  0  0  0
 81163  1  0  0  0
 81164  1  0  0  0
 82 84  1  0  0  0
 82165  1  0  0  0
 82166  1  0  0  0
 86167  1  0  0  0
 87168  1  0  0  0
M  ISO  4   1 100  68 101  83 101  86 100
M  END
> <chiral flag>
0

> <version>
0

> <s_m_source_file>
/data/baiqing/PycharmProjects/Reinvent-master-3.2/result/LINK_invent/BTK/process_docking_weight1_custom_product_contain_oxygen_bond_distance_aromatic_linkinvent_7_9_3/rearranged_h_0159.sdf

> <i_m_source_file_index>
98

> <r_mmod_Potential_Energy-OPLS-2005>
355.650726318359

> <r_mmod_Stretch_Energy-OPLS-2005>
246.16748046875

> <r_mmod_Bend_Energy-OPLS-2005>
287.928466796875

> <r_mmod_Torsional_Energy-OPLS-2005>
295.463745117188

> <r_mmod_Improper_Torsional_Energy-OPLS-2005>
7.89539909362793

> <r_mmod_Van_der_Waal_Energy-OPLS-2005>
124.629806518555

> <r_mmod_Electrostatic_Energy-OPLS-2005>
-571.850769042969

> <r_mmod_Solvation_Energy-OPLS-2005>
-235.124618530273

> <b_mmod_Minimization_Converged-OPLS-2005>
0

> <r_mmod_RMS_Derivative-OPLS-2005>
2.70958709716797

$$$$
