0
                    3D
 Structure written by MMmdl.
159168  0  0  1  0            999 V2000
  -30.6022  -14.7379   20.4581 C   0  0  0  0  0  0
  -30.4294  -12.4517   19.4555 C   0  0  0  0  0  0
  -29.4992  -12.4920   18.2229 C   0  0  0  0  0  0
  -28.0275  -12.3181   18.6444 C   0  0  0  0  0  0
  -27.6365  -13.2238   19.8419 C   0  0  2  0  0  0
  -28.6845  -13.1588   20.9728 C   0  0  0  0  0  0
  -25.2492  -13.8183   20.5672 C   0  0  0  0  0  0
  -24.1789  -13.0430   20.9216 C   0  0  0  0  0  0
  -24.6375  -11.6907   20.8757 C   0  0  0  0  0  0
  -23.9053  -10.4288   21.0416 C   0  0  0  0  0  0
  -24.3614   -9.4205   21.9189 C   0  0  0  0  0  0
  -23.6290   -8.2238   22.0757 C   0  0  0  0  0  0
  -22.4279   -8.0277   21.3537 C   0  0  0  0  0  0
  -21.9912   -9.0248   20.4644 C   0  0  0  0  0  0
  -22.7235  -10.2125   20.3054 C   0  0  0  0  0  0
  -21.6846   -6.0735   22.5281 C   0  0  0  0  0  0
  -21.4011   -6.5639   23.8213 C   0  0  0  0  0  0
  -21.3657   -5.6790   24.9176 C   0  0  0  0  0  0
  -21.6042   -4.3050   24.7225 C   0  0  0  0  0  0
  -21.8822   -3.8146   23.4343 C   0  0  0  0  0  0
  -21.9195   -4.6967   22.3401 C   0  0  0  0  0  0
  -22.7817  -13.5215   21.1878 C   0  0  0  0  0  0
  -22.1663   -4.2148   21.0975 F   0  0  0  0  0  0
  -21.5631   -3.4534   25.7739 F   0  0  0  0  0  0
  -29.9785  -13.5145   20.3794 N   0  0  0  0  0  0
  -26.2908  -12.9370   20.3257 N   0  0  0  0  0  0
  -25.9298  -11.6516   20.5755 N   0  0  0  0  0  0
  -22.0470  -12.8191   22.0429 N   0  0  0  0  0  0
  -25.4166  -15.1905   20.4069 N   0  0  0  0  0  0
  -31.8055  -14.8294   20.1963 O   0  0  0  0  0  0
  -21.6635   -6.8877   21.4241 O   0  0  0  0  0  0
  -22.3503  -14.5533   20.6748 O   0  0  0  0  0  0
  -24.6317  -31.8571   23.1962 C   0  0  0  0  0  0
  -25.9134  -32.4763   23.8317 C   0  0  1  0  0  0
  -27.2091  -27.2488   20.1286 C   0  0  0  0  0  0
  -25.5904  -33.8561   24.2233 N   0  0  0  0  0  0
  -23.4277  -30.4792   21.5429 C   0  0  2  0  0  0
  -24.8731  -28.9269   20.1112 C   0  0  0  0  0  0
  -22.7520  -29.4601   22.4921 C   0  0  0  0  0  0
  -18.0299  -28.1396   22.8488 C   0  0  0  0  0  0
  -24.1477  -36.7278   23.2640 C   0  0  0  0  0  0
  -25.9767  -30.7640   21.3805 C   0  0  0  0  0  0
  -26.0480  -29.3873   20.7196 C   0  0  0  0  0  0
  -27.2206  -28.5631   20.7120 C   0  0  0  0  0  0
  -26.0081  -26.8604   19.4930 C   0  0  0  0  0  0
  -24.8592  -27.6728   19.4851 C   0  0  0  0  0  0
  -23.6458  -29.8164   20.1582 C   0  0  0  0  0  0
  -25.4114  -36.3080   24.0323 C   0  0  1  0  0  0
  -20.5901  -28.3710   23.1270 C   0  0  2  0  0  0
  -20.6769  -26.9429   22.5409 C   0  0  0  0  0  0
  -19.5743  -26.6394   21.5216 C   0  0  0  0  0  0
  -18.1930  -26.7931   22.1635 C   0  0  0  0  0  0
  -19.1550  -28.8874   23.2859 C   0  0  0  0  0  0
  -18.9474  -30.1469   23.8888 C   0  0  0  0  0  0
  -17.6472  -30.6595   24.0587 C   0  0  0  0  0  0
  -25.9063  -34.9451   23.5092 C   0  0  0  0  0  0
  -16.5362  -29.9102   23.6338 C   0  0  0  0  0  0
  -16.7286  -28.6520   23.0360 C   0  0  0  0  0  0
  -26.4481  -31.6596   25.0720 C   0  0  0  0  0  0
  -25.3679  -31.3760   26.1424 C   0  0  0  0  0  0
  -27.0337  -30.3009   24.6225 C   0  0  0  0  0  0
  -27.6027  -32.4345   25.7488 C   0  0  0  0  0  0
  -27.5586  -37.1788   24.8475 C   0  0  0  0  0  0
  -21.4227  -29.3044   22.3670 N   0  0  0  0  0  0
  -26.4295  -37.3779   23.9411 N   0  0  0  0  0  0
  -24.6979  -31.0523   22.0953 N   0  0  0  0  0  0
  -23.4224  -28.8139   23.3019 O   0  0  0  0  0  0
  -28.2939  -26.3390   20.1773 O   0  0  0  0  0  0
  -26.5682  -34.8933   22.4687 O   0  0  0  0  0  0
  -23.5464  -32.1390   23.7265 O   0  0  0  0  0  0
  -29.4313  -18.4690   20.3329 C   0  0  0  0  0  0
  -30.8696  -19.9811   21.5796 C   0  0  0  0  0  0
  -31.2215  -17.5535   21.7080 C   0  0  0  0  0  0
  -29.7725  -19.8438   20.6990 C   0  0  0  0  0  0
  -30.1480  -17.2937   20.8285 C   0  0  0  0  0  0
  -31.5721  -18.8661   22.0778 C   0  0  0  0  0  0
  -29.1722  -21.1482   20.0665 C   0  0  0  0  0  0
  -29.4351  -23.4837   22.8282 C   0  0  0  0  0  0
  -28.6789  -22.2816   22.2495 C   0  0  0  0  0  0
  -30.0459  -24.2122   21.6303 C   0  0  2  0  0  0
  -29.2085  -23.7676   20.4233 C   0  0  2  0  0  0
  -28.0150  -24.8501   20.2070 C   0  0  0  0  0  0
  -28.8998  -22.3068   20.8001 N   0  0  0  0  0  0
  -29.8033  -15.8736   20.5491 N   0  0  0  0  0  0
  -29.0435  -21.1599   18.8398 O   0  0  0  0  0  0
  -31.3959  -23.8170   21.4438 O   0  0  0  0  0  0
  -32.6134  -19.0615   22.9209 F   0  0  0  0  0  0
  -31.4678  -12.5854   19.1458 H   0  0  0  0  0  0
  -30.3821  -11.4771   19.9435 H   0  0  0  0  0  0
  -29.7768  -11.7097   17.5146 H   0  0  0  0  0  0
  -29.6203  -13.4393   17.6949 H   0  0  0  0  0  0
  -27.8867  -11.2714   18.9151 H   0  0  0  0  0  0
  -27.3653  -12.5025   17.7975 H   0  0  0  0  0  0
  -27.6273  -14.2428   19.4547 H   0  0  0  0  0  0
  -28.7237  -12.1603   21.4103 H   0  0  0  0  0  0
  -28.4244  -13.8415   21.7839 H   0  0  0  0  0  0
  -25.2759   -9.5679   22.4764 H   0  0  0  0  0  0
  -24.0003   -7.4625   22.7472 H   0  0  0  0  0  0
  -21.0850   -8.8766   19.8935 H   0  0  0  0  0  0
  -22.3706  -10.9668   19.6166 H   0  0  0  0  0  0
  -21.1998   -7.6144   23.9717 H   0  0  0  0  0  0
  -21.1475   -6.0515   25.9076 H   0  0  0  0  0  0
  -22.0602   -2.7606   23.2843 H   0  0  0  0  0  0
  -22.4102  -11.9839   22.4782 H   0  0  0  0  0  0
  -21.1092  -13.1206   22.2670 H   0  0  0  0  0  0
  -24.6403  -15.8362   20.5067 H   0  0  0  0  0  0
  -26.2521  -15.6325   20.0477 H   0  0  0  0  0  0
  -26.7202  -32.5400   23.1063 H   0  0  0  0  0  0
  -24.9949  -33.9667   25.0307 H   0  0  0  0  0  0
  -22.7243  -31.3022   21.3998 H   0  0  0  0  0  0
  -23.3751  -35.9595   23.3308 H   0  0  0  0  0  0
  -24.3543  -36.8920   22.2053 H   0  0  0  0  0  0
  -23.7225  -37.6464   23.6684 H   0  0  0  0  0  0
  -26.1231  -31.5254   20.6125 H   0  0  0  0  0  0
  -26.8488  -30.8070   22.0208 H   0  0  0  0  0  0
  -28.1193  -28.9122   21.2002 H   0  0  0  0  0  0
  -25.9200  -25.9056   18.9991 H   0  0  0  0  0  0
  -23.9617  -27.3149   18.9992 H   0  0  0  0  0  0
  -23.7784  -30.5974   19.4079 H   0  0  0  0  0  0
  -22.7594  -29.2584   19.8494 H   0  0  0  0  0  0
  -25.1293  -36.1923   25.0816 H   0  0  0  0  0  0
  -20.9976  -28.3302   24.1400 H   0  0  0  0  0  0
  -20.5696  -26.2328   23.3625 H   0  0  0  0  0  0
  -21.6633  -26.7478   22.1193 H   0  0  0  0  0  0
  -19.6918  -25.6309   21.1248 H   0  0  0  0  0  0
  -19.6665  -27.3211   20.6748 H   0  0  0  0  0  0
  -17.4197  -26.6694   21.4046 H   0  0  0  0  0  0
  -18.0329  -26.0079   22.9038 H   0  0  0  0  0  0
  -19.7957  -30.7277   24.2259 H   0  0  0  0  0  0
  -17.5042  -31.6271   24.5199 H   0  0  0  0  0  0
  -15.5366  -30.3015   23.7651 H   0  0  0  0  0  0
  -15.8685  -28.0843   22.7071 H   0  0  0  0  0  0
  -24.5845  -30.7138   25.7730 H   0  0  0  0  0  0
  -24.8859  -32.2933   26.4819 H   0  0  0  0  0  0
  -25.7935  -30.8942   27.0235 H   0  0  0  0  0  0
  -26.2943  -29.6741   24.1233 H   0  0  0  0  0  0
  -27.4006  -29.7283   25.4748 H   0  0  0  0  0  0
  -27.8822  -30.4267   23.9495 H   0  0  0  0  0  0
  -27.2652  -33.3681   26.1996 H   0  0  0  0  0  0
  -28.3860  -32.6855   25.0327 H   0  0  0  0  0  0
  -28.0673  -31.8523   26.5454 H   0  0  0  0  0  0
  -28.2603  -38.0085   24.7521 H   0  0  0  0  0  0
  -28.1085  -36.2613   24.6307 H   0  0  0  0  0  0
  -27.2296  -37.1451   25.8877 H   0  0  0  0  0  0
  -20.9439  -29.8786   21.6870 H   0  0  0  0  0  0
  -26.0186  -38.2857   24.1399 H   0  0  0  0  0  0
  -28.6164  -18.3207   19.6389 H   0  0  0  0  0  0
  -31.2086  -20.9674   21.8638 H   0  0  0  0  0  0
  -31.7950  -16.7395   22.1270 H   0  0  0  0  0  0
  -30.1822  -23.1865   23.5656 H   0  0  0  0  0  0
  -28.7300  -24.1418   23.3381 H   0  0  0  0  0  0
  -27.6075  -22.3849   22.4261 H   0  0  0  0  0  0
  -28.9744  -21.3571   22.7422 H   0  0  0  0  0  0
  -30.0307  -25.2948   21.7680 H   0  0  0  0  0  0
  -29.8190  -23.7841   19.5185 H   0  0  0  0  0  0
  -27.2726  -24.6889   20.9901 H   0  0  0  0  0  0
  -27.5318  -24.5663   19.2735 H   0  0  0  0  0  0
  -28.8167  -15.6816   20.4675 H   0  0  0  0  0  0
  -31.9206  -24.2467   22.1137 H   0  0  0  0  0  0
  1 25  1  0  0  0
  1 30  2  0  0  0
  1 84  1  0  0  0
  2  3  1  0  0  0
  2 25  1  0  0  0
  2 88  1  0  0  0
  2 89  1  0  0  0
  3  4  1  0  0  0
  3 90  1  0  0  0
  3 91  1  0  0  0
  4  5  1  0  0  0
  4 92  1  0  0  0
  4 93  1  0  0  0
  5  6  1  0  0  0
  5 26  1  0  0  0
  5 94  1  0  0  0
  6 25  1  0  0  0
  6 95  1  0  0  0
  6 96  1  0  0  0
  7  8  2  0  0  0
  7 26  1  0  0  0
  7 29  1  0  0  0
  8  9  1  0  0  0
  8 22  1  0  0  0
  9 10  1  0  0  0
  9 27  2  0  0  0
 10 11  2  0  0  0
 10 15  1  0  0  0
 11 12  1  0  0  0
 11 97  1  0  0  0
 12 13  2  0  0  0
 12 98  1  0  0  0
 13 14  1  0  0  0
 13 31  1  0  0  0
 14 15  2  0  0  0
 14 99  1  0  0  0
 15100  1  0  0  0
 16 17  2  0  0  0
 16 21  1  0  0  0
 16 31  1  0  0  0
 17 18  1  0  0  0
 17101  1  0  0  0
 18 19  2  0  0  0
 18102  1  0  0  0
 19 20  1  0  0  0
 19 24  1  0  0  0
 20 21  2  0  0  0
 20103  1  0  0  0
 21 23  1  0  0  0
 22 28  1  0  0  0
 22 32  2  0  0  0
 26 27  1  0  0  0
 28104  1  0  0  0
 28105  1  0  0  0
 29106  1  0  0  0
 29107  1  0  0  0
 33 34  1  0  0  0
 33 66  1  0  0  0
 33 70  2  0  0  0
 34 36  1  0  0  0
 34 59  1  0  0  0
 34108  1  0  0  0
 35 44  2  0  0  0
 35 45  1  0  0  0
 35 68  1  0  0  0
 36 56  1  0  0  0
 36109  1  0  0  0
 37 39  1  0  0  0
 37 47  1  0  0  0
 37 66  1  0  0  0
 37110  1  0  0  0
 38 43  2  0  0  0
 38 46  1  0  0  0
 38 47  1  0  0  0
 39 64  1  0  0  0
 39 67  2  0  0  0
 40 52  1  0  0  0
 40 53  2  0  0  0
 40 58  1  0  0  0
 41111  1  0  0  0
 41112  1  0  0  0
 41113  1  0  0  0
 41 48  1  0  0  0
 42 43  1  0  0  0
 42 66  1  0  0  0
 42114  1  0  0  0
 42115  1  0  0  0
 43 44  1  0  0  0
 44116  1  0  0  0
 45 46  2  0  0  0
 45117  1  0  0  0
 46118  1  0  0  0
 47119  1  0  0  0
 47120  1  0  0  0
 48 56  1  0  0  0
 48 65  1  0  0  0
 48121  1  0  0  0
 49 50  1  0  0  0
 49 53  1  0  0  0
 49 64  1  0  0  0
 49122  1  0  0  0
 50 51  1  0  0  0
 50123  1  0  0  0
 50124  1  0  0  0
 51 52  1  0  0  0
 51125  1  0  0  0
 51126  1  0  0  0
 52127  1  0  0  0
 52128  1  0  0  0
 53 54  1  0  0  0
 54 55  2  0  0  0
 54129  1  0  0  0
 55 57  1  0  0  0
 55130  1  0  0  0
 56 69  2  0  0  0
 57 58  2  0  0  0
 57131  1  0  0  0
 58132  1  0  0  0
 59 60  1  0  0  0
 59 61  1  0  0  0
 59 62  1  0  0  0
 60133  1  0  0  0
 60134  1  0  0  0
 60135  1  0  0  0
 61136  1  0  0  0
 61137  1  0  0  0
 61138  1  0  0  0
 62139  1  0  0  0
 62140  1  0  0  0
 62141  1  0  0  0
 63 65  1  0  0  0
 63142  1  0  0  0
 63143  1  0  0  0
 63144  1  0  0  0
 64145  1  0  0  0
 65146  1  0  0  0
 68 82  1  0  0  0
 71 74  2  0  0  0
 71 75  1  0  0  0
 71147  1  0  0  0
 72 74  1  0  0  0
 72 76  2  0  0  0
 72148  1  0  0  0
 73 75  2  0  0  0
 73 76  1  0  0  0
 73149  1  0  0  0
 74 77  1  0  0  0
 75 84  1  0  0  0
 76 87  1  0  0  0
 77 83  1  0  0  0
 77 85  2  0  0  0
 78 79  1  0  0  0
 78 80  1  0  0  0
 78150  1  0  0  0
 78151  1  0  0  0
 79 83  1  0  0  0
 79152  1  0  0  0
 79153  1  0  0  0
 80 81  1  0  0  0
 80 86  1  0  0  0
 80154  1  0  0  0
 81 82  1  0  0  0
 81 83  1  0  0  0
 81155  1  0  0  0
 82156  1  0  0  0
 82157  1  0  0  0
 84158  1  0  0  0
 86159  1  0  0  0
M  ISO  4   1 100  68 101  82 101  84 100
M  END
> <chiral flag>
0

> <version>
0

> <s_m_source_file>
/data/baiqing/PycharmProjects/Reinvent-master-3.2/result/LINK_invent/BTK/process_docking_weight1_custom_product_contain_oxygen_bond_distance_aromatic_linkinvent_7_9_3/rearranged_h_0101.sdf

> <i_m_source_file_index>
1

> <r_mmod_Potential_Energy-OPLS-2005>
277.219421386719

> <r_mmod_Stretch_Energy-OPLS-2005>
132.73681640625

> <r_mmod_Bend_Energy-OPLS-2005>
182.688385009766

> <r_mmod_Torsional_Energy-OPLS-2005>
373.555236816406

> <r_mmod_Improper_Torsional_Energy-OPLS-2005>
9.81665420532227

> <r_mmod_Van_der_Waal_Energy-OPLS-2005>
137.430038452148

> <r_mmod_Electrostatic_Energy-OPLS-2005>
-403.739288330078

> <r_mmod_Solvation_Energy-OPLS-2005>
-245.111877441406

> <b_mmod_Minimization_Converged-OPLS-2005>
0

> <r_mmod_RMS_Derivative-OPLS-2005>
2.32911014556885

$$$$
1
                    3D
 Structure written by MMmdl.
160169  0  0  1  0            999 V2000
  -30.6623  -14.6237   20.5868 C   0  0  0  0  0  0
  -30.4315  -12.4080   19.4601 C   0  0  0  0  0  0
  -29.5051  -12.5344   18.2317 C   0  0  0  0  0  0
  -28.0294  -12.3624   18.6397 C   0  0  0  0  0  0
  -27.6556  -13.2196   19.8771 C   0  0  2  0  0  0
  -28.6933  -13.0527   21.0079 C   0  0  0  0  0  0
  -25.2531  -13.8169   20.5647 C   0  0  0  0  0  0
  -24.1805  -13.0432   20.9155 C   0  0  0  0  0  0
  -24.6382  -11.6905   20.8724 C   0  0  0  0  0  0
  -23.9058  -10.4286   21.0389 C   0  0  0  0  0  0
  -24.3613   -9.4208   21.9174 C   0  0  0  0  0  0
  -23.6292   -8.2243   22.0753 C   0  0  0  0  0  0
  -22.4278   -8.0270   21.3540 C   0  0  0  0  0  0
  -21.9904   -9.0240   20.4643 C   0  0  0  0  0  0
  -22.7226  -10.2120   20.3047 C   0  0  0  0  0  0
  -21.6855   -6.0728   22.5279 C   0  0  0  0  0  0
  -21.4014   -6.5635   23.8210 C   0  0  0  0  0  0
  -21.3664   -5.6787   24.9174 C   0  0  0  0  0  0
  -21.6048   -4.3050   24.7223 C   0  0  0  0  0  0
  -21.8819   -3.8141   23.4343 C   0  0  0  0  0  0
  -21.9195   -4.6956   22.3401 C   0  0  0  0  0  0
  -22.7828  -13.5223   21.1826 C   0  0  0  0  0  0
  -22.1664   -4.2141   21.0977 F   0  0  0  0  0  0
  -21.5633   -3.4537   25.7738 F   0  0  0  0  0  0
  -30.0151  -13.4129   20.4642 N   0  0  0  0  0  0
  -26.2991  -12.9369   20.3371 N   0  0  0  0  0  0
  -25.9322  -11.6517   20.5777 N   0  0  0  0  0  0
  -22.0476  -12.8227   22.0393 N   0  0  0  0  0  0
  -25.4192  -15.1887   20.3979 N   0  0  0  0  0  0
  -31.7177  -14.8473   19.9826 O   0  0  0  0  0  0
  -21.6640   -6.8870   21.4240 O   0  0  0  0  0  0
  -22.3515  -14.5541   20.6693 O   0  0  0  0  0  0
  -24.6248  -31.8582   23.2023 C   0  0  0  0  0  0
  -25.9100  -32.4772   23.8359 C   0  0  1  0  0  0
  -27.2284  -27.3145   20.1143 C   0  0  0  0  0  0
  -25.5923  -33.8580   24.2285 N   0  0  0  0  0  0
  -23.4202  -30.4793   21.5431 C   0  0  2  0  0  0
  -24.8679  -28.9317   20.1078 C   0  0  0  0  0  0
  -22.7471  -29.4600   22.4928 C   0  0  0  0  0  0
  -18.0287  -28.1383   22.8483 C   0  0  0  0  0  0
  -24.1483  -36.7286   23.2641 C   0  0  0  0  0  0
  -25.9600  -30.7841   21.3770 C   0  0  0  0  0  0
  -26.0315  -29.4102   20.7208 C   0  0  0  0  0  0
  -27.2087  -28.6079   20.7218 C   0  0  0  0  0  0
  -26.0509  -26.8969   19.4581 C   0  0  0  0  0  0
  -24.8795  -27.6801   19.4697 C   0  0  0  0  0  0
  -23.6355  -29.8117   20.1582 C   0  0  0  0  0  0
  -25.4110  -36.3082   24.0331 C   0  0  1  0  0  0
  -20.5887  -28.3676   23.1290 C   0  0  2  0  0  0
  -20.6768  -26.9401   22.5406 C   0  0  0  0  0  0
  -19.5745  -26.6371   21.5213 C   0  0  0  0  0  0
  -18.1924  -26.7928   22.1623 C   0  0  0  0  0  0
  -19.1538  -28.8849   23.2884 C   0  0  0  0  0  0
  -18.9459  -30.1454   23.8897 C   0  0  0  0  0  0
  -17.6458  -30.6582   24.0562 C   0  0  0  0  0  0
  -25.9046  -34.9451   23.5105 C   0  0  0  0  0  0
  -16.5349  -29.9080   23.6337 C   0  0  0  0  0  0
  -16.7276  -28.6500   23.0353 C   0  0  0  0  0  0
  -26.4499  -31.6601   25.0742 C   0  0  0  0  0  0
  -25.3749  -31.3730   26.1480 C   0  0  0  0  0  0
  -27.0348  -30.3029   24.6208 C   0  0  0  0  0  0
  -27.6052  -32.4356   25.7510 C   0  0  0  0  0  0
  -27.5576  -37.1799   24.8470 C   0  0  0  0  0  0
  -21.4181  -29.3032   22.3682 N   0  0  0  0  0  0
  -26.4287  -37.3776   23.9415 N   0  0  0  0  0  0
  -24.6866  -31.0589   22.0971 N   0  0  0  0  0  0
  -23.4194  -28.8146   23.3011 O   0  0  0  0  0  0
  -28.3677  -26.5016   20.1987 O   0  0  0  0  0  0
  -26.5602  -34.8912   22.4664 O   0  0  0  0  0  0
  -23.5415  -32.1381   23.7350 O   0  0  0  0  0  0
  -30.1127  -17.9408   20.2593 C   0  0  0  0  0  0
  -29.6496  -19.2875   20.0356 C   0  0  0  0  0  0
  -28.1089  -19.0207   21.8364 C   0  0  0  0  0  0
  -29.5809  -17.0751   21.2682 C   0  0  0  0  0  0
  -28.6153  -19.8800   20.8207 C   0  0  0  0  0  0
  -28.5325  -17.6803   22.0408 C   0  0  0  0  0  0
  -26.6264  -21.2436   20.6449 C   0  0  0  0  0  0
  -28.6715  -22.4397   20.5111 C   0  0  0  0  0  0
  -30.1431  -15.6631   21.6343 C   0  0  0  0  0  0
  -25.8797  -22.4836   21.1350 C   0  0  0  0  0  0
  -26.4111  -23.7331   20.4565 C   0  0  0  0  0  0
  -27.9329  -23.8686   20.6035 C   0  0  2  0  0  0
  -28.4480  -25.0990   19.7137 C   0  0  0  0  0  0
  -30.2203  -15.3222   22.8562 N   0  0  0  0  0  0
  -27.9916  -21.2266   20.6237 N   0  0  0  0  0  0
  -27.8461  -16.9982   23.0523 N   0  0  0  0  0  0
  -25.9378  -20.2848   20.2713 O   0  0  0  0  0  0
  -29.8977  -22.4532   20.3570 O   0  0  0  0  0  0
  -31.4739  -12.5277   19.1603 H   0  0  0  0  0  0
  -30.3658  -11.4057   19.8870 H   0  0  0  0  0  0
  -29.7749  -11.7940   17.4775 H   0  0  0  0  0  0
  -29.6444  -13.5120   17.7678 H   0  0  0  0  0  0
  -27.8643  -11.3068   18.8605 H   0  0  0  0  0  0
  -27.3749  -12.6049   17.8014 H   0  0  0  0  0  0
  -27.6853  -14.2616   19.5591 H   0  0  0  0  0  0
  -28.7060  -12.0223   21.3666 H   0  0  0  0  0  0
  -28.4032  -13.6528   21.8688 H   0  0  0  0  0  0
  -25.2752   -9.5694   22.4749 H   0  0  0  0  0  0
  -24.0004   -7.4640   22.7476 H   0  0  0  0  0  0
  -21.0835   -8.8747   19.8951 H   0  0  0  0  0  0
  -22.3673  -10.9658   19.6160 H   0  0  0  0  0  0
  -21.2001   -7.6142   23.9712 H   0  0  0  0  0  0
  -21.1495   -6.0517   25.9078 H   0  0  0  0  0  0
  -22.0595   -2.7604   23.2843 H   0  0  0  0  0  0
  -22.4091  -11.9905   22.4815 H   0  0  0  0  0  0
  -21.1112  -13.1295   22.2621 H   0  0  0  0  0  0
  -26.2752  -15.6383   20.1003 H   0  0  0  0  0  0
  -24.6412  -15.8337   20.4777 H   0  0  0  0  0  0
  -26.7166  -32.5438   23.1108 H   0  0  0  0  0  0
  -25.0118  -33.9737   25.0464 H   0  0  0  0  0  0
  -22.7136  -31.2991   21.3979 H   0  0  0  0  0  0
  -23.3749  -35.9615   23.3306 H   0  0  0  0  0  0
  -24.3576  -36.8904   22.2056 H   0  0  0  0  0  0
  -23.7232  -37.6486   23.6659 H   0  0  0  0  0  0
  -26.0949  -31.5450   20.6065 H   0  0  0  0  0  0
  -26.8395  -30.8323   22.0075 H   0  0  0  0  0  0
  -28.0997  -28.9644   21.2190 H   0  0  0  0  0  0
  -26.0091  -25.9526   18.9405 H   0  0  0  0  0  0
  -23.9904  -27.3115   18.9773 H   0  0  0  0  0  0
  -23.7531  -30.5865   19.3994 H   0  0  0  0  0  0
  -22.7560  -29.2389   19.8585 H   0  0  0  0  0  0
  -25.1291  -36.1927   25.0822 H   0  0  0  0  0  0
  -20.9986  -28.3239   24.1406 H   0  0  0  0  0  0
  -20.5652  -26.2287   23.3602 H   0  0  0  0  0  0
  -21.6631  -26.7413   22.1206 H   0  0  0  0  0  0
  -19.6893  -25.6279   21.1241 H   0  0  0  0  0  0
  -19.6679  -27.3173   20.6738 H   0  0  0  0  0  0
  -17.4197  -26.6691   21.4018 H   0  0  0  0  0  0
  -18.0317  -26.0073   22.9024 H   0  0  0  0  0  0
  -19.7932  -30.7274   24.2266 H   0  0  0  0  0  0
  -17.5007  -31.6262   24.5158 H   0  0  0  0  0  0
  -15.5346  -30.2971   23.7672 H   0  0  0  0  0  0
  -15.8677  -28.0817   22.7075 H   0  0  0  0  0  0
  -24.5917  -30.7081   25.7824 H   0  0  0  0  0  0
  -24.8947  -32.2886   26.4936 H   0  0  0  0  0  0
  -25.8093  -30.8901   27.0241 H   0  0  0  0  0  0
  -26.2923  -29.6777   24.1231 H   0  0  0  0  0  0
  -27.4037  -29.7294   25.4723 H   0  0  0  0  0  0
  -27.8800  -30.4325   23.9444 H   0  0  0  0  0  0
  -27.2652  -33.3657   26.2077 H   0  0  0  0  0  0
  -28.3858  -32.6922   25.0339 H   0  0  0  0  0  0
  -28.0722  -31.8500   26.5436 H   0  0  0  0  0  0
  -28.2596  -38.0092   24.7511 H   0  0  0  0  0  0
  -28.1065  -36.2624   24.6298 H   0  0  0  0  0  0
  -27.2299  -37.1455   25.8875 H   0  0  0  0  0  0
  -20.9359  -29.8767   21.6904 H   0  0  0  0  0  0
  -26.0165  -38.2848   24.1417 H   0  0  0  0  0  0
  -30.9221  -17.5750   19.6439 H   0  0  0  0  0  0
  -30.1015  -19.8620   19.2383 H   0  0  0  0  0  0
  -27.3235  -19.3932   22.4799 H   0  0  0  0  0  0
  -25.9964  -22.5535   22.2176 H   0  0  0  0  0  0
  -24.8109  -22.3765   20.9421 H   0  0  0  0  0  0
  -25.9195  -24.5995   20.8994 H   0  0  0  0  0  0
  -26.1340  -23.7117   19.4014 H   0  0  0  0  0  0
  -28.1259  -24.1602   21.6361 H   0  0  0  0  0  0
  -28.0234  -25.0356   18.7119 H   0  0  0  0  0  0
  -29.5139  -24.9433   19.5458 H   0  0  0  0  0  0
  -29.8436  -16.0701   23.4322 H   0  0  0  0  0  0
  -26.9591  -17.3787   23.3661 H   0  0  0  0  0  0
  -27.8379  -15.9837   23.0278 H   0  0  0  0  0  0
  1 25  1  0  0  0
  1 30  2  0  0  0
  1 79  1  0  0  0
  2  3  1  0  0  0
  2 25  1  0  0  0
  2 89  1  0  0  0
  2 90  1  0  0  0
  3  4  1  0  0  0
  3 91  1  0  0  0
  3 92  1  0  0  0
  4  5  1  0  0  0
  4 93  1  0  0  0
  4 94  1  0  0  0
  5  6  1  0  0  0
  5 26  1  0  0  0
  5 95  1  0  0  0
  6 25  1  0  0  0
  6 96  1  0  0  0
  6 97  1  0  0  0
  7  8  2  0  0  0
  7 26  1  0  0  0
  7 29  1  0  0  0
  8  9  1  0  0  0
  8 22  1  0  0  0
  9 10  1  0  0  0
  9 27  2  0  0  0
 10 11  2  0  0  0
 10 15  1  0  0  0
 11 12  1  0  0  0
 11 98  1  0  0  0
 12 13  2  0  0  0
 12 99  1  0  0  0
 13 14  1  0  0  0
 13 31  1  0  0  0
 14 15  2  0  0  0
 14100  1  0  0  0
 15101  1  0  0  0
 16 17  2  0  0  0
 16 21  1  0  0  0
 16 31  1  0  0  0
 17 18  1  0  0  0
 17102  1  0  0  0
 18 19  2  0  0  0
 18103  1  0  0  0
 19 20  1  0  0  0
 19 24  1  0  0  0
 20 21  2  0  0  0
 20104  1  0  0  0
 21 23  1  0  0  0
 22 28  1  0  0  0
 22 32  2  0  0  0
 26 27  1  0  0  0
 28105  1  0  0  0
 28106  1  0  0  0
 29107  1  0  0  0
 29108  1  0  0  0
 33 34  1  0  0  0
 33 66  1  0  0  0
 33 70  2  0  0  0
 34 36  1  0  0  0
 34 59  1  0  0  0
 34109  1  0  0  0
 35 44  2  0  0  0
 35 45  1  0  0  0
 35 68  1  0  0  0
 36 56  1  0  0  0
 36110  1  0  0  0
 37 39  1  0  0  0
 37 47  1  0  0  0
 37 66  1  0  0  0
 37111  1  0  0  0
 38 43  2  0  0  0
 38 46  1  0  0  0
 38 47  1  0  0  0
 39 64  1  0  0  0
 39 67  2  0  0  0
 40 52  1  0  0  0
 40 53  2  0  0  0
 40 58  1  0  0  0
 41112  1  0  0  0
 41113  1  0  0  0
 41114  1  0  0  0
 41 48  1  0  0  0
 42 43  1  0  0  0
 42 66  1  0  0  0
 42115  1  0  0  0
 42116  1  0  0  0
 43 44  1  0  0  0
 44117  1  0  0  0
 45 46  2  0  0  0
 45118  1  0  0  0
 46119  1  0  0  0
 47120  1  0  0  0
 47121  1  0  0  0
 48 56  1  0  0  0
 48 65  1  0  0  0
 48122  1  0  0  0
 49 50  1  0  0  0
 49 53  1  0  0  0
 49 64  1  0  0  0
 49123  1  0  0  0
 50 51  1  0  0  0
 50124  1  0  0  0
 50125  1  0  0  0
 51 52  1  0  0  0
 51126  1  0  0  0
 51127  1  0  0  0
 52128  1  0  0  0
 52129  1  0  0  0
 53 54  1  0  0  0
 54 55  2  0  0  0
 54130  1  0  0  0
 55 57  1  0  0  0
 55131  1  0  0  0
 56 69  2  0  0  0
 57 58  2  0  0  0
 57132  1  0  0  0
 58133  1  0  0  0
 59 60  1  0  0  0
 59 61  1  0  0  0
 59 62  1  0  0  0
 60134  1  0  0  0
 60135  1  0  0  0
 60136  1  0  0  0
 61137  1  0  0  0
 61138  1  0  0  0
 61139  1  0  0  0
 62140  1  0  0  0
 62141  1  0  0  0
 62142  1  0  0  0
 63 65  1  0  0  0
 63143  1  0  0  0
 63144  1  0  0  0
 63145  1  0  0  0
 64146  1  0  0  0
 65147  1  0  0  0
 68 83  1  0  0  0
 71 72  2  0  0  0
 71 74  1  0  0  0
 71148  1  0  0  0
 72 75  1  0  0  0
 72149  1  0  0  0
 73 75  2  0  0  0
 73 76  1  0  0  0
 73150  1  0  0  0
 74 76  2  0  0  0
 74 79  1  0  0  0
 75 85  1  0  0  0
 76 86  1  0  0  0
 77 80  1  0  0  0
 77 85  1  0  0  0
 77 87  2  0  0  0
 78 82  1  0  0  0
 78 85  1  0  0  0
 78 88  2  0  0  0
 79 84  2  0  0  0
 80 81  1  0  0  0
 80151  1  0  0  0
 80152  1  0  0  0
 81 82  1  0  0  0
 81153  1  0  0  0
 81154  1  0  0  0
 82 83  1  0  0  0
 82155  1  0  0  0
 83156  1  0  0  0
 83157  1  0  0  0
 84158  1  0  0  0
 86159  1  0  0  0
 86160  1  0  0  0
M  ISO  4   1 100  68 101  79 100  83 101
M  END
> <chiral flag>
0

> <version>
0

> <s_m_source_file>
/data/baiqing/PycharmProjects/Reinvent-master-3.2/result/LINK_invent/BTK/process_docking_weight1_custom_product_contain_oxygen_bond_distance_aromatic_linkinvent_7_9_3/rearranged_h_0101.sdf

> <i_m_source_file_index>
2

> <r_mmod_Potential_Energy-OPLS-2005>
399.939666748047

> <r_mmod_Stretch_Energy-OPLS-2005>
116.814483642578

> <r_mmod_Bend_Energy-OPLS-2005>
185.769561767578

> <r_mmod_Torsional_Energy-OPLS-2005>
266.255035400391

> <r_mmod_Improper_Torsional_Energy-OPLS-2005>
7.38940763473511

> <r_mmod_Van_der_Waal_Energy-OPLS-2005>
169.229751586914

> <r_mmod_Electrostatic_Energy-OPLS-2005>
-164.681640625

> <r_mmod_Solvation_Energy-OPLS-2005>
-227.556869506836

> <b_mmod_Minimization_Converged-OPLS-2005>
0

> <r_mmod_RMS_Derivative-OPLS-2005>
1.18923759460449

$$$$
2
                    3D
 Structure written by MMmdl.
151159  0  0  1  0            999 V2000
  -30.5825  -14.8748   20.4361 C   0  0  0  0  0  0
  -30.4271  -12.5306   19.5229 C   0  0  0  0  0  0
  -29.5247  -12.5153   18.2686 C   0  0  0  0  0  0
  -28.0538  -12.3139   18.6805 C   0  0  0  0  0  0
  -27.6313  -13.2490   19.8454 C   0  0  2  0  0  0
  -28.6658  -13.2652   20.9911 C   0  0  0  0  0  0
  -25.2430  -13.8235   20.5716 C   0  0  0  0  0  0
  -24.1750  -13.0450   20.9231 C   0  0  0  0  0  0
  -24.6389  -11.6932   20.8757 C   0  0  0  0  0  0
  -23.9100  -10.4297   21.0412 C   0  0  0  0  0  0
  -24.3646   -9.4219   21.9194 C   0  0  0  0  0  0
  -23.6303   -8.2259   22.0773 C   0  0  0  0  0  0
  -22.4264   -8.0300   21.3577 C   0  0  0  0  0  0
  -21.9913   -9.0283   20.4689 C   0  0  0  0  0  0
  -22.7269  -10.2144   20.3089 C   0  0  0  0  0  0
  -21.6844   -6.0753   22.5283 C   0  0  0  0  0  0
  -21.4039   -6.5662   23.8230 C   0  0  0  0  0  0
  -21.3674   -5.6796   24.9182 C   0  0  0  0  0  0
  -21.6026   -4.3061   24.7219 C   0  0  0  0  0  0
  -21.8811   -3.8165   23.4338 C   0  0  0  0  0  0
  -21.9186   -4.6981   22.3393 C   0  0  0  0  0  0
  -22.7783  -13.5208   21.1894 C   0  0  0  0  0  0
  -22.1651   -4.2181   21.0968 F   0  0  0  0  0  0
  -21.5623   -3.4544   25.7740 F   0  0  0  0  0  0
  -29.9579  -13.6353   20.4044 N   0  0  0  0  0  0
  -26.2872  -12.9476   20.3259 N   0  0  0  0  0  0
  -25.9314  -11.6601   20.5732 N   0  0  0  0  0  0
  -22.0427  -12.8203   22.0453 N   0  0  0  0  0  0
  -25.4038  -15.1966   20.4181 N   0  0  0  0  0  0
  -31.7749  -14.9254   20.1193 O   0  0  0  0  0  0
  -21.6634   -6.8889   21.4247 O   0  0  0  0  0  0
  -22.3451  -14.5496   20.6707 O   0  0  0  0  0  0
  -24.6405  -31.8474   23.1908 C   0  0  0  0  0  0
  -25.9186  -32.4701   23.8290 C   0  0  1  0  0  0
  -27.2042  -27.1613   20.1539 C   0  0  0  0  0  0
  -25.5952  -33.8513   24.2204 N   0  0  0  0  0  0
  -23.4396  -30.4678   21.5368 C   0  0  2  0  0  0
  -24.8871  -28.9011   20.1062 C   0  0  0  0  0  0
  -22.7545  -29.4561   22.4884 C   0  0  0  0  0  0
  -18.0305  -28.1390   22.8474 C   0  0  0  0  0  0
  -24.1495  -36.7270   23.2641 C   0  0  0  0  0  0
  -25.9931  -30.7267   21.3876 C   0  0  0  0  0  0
  -26.0598  -29.3412   20.7293 C   0  0  0  0  0  0
  -27.2170  -28.4852   20.7415 C   0  0  0  0  0  0
  -26.0110  -26.8191   19.4794 C   0  0  0  0  0  0
  -24.8738  -27.6527   19.4670 C   0  0  0  0  0  0
  -23.6621  -29.7986   20.1541 C   0  0  0  0  0  0
  -25.4119  -36.3029   24.0313 C   0  0  1  0  0  0
  -20.5913  -28.3713   23.1250 C   0  0  2  0  0  0
  -20.6786  -26.9417   22.5420 C   0  0  0  0  0  0
  -19.5764  -26.6374   21.5222 C   0  0  0  0  0  0
  -18.1946  -26.7923   22.1627 C   0  0  0  0  0  0
  -19.1559  -28.8874   23.2848 C   0  0  0  0  0  0
  -18.9480  -30.1464   23.8878 C   0  0  0  0  0  0
  -17.6474  -30.6578   24.0574 C   0  0  0  0  0  0
  -25.9069  -34.9406   23.5058 C   0  0  0  0  0  0
  -16.5365  -29.9076   23.6336 C   0  0  0  0  0  0
  -16.7286  -28.6501   23.0340 C   0  0  0  0  0  0
  -26.4496  -31.6563   25.0729 C   0  0  0  0  0  0
  -25.3689  -31.3798   26.1442 C   0  0  0  0  0  0
  -27.0356  -30.2950   24.6315 C   0  0  0  0  0  0
  -27.6038  -32.4337   25.7500 C   0  0  0  0  0  0
  -27.5575  -37.1780   24.8450 C   0  0  0  0  0  0
  -21.4253  -29.3031   22.3624 N   0  0  0  0  0  0
  -26.4275  -37.3741   23.9400 N   0  0  0  0  0  0
  -24.7099  -31.0357   22.0927 N   0  0  0  0  0  0
  -23.4212  -28.8124   23.3027 O   0  0  0  0  0  0
  -28.2711  -26.2108   20.2678 O   0  0  0  0  0  0
  -26.5658  -34.8904   22.4642 O   0  0  0  0  0  0
  -23.5534  -32.1360   23.7139 O   0  0  0  0  0  0
  -29.0475  -21.0721   21.7490 C   0  0  0  0  0  0
  -29.4077  -19.6712   21.6687 C   0  0  0  0  0  0
  -29.3418  -19.8370   19.3179 C   0  0  0  0  0  0
  -28.8489  -21.9661   20.6339 C   0  0  0  0  0  0
  -29.6021  -18.9737   20.4391 C   0  0  0  0  0  0
  -28.9811  -21.2452   19.3925 C   0  0  0  0  0  0
  -28.5623  -23.5383   20.9141 C   0  0  0  0  0  0
  -30.3425  -17.5182   20.2864 C   0  0  0  0  0  0
  -28.1846  -24.7194   19.8513 C   0  0  0  0  0  0
  -28.7817  -21.8962   18.1736 N   0  0  0  0  0  0
  -29.8525  -16.0741   20.6037 N   0  0  0  0  0  0
  -28.6042  -23.9234   22.0887 O   0  0  0  0  0  0
  -31.4746  -12.6406   19.2370 H   0  0  0  0  0  0
  -30.3697  -11.5774   20.0515 H   0  0  0  0  0  0
  -29.8384  -11.7218   17.5905 H   0  0  0  0  0  0
  -29.6349  -13.4505   17.7191 H   0  0  0  0  0  0
  -27.9463  -11.2744   18.9948 H   0  0  0  0  0  0
  -27.3900  -12.4460   17.8257 H   0  0  0  0  0  0
  -27.6044  -14.2552   19.4214 H   0  0  0  0  0  0
  -28.7184  -12.2962   21.4922 H   0  0  0  0  0  0
  -28.3764  -13.9900   21.7535 H   0  0  0  0  0  0
  -25.2809   -9.5684   22.4758 H   0  0  0  0  0  0
  -24.0043   -7.4627   22.7459 H   0  0  0  0  0  0
  -21.0863   -8.8816   19.8954 H   0  0  0  0  0  0
  -22.3763  -10.9693   19.6201 H   0  0  0  0  0  0
  -21.2063   -7.6177   23.9753 H   0  0  0  0  0  0
  -21.1495   -6.0525   25.9087 H   0  0  0  0  0  0
  -22.0571   -2.7631   23.2813 H   0  0  0  0  0  0
  -22.4061  -11.9911   22.4902 H   0  0  0  0  0  0
  -21.1058  -13.1238   22.2694 H   0  0  0  0  0  0
  -24.6249  -15.8353   20.5408 H   0  0  0  0  0  0
  -26.2380  -15.6548   20.0780 H   0  0  0  0  0  0
  -26.7252  -32.5310   23.1022 H   0  0  0  0  0  0
  -25.0054  -33.9621   25.0320 H   0  0  0  0  0  0
  -22.7394  -31.2922   21.3858 H   0  0  0  0  0  0
  -23.3746  -35.9612   23.3279 H   0  0  0  0  0  0
  -24.3594  -36.8931   22.2065 H   0  0  0  0  0  0
  -23.7270  -37.6465   23.6705 H   0  0  0  0  0  0
  -26.1475  -31.4809   20.6156 H   0  0  0  0  0  0
  -26.8645  -30.7736   22.0277 H   0  0  0  0  0  0
  -28.1071  -28.8127   21.2595 H   0  0  0  0  0  0
  -25.9080  -25.8745   18.9723 H   0  0  0  0  0  0
  -23.9763  -27.3114   18.9700 H   0  0  0  0  0  0
  -23.7977  -30.5740   19.3992 H   0  0  0  0  0  0
  -22.7767  -29.2387   19.8451 H   0  0  0  0  0  0
  -25.1302  -36.1846   25.0802 H   0  0  0  0  0  0
  -20.9994  -28.3304   24.1372 H   0  0  0  0  0  0
  -20.5684  -26.2327   23.3632 H   0  0  0  0  0  0
  -21.6657  -26.7427   22.1224 H   0  0  0  0  0  0
  -19.6928  -25.6281   21.1261 H   0  0  0  0  0  0
  -19.6692  -27.3174   20.6743 H   0  0  0  0  0  0
  -17.4213  -26.6672   21.4022 H   0  0  0  0  0  0
  -18.0333  -26.0064   22.9029 H   0  0  0  0  0  0
  -19.7958  -30.7291   24.2225 H   0  0  0  0  0  0
  -17.5026  -31.6244   24.5197 H   0  0  0  0  0  0
  -15.5360  -30.2966   23.7666 H   0  0  0  0  0  0
  -15.8693  -28.0809   22.7051 H   0  0  0  0  0  0
  -24.5769  -30.7256   25.7765 H   0  0  0  0  0  0
  -24.8994  -32.3023   26.4883 H   0  0  0  0  0  0
  -25.7944  -30.8920   27.0217 H   0  0  0  0  0  0
  -26.2971  -29.6673   24.1311 H   0  0  0  0  0  0
  -27.3941  -29.7248   25.4893 H   0  0  0  0  0  0
  -27.8893  -30.4172   23.9648 H   0  0  0  0  0  0
  -27.2596  -33.3618   26.2081 H   0  0  0  0  0  0
  -28.3824  -32.6939   25.0318 H   0  0  0  0  0  0
  -28.0730  -31.8478   26.5410 H   0  0  0  0  0  0
  -28.2570  -38.0096   24.7497 H   0  0  0  0  0  0
  -28.1086  -36.2625   24.6250 H   0  0  0  0  0  0
  -27.2305  -37.1411   25.8855 H   0  0  0  0  0  0
  -20.9472  -29.8710   21.6772 H   0  0  0  0  0  0
  -26.0138  -38.2804   24.1409 H   0  0  0  0  0  0
  -28.9581  -21.4866   22.7446 H   0  0  0  0  0  0
  -29.6061  -19.1401   22.5916 H   0  0  0  0  0  0
  -29.4893  -19.4053   18.3376 H   0  0  0  0  0  0
  -31.2778  -17.6289   20.8387 H   0  0  0  0  0  0
  -30.6613  -17.4753   19.2436 H   0  0  0  0  0  0
  -27.1924  -24.4708   19.4876 H   0  0  0  0  0  0
  -28.8424  -24.5974   18.9923 H   0  0  0  0  0  0
  -28.9884  -21.3947   17.3154 H   0  0  0  0  0  0
  -28.9484  -22.8919   18.0855 H   0  0  0  0  0  0
  -28.8841  -15.9809   20.8719 H   0  0  0  0  0  0
  1 25  1  0  0  0
  1 30  2  0  0  0
  1 81  1  0  0  0
  2  3  1  0  0  0
  2 25  1  0  0  0
  2 83  1  0  0  0
  2 84  1  0  0  0
  3  4  1  0  0  0
  3 85  1  0  0  0
  3 86  1  0  0  0
  4  5  1  0  0  0
  4 87  1  0  0  0
  4 88  1  0  0  0
  5  6  1  0  0  0
  5 26  1  0  0  0
  5 89  1  0  0  0
  6 25  1  0  0  0
  6 90  1  0  0  0
  6 91  1  0  0  0
  7  8  2  0  0  0
  7 26  1  0  0  0
  7 29  1  0  0  0
  8  9  1  0  0  0
  8 22  1  0  0  0
  9 10  1  0  0  0
  9 27  2  0  0  0
 10 11  2  0  0  0
 10 15  1  0  0  0
 11 12  1  0  0  0
 11 92  1  0  0  0
 12 13  2  0  0  0
 12 93  1  0  0  0
 13 14  1  0  0  0
 13 31  1  0  0  0
 14 15  2  0  0  0
 14 94  1  0  0  0
 15 95  1  0  0  0
 16 17  2  0  0  0
 16 21  1  0  0  0
 16 31  1  0  0  0
 17 18  1  0  0  0
 17 96  1  0  0  0
 18 19  2  0  0  0
 18 97  1  0  0  0
 19 20  1  0  0  0
 19 24  1  0  0  0
 20 21  2  0  0  0
 20 98  1  0  0  0
 21 23  1  0  0  0
 22 28  1  0  0  0
 22 32  2  0  0  0
 26 27  1  0  0  0
 28 99  1  0  0  0
 28100  1  0  0  0
 29101  1  0  0  0
 29102  1  0  0  0
 33 34  1  0  0  0
 33 66  1  0  0  0
 33 70  2  0  0  0
 34 36  1  0  0  0
 34 59  1  0  0  0
 34103  1  0  0  0
 35 44  2  0  0  0
 35 45  1  0  0  0
 35 68  1  0  0  0
 36 56  1  0  0  0
 36104  1  0  0  0
 37 39  1  0  0  0
 37 47  1  0  0  0
 37 66  1  0  0  0
 37105  1  0  0  0
 38 43  2  0  0  0
 38 46  1  0  0  0
 38 47  1  0  0  0
 39 64  1  0  0  0
 39 67  2  0  0  0
 40 52  1  0  0  0
 40 53  2  0  0  0
 40 58  1  0  0  0
 41106  1  0  0  0
 41107  1  0  0  0
 41108  1  0  0  0
 41 48  1  0  0  0
 42 43  1  0  0  0
 42 66  1  0  0  0
 42109  1  0  0  0
 42110  1  0  0  0
 43 44  1  0  0  0
 44111  1  0  0  0
 45 46  2  0  0  0
 45112  1  0  0  0
 46113  1  0  0  0
 47114  1  0  0  0
 47115  1  0  0  0
 48 56  1  0  0  0
 48 65  1  0  0  0
 48116  1  0  0  0
 49 50  1  0  0  0
 49 53  1  0  0  0
 49 64  1  0  0  0
 49117  1  0  0  0
 50 51  1  0  0  0
 50118  1  0  0  0
 50119  1  0  0  0
 51 52  1  0  0  0
 51120  1  0  0  0
 51121  1  0  0  0
 52122  1  0  0  0
 52123  1  0  0  0
 53 54  1  0  0  0
 54 55  2  0  0  0
 54124  1  0  0  0
 55 57  1  0  0  0
 55125  1  0  0  0
 56 69  2  0  0  0
 57 58  2  0  0  0
 57126  1  0  0  0
 58127  1  0  0  0
 59 60  1  0  0  0
 59 61  1  0  0  0
 59 62  1  0  0  0
 60128  1  0  0  0
 60129  1  0  0  0
 60130  1  0  0  0
 61131  1  0  0  0
 61132  1  0  0  0
 61133  1  0  0  0
 62134  1  0  0  0
 62135  1  0  0  0
 62136  1  0  0  0
 63 65  1  0  0  0
 63137  1  0  0  0
 63138  1  0  0  0
 63139  1  0  0  0
 64140  1  0  0  0
 65141  1  0  0  0
 68 79  1  0  0  0
 71 72  2  0  0  0
 71 74  1  0  0  0
 71142  1  0  0  0
 72 75  1  0  0  0
 72143  1  0  0  0
 73 75  2  0  0  0
 73 76  1  0  0  0
 73144  1  0  0  0
 74 76  2  0  0  0
 74 77  1  0  0  0
 75 78  1  0  0  0
 76 80  1  0  0  0
 77 79  1  0  0  0
 77 82  2  0  0  0
 78 81  1  0  0  0
 78145  1  0  0  0
 78146  1  0  0  0
 79147  1  0  0  0
 79148  1  0  0  0
 80149  1  0  0  0
 80150  1  0  0  0
 81151  1  0  0  0
M  ISO  4   1 100  68 101  79 101  81 100
M  END
> <chiral flag>
0

> <version>
0

> <s_m_source_file>
/data/baiqing/PycharmProjects/Reinvent-master-3.2/result/LINK_invent/BTK/process_docking_weight1_custom_product_contain_oxygen_bond_distance_aromatic_linkinvent_7_9_3/rearranged_h_0101.sdf

> <i_m_source_file_index>
3

> <r_mmod_Potential_Energy-OPLS-2005>
412.167205810547

> <r_mmod_Stretch_Energy-OPLS-2005>
201.63703918457

> <r_mmod_Bend_Energy-OPLS-2005>
247.096939086914

> <r_mmod_Torsional_Energy-OPLS-2005>
235.722396850586

> <r_mmod_Improper_Torsional_Energy-OPLS-2005>
9.73595237731934

> <r_mmod_Van_der_Waal_Energy-OPLS-2005>
137.538803100586

> <r_mmod_Electrostatic_Energy-OPLS-2005>
-339.435852050781

> <r_mmod_Solvation_Energy-OPLS-2005>
-238.206451416016

> <b_mmod_Minimization_Converged-OPLS-2005>
0

> <r_mmod_RMS_Derivative-OPLS-2005>
3.32196879386902

$$$$
3
                    3D
 Structure written by MMmdl.
161169  0  0  1  0            999 V2000
  -30.7499  -14.4004   20.6903 C   0  0  0  0  0  0
  -30.4185  -12.3194   19.3864 C   0  0  0  0  0  0
  -29.4839  -12.5460   18.1841 C   0  0  0  0  0  0
  -28.0093  -12.3820   18.6028 C   0  0  0  0  0  0
  -27.6612  -13.2047   19.8714 C   0  0  2  0  0  0
  -28.7013  -12.9503   20.9826 C   0  0  0  0  0  0
  -25.2588  -13.8153   20.5666 C   0  0  0  0  0  0
  -24.1841  -13.0428   20.9162 C   0  0  0  0  0  0
  -24.6396  -11.6894   20.8700 C   0  0  0  0  0  0
  -23.9061  -10.4285   21.0386 C   0  0  0  0  0  0
  -24.3619   -9.4213   21.9174 C   0  0  0  0  0  0
  -23.6295   -8.2248   22.0746 C   0  0  0  0  0  0
  -22.4275   -8.0283   21.3543 C   0  0  0  0  0  0
  -21.9903   -9.0247   20.4634 C   0  0  0  0  0  0
  -22.7225  -10.2132   20.3038 C   0  0  0  0  0  0
  -21.6851   -6.0743   22.5281 C   0  0  0  0  0  0
  -21.4009   -6.5641   23.8214 C   0  0  0  0  0  0
  -21.3659   -5.6792   24.9174 C   0  0  0  0  0  0
  -21.6048   -4.3054   24.7218 C   0  0  0  0  0  0
  -21.8815   -3.8149   23.4334 C   0  0  0  0  0  0
  -21.9187   -4.6971   22.3396 C   0  0  0  0  0  0
  -22.7864  -13.5232   21.1827 C   0  0  0  0  0  0
  -22.1656   -4.2159   21.0975 F   0  0  0  0  0  0
  -21.5627   -3.4536   25.7727 F   0  0  0  0  0  0
  -30.0349  -13.2706   20.4399 N   0  0  0  0  0  0
  -26.3016  -12.9326   20.3319 N   0  0  0  0  0  0
  -25.9322  -11.6484   20.5722 N   0  0  0  0  0  0
  -22.0501  -12.8225   22.0382 N   0  0  0  0  0  0
  -25.4293  -15.1881   20.4089 N   0  0  0  0  0  0
  -31.8198  -14.6590   20.1315 O   0  0  0  0  0  0
  -21.6632   -6.8892   21.4249 O   0  0  0  0  0  0
  -22.3553  -14.5550   20.6693 O   0  0  0  0  0  0
  -24.6151  -31.8635   23.2098 C   0  0  0  0  0  0
  -25.9026  -32.4803   23.8380 C   0  0  1  0  0  0
  -27.2387  -27.4180   20.0921 C   0  0  0  0  0  0
  -25.5861  -33.8596   24.2296 N   0  0  0  0  0  0
  -23.4056  -30.4831   21.5510 C   0  0  2  0  0  0
  -24.8494  -28.9477   20.1147 C   0  0  0  0  0  0
  -22.7420  -29.4612   22.5023 C   0  0  0  0  0  0
  -18.0262  -28.1350   22.8472 C   0  0  0  0  0  0
  -24.1483  -36.7318   23.2634 C   0  0  0  0  0  0
  -25.9341  -30.8249   21.3627 C   0  0  0  0  0  0
  -26.0094  -29.4580   20.7080 C   0  0  0  0  0  0
  -27.2004  -28.6978   20.6946 C   0  0  0  0  0  0
  -26.0482  -26.9128   19.5149 C   0  0  0  0  0  0
  -24.8628  -27.6735   19.5188 C   0  0  0  0  0  0
  -23.6104  -29.8141   20.1661 C   0  0  0  0  0  0
  -25.4108  -36.3096   24.0332 C   0  0  1  0  0  0
  -20.5850  -28.3615   23.1334 C   0  0  2  0  0  0
  -20.6762  -26.9356   22.5416 C   0  0  0  0  0  0
  -19.5742  -26.6375   21.5203 C   0  0  0  0  0  0
  -18.1907  -26.7899   22.1601 C   0  0  0  0  0  0
  -19.1510  -28.8805   23.2881 C   0  0  0  0  0  0
  -18.9449  -30.1424   23.8877 C   0  0  0  0  0  0
  -17.6449  -30.6558   24.0536 C   0  0  0  0  0  0
  -25.9026  -34.9453   23.5123 C   0  0  0  0  0  0
  -16.5330  -29.9048   23.6337 C   0  0  0  0  0  0
  -16.7246  -28.6474   23.0340 C   0  0  0  0  0  0
  -26.4454  -31.6604   25.0710 C   0  0  0  0  0  0
  -25.3726  -31.3730   26.1471 C   0  0  0  0  0  0
  -27.0305  -30.3032   24.6118 C   0  0  0  0  0  0
  -27.6017  -32.4339   25.7485 C   0  0  0  0  0  0
  -27.5583  -37.1810   24.8458 C   0  0  0  0  0  0
  -21.4148  -29.2985   22.3760 N   0  0  0  0  0  0
  -26.4305  -37.3785   23.9396 N   0  0  0  0  0  0
  -24.6703  -31.0715   22.0999 N   0  0  0  0  0  0
  -23.4190  -28.8156   23.3074 O   0  0  0  0  0  0
  -28.4441  -26.7372   20.1020 O   0  0  0  0  0  0
  -26.5600  -34.8930   22.4692 O   0  0  0  0  0  0
  -23.5341  -32.1417   23.7476 O   0  0  0  0  0  0
  -30.3636  -18.3317   21.7067 C   0  0  0  0  0  0
  -32.5431  -17.9662   22.7508 C   0  0  0  0  0  0
  -31.8998  -20.1964   22.0402 C   0  0  0  0  0  0
  -31.3086  -17.4540   22.2983 C   0  0  0  0  0  0
  -30.6413  -19.7218   21.5964 C   0  0  0  0  0  0
  -32.8464  -19.3424   22.6296 C   0  0  0  0  0  0
  -29.4991  -21.9314   21.3075 C   0  0  0  0  0  0
  -34.8591  -19.1538   23.9225 C   0  0  0  0  0  0
  -31.0166  -15.9813   22.6007 C   0  0  0  0  0  0
  -28.5110  -22.7526   20.4464 C   0  0  0  0  0  0
  -28.7638  -24.3103   20.5307 C   0  0  0  0  0  0
  -28.6296  -25.4594   19.4640 C   0  0  0  0  0  0
  -29.6748  -20.6170   21.0263 N   0  0  0  0  0  0
  -30.2383  -15.1935   21.6444 N   0  0  0  0  0  0
  -30.0691  -22.4956   22.2456 O   0  0  0  0  0  0
  -34.0132  -19.9213   23.0755 O   0  0  0  0  0  0
  -31.4626  -12.4238   19.0871 H   0  0  0  0  0  0
  -30.3165  -11.2976   19.7541 H   0  0  0  0  0  0
  -29.7279  -11.8559   17.3751 H   0  0  0  0  0  0
  -29.6402  -13.5504   17.7854 H   0  0  0  0  0  0
  -27.8299  -11.3222   18.7841 H   0  0  0  0  0  0
  -27.3540  -12.6613   17.7770 H   0  0  0  0  0  0
  -27.7145  -14.2579   19.5959 H   0  0  0  0  0  0
  -28.6804  -11.8993   21.2756 H   0  0  0  0  0  0
  -28.4445  -13.5006   21.8882 H   0  0  0  0  0  0
  -25.2772   -9.5687   22.4748 H   0  0  0  0  0  0
  -23.9991   -7.4640   22.7471 H   0  0  0  0  0  0
  -21.0829   -8.8757   19.8952 H   0  0  0  0  0  0
  -22.3672  -10.9666   19.6133 H   0  0  0  0  0  0
  -21.2008   -7.6143   23.9718 H   0  0  0  0  0  0
  -21.1490   -6.0523   25.9082 H   0  0  0  0  0  0
  -22.0599   -2.7611   23.2824 H   0  0  0  0  0  0
  -22.4086  -11.9866   22.4750 H   0  0  0  0  0  0
  -21.1112  -13.1249   22.2578 H   0  0  0  0  0  0
  -24.6613  -15.8427   20.5191 H   0  0  0  0  0  0
  -26.2851  -15.6301   20.0972 H   0  0  0  0  0  0
  -26.7093  -32.5494   23.1143 H   0  0  0  0  0  0
  -24.9999  -33.9749   25.0431 H   0  0  0  0  0  0
  -22.6946  -31.2995   21.4102 H   0  0  0  0  0  0
  -23.3734  -35.9667   23.3297 H   0  0  0  0  0  0
  -24.3565  -36.8934   22.2053 H   0  0  0  0  0  0
  -23.7266  -37.6531   23.6653 H   0  0  0  0  0  0
  -26.0468  -31.5968   20.5998 H   0  0  0  0  0  0
  -26.8223  -30.8748   21.9822 H   0  0  0  0  0  0
  -28.1006  -29.0907   21.1486 H   0  0  0  0  0  0
  -26.0025  -25.9327   19.0680 H   0  0  0  0  0  0
  -23.9660  -27.2684   19.0674 H   0  0  0  0  0  0
  -23.7080  -30.5893   19.4036 H   0  0  0  0  0  0
  -22.7374  -29.2257   19.8752 H   0  0  0  0  0  0
  -25.1288  -36.1973   25.0837 H   0  0  0  0  0  0
  -20.9906  -28.3158   24.1469 H   0  0  0  0  0  0
  -20.5681  -26.2195   23.3579 H   0  0  0  0  0  0
  -21.6633  -26.7441   22.1178 H   0  0  0  0  0  0
  -19.6913  -25.6307   21.1193 H   0  0  0  0  0  0
  -19.6688  -27.3223   20.6758 H   0  0  0  0  0  0
  -17.4192  -26.6626   21.3985 H   0  0  0  0  0  0
  -18.0273  -26.0052   22.9018 H   0  0  0  0  0  0
  -19.7941  -30.7215   24.2237 H   0  0  0  0  0  0
  -17.5021  -31.6243   24.5117 H   0  0  0  0  0  0
  -15.5332  -30.2913   23.7723 H   0  0  0  0  0  0
  -15.8647  -28.0795   22.7043 H   0  0  0  0  0  0
  -24.5900  -30.7051   25.7859 H   0  0  0  0  0  0
  -24.8894  -32.2881   26.4894 H   0  0  0  0  0  0
  -25.8076  -30.8960   27.0254 H   0  0  0  0  0  0
  -26.2868  -29.6765   24.1168 H   0  0  0  0  0  0
  -27.4056  -29.7301   25.4611 H   0  0  0  0  0  0
  -27.8704  -30.4321   23.9278 H   0  0  0  0  0  0
  -27.2614  -33.3650   26.2046 H   0  0  0  0  0  0
  -28.3839  -32.6891   25.0315 H   0  0  0  0  0  0
  -28.0667  -31.8477   26.5429 H   0  0  0  0  0  0
  -28.2592  -38.0111   24.7521 H   0  0  0  0  0  0
  -28.1088  -36.2649   24.6269 H   0  0  0  0  0  0
  -27.2288  -37.1438   25.8853 H   0  0  0  0  0  0
  -20.9322  -29.8720   21.6985 H   0  0  0  0  0  0
  -26.0181  -38.2853   24.1437 H   0  0  0  0  0  0
  -29.4090  -17.9403   21.3827 H   0  0  0  0  0  0
  -33.2468  -17.2877   23.2122 H   0  0  0  0  0  0
  -32.1568  -21.2407   21.9518 H   0  0  0  0  0  0
  -35.5918  -19.8144   24.3849 H   0  0  0  0  0  0
  -35.4043  -18.3953   23.3611 H   0  0  0  0  0  0
  -34.3005  -18.6752   24.7278 H   0  0  0  0  0  0
  -30.4631  -15.9635   23.5408 H   0  0  0  0  0  0
  -31.9489  -15.4529   22.8106 H   0  0  0  0  0  0
  -27.5224  -22.4814   20.8301 H   0  0  0  0  0  0
  -28.5284  -22.3785   19.4182 H   0  0  0  0  0  0
  -27.6769  -24.3854   20.4837 H   0  0  0  0  0  0
  -29.5706  -24.0108   19.8607 H   0  0  0  0  0  0
  -27.9177  -25.2374   18.6685 H   0  0  0  0  0  0
  -29.5571  -25.6246   18.9044 H   0  0  0  0  0  0
  -29.0424  -20.2139   20.3483 H   0  0  0  0  0  0
  -29.3177  -14.9283   21.9605 H   0  0  0  0  0  0
  1 25  1  0  0  0
  1 30  2  0  0  0
  1 84  1  0  0  0
  2  3  1  0  0  0
  2 25  1  0  0  0
  2 87  1  0  0  0
  2 88  1  0  0  0
  3  4  1  0  0  0
  3 89  1  0  0  0
  3 90  1  0  0  0
  4  5  1  0  0  0
  4 91  1  0  0  0
  4 92  1  0  0  0
  5  6  1  0  0  0
  5 26  1  0  0  0
  5 93  1  0  0  0
  6 25  1  0  0  0
  6 94  1  0  0  0
  6 95  1  0  0  0
  7  8  2  0  0  0
  7 26  1  0  0  0
  7 29  1  0  0  0
  8  9  1  0  0  0
  8 22  1  0  0  0
  9 10  1  0  0  0
  9 27  2  0  0  0
 10 11  2  0  0  0
 10 15  1  0  0  0
 11 12  1  0  0  0
 11 96  1  0  0  0
 12 13  2  0  0  0
 12 97  1  0  0  0
 13 14  1  0  0  0
 13 31  1  0  0  0
 14 15  2  0  0  0
 14 98  1  0  0  0
 15 99  1  0  0  0
 16 17  2  0  0  0
 16 21  1  0  0  0
 16 31  1  0  0  0
 17 18  1  0  0  0
 17100  1  0  0  0
 18 19  2  0  0  0
 18101  1  0  0  0
 19 20  1  0  0  0
 19 24  1  0  0  0
 20 21  2  0  0  0
 20102  1  0  0  0
 21 23  1  0  0  0
 22 28  1  0  0  0
 22 32  2  0  0  0
 26 27  1  0  0  0
 28103  1  0  0  0
 28104  1  0  0  0
 29105  1  0  0  0
 29106  1  0  0  0
 33 34  1  0  0  0
 33 66  1  0  0  0
 33 70  2  0  0  0
 34 36  1  0  0  0
 34 59  1  0  0  0
 34107  1  0  0  0
 35 44  2  0  0  0
 35 45  1  0  0  0
 35 68  1  0  0  0
 36 56  1  0  0  0
 36108  1  0  0  0
 37 39  1  0  0  0
 37 47  1  0  0  0
 37 66  1  0  0  0
 37109  1  0  0  0
 38 43  2  0  0  0
 38 46  1  0  0  0
 38 47  1  0  0  0
 39 64  1  0  0  0
 39 67  2  0  0  0
 40 52  1  0  0  0
 40 53  2  0  0  0
 40 58  1  0  0  0
 41110  1  0  0  0
 41111  1  0  0  0
 41112  1  0  0  0
 41 48  1  0  0  0
 42 43  1  0  0  0
 42 66  1  0  0  0
 42113  1  0  0  0
 42114  1  0  0  0
 43 44  1  0  0  0
 44115  1  0  0  0
 45 46  2  0  0  0
 45116  1  0  0  0
 46117  1  0  0  0
 47118  1  0  0  0
 47119  1  0  0  0
 48 56  1  0  0  0
 48 65  1  0  0  0
 48120  1  0  0  0
 49 50  1  0  0  0
 49 53  1  0  0  0
 49 64  1  0  0  0
 49121  1  0  0  0
 50 51  1  0  0  0
 50122  1  0  0  0
 50123  1  0  0  0
 51 52  1  0  0  0
 51124  1  0  0  0
 51125  1  0  0  0
 52126  1  0  0  0
 52127  1  0  0  0
 53 54  1  0  0  0
 54 55  2  0  0  0
 54128  1  0  0  0
 55 57  1  0  0  0
 55129  1  0  0  0
 56 69  2  0  0  0
 57 58  2  0  0  0
 57130  1  0  0  0
 58131  1  0  0  0
 59 60  1  0  0  0
 59 61  1  0  0  0
 59 62  1  0  0  0
 60132  1  0  0  0
 60133  1  0  0  0
 60134  1  0  0  0
 61135  1  0  0  0
 61136  1  0  0  0
 61137  1  0  0  0
 62138  1  0  0  0
 62139  1  0  0  0
 62140  1  0  0  0
 63 65  1  0  0  0
 63141  1  0  0  0
 63142  1  0  0  0
 63143  1  0  0  0
 64144  1  0  0  0
 65145  1  0  0  0
 68 82  1  0  0  0
 71 74  2  0  0  0
 71 75  1  0  0  0
 71146  1  0  0  0
 72 74  1  0  0  0
 72 76  2  0  0  0
 72147  1  0  0  0
 73 75  2  0  0  0
 73 76  1  0  0  0
 73148  1  0  0  0
 74 79  1  0  0  0
 75 83  1  0  0  0
 76 86  1  0  0  0
 77 80  1  0  0  0
 77 83  1  0  0  0
 77 85  2  0  0  0
 78 86  1  0  0  0
 78149  1  0  0  0
 78150  1  0  0  0
 78151  1  0  0  0
 79 84  1  0  0  0
 79152  1  0  0  0
 79153  1  0  0  0
 80 81  1  0  0  0
 80154  1  0  0  0
 80155  1  0  0  0
 81 82  1  0  0  0
 81156  1  0  0  0
 81157  1  0  0  0
 82158  1  0  0  0
 82159  1  0  0  0
 83160  1  0  0  0
 84161  1  0  0  0
M  ISO  4   1 100  68 101  82 101  84 100
M  END
> <chiral flag>
0

> <version>
0

> <s_m_source_file>
/data/baiqing/PycharmProjects/Reinvent-master-3.2/result/LINK_invent/BTK/process_docking_weight1_custom_product_contain_oxygen_bond_distance_aromatic_linkinvent_7_9_3/rearranged_h_0101.sdf

> <i_m_source_file_index>
4

> <r_mmod_Potential_Energy-OPLS-2005>
103.252861022949

> <r_mmod_Stretch_Energy-OPLS-2005>
44.4140663146973

> <r_mmod_Bend_Energy-OPLS-2005>
353.400695800781

> <r_mmod_Torsional_Energy-OPLS-2005>
220.185989379883

> <r_mmod_Improper_Torsional_Energy-OPLS-2005>
3.93146061897278

> <r_mmod_Van_der_Waal_Energy-OPLS-2005>
181.875839233398

> <r_mmod_Electrostatic_Energy-OPLS-2005>
-453.333648681641

> <r_mmod_Solvation_Energy-OPLS-2005>
-258.217102050781

> <b_mmod_Minimization_Converged-OPLS-2005>
0

> <r_mmod_RMS_Derivative-OPLS-2005>
3.17686581611633

$$$$
4
                    3D
 Structure written by MMmdl.
154162  0  0  1  0            999 V2000
  -30.6527  -14.7656   20.5214 C   0  0  0  0  0  0
  -30.4234  -12.4845   19.4935 C   0  0  0  0  0  0
  -29.5047  -12.5392   18.2538 C   0  0  0  0  0  0
  -28.0342  -12.3549   18.6679 C   0  0  0  0  0  0
  -27.6451  -13.2455   19.8789 C   0  0  2  0  0  0
  -28.6933  -13.1648   21.0150 C   0  0  0  0  0  0
  -25.2363  -13.8148   20.5539 C   0  0  0  0  0  0
  -24.1710  -13.0367   20.9089 C   0  0  0  0  0  0
  -24.6396  -11.6886   20.8754 C   0  0  0  0  0  0
  -23.9092  -10.4257   21.0409 C   0  0  0  0  0  0
  -24.3634   -9.4177   21.9193 C   0  0  0  0  0  0
  -23.6298   -8.2221   22.0762 C   0  0  0  0  0  0
  -22.4281   -8.0267   21.3548 C   0  0  0  0  0  0
  -21.9924   -9.0239   20.4647 C   0  0  0  0  0  0
  -22.7264  -10.2108   20.3054 C   0  0  0  0  0  0
  -21.6850   -6.0730   22.5279 C   0  0  0  0  0  0
  -21.4015   -6.5636   23.8211 C   0  0  0  0  0  0
  -21.3656   -5.6788   24.9174 C   0  0  0  0  0  0
  -21.6043   -4.3052   24.7224 C   0  0  0  0  0  0
  -21.8819   -3.8142   23.4347 C   0  0  0  0  0  0
  -21.9194   -4.6960   22.3402 C   0  0  0  0  0  0
  -22.7741  -13.5144   21.1792 C   0  0  0  0  0  0
  -22.1662   -4.2145   21.0980 F   0  0  0  0  0  0
  -21.5629   -3.4536   25.7738 F   0  0  0  0  0  0
  -29.9933  -13.5451   20.4480 N   0  0  0  0  0  0
  -26.2949  -12.9457   20.3475 N   0  0  0  0  0  0
  -25.9371  -11.6573   20.5916 N   0  0  0  0  0  0
  -22.0441  -12.8145   22.0401 N   0  0  0  0  0  0
  -25.3818  -15.1826   20.3717 N   0  0  0  0  0  0
  -31.7446  -14.8782   19.9532 O   0  0  0  0  0  0
  -21.6638   -6.8873   21.4241 O   0  0  0  0  0  0
  -22.3412  -14.5467   20.6693 O   0  0  0  0  0  0
  -24.6320  -31.8521   23.1938 C   0  0  0  0  0  0
  -25.9132  -32.4731   23.8294 C   0  0  1  0  0  0
  -27.2278  -27.2369   20.1337 C   0  0  0  0  0  0
  -25.5933  -33.8539   24.2234 N   0  0  0  0  0  0
  -23.4304  -30.4689   21.5381 C   0  0  2  0  0  0
  -24.8796  -28.9060   20.1071 C   0  0  0  0  0  0
  -22.7504  -29.4572   22.4913 C   0  0  0  0  0  0
  -18.0291  -28.1383   22.8477 C   0  0  0  0  0  0
  -24.1493  -36.7274   23.2639 C   0  0  0  0  0  0
  -25.9764  -30.7545   21.3776 C   0  0  0  0  0  0
  -26.0475  -29.3737   20.7205 C   0  0  0  0  0  0
  -27.2188  -28.5491   20.7227 C   0  0  0  0  0  0
  -26.0367  -26.8328   19.4939 C   0  0  0  0  0  0
  -24.8806  -27.6457   19.4836 C   0  0  0  0  0  0
  -23.6489  -29.7946   20.1558 C   0  0  0  0  0  0
  -25.4124  -36.3063   24.0321 C   0  0  1  0  0  0
  -20.5898  -28.3697   23.1275 C   0  0  2  0  0  0
  -20.6786  -26.9415   22.5413 C   0  0  0  0  0  0
  -19.5762  -26.6390   21.5213 C   0  0  0  0  0  0
  -18.1941  -26.7927   22.1619 C   0  0  0  0  0  0
  -19.1543  -28.8857   23.2863 C   0  0  0  0  0  0
  -18.9467  -30.1460   23.8875 C   0  0  0  0  0  0
  -17.6466  -30.6584   24.0561 C   0  0  0  0  0  0
  -25.9065  -34.9429   23.5086 C   0  0  0  0  0  0
  -16.5357  -29.9083   23.6333 C   0  0  0  0  0  0
  -16.7278  -28.6504   23.0348 C   0  0  0  0  0  0
  -26.4498  -31.6563   25.0689 C   0  0  0  0  0  0
  -25.3702  -31.3734   26.1400 C   0  0  0  0  0  0
  -27.0341  -30.2965   24.6195 C   0  0  0  0  0  0
  -27.6053  -32.4313   25.7452 C   0  0  0  0  0  0
  -27.5587  -37.1789   24.8464 C   0  0  0  0  0  0
  -21.4210  -29.3031   22.3652 N   0  0  0  0  0  0
  -26.4299  -37.3764   23.9406 N   0  0  0  0  0  0
  -24.6986  -31.0447   22.0929 N   0  0  0  0  0  0
  -23.4186  -28.8132   23.3040 O   0  0  0  0  0  0
  -28.3450  -26.3713   20.2383 O   0  0  0  0  0  0
  -26.5645  -34.8903   22.4661 O   0  0  0  0  0  0
  -23.5467  -32.1376   23.7215 O   0  0  0  0  0  0
  -27.1338  -18.3829   21.4227 C   0  0  0  0  0  0
  -27.6177  -19.6232   20.9766 C   0  0  0  0  0  0
  -29.7769  -18.5600   20.6093 C   0  0  0  0  0  0
  -29.3189  -17.2477   21.0854 C   0  0  0  0  0  0
  -27.9602  -17.2434   21.5228 C   0  0  0  0  0  0
  -28.9548  -19.7785   20.5770 C   0  0  0  0  0  0
  -30.2052  -15.9897   21.4603 C   0  0  0  0  0  0
  -28.0291  -23.5754   20.3713 C   0  0  0  0  0  0
  -29.0288  -22.3588   20.8352 C   0  0  0  0  0  0
  -28.4663  -24.9788   19.6610 C   0  0  0  0  0  0
  -30.6522  -15.9645   22.6492 N   0  0  0  0  0  0
  -27.3916  -16.1512   22.1782 N   0  0  0  0  0  0
  -29.3562  -21.0733   20.1150 O   0  0  0  0  0  0
  -31.4652  -12.5892   19.1884 H   0  0  0  0  0  0
  -30.3643  -11.5037   19.9687 H   0  0  0  0  0  0
  -29.7902  -11.7705   17.5348 H   0  0  0  0  0  0
  -29.6271  -13.4969   17.7465 H   0  0  0  0  0  0
  -27.8950  -11.3041   18.9252 H   0  0  0  0  0  0
  -27.3724  -12.5503   17.8237 H   0  0  0  0  0  0
  -27.6413  -14.2744   19.5168 H   0  0  0  0  0  0
  -28.7374  -12.1550   21.4261 H   0  0  0  0  0  0
  -28.4250  -13.8060   21.8501 H   0  0  0  0  0  0
  -25.2774   -9.5649   22.4778 H   0  0  0  0  0  0
  -23.9993   -7.4614   22.7490 H   0  0  0  0  0  0
  -21.0851   -8.8764   19.8959 H   0  0  0  0  0  0
  -22.3726  -10.9647   19.6162 H   0  0  0  0  0  0
  -21.2009   -7.6145   23.9711 H   0  0  0  0  0  0
  -21.1478   -6.0522   25.9075 H   0  0  0  0  0  0
  -22.0604   -2.7605   23.2846 H   0  0  0  0  0  0
  -22.4079  -11.9795   22.4744 H   0  0  0  0  0  0
  -21.1083  -13.1184   22.2678 H   0  0  0  0  0  0
  -24.5901  -15.7449   20.6588 H   0  0  0  0  0  0
  -26.2498  -15.5591   20.7673 H   0  0  0  0  0  0
  -26.7185  -32.5351   23.1020 H   0  0  0  0  0  0
  -25.0064  -33.9682   25.0367 H   0  0  0  0  0  0
  -22.7268  -31.2904   21.3878 H   0  0  0  0  0  0
  -23.3761  -35.9597   23.3296 H   0  0  0  0  0  0
  -24.3580  -36.8910   22.2053 H   0  0  0  0  0  0
  -23.7240  -37.6466   23.6672 H   0  0  0  0  0  0
  -26.1195  -31.5125   20.6066 H   0  0  0  0  0  0
  -26.8534  -30.8054   22.0114 H   0  0  0  0  0  0
  -28.1126  -28.8978   21.2206 H   0  0  0  0  0  0
  -25.9712  -25.8602   19.0291 H   0  0  0  0  0  0
  -23.9828  -27.2800   19.0046 H   0  0  0  0  0  0
  -23.7698  -30.5680   19.3969 H   0  0  0  0  0  0
  -22.7673  -29.2257   19.8542 H   0  0  0  0  0  0
  -25.1309  -36.1917   25.0813 H   0  0  0  0  0  0
  -20.9975  -28.3289   24.1403 H   0  0  0  0  0  0
  -20.5725  -26.2294   23.3613 H   0  0  0  0  0  0
  -21.6650  -26.7469   22.1181 H   0  0  0  0  0  0
  -19.6929  -25.6308   21.1230 H   0  0  0  0  0  0
  -19.6699  -27.3205   20.6749 H   0  0  0  0  0  0
  -17.4216  -26.6672   21.4015 H   0  0  0  0  0  0
  -18.0330  -26.0068   22.9012 H   0  0  0  0  0  0
  -19.7947  -30.7279   24.2227 H   0  0  0  0  0  0
  -17.5027  -31.6257   24.5177 H   0  0  0  0  0  0
  -15.5360  -30.2982   23.7674 H   0  0  0  0  0  0
  -15.8675  -28.0825   22.7073 H   0  0  0  0  0  0
  -24.5894  -30.7060   25.7736 H   0  0  0  0  0  0
  -24.8856  -32.2904   26.4758 H   0  0  0  0  0  0
  -25.8002  -30.8963   27.0213 H   0  0  0  0  0  0
  -26.2930  -29.6701   24.1212 H   0  0  0  0  0  0
  -27.4002  -29.7244   25.4732 H   0  0  0  0  0  0
  -27.8817  -30.4223   23.9454 H   0  0  0  0  0  0
  -27.2668  -33.3633   26.1990 H   0  0  0  0  0  0
  -28.3869  -32.6847   25.0275 H   0  0  0  0  0  0
  -28.0703  -31.8453   26.5389 H   0  0  0  0  0  0
  -28.2608  -38.0086   24.7524 H   0  0  0  0  0  0
  -28.1089  -36.2618   24.6292 H   0  0  0  0  0  0
  -27.2294  -37.1434   25.8865 H   0  0  0  0  0  0
  -20.9413  -29.8714   21.6812 H   0  0  0  0  0  0
  -26.0180  -38.2836   24.1414 H   0  0  0  0  0  0
  -26.1045  -18.3321   21.7489 H   0  0  0  0  0  0
  -26.9410  -20.4652   20.9444 H   0  0  0  0  0  0
  -30.8151  -18.6483   20.3242 H   0  0  0  0  0  0
  -27.5086  -23.8863   21.2776 H   0  0  0  0  0  0
  -27.2387  -23.1278   19.7687 H   0  0  0  0  0  0
  -28.6771  -22.0511   21.8203 H   0  0  0  0  0  0
  -29.9935  -22.8187   21.0507 H   0  0  0  0  0  0
  -28.0108  -25.0024   18.6707 H   0  0  0  0  0  0
  -29.5276  -24.8727   19.4370 H   0  0  0  0  0  0
  -30.3393  -16.7779   23.1660 H   0  0  0  0  0  0
  -26.5654  -16.3561   22.7312 H   0  0  0  0  0  0
  -28.0318  -15.5775   22.7164 H   0  0  0  0  0  0
  1 25  1  0  0  0
  1 30  2  0  0  0
  1 77  1  0  0  0
  2  3  1  0  0  0
  2 25  1  0  0  0
  2 84  1  0  0  0
  2 85  1  0  0  0
  3  4  1  0  0  0
  3 86  1  0  0  0
  3 87  1  0  0  0
  4  5  1  0  0  0
  4 88  1  0  0  0
  4 89  1  0  0  0
  5  6  1  0  0  0
  5 26  1  0  0  0
  5 90  1  0  0  0
  6 25  1  0  0  0
  6 91  1  0  0  0
  6 92  1  0  0  0
  7  8  2  0  0  0
  7 26  1  0  0  0
  7 29  1  0  0  0
  8  9  1  0  0  0
  8 22  1  0  0  0
  9 10  1  0  0  0
  9 27  2  0  0  0
 10 11  2  0  0  0
 10 15  1  0  0  0
 11 12  1  0  0  0
 11 93  1  0  0  0
 12 13  2  0  0  0
 12 94  1  0  0  0
 13 14  1  0  0  0
 13 31  1  0  0  0
 14 15  2  0  0  0
 14 95  1  0  0  0
 15 96  1  0  0  0
 16 17  2  0  0  0
 16 21  1  0  0  0
 16 31  1  0  0  0
 17 18  1  0  0  0
 17 97  1  0  0  0
 18 19  2  0  0  0
 18 98  1  0  0  0
 19 20  1  0  0  0
 19 24  1  0  0  0
 20 21  2  0  0  0
 20 99  1  0  0  0
 21 23  1  0  0  0
 22 28  1  0  0  0
 22 32  2  0  0  0
 26 27  1  0  0  0
 28100  1  0  0  0
 28101  1  0  0  0
 29102  1  0  0  0
 29103  1  0  0  0
 33 34  1  0  0  0
 33 66  1  0  0  0
 33 70  2  0  0  0
 34 36  1  0  0  0
 34 59  1  0  0  0
 34104  1  0  0  0
 35 44  2  0  0  0
 35 45  1  0  0  0
 35 68  1  0  0  0
 36 56  1  0  0  0
 36105  1  0  0  0
 37 39  1  0  0  0
 37 47  1  0  0  0
 37 66  1  0  0  0
 37106  1  0  0  0
 38 43  2  0  0  0
 38 46  1  0  0  0
 38 47  1  0  0  0
 39 64  1  0  0  0
 39 67  2  0  0  0
 40 52  1  0  0  0
 40 53  2  0  0  0
 40 58  1  0  0  0
 41107  1  0  0  0
 41108  1  0  0  0
 41109  1  0  0  0
 41 48  1  0  0  0
 42 43  1  0  0  0
 42 66  1  0  0  0
 42110  1  0  0  0
 42111  1  0  0  0
 43 44  1  0  0  0
 44112  1  0  0  0
 45 46  2  0  0  0
 45113  1  0  0  0
 46114  1  0  0  0
 47115  1  0  0  0
 47116  1  0  0  0
 48 56  1  0  0  0
 48 65  1  0  0  0
 48117  1  0  0  0
 49 50  1  0  0  0
 49 53  1  0  0  0
 49 64  1  0  0  0
 49118  1  0  0  0
 50 51  1  0  0  0
 50119  1  0  0  0
 50120  1  0  0  0
 51 52  1  0  0  0
 51121  1  0  0  0
 51122  1  0  0  0
 52123  1  0  0  0
 52124  1  0  0  0
 53 54  1  0  0  0
 54 55  2  0  0  0
 54125  1  0  0  0
 55 57  1  0  0  0
 55126  1  0  0  0
 56 69  2  0  0  0
 57 58  2  0  0  0
 57127  1  0  0  0
 58128  1  0  0  0
 59 60  1  0  0  0
 59 61  1  0  0  0
 59 62  1  0  0  0
 60129  1  0  0  0
 60130  1  0  0  0
 60131  1  0  0  0
 61132  1  0  0  0
 61133  1  0  0  0
 61134  1  0  0  0
 62135  1  0  0  0
 62136  1  0  0  0
 62137  1  0  0  0
 63 65  1  0  0  0
 63138  1  0  0  0
 63139  1  0  0  0
 63140  1  0  0  0
 64141  1  0  0  0
 65142  1  0  0  0
 68 80  1  0  0  0
 71 72  2  0  0  0
 71 75  1  0  0  0
 71143  1  0  0  0
 72 76  1  0  0  0
 72144  1  0  0  0
 73 74  1  0  0  0
 73 76  2  0  0  0
 73145  1  0  0  0
 74 75  2  0  0  0
 74 77  1  0  0  0
 75 82  1  0  0  0
 76 83  1  0  0  0
 77 81  2  0  0  0
 78 79  1  0  0  0
 78 80  1  0  0  0
 78146  1  0  0  0
 78147  1  0  0  0
 79 83  1  0  0  0
 79148  1  0  0  0
 79149  1  0  0  0
 80150  1  0  0  0
 80151  1  0  0  0
 81152  1  0  0  0
 82153  1  0  0  0
 82154  1  0  0  0
M  ISO  4   1 100  68 101  77 100  80 101
M  END
> <chiral flag>
0

> <version>
0

> <s_m_source_file>
/data/baiqing/PycharmProjects/Reinvent-master-3.2/result/LINK_invent/BTK/process_docking_weight1_custom_product_contain_oxygen_bond_distance_aromatic_linkinvent_7_9_3/rearranged_h_0101.sdf

> <i_m_source_file_index>
5

> <r_mmod_Potential_Energy-OPLS-2005>
509.413604736328

> <r_mmod_Stretch_Energy-OPLS-2005>
165.516830444336

> <r_mmod_Bend_Energy-OPLS-2005>
265.249572753906

> <r_mmod_Torsional_Energy-OPLS-2005>
281.657287597656

> <r_mmod_Improper_Torsional_Energy-OPLS-2005>
16.5991802215576

> <r_mmod_Van_der_Waal_Energy-OPLS-2005>
140.243515014648

> <r_mmod_Electrostatic_Energy-OPLS-2005>
-246.170059204102

> <r_mmod_Solvation_Energy-OPLS-2005>
-208.37467956543

> <b_mmod_Minimization_Converged-OPLS-2005>
0

> <r_mmod_RMS_Derivative-OPLS-2005>
0.99036568403244

$$$$
5
                    3D
 Structure written by MMmdl.
160169  0  0  1  0            999 V2000
  -30.7351  -14.4614   20.5864 C   0  0  0  0  0  0
  -30.4125  -12.3116   19.4089 C   0  0  0  0  0  0
  -29.4804  -12.4970   18.1942 C   0  0  0  0  0  0
  -28.0043  -12.3699   18.6152 C   0  0  0  0  0  0
  -27.6573  -13.2146   19.8698 C   0  0  2  0  0  0
  -28.7055  -13.0064   20.9867 C   0  0  0  0  0  0
  -25.2565  -13.8184   20.5709 C   0  0  0  0  0  0
  -24.1838  -13.0452   20.9213 C   0  0  0  0  0  0
  -24.6404  -11.6919   20.8765 C   0  0  0  0  0  0
  -23.9066  -10.4300   21.0404 C   0  0  0  0  0  0
  -24.3611   -9.4216   21.9178 C   0  0  0  0  0  0
  -23.6292   -8.2243   22.0743 C   0  0  0  0  0  0
  -22.4267   -8.0286   21.3534 C   0  0  0  0  0  0
  -21.9911   -9.0261   20.4638 C   0  0  0  0  0  0
  -22.7240  -10.2141   20.3047 C   0  0  0  0  0  0
  -21.6849   -6.0726   22.5278 C   0  0  0  0  0  0
  -21.4013   -6.5634   23.8217 C   0  0  0  0  0  0
  -21.3659   -5.6792   24.9191 C   0  0  0  0  0  0
  -21.6043   -4.3053   24.7240 C   0  0  0  0  0  0
  -21.8825   -3.8133   23.4370 C   0  0  0  0  0  0
  -21.9200   -4.6952   22.3412 C   0  0  0  0  0  0
  -22.7850  -13.5220   21.1879 C   0  0  0  0  0  0
  -22.1659   -4.2127   21.0990 F   0  0  0  0  0  0
  -21.5633   -3.4544   25.7762 F   0  0  0  0  0  0
  -30.0312  -13.3071   20.4246 N   0  0  0  0  0  0
  -26.3010  -12.9370   20.3388 N   0  0  0  0  0  0
  -25.9327  -11.6524   20.5794 N   0  0  0  0  0  0
  -22.0492  -12.8199   22.0424 N   0  0  0  0  0  0
  -25.4289  -15.1897   20.4090 N   0  0  0  0  0  0
  -31.8527  -14.6254   20.0874 O   0  0  0  0  0  0
  -21.6639   -6.8870   21.4236 O   0  0  0  0  0  0
  -22.3529  -14.5527   20.6739 O   0  0  0  0  0  0
  -24.6185  -31.8688   23.2116 C   0  0  0  0  0  0
  -25.9091  -32.4820   23.8406 C   0  0  1  0  0  0
  -27.2303  -27.4300   20.1128 C   0  0  0  0  0  0
  -25.5962  -33.8616   24.2352 N   0  0  0  0  0  0
  -23.4070  -30.4963   21.5485 C   0  0  2  0  0  0
  -24.8539  -28.9605   20.1144 C   0  0  0  0  0  0
  -22.7436  -29.4710   22.4976 C   0  0  0  0  0  0
  -18.0286  -28.1424   22.8494 C   0  0  0  0  0  0
  -24.1495  -36.7300   23.2629 C   0  0  0  0  0  0
  -25.9351  -30.8318   21.3702 C   0  0  0  0  0  0
  -26.0129  -29.4648   20.7204 C   0  0  0  0  0  0
  -27.2062  -28.7050   20.7216 C   0  0  0  0  0  0
  -26.0637  -26.9452   19.4885 C   0  0  0  0  0  0
  -24.8739  -27.6996   19.4911 C   0  0  0  0  0  0
  -23.6183  -29.8338   20.1612 C   0  0  0  0  0  0
  -25.4112  -36.3114   24.0332 C   0  0  1  0  0  0
  -20.5867  -28.3749   23.1301 C   0  0  2  0  0  0
  -20.6801  -26.9485   22.5422 C   0  0  0  0  0  0
  -19.5776  -26.6425   21.5240 C   0  0  0  0  0  0
  -18.1935  -26.7967   22.1621 C   0  0  0  0  0  0
  -19.1528  -28.8892   23.2886 C   0  0  0  0  0  0
  -18.9468  -30.1470   23.8951 C   0  0  0  0  0  0
  -17.6487  -30.6628   24.0594 C   0  0  0  0  0  0
  -25.9056  -34.9474   23.5142 C   0  0  0  0  0  0
  -16.5371  -29.9156   23.6322 C   0  0  0  0  0  0
  -16.7278  -28.6560   23.0351 C   0  0  0  0  0  0
  -26.4529  -31.6572   25.0717 C   0  0  0  0  0  0
  -25.3818  -31.3616   26.1473 C   0  0  0  0  0  0
  -27.0371  -30.3029   24.6079 C   0  0  0  0  0  0
  -27.6129  -32.4259   25.7476 C   0  0  0  0  0  0
  -27.5579  -37.1797   24.8472 C   0  0  0  0  0  0
  -21.4164  -29.3091   22.3693 N   0  0  0  0  0  0
  -26.4302  -37.3789   23.9393 N   0  0  0  0  0  0
  -24.6707  -31.0790   22.1026 N   0  0  0  0  0  0
  -23.4182  -28.8257   23.3038 O   0  0  0  0  0  0
  -28.3733  -26.6633   20.0909 O   0  0  0  0  0  0
  -26.5602  -34.8940   22.4690 O   0  0  0  0  0  0
  -23.5373  -32.1440   23.7515 O   0  0  0  0  0  0
  -30.3216  -18.9106   20.4963 C   0  0  0  0  0  0
  -29.7617  -20.2084   20.4333 C   0  0  0  0  0  0
  -28.4969  -19.7493   22.4458 C   0  0  0  0  0  0
  -30.0033  -18.0227   21.5497 C   0  0  0  0  0  0
  -28.8591  -20.6720   21.4273 C   0  0  0  0  0  0
  -29.0579  -18.4506   22.5174 C   0  0  0  0  0  0
  -28.7812  -23.1207   20.7914 C   0  0  0  0  0  0
  -26.8791  -23.8624   22.0413 C   0  0  0  0  0  0
  -27.0789  -22.3445   22.1585 C   0  0  0  0  0  0
  -27.8280  -24.3219   20.9247 C   0  0  1  0  0  0
  -30.7912  -16.7048   21.6853 C   0  0  0  0  0  0
  -28.4927  -25.7193   21.1726 C   0  0  0  0  0  0
  -28.2997  -22.0138   21.4137 N   0  0  0  0  0  0
  -28.6923  -17.6209   23.5787 N   0  0  0  0  0  0
  -30.1282  -15.4567   21.2602 N   0  0  0  0  0  0
  -29.8496  -23.2094   20.1757 O   0  0  0  0  0  0
  -31.4558  -12.3997   19.1009 H   0  0  0  0  0  0
  -30.3123  -11.3047   19.8189 H   0  0  0  0  0  0
  -29.7091  -11.7555   17.4283 H   0  0  0  0  0  0
  -29.6497  -13.4709   17.7352 H   0  0  0  0  0  0
  -27.8059  -11.3157   18.8121 H   0  0  0  0  0  0
  -27.3531  -12.6507   17.7845 H   0  0  0  0  0  0
  -27.6970  -14.2607   19.5666 H   0  0  0  0  0  0
  -28.6860  -11.9723   21.3337 H   0  0  0  0  0  0
  -28.4739  -13.6139   21.8611 H   0  0  0  0  0  0
  -25.2750   -9.5698   22.4769 H   0  0  0  0  0  0
  -24.0005   -7.4626   22.7452 H   0  0  0  0  0  0
  -21.0847   -8.8804   19.8919 H   0  0  0  0  0  0
  -22.3712  -10.9700   19.6169 H   0  0  0  0  0  0
  -21.1996   -7.6139   23.9726 H   0  0  0  0  0  0
  -21.1465   -6.0514   25.9095 H   0  0  0  0  0  0
  -22.0598   -2.7589   23.2892 H   0  0  0  0  0  0
  -22.4126  -11.9869   22.4803 H   0  0  0  0  0  0
  -21.1098  -13.1196   22.2627 H   0  0  0  0  0  0
  -24.6687  -15.8516   20.5262 H   0  0  0  0  0  0
  -26.2838  -15.6229   20.0811 H   0  0  0  0  0  0
  -26.7149  -32.5566   23.1149 H   0  0  0  0  0  0
  -25.0186  -33.9748   25.0561 H   0  0  0  0  0  0
  -22.7008  -31.3163   21.4116 H   0  0  0  0  0  0
  -23.3772  -35.9623   23.3317 H   0  0  0  0  0  0
  -24.3583  -36.8905   22.2043 H   0  0  0  0  0  0
  -23.7243  -37.6495   23.6654 H   0  0  0  0  0  0
  -26.0499  -31.5995   20.6026 H   0  0  0  0  0  0
  -26.8191  -30.8816   21.9936 H   0  0  0  0  0  0
  -28.1018  -29.0864   21.1931 H   0  0  0  0  0  0
  -26.0748  -25.9842   18.9950 H   0  0  0  0  0  0
  -23.9892  -27.3102   19.0054 H   0  0  0  0  0  0
  -23.7394  -30.6163   19.4101 H   0  0  0  0  0  0
  -22.7396  -29.2619   19.8590 H   0  0  0  0  0  0
  -25.1277  -36.1977   25.0820 H   0  0  0  0  0  0
  -20.9930  -28.3371   24.1435 H   0  0  0  0  0  0
  -20.5789  -26.2387   23.3634 H   0  0  0  0  0  0
  -21.6661  -26.7591   22.1158 H   0  0  0  0  0  0
  -19.6990  -25.6331   21.1298 H   0  0  0  0  0  0
  -19.6727  -27.3232   20.6766 H   0  0  0  0  0  0
  -17.4210  -26.6720   21.4009 H   0  0  0  0  0  0
  -18.0310  -26.0102   22.9014 H   0  0  0  0  0  0
  -19.7943  -30.7217   24.2396 H   0  0  0  0  0  0
  -17.5061  -31.6323   24.5184 H   0  0  0  0  0  0
  -15.5369  -30.3099   23.7615 H   0  0  0  0  0  0
  -15.8658  -28.0901   22.7057 H   0  0  0  0  0  0
  -24.6040  -30.6913   25.7782 H   0  0  0  0  0  0
  -24.8963  -32.2737   26.4952 H   0  0  0  0  0  0
  -25.8203  -30.8771   27.0211 H   0  0  0  0  0  0
  -26.2887  -29.6718   24.1269 H   0  0  0  0  0  0
  -27.4297  -29.7322   25.4498 H   0  0  0  0  0  0
  -27.8666  -30.4323   23.9120 H   0  0  0  0  0  0
  -27.2803  -33.3572   26.2054 H   0  0  0  0  0  0
  -28.3959  -32.6757   25.0307 H   0  0  0  0  0  0
  -28.0785  -31.8373   26.5383 H   0  0  0  0  0  0
  -28.2598  -38.0097   24.7523 H   0  0  0  0  0  0
  -28.1084  -36.2625   24.6307 H   0  0  0  0  0  0
  -27.2301  -37.1453   25.8881 H   0  0  0  0  0  0
  -20.9366  -29.8831   21.6900 H   0  0  0  0  0  0
  -26.0215  -38.2871   24.1414 H   0  0  0  0  0  0
  -31.0387  -18.6126   19.7411 H   0  0  0  0  0  0
  -30.0502  -20.8396   19.6046 H   0  0  0  0  0  0
  -27.7955  -20.0366   23.2159 H   0  0  0  0  0  0
  -27.1339  -24.3311   22.9939 H   0  0  0  0  0  0
  -25.8371  -24.1093   21.8285 H   0  0  0  0  0  0
  -26.2310  -21.8044   21.7322 H   0  0  0  0  0  0
  -27.1548  -22.0768   23.2128 H   0  0  0  0  0  0
  -27.2731  -24.3471   19.9882 H   0  0  0  0  0  0
  -31.0696  -16.5770   22.7321 H   0  0  0  0  0  0
  -31.7432  -16.8359   21.1656 H   0  0  0  0  0  0
  -29.5606  -25.5972   21.3597 H   0  0  0  0  0  0
  -28.1087  -26.1755   22.0873 H   0  0  0  0  0  0
  -27.9167  -17.8589   24.1898 H   0  0  0  0  0  0
  -28.9180  -16.6329   23.5699 H   0  0  0  0  0  0
  -29.1887  -15.2898   21.5836 H   0  0  0  0  0  0
  1 25  1  0  0  0
  1 30  2  0  0  0
  1 85  1  0  0  0
  2  3  1  0  0  0
  2 25  1  0  0  0
  2 87  1  0  0  0
  2 88  1  0  0  0
  3  4  1  0  0  0
  3 89  1  0  0  0
  3 90  1  0  0  0
  4  5  1  0  0  0
  4 91  1  0  0  0
  4 92  1  0  0  0
  5  6  1  0  0  0
  5 26  1  0  0  0
  5 93  1  0  0  0
  6 25  1  0  0  0
  6 94  1  0  0  0
  6 95  1  0  0  0
  7  8  2  0  0  0
  7 26  1  0  0  0
  7 29  1  0  0  0
  8  9  1  0  0  0
  8 22  1  0  0  0
  9 10  1  0  0  0
  9 27  2  0  0  0
 10 11  2  0  0  0
 10 15  1  0  0  0
 11 12  1  0  0  0
 11 96  1  0  0  0
 12 13  2  0  0  0
 12 97  1  0  0  0
 13 14  1  0  0  0
 13 31  1  0  0  0
 14 15  2  0  0  0
 14 98  1  0  0  0
 15 99  1  0  0  0
 16 17  2  0  0  0
 16 21  1  0  0  0
 16 31  1  0  0  0
 17 18  1  0  0  0
 17100  1  0  0  0
 18 19  2  0  0  0
 18101  1  0  0  0
 19 20  1  0  0  0
 19 24  1  0  0  0
 20 21  2  0  0  0
 20102  1  0  0  0
 21 23  1  0  0  0
 22 28  1  0  0  0
 22 32  2  0  0  0
 26 27  1  0  0  0
 28103  1  0  0  0
 28104  1  0  0  0
 29105  1  0  0  0
 29106  1  0  0  0
 33 34  1  0  0  0
 33 66  1  0  0  0
 33 70  2  0  0  0
 34 36  1  0  0  0
 34 59  1  0  0  0
 34107  1  0  0  0
 35 44  2  0  0  0
 35 45  1  0  0  0
 35 68  1  0  0  0
 36 56  1  0  0  0
 36108  1  0  0  0
 37 39  1  0  0  0
 37 47  1  0  0  0
 37 66  1  0  0  0
 37109  1  0  0  0
 38 43  2  0  0  0
 38 46  1  0  0  0
 38 47  1  0  0  0
 39 64  1  0  0  0
 39 67  2  0  0  0
 40 52  1  0  0  0
 40 53  2  0  0  0
 40 58  1  0  0  0
 41110  1  0  0  0
 41111  1  0  0  0
 41112  1  0  0  0
 41 48  1  0  0  0
 42 43  1  0  0  0
 42 66  1  0  0  0
 42113  1  0  0  0
 42114  1  0  0  0
 43 44  1  0  0  0
 44115  1  0  0  0
 45 46  2  0  0  0
 45116  1  0  0  0
 46117  1  0  0  0
 47118  1  0  0  0
 47119  1  0  0  0
 48 56  1  0  0  0
 48 65  1  0  0  0
 48120  1  0  0  0
 49 50  1  0  0  0
 49 53  1  0  0  0
 49 64  1  0  0  0
 49121  1  0  0  0
 50 51  1  0  0  0
 50122  1  0  0  0
 50123  1  0  0  0
 51 52  1  0  0  0
 51124  1  0  0  0
 51125  1  0  0  0
 52126  1  0  0  0
 52127  1  0  0  0
 53 54  1  0  0  0
 54 55  2  0  0  0
 54128  1  0  0  0
 55 57  1  0  0  0
 55129  1  0  0  0
 56 69  2  0  0  0
 57 58  2  0  0  0
 57130  1  0  0  0
 58131  1  0  0  0
 59 60  1  0  0  0
 59 61  1  0  0  0
 59 62  1  0  0  0
 60132  1  0  0  0
 60133  1  0  0  0
 60134  1  0  0  0
 61135  1  0  0  0
 61136  1  0  0  0
 61137  1  0  0  0
 62138  1  0  0  0
 62139  1  0  0  0
 62140  1  0  0  0
 63 65  1  0  0  0
 63141  1  0  0  0
 63142  1  0  0  0
 63143  1  0  0  0
 64144  1  0  0  0
 65145  1  0  0  0
 68 82  1  0  0  0
 71 72  2  0  0  0
 71 74  1  0  0  0
 71146  1  0  0  0
 72 75  1  0  0  0
 72147  1  0  0  0
 73 75  2  0  0  0
 73 76  1  0  0  0
 73148  1  0  0  0
 74 76  2  0  0  0
 74 81  1  0  0  0
 75 83  1  0  0  0
 76 84  1  0  0  0
 77 80  1  0  0  0
 77 83  1  0  0  0
 77 86  2  0  0  0
 78 79  1  0  0  0
 78 80  1  0  0  0
 78149  1  0  0  0
 78150  1  0  0  0
 79 83  1  0  0  0
 79151  1  0  0  0
 79152  1  0  0  0
 80 82  1  0  0  0
 80153  1  0  0  0
 81 85  1  0  0  0
 81154  1  0  0  0
 81155  1  0  0  0
 82156  1  0  0  0
 82157  1  0  0  0
 84158  1  0  0  0
 84159  1  0  0  0
 85160  1  0  0  0
M  ISO  4   1 100  68 101  82 101  85 100
M  END
> <chiral flag>
0

> <version>
0

> <s_m_source_file>
/data/baiqing/PycharmProjects/Reinvent-master-3.2/result/LINK_invent/BTK/process_docking_weight1_custom_product_contain_oxygen_bond_distance_aromatic_linkinvent_7_9_3/rearranged_h_0101.sdf

> <i_m_source_file_index>
6

> <r_mmod_Potential_Energy-OPLS-2005>
15.3961124420166

> <r_mmod_Stretch_Energy-OPLS-2005>
44.6129989624023

> <r_mmod_Bend_Energy-OPLS-2005>
129.860748291016

> <r_mmod_Torsional_Energy-OPLS-2005>
279.585296630859

> <r_mmod_Improper_Torsional_Energy-OPLS-2005>
3.98136734962463

> <r_mmod_Van_der_Waal_Energy-OPLS-2005>
153.399215698242

> <r_mmod_Electrostatic_Energy-OPLS-2005>
-380.664367675781

> <r_mmod_Solvation_Energy-OPLS-2005>
-228.395904541016

> <b_mmod_Minimization_Converged-OPLS-2005>
0

> <r_mmod_RMS_Derivative-OPLS-2005>
3.55561494827271

$$$$
6
                    3D
 Structure written by MMmdl.
164172  0  0  1  0            999 V2000
  -30.7261  -14.3890   20.6858 C   0  0  0  0  0  0
  -30.4227  -12.3046   19.3835 C   0  0  0  0  0  0
  -29.4795  -12.5371   18.1887 C   0  0  0  0  0  0
  -28.0050  -12.3892   18.6100 C   0  0  0  0  0  0
  -27.6685  -13.1980   19.8915 C   0  0  2  0  0  0
  -28.7122  -12.9087   20.9943 C   0  0  0  0  0  0
  -25.2608  -13.8144   20.5720 C   0  0  0  0  0  0
  -24.1838  -13.0426   20.9180 C   0  0  0  0  0  0
  -24.6379  -11.6898   20.8732 C   0  0  0  0  0  0
  -23.9039  -10.4292   21.0405 C   0  0  0  0  0  0
  -24.3608   -9.4214   21.9179 C   0  0  0  0  0  0
  -23.6297   -8.2239   22.0747 C   0  0  0  0  0  0
  -22.4275   -8.0277   21.3540 C   0  0  0  0  0  0
  -21.9911   -9.0243   20.4635 C   0  0  0  0  0  0
  -22.7220  -10.2139   20.3048 C   0  0  0  0  0  0
  -21.6842   -6.0746   22.5281 C   0  0  0  0  0  0
  -21.4007   -6.5650   23.8214 C   0  0  0  0  0  0
  -21.3663   -5.6802   24.9174 C   0  0  0  0  0  0
  -21.6042   -4.3063   24.7224 C   0  0  0  0  0  0
  -21.8812   -3.8155   23.4341 C   0  0  0  0  0  0
  -21.9191   -4.6973   22.3406 C   0  0  0  0  0  0
  -22.7855  -13.5225   21.1857 C   0  0  0  0  0  0
  -22.1657   -4.2165   21.0979 F   0  0  0  0  0  0
  -21.5640   -3.4550   25.7736 F   0  0  0  0  0  0
  -30.0403  -13.2389   20.4520 N   0  0  0  0  0  0
  -26.3051  -12.9301   20.3460 N   0  0  0  0  0  0
  -25.9297  -11.6458   20.5764 N   0  0  0  0  0  0
  -22.0503  -12.8207   22.0422 N   0  0  0  0  0  0
  -25.4335  -15.1864   20.4143 N   0  0  0  0  0  0
  -31.7682  -14.6648   20.0810 O   0  0  0  0  0  0
  -21.6631   -6.8886   21.4240 O   0  0  0  0  0  0
  -22.3538  -14.5535   20.6715 O   0  0  0  0  0  0
  -24.6142  -31.8693   23.2130 C   0  0  0  0  0  0
  -25.9040  -32.4829   23.8413 C   0  0  1  0  0  0
  -27.2425  -27.4588   20.0569 C   0  0  0  0  0  0
  -25.5897  -33.8630   24.2336 N   0  0  0  0  0  0
  -23.4011  -30.4959   21.5544 C   0  0  2  0  0  0
  -24.8442  -28.9618   20.1206 C   0  0  0  0  0  0
  -22.7403  -29.4673   22.5007 C   0  0  0  0  0  0
  -18.0272  -28.1395   22.8500 C   0  0  0  0  0  0
  -24.1487  -36.7318   23.2632 C   0  0  0  0  0  0
  -25.9304  -30.8338   21.3685 C   0  0  0  0  0  0
  -26.0049  -29.4682   20.7179 C   0  0  0  0  0  0
  -27.2029  -28.7175   20.6967 C   0  0  0  0  0  0
  -26.0495  -26.9515   19.4869 C   0  0  0  0  0  0
  -24.8580  -27.6962   19.5122 C   0  0  0  0  0  0
  -23.6081  -29.8308   20.1684 C   0  0  0  0  0  0
  -25.4106  -36.3112   24.0333 C   0  0  1  0  0  0
  -20.5860  -28.3677   23.1324 C   0  0  2  0  0  0
  -20.6764  -26.9420   22.5415 C   0  0  0  0  0  0
  -19.5742  -26.6406   21.5214 C   0  0  0  0  0  0
  -18.1925  -26.7946   22.1631 C   0  0  0  0  0  0
  -19.1521  -28.8851   23.2914 C   0  0  0  0  0  0
  -18.9452  -30.1456   23.8930 C   0  0  0  0  0  0
  -17.6453  -30.6597   24.0582 C   0  0  0  0  0  0
  -25.9039  -34.9481   23.5132 C   0  0  0  0  0  0
  -16.5345  -29.9103   23.6329 C   0  0  0  0  0  0
  -16.7267  -28.6514   23.0357 C   0  0  0  0  0  0
  -26.4475  -31.6605   25.0740 C   0  0  0  0  0  0
  -25.3743  -31.3704   26.1488 C   0  0  0  0  0  0
  -27.0291  -30.3037   24.6116 C   0  0  0  0  0  0
  -27.6057  -32.4314   25.7499 C   0  0  0  0  0  0
  -27.5594  -37.1802   24.8457 C   0  0  0  0  0  0
  -21.4133  -29.3039   22.3725 N   0  0  0  0  0  0
  -26.4289  -37.3804   23.9424 N   0  0  0  0  0  0
  -24.6669  -31.0801   22.1039 N   0  0  0  0  0  0
  -23.4176  -28.8205   23.3042 O   0  0  0  0  0  0
  -28.4376  -26.7690   19.9880 O   0  0  0  0  0  0
  -26.5605  -34.8931   22.4698 O   0  0  0  0  0  0
  -23.5339  -32.1450   23.7525 O   0  0  0  0  0  0
  -32.0310  -19.3252   19.0686 C   0  0  0  0  0  0
  -32.8904  -20.1134   18.2819 C   0  0  0  0  0  0
  -30.8676  -21.3391   19.7674 C   0  0  0  0  0  0
  -31.0053  -19.9343   19.8211 C   0  0  0  0  0  0
  -32.7566  -21.5148   18.2245 C   0  0  0  0  0  0
  -31.7070  -22.1457   18.9555 C   0  0  0  0  0  0
  -30.0790  -19.1505   20.6896 C   0  0  0  0  0  0
  -33.9891  -23.5151   17.6526 C   0  0  0  0  0  0
  -29.9788  -17.6316   20.4961 C   0  0  0  0  0  0
  -30.2011  -15.3842   21.7434 C   0  0  0  0  0  0
  -30.7079  -16.8389   21.6014 C   0  0  0  0  0  0
  -30.0708  -25.4538   18.6548 C   0  0  0  0  0  0
  -28.6319  -25.9838   18.8050 C   0  0  0  0  0  0
  -30.2591  -24.0532   19.2552 C   0  0  0  0  0  0
  -29.3639  -19.6788   21.5464 O   0  0  0  0  0  0
  -33.6718  -22.1513   17.4103 O   0  0  0  0  0  0
  -31.5139  -23.5113   18.8472 O   0  0  0  0  0  0
  -31.4618  -12.4250   19.0726 H   0  0  0  0  0  0
  -30.3374  -11.2772   19.7399 H   0  0  0  0  0  0
  -29.7093  -11.8364   17.3840 H   0  0  0  0  0  0
  -29.6443  -13.5364   17.7849 H   0  0  0  0  0  0
  -27.8120  -11.3296   18.7816 H   0  0  0  0  0  0
  -27.3491  -12.6910   17.7927 H   0  0  0  0  0  0
  -27.7345  -14.2563   19.6374 H   0  0  0  0  0  0
  -28.6864  -11.8502   21.2572 H   0  0  0  0  0  0
  -28.4704  -13.4230   21.9226 H   0  0  0  0  0  0
  -25.2759   -9.5715   22.4748 H   0  0  0  0  0  0
  -24.0026   -7.4631   22.7461 H   0  0  0  0  0  0
  -21.0850   -8.8742   19.8928 H   0  0  0  0  0  0
  -22.3657  -10.9680   19.6168 H   0  0  0  0  0  0
  -21.1979   -7.6155   23.9723 H   0  0  0  0  0  0
  -21.1497   -6.0533   25.9083 H   0  0  0  0  0  0
  -22.0583   -2.7614   23.2831 H   0  0  0  0  0  0
  -22.4120  -11.9868   22.4811 H   0  0  0  0  0  0
  -21.1110  -13.1208   22.2622 H   0  0  0  0  0  0
  -24.6677  -15.8434   20.5156 H   0  0  0  0  0  0
  -26.2922  -15.6260   20.1066 H   0  0  0  0  0  0
  -26.7114  -32.5542   23.1179 H   0  0  0  0  0  0
  -25.0036  -33.9794   25.0473 H   0  0  0  0  0  0
  -22.6898  -31.3129   21.4176 H   0  0  0  0  0  0
  -23.3757  -35.9641   23.3273 H   0  0  0  0  0  0
  -24.3580  -36.8959   22.2047 H   0  0  0  0  0  0
  -23.7223  -37.6511   23.6665 H   0  0  0  0  0  0
  -26.0446  -31.5975   20.5982 H   0  0  0  0  0  0
  -26.8179  -30.8842   21.9878 H   0  0  0  0  0  0
  -28.1040  -29.1151   21.1426 H   0  0  0  0  0  0
  -26.0138  -25.9842   19.0110 H   0  0  0  0  0  0
  -23.9627  -27.2947   19.0568 H   0  0  0  0  0  0
  -23.7191  -30.6077   19.4110 H   0  0  0  0  0  0
  -22.7312  -29.2529   19.8715 H   0  0  0  0  0  0
  -25.1275  -36.1975   25.0823 H   0  0  0  0  0  0
  -20.9966  -28.3251   24.1440 H   0  0  0  0  0  0
  -20.5676  -26.2296   23.3607 H   0  0  0  0  0  0
  -21.6639  -26.7467   22.1210 H   0  0  0  0  0  0
  -19.6909  -25.6321   21.1240 H   0  0  0  0  0  0
  -19.6682  -27.3223   20.6752 H   0  0  0  0  0  0
  -17.4194  -26.6704   21.4033 H   0  0  0  0  0  0
  -18.0325  -26.0083   22.9022 H   0  0  0  0  0  0
  -19.7920  -30.7271   24.2325 H   0  0  0  0  0  0
  -17.5002  -31.6280   24.5184 H   0  0  0  0  0  0
  -15.5350  -30.3021   23.7621 H   0  0  0  0  0  0
  -15.8670  -28.0844   22.7063 H   0  0  0  0  0  0
  -24.5920  -30.7043   25.7830 H   0  0  0  0  0  0
  -24.8931  -32.2855   26.4948 H   0  0  0  0  0  0
  -25.8095  -30.8872   27.0243 H   0  0  0  0  0  0
  -26.2826  -29.6810   24.1166 H   0  0  0  0  0  0
  -27.4045  -29.7260   25.4577 H   0  0  0  0  0  0
  -27.8680  -30.4345   23.9273 H   0  0  0  0  0  0
  -27.2689  -33.3609   26.2102 H   0  0  0  0  0  0
  -28.3855  -32.6873   25.0313 H   0  0  0  0  0  0
  -28.0743  -31.8421   26.5394 H   0  0  0  0  0  0
  -28.2576  -38.0138   24.7566 H   0  0  0  0  0  0
  -28.1127  -36.2670   24.6200 H   0  0  0  0  0  0
  -27.2326  -37.1354   25.8863 H   0  0  0  0  0  0
  -20.9301  -29.8761   21.6939 H   0  0  0  0  0  0
  -26.0176  -38.2874   24.1474 H   0  0  0  0  0  0
  -32.1872  -18.2564   19.0938 H   0  0  0  0  0  0
  -33.6776  -19.6349   17.7168 H   0  0  0  0  0  0
  -30.0859  -21.7887   20.3620 H   0  0  0  0  0  0
  -34.9543  -23.7412   17.1990 H   0  0  0  0  0  0
  -34.0747  -23.7364   18.7177 H   0  0  0  0  0  0
  -33.2536  -24.1782   17.1966 H   0  0  0  0  0  0
  -30.3129  -17.3301   19.5048 H   0  0  0  0  0  0
  -28.9156  -17.3958   20.5297 H   0  0  0  0  0  0
  -29.1135  -15.4249   21.7418 H   0  0  0  0  0  0
  -30.4954  -14.9977   22.7186 H   0  0  0  0  0  0
  -30.5643  -17.3402   22.5605 H   0  0  0  0  0  0
  -31.7836  -16.8584   21.4243 H   0  0  0  0  0  0
  -30.7942  -26.1593   19.0632 H   0  0  0  0  0  0
  -30.2921  -25.3822   17.5889 H   0  0  0  0  0  0
  -27.9461  -25.1366   18.7876 H   0  0  0  0  0  0
  -28.3962  -26.5979   17.9337 H   0  0  0  0  0  0
  -29.4530  -23.4110   18.8952 H   0  0  0  0  0  0
  -30.1975  -24.0985   20.3434 H   0  0  0  0  0  0
  1 25  1  0  0  0
  1 30  2  0  0  0
  1 80  1  0  0  0
  2  3  1  0  0  0
  2 25  1  0  0  0
  2 88  1  0  0  0
  2 89  1  0  0  0
  3  4  1  0  0  0
  3 90  1  0  0  0
  3 91  1  0  0  0
  4  5  1  0  0  0
  4 92  1  0  0  0
  4 93  1  0  0  0
  5  6  1  0  0  0
  5 26  1  0  0  0
  5 94  1  0  0  0
  6 25  1  0  0  0
  6 95  1  0  0  0
  6 96  1  0  0  0
  7  8  2  0  0  0
  7 26  1  0  0  0
  7 29  1  0  0  0
  8  9  1  0  0  0
  8 22  1  0  0  0
  9 10  1  0  0  0
  9 27  2  0  0  0
 10 11  2  0  0  0
 10 15  1  0  0  0
 11 12  1  0  0  0
 11 97  1  0  0  0
 12 13  2  0  0  0
 12 98  1  0  0  0
 13 14  1  0  0  0
 13 31  1  0  0  0
 14 15  2  0  0  0
 14 99  1  0  0  0
 15100  1  0  0  0
 16 17  2  0  0  0
 16 21  1  0  0  0
 16 31  1  0  0  0
 17 18  1  0  0  0
 17101  1  0  0  0
 18 19  2  0  0  0
 18102  1  0  0  0
 19 20  1  0  0  0
 19 24  1  0  0  0
 20 21  2  0  0  0
 20103  1  0  0  0
 21 23  1  0  0  0
 22 28  1  0  0  0
 22 32  2  0  0  0
 26 27  1  0  0  0
 28104  1  0  0  0
 28105  1  0  0  0
 29106  1  0  0  0
 29107  1  0  0  0
 33 34  1  0  0  0
 33 66  1  0  0  0
 33 70  2  0  0  0
 34 36  1  0  0  0
 34 59  1  0  0  0
 34108  1  0  0  0
 35 44  2  0  0  0
 35 45  1  0  0  0
 35 68  1  0  0  0
 36 56  1  0  0  0
 36109  1  0  0  0
 37 39  1  0  0  0
 37 47  1  0  0  0
 37 66  1  0  0  0
 37110  1  0  0  0
 38 43  2  0  0  0
 38 46  1  0  0  0
 38 47  1  0  0  0
 39 64  1  0  0  0
 39 67  2  0  0  0
 40 52  1  0  0  0
 40 53  2  0  0  0
 40 58  1  0  0  0
 41111  1  0  0  0
 41112  1  0  0  0
 41113  1  0  0  0
 41 48  1  0  0  0
 42 43  1  0  0  0
 42 66  1  0  0  0
 42114  1  0  0  0
 42115  1  0  0  0
 43 44  1  0  0  0
 44116  1  0  0  0
 45 46  2  0  0  0
 45117  1  0  0  0
 46118  1  0  0  0
 47119  1  0  0  0
 47120  1  0  0  0
 48 56  1  0  0  0
 48 65  1  0  0  0
 48121  1  0  0  0
 49 50  1  0  0  0
 49 53  1  0  0  0
 49 64  1  0  0  0
 49122  1  0  0  0
 50 51  1  0  0  0
 50123  1  0  0  0
 50124  1  0  0  0
 51 52  1  0  0  0
 51125  1  0  0  0
 51126  1  0  0  0
 52127  1  0  0  0
 52128  1  0  0  0
 53 54  1  0  0  0
 54 55  2  0  0  0
 54129  1  0  0  0
 55 57  1  0  0  0
 55130  1  0  0  0
 56 69  2  0  0  0
 57 58  2  0  0  0
 57131  1  0  0  0
 58132  1  0  0  0
 59 60  1  0  0  0
 59 61  1  0  0  0
 59 62  1  0  0  0
 60133  1  0  0  0
 60134  1  0  0  0
 60135  1  0  0  0
 61136  1  0  0  0
 61137  1  0  0  0
 61138  1  0  0  0
 62139  1  0  0  0
 62140  1  0  0  0
 62141  1  0  0  0
 63 65  1  0  0  0
 63142  1  0  0  0
 63143  1  0  0  0
 63144  1  0  0  0
 64145  1  0  0  0
 65146  1  0  0  0
 68 83  1  0  0  0
 71 72  2  0  0  0
 71 74  1  0  0  0
 71147  1  0  0  0
 72 75  1  0  0  0
 72148  1  0  0  0
 73 74  2  0  0  0
 73 76  1  0  0  0
 73149  1  0  0  0
 74 77  1  0  0  0
 75 76  2  0  0  0
 75 86  1  0  0  0
 76 87  1  0  0  0
 77 79  1  0  0  0
 77 85  2  0  0  0
 78 86  1  0  0  0
 78150  1  0  0  0
 78151  1  0  0  0
 78152  1  0  0  0
 79 81  1  0  0  0
 79153  1  0  0  0
 79154  1  0  0  0
 80 81  1  0  0  0
 80155  1  0  0  0
 80156  1  0  0  0
 81157  1  0  0  0
 81158  1  0  0  0
 82 83  1  0  0  0
 82 84  1  0  0  0
 82159  1  0  0  0
 82160  1  0  0  0
 83161  1  0  0  0
 83162  1  0  0  0
 84 87  1  0  0  0
 84163  1  0  0  0
 84164  1  0  0  0
M  ISO  4   1 100  68 101  80 100  83 101
M  END
> <chiral flag>
0

> <version>
0

> <s_m_source_file>
/data/baiqing/PycharmProjects/Reinvent-master-3.2/result/LINK_invent/BTK/process_docking_weight1_custom_product_contain_oxygen_bond_distance_aromatic_linkinvent_7_9_3/rearranged_h_0101.sdf

> <i_m_source_file_index>
7

> <r_mmod_Potential_Energy-OPLS-2005>
1.01357066631317

> <r_mmod_Stretch_Energy-OPLS-2005>
36.8130378723145

> <r_mmod_Bend_Energy-OPLS-2005>
108.741302490234

> <r_mmod_Torsional_Energy-OPLS-2005>
206.302490234375

> <r_mmod_Improper_Torsional_Energy-OPLS-2005>
1.75674414634705

> <r_mmod_Van_der_Waal_Energy-OPLS-2005>
175.325073242188

> <r_mmod_Electrostatic_Energy-OPLS-2005>
-325.693115234375

> <r_mmod_Solvation_Energy-OPLS-2005>
-210.631774902344

> <b_mmod_Minimization_Converged-OPLS-2005>
0

> <r_mmod_RMS_Derivative-OPLS-2005>
1.82295489311218

$$$$
7
                    3D
 Structure written by MMmdl.
154162  0  0  1  0            999 V2000
  -30.6153  -14.6515   20.4939 C   0  0  0  0  0  0
  -30.4424  -12.4000   19.4528 C   0  0  0  0  0  0
  -29.5079  -12.4987   18.2253 C   0  0  0  0  0  0
  -28.0303  -12.3344   18.6367 C   0  0  0  0  0  0
  -27.6485  -13.2102   19.8585 C   0  0  2  0  0  0
  -28.6959  -13.0792   20.9874 C   0  0  0  0  0  0
  -25.2520  -13.8102   20.5708 C   0  0  0  0  0  0
  -24.1785  -13.0389   20.9203 C   0  0  0  0  0  0
  -24.6358  -11.6868   20.8739 C   0  0  0  0  0  0
  -23.9029  -10.4265   21.0404 C   0  0  0  0  0  0
  -24.3589   -9.4192   21.9186 C   0  0  0  0  0  0
  -23.6275   -8.2224   22.0750 C   0  0  0  0  0  0
  -22.4259   -8.0259   21.3536 C   0  0  0  0  0  0
  -21.9884   -9.0228   20.4640 C   0  0  0  0  0  0
  -22.7200  -10.2112   20.3054 C   0  0  0  0  0  0
  -21.6845   -6.0722   22.5276 C   0  0  0  0  0  0
  -21.4009   -6.5632   23.8209 C   0  0  0  0  0  0
  -21.3660   -5.6787   24.9172 C   0  0  0  0  0  0
  -21.6044   -4.3049   24.7224 C   0  0  0  0  0  0
  -21.8821   -3.8141   23.4344 C   0  0  0  0  0  0
  -21.9192   -4.6954   22.3401 C   0  0  0  0  0  0
  -22.7816  -13.5208   21.1864 C   0  0  0  0  0  0
  -22.1662   -4.2141   21.0979 F   0  0  0  0  0  0
  -21.5633   -3.4534   25.7736 F   0  0  0  0  0  0
  -30.0098  -13.4237   20.4209 N   0  0  0  0  0  0
  -26.2952  -12.9293   20.3305 N   0  0  0  0  0  0
  -25.9287  -11.6456   20.5745 N   0  0  0  0  0  0
  -22.0448  -12.8217   22.0424 N   0  0  0  0  0  0
  -25.4196  -15.1807   20.4171 N   0  0  0  0  0  0
  -31.7955  -14.8136   20.1711 O   0  0  0  0  0  0
  -21.6625   -6.8856   21.4236 O   0  0  0  0  0  0
  -22.3520  -14.5516   20.6703 O   0  0  0  0  0  0
  -24.6261  -31.8601   23.2032 C   0  0  0  0  0  0
  -25.9108  -32.4784   23.8359 C   0  0  1  0  0  0
  -27.2241  -27.3181   20.1143 C   0  0  0  0  0  0
  -25.5931  -33.8587   24.2282 N   0  0  0  0  0  0
  -23.4196  -30.4832   21.5459 C   0  0  2  0  0  0
  -24.8662  -28.9421   20.1087 C   0  0  0  0  0  0
  -22.7470  -29.4620   22.4944 C   0  0  0  0  0  0
  -18.0289  -28.1395   22.8496 C   0  0  0  0  0  0
  -24.1485  -36.7290   23.2636 C   0  0  0  0  0  0
  -25.9604  -30.7917   21.3733 C   0  0  0  0  0  0
  -26.0356  -29.4190   20.7155 C   0  0  0  0  0  0
  -27.2164  -28.6180   20.7099 C   0  0  0  0  0  0
  -26.0318  -26.9012   19.4761 C   0  0  0  0  0  0
  -24.8671  -27.6887   19.4811 C   0  0  0  0  0  0
  -23.6324  -29.8180   20.1606 C   0  0  0  0  0  0
  -25.4111  -36.3083   24.0320 C   0  0  1  0  0  0
  -20.5889  -28.3687   23.1291 C   0  0  2  0  0  0
  -20.6782  -26.9413   22.5408 C   0  0  0  0  0  0
  -19.5750  -26.6396   21.5217 C   0  0  0  0  0  0
  -18.1934  -26.7939   22.1635 C   0  0  0  0  0  0
  -19.1543  -28.8858   23.2892 C   0  0  0  0  0  0
  -18.9463  -30.1464   23.8897 C   0  0  0  0  0  0
  -17.6463  -30.6597   24.0569 C   0  0  0  0  0  0
  -25.9045  -34.9455   23.5093 C   0  0  0  0  0  0
  -16.5355  -29.9090   23.6346 C   0  0  0  0  0  0
  -16.7277  -28.6512   23.0364 C   0  0  0  0  0  0
  -26.4499  -31.6608   25.0734 C   0  0  0  0  0  0
  -25.3744  -31.3756   26.1472 C   0  0  0  0  0  0
  -27.0333  -30.3029   24.6191 C   0  0  0  0  0  0
  -27.6059  -32.4340   25.7520 C   0  0  0  0  0  0
  -27.5567  -37.1797   24.8461 C   0  0  0  0  0  0
  -21.4183  -29.3036   22.3678 N   0  0  0  0  0  0
  -26.4283  -37.3775   23.9404 N   0  0  0  0  0  0
  -24.6877  -31.0611   22.0986 N   0  0  0  0  0  0
  -23.4200  -28.8174   23.3034 O   0  0  0  0  0  0
  -28.3381  -26.4623   20.1756 O   0  0  0  0  0  0
  -26.5600  -34.8919   22.4652 O   0  0  0  0  0  0
  -23.5421  -32.1400   23.7355 O   0  0  0  0  0  0
  -28.9904  -19.3580   19.8761 C   0  0  0  0  0  0
  -30.8370  -17.8901   21.3941 C   0  0  0  0  0  0
  -29.0082  -17.9281   19.8270 C   0  0  0  0  0  0
  -29.9148  -17.1523   20.6112 C   0  0  0  0  0  0
  -29.8934  -20.0974   20.6846 C   0  0  0  0  0  0
  -30.8285  -19.3166   21.4248 C   0  0  0  0  0  0
  -28.0325  -17.2361   18.8943 C   0  0  0  0  0  0
  -29.2007  -23.9603   20.4920 C   0  0  0  0  0  0
  -28.1256  -25.0075   19.9677 C   0  0  0  0  0  0
  -28.9262  -22.4051   20.2364 C   0  0  0  0  0  0
  -29.7625  -15.6999   20.7146 N   0  0  0  0  0  0
  -29.9396  -21.5068   20.7922 O   0  0  0  0  0  0
  -31.9813  -20.1169   22.4321 Cl  0  0  0  0  0  0
  -31.4822  -12.5379   19.1509 H   0  0  0  0  0  0
  -30.3886  -11.4087   19.9053 H   0  0  0  0  0  0
  -29.7761  -11.7393   17.4900 H   0  0  0  0  0  0
  -29.6442  -13.4633   17.7351 H   0  0  0  0  0  0
  -27.8708  -11.2818   18.8743 H   0  0  0  0  0  0
  -27.3752  -12.5569   17.7935 H   0  0  0  0  0  0
  -27.6571  -14.2400   19.5054 H   0  0  0  0  0  0
  -28.7108  -12.0613   21.3795 H   0  0  0  0  0  0
  -28.4399  -13.7196   21.8330 H   0  0  0  0  0  0
  -25.2731   -9.5678   22.4757 H   0  0  0  0  0  0
  -23.9988   -7.4615   22.7464 H   0  0  0  0  0  0
  -21.0817   -8.8739   19.8942 H   0  0  0  0  0  0
  -22.3656  -10.9649   19.6165 H   0  0  0  0  0  0
  -21.1998   -7.6139   23.9706 H   0  0  0  0  0  0
  -21.1484   -6.0518   25.9072 H   0  0  0  0  0  0
  -22.0601   -2.7602   23.2845 H   0  0  0  0  0  0
  -22.4053  -11.9888   22.4841 H   0  0  0  0  0  0
  -21.1064  -13.1257   22.2612 H   0  0  0  0  0  0
  -24.6494  -15.8320   20.5201 H   0  0  0  0  0  0
  -26.2645  -15.6171   20.0794 H   0  0  0  0  0  0
  -26.7181  -32.5448   23.1117 H   0  0  0  0  0  0
  -25.0109  -33.9754   25.0446 H   0  0  0  0  0  0
  -22.7137  -31.3039   21.4021 H   0  0  0  0  0  0
  -23.3738  -35.9631   23.3318 H   0  0  0  0  0  0
  -24.3569  -36.8889   22.2043 H   0  0  0  0  0  0
  -23.7256  -37.6504   23.6650 H   0  0  0  0  0  0
  -26.0839  -31.5557   20.6040 H   0  0  0  0  0  0
  -26.8438  -30.8448   21.9981 H   0  0  0  0  0  0
  -28.1115  -28.9764   21.1994 H   0  0  0  0  0  0
  -25.9690  -25.9475   18.9751 H   0  0  0  0  0  0
  -23.9710  -27.3191   19.0000 H   0  0  0  0  0  0
  -23.7433  -30.5926   19.4009 H   0  0  0  0  0  0
  -22.7551  -29.2395   19.8639 H   0  0  0  0  0  0
  -25.1295  -36.1926   25.0809 H   0  0  0  0  0  0
  -20.9985  -28.3255   24.1412 H   0  0  0  0  0  0
  -20.5705  -26.2283   23.3601 H   0  0  0  0  0  0
  -21.6649  -26.7460   22.1184 H   0  0  0  0  0  0
  -19.6907  -25.6309   21.1239 H   0  0  0  0  0  0
  -19.6694  -27.3220   20.6759 H   0  0  0  0  0  0
  -17.4204  -26.6695   21.4042 H   0  0  0  0  0  0
  -18.0331  -26.0089   22.9035 H   0  0  0  0  0  0
  -19.7938  -30.7291   24.2263 H   0  0  0  0  0  0
  -17.5017  -31.6284   24.5164 H   0  0  0  0  0  0
  -15.5352  -30.2991   23.7678 H   0  0  0  0  0  0
  -15.8679  -28.0832   22.7073 H   0  0  0  0  0  0
  -24.5921  -30.7095   25.7823 H   0  0  0  0  0  0
  -24.8938  -32.2925   26.4890 H   0  0  0  0  0  0
  -25.8082  -30.8960   27.0253 H   0  0  0  0  0  0
  -26.2899  -29.6795   24.1206 H   0  0  0  0  0  0
  -27.4012  -29.7282   25.4702 H   0  0  0  0  0  0
  -27.8787  -30.4315   23.9427 H   0  0  0  0  0  0
  -27.2670  -33.3641   26.2099 H   0  0  0  0  0  0
  -28.3890  -32.6889   25.0369 H   0  0  0  0  0  0
  -28.0709  -31.8462   26.5448 H   0  0  0  0  0  0
  -28.2589  -38.0088   24.7494 H   0  0  0  0  0  0
  -28.1057  -36.2615   24.6311 H   0  0  0  0  0  0
  -27.2278  -37.1477   25.8863 H   0  0  0  0  0  0
  -20.9359  -29.8730   21.6863 H   0  0  0  0  0  0
  -26.0157  -38.2838   24.1429 H   0  0  0  0  0  0
  -28.2650  -19.8851   19.2739 H   0  0  0  0  0  0
  -31.5437  -17.3637   22.0189 H   0  0  0  0  0  0
  -27.7521  -17.8865   18.0661 H   0  0  0  0  0  0
  -27.1268  -16.9688   19.4317 H   0  0  0  0  0  0
  -28.4701  -16.3357   18.4613 H   0  0  0  0  0  0
  -29.3186  -24.1094   21.5654 H   0  0  0  0  0  0
  -30.1662  -24.2149   20.0546 H   0  0  0  0  0  0
  -27.1797  -24.7213   20.4312 H   0  0  0  0  0  0
  -28.0011  -24.8432   18.8963 H   0  0  0  0  0  0
  -28.8466  -22.2289   19.1636 H   0  0  0  0  0  0
  -27.9609  -22.1349   20.6669 H   0  0  0  0  0  0
  -28.8103  -15.3898   20.8264 H   0  0  0  0  0  0
  1 25  1  0  0  0
  1 30  2  0  0  0
  1 81  1  0  0  0
  2  3  1  0  0  0
  2 25  1  0  0  0
  2 84  1  0  0  0
  2 85  1  0  0  0
  3  4  1  0  0  0
  3 86  1  0  0  0
  3 87  1  0  0  0
  4  5  1  0  0  0
  4 88  1  0  0  0
  4 89  1  0  0  0
  5  6  1  0  0  0
  5 26  1  0  0  0
  5 90  1  0  0  0
  6 25  1  0  0  0
  6 91  1  0  0  0
  6 92  1  0  0  0
  7  8  2  0  0  0
  7 26  1  0  0  0
  7 29  1  0  0  0
  8  9  1  0  0  0
  8 22  1  0  0  0
  9 10  1  0  0  0
  9 27  2  0  0  0
 10 11  2  0  0  0
 10 15  1  0  0  0
 11 12  1  0  0  0
 11 93  1  0  0  0
 12 13  2  0  0  0
 12 94  1  0  0  0
 13 14  1  0  0  0
 13 31  1  0  0  0
 14 15  2  0  0  0
 14 95  1  0  0  0
 15 96  1  0  0  0
 16 17  2  0  0  0
 16 21  1  0  0  0
 16 31  1  0  0  0
 17 18  1  0  0  0
 17 97  1  0  0  0
 18 19  2  0  0  0
 18 98  1  0  0  0
 19 20  1  0  0  0
 19 24  1  0  0  0
 20 21  2  0  0  0
 20 99  1  0  0  0
 21 23  1  0  0  0
 22 28  1  0  0  0
 22 32  2  0  0  0
 26 27  1  0  0  0
 28100  1  0  0  0
 28101  1  0  0  0
 29102  1  0  0  0
 29103  1  0  0  0
 33 34  1  0  0  0
 33 66  1  0  0  0
 33 70  2  0  0  0
 34 36  1  0  0  0
 34 59  1  0  0  0
 34104  1  0  0  0
 35 44  2  0  0  0
 35 45  1  0  0  0
 35 68  1  0  0  0
 36 56  1  0  0  0
 36105  1  0  0  0
 37 39  1  0  0  0
 37 47  1  0  0  0
 37 66  1  0  0  0
 37106  1  0  0  0
 38 43  2  0  0  0
 38 46  1  0  0  0
 38 47  1  0  0  0
 39 64  1  0  0  0
 39 67  2  0  0  0
 40 52  1  0  0  0
 40 53  2  0  0  0
 40 58  1  0  0  0
 41107  1  0  0  0
 41108  1  0  0  0
 41109  1  0  0  0
 41 48  1  0  0  0
 42 43  1  0  0  0
 42 66  1  0  0  0
 42110  1  0  0  0
 42111  1  0  0  0
 43 44  1  0  0  0
 44112  1  0  0  0
 45 46  2  0  0  0
 45113  1  0  0  0
 46114  1  0  0  0
 47115  1  0  0  0
 47116  1  0  0  0
 48 56  1  0  0  0
 48 65  1  0  0  0
 48117  1  0  0  0
 49 50  1  0  0  0
 49 53  1  0  0  0
 49 64  1  0  0  0
 49118  1  0  0  0
 50 51  1  0  0  0
 50119  1  0  0  0
 50120  1  0  0  0
 51 52  1  0  0  0
 51121  1  0  0  0
 51122  1  0  0  0
 52123  1  0  0  0
 52124  1  0  0  0
 53 54  1  0  0  0
 54 55  2  0  0  0
 54125  1  0  0  0
 55 57  1  0  0  0
 55126  1  0  0  0
 56 69  2  0  0  0
 57 58  2  0  0  0
 57127  1  0  0  0
 58128  1  0  0  0
 59 60  1  0  0  0
 59 61  1  0  0  0
 59 62  1  0  0  0
 60129  1  0  0  0
 60130  1  0  0  0
 60131  1  0  0  0
 61132  1  0  0  0
 61133  1  0  0  0
 61134  1  0  0  0
 62135  1  0  0  0
 62136  1  0  0  0
 62137  1  0  0  0
 63 65  1  0  0  0
 63138  1  0  0  0
 63139  1  0  0  0
 63140  1  0  0  0
 64141  1  0  0  0
 65142  1  0  0  0
 68 79  1  0  0  0
 71 73  2  0  0  0
 71 75  1  0  0  0
 71143  1  0  0  0
 72 74  2  0  0  0
 72 76  1  0  0  0
 72144  1  0  0  0
 73 74  1  0  0  0
 73 77  1  0  0  0
 74 81  1  0  0  0
 75 76  2  0  0  0
 75 82  1  0  0  0
 76 83  1  0  0  0
 77145  1  0  0  0
 77146  1  0  0  0
 77147  1  0  0  0
 78 79  1  0  0  0
 78 80  1  0  0  0
 78148  1  0  0  0
 78149  1  0  0  0
 79150  1  0  0  0
 79151  1  0  0  0
 80 82  1  0  0  0
 80152  1  0  0  0
 80153  1  0  0  0
 81154  1  0  0  0
M  ISO  4   1 100  68 101  79 101  81 100
M  END
> <chiral flag>
0

> <version>
0

> <s_m_source_file>
/data/baiqing/PycharmProjects/Reinvent-master-3.2/result/LINK_invent/BTK/process_docking_weight1_custom_product_contain_oxygen_bond_distance_aromatic_linkinvent_7_9_3/rearranged_h_0101.sdf

> <i_m_source_file_index>
8

> <r_mmod_Potential_Energy-OPLS-2005>
68.042594909668

> <r_mmod_Stretch_Energy-OPLS-2005>
78.6678924560547

> <r_mmod_Bend_Energy-OPLS-2005>
139.503997802734

> <r_mmod_Torsional_Energy-OPLS-2005>
228.978546142578

> <r_mmod_Improper_Torsional_Energy-OPLS-2005>
6.36919593811035

> <r_mmod_Van_der_Waal_Energy-OPLS-2005>
139.768402099609

> <r_mmod_Electrostatic_Energy-OPLS-2005>
-361.953643798828

> <r_mmod_Solvation_Energy-OPLS-2005>
-216.387557983398

> <b_mmod_Minimization_Converged-OPLS-2005>
0

> <r_mmod_RMS_Derivative-OPLS-2005>
1.46110200881958

$$$$
8
                    3D
 Structure written by MMmdl.
161170  0  0  1  0            999 V2000
  -30.7087  -14.4951   20.4649 C   0  0  0  0  0  0
  -30.4138  -12.2837   19.4501 C   0  0  0  0  0  0
  -29.5013  -12.4631   18.2200 C   0  0  0  0  0  0
  -28.0187  -12.3455   18.6245 C   0  0  0  0  0  0
  -27.6588  -13.2130   19.8606 C   0  0  2  0  0  0
  -28.7000  -13.0442   20.9884 C   0  0  0  0  0  0
  -25.2612  -13.8178   20.5685 C   0  0  0  0  0  0
  -24.1853  -13.0453   20.9143 C   0  0  0  0  0  0
  -24.6395  -11.6915   20.8680 C   0  0  0  0  0  0
  -23.9048  -10.4302   21.0377 C   0  0  0  0  0  0
  -24.3596   -9.4215   21.9163 C   0  0  0  0  0  0
  -23.6274   -8.2247   22.0737 C   0  0  0  0  0  0
  -22.4253   -8.0272   21.3535 C   0  0  0  0  0  0
  -21.9881   -9.0246   20.4645 C   0  0  0  0  0  0
  -22.7212  -10.2125   20.3051 C   0  0  0  0  0  0
  -21.6850   -6.0717   22.5267 C   0  0  0  0  0  0
  -21.4023   -6.5615   23.8203 C   0  0  0  0  0  0
  -21.3668   -5.6776   24.9170 C   0  0  0  0  0  0
  -21.6041   -4.3034   24.7212 C   0  0  0  0  0  0
  -21.8820   -3.8126   23.4339 C   0  0  0  0  0  0
  -21.9212   -4.6954   22.3401 C   0  0  0  0  0  0
  -22.7883  -13.5249   21.1807 C   0  0  0  0  0  0
  -22.1672   -4.2138   21.0970 F   0  0  0  0  0  0
  -21.5629   -3.4509   25.7731 F   0  0  0  0  0  0
  -30.0319  -13.3132   20.4310 N   0  0  0  0  0  0
  -26.3022  -12.9367   20.3308 N   0  0  0  0  0  0
  -25.9325  -11.6516   20.5723 N   0  0  0  0  0  0
  -22.0528  -12.8262   22.0383 N   0  0  0  0  0  0
  -25.4373  -15.1898   20.4174 N   0  0  0  0  0  0
  -31.8756  -14.5801   20.0763 O   0  0  0  0  0  0
  -21.6637   -6.8854   21.4235 O   0  0  0  0  0  0
  -22.3574  -14.5543   20.6657 O   0  0  0  0  0  0
  -24.6165  -31.8674   23.2100 C   0  0  0  0  0  0
  -25.9057  -32.4821   23.8387 C   0  0  1  0  0  0
  -27.2325  -27.4333   20.0972 C   0  0  0  0  0  0
  -25.5891  -33.8614   24.2308 N   0  0  0  0  0  0
  -23.4047  -30.4921   21.5512 C   0  0  2  0  0  0
  -24.8511  -28.9605   20.1122 C   0  0  0  0  0  0
  -22.7419  -29.4659   22.4997 C   0  0  0  0  0  0
  -18.0279  -28.1381   22.8502 C   0  0  0  0  0  0
  -24.1482  -36.7313   23.2642 C   0  0  0  0  0  0
  -25.9352  -30.8334   21.3646 C   0  0  0  0  0  0
  -26.0131  -29.4697   20.7068 C   0  0  0  0  0  0
  -27.2106  -28.7152   20.6926 C   0  0  0  0  0  0
  -26.0581  -26.9457   19.4855 C   0  0  0  0  0  0
  -24.8688  -27.6969   19.4972 C   0  0  0  0  0  0
  -23.6124  -29.8253   20.1656 C   0  0  0  0  0  0
  -25.4100  -36.3105   24.0341 C   0  0  1  0  0  0
  -20.5869  -28.3659   23.1331 C   0  0  2  0  0  0
  -20.6771  -26.9395   22.5441 C   0  0  0  0  0  0
  -19.5746  -26.6384   21.5237 C   0  0  0  0  0  0
  -18.1918  -26.7927   22.1633 C   0  0  0  0  0  0
  -19.1527  -28.8839   23.2909 C   0  0  0  0  0  0
  -18.9445  -30.1452   23.8919 C   0  0  0  0  0  0
  -17.6445  -30.6591   24.0569 C   0  0  0  0  0  0
  -25.9032  -34.9475   23.5126 C   0  0  0  0  0  0
  -16.5338  -29.9089   23.6332 C   0  0  0  0  0  0
  -16.7266  -28.6505   23.0352 C   0  0  0  0  0  0
  -26.4477  -31.6612   25.0723 C   0  0  0  0  0  0
  -25.3739  -31.3746   26.1476 C   0  0  0  0  0  0
  -27.0294  -30.3038   24.6136 C   0  0  0  0  0  0
  -27.6058  -32.4339   25.7471 C   0  0  0  0  0  0
  -27.5582  -37.1798   24.8450 C   0  0  0  0  0  0
  -21.4146  -29.3014   22.3723 N   0  0  0  0  0  0
  -26.4281  -37.3794   23.9418 N   0  0  0  0  0  0
  -24.6702  -31.0782   22.0999 N   0  0  0  0  0  0
  -23.4192  -28.8205   23.3041 O   0  0  0  0  0  0
  -28.3672  -26.6494   20.1215 O   0  0  0  0  0  0
  -26.5608  -34.8933   22.4696 O   0  0  0  0  0  0
  -23.5357  -32.1421   23.7501 O   0  0  0  0  0  0
  -29.1755  -18.6582   21.3500 C   0  0  0  0  0  0
  -28.9134  -20.0327   21.5330 C   0  0  0  0  0  0
  -29.2842  -20.4274   19.2050 C   0  0  0  0  0  0
  -29.5856  -18.1611   20.0965 C   0  0  0  0  0  0
  -29.0045  -20.9774   20.4794 C   0  0  0  0  0  0
  -29.6010  -19.0569   18.9958 C   0  0  0  0  0  0
  -29.1284  -23.2254   21.7529 C   0  0  0  0  0  0
  -30.0724  -16.7647   19.9396 C   0  0  0  0  0  0
  -29.9497  -15.7063   20.7828 C   0  0  0  0  0  0
  -29.2958  -23.3281   19.6748 C   0  0  0  0  0  0
  -29.3469  -24.4205   20.7694 C   0  0  2  0  0  0
  -30.7021  -25.0819   21.0420 C   0  0  0  0  0  0
  -30.1953  -19.5021   16.7039 C   0  0  0  0  0  0
  -28.1941  -25.4395   20.8883 C   0  0  0  0  0  0
  -28.8395  -22.3870   20.6907 N   0  0  0  0  0  0
  -29.2962  -23.0039   22.9358 O   0  0  0  0  0  0
  -29.9620  -18.5653   17.7543 O   0  0  0  0  0  0
  -31.4635  -12.3427   19.1563 H   0  0  0  0  0  0
  -30.2863  -11.2889   19.8793 H   0  0  0  0  0  0
  -29.7357  -11.7115   17.4662 H   0  0  0  0  0  0
  -29.6863  -13.4342   17.7559 H   0  0  0  0  0  0
  -27.8206  -11.2946   18.8426 H   0  0  0  0  0  0
  -27.3771  -12.6055   17.7822 H   0  0  0  0  0  0
  -27.6925  -14.2499   19.5251 H   0  0  0  0  0  0
  -28.6731  -12.0291   21.3865 H   0  0  0  0  0  0
  -28.4714  -13.6969   21.8310 H   0  0  0  0  0  0
  -25.2745   -9.5702   22.4740 H   0  0  0  0  0  0
  -23.9988   -7.4646   22.7453 H   0  0  0  0  0  0
  -21.0805   -8.8758   19.8968 H   0  0  0  0  0  0
  -22.3645  -10.9653   19.6158 H   0  0  0  0  0  0
  -21.2010   -7.6127   23.9690 H   0  0  0  0  0  0
  -21.1486   -6.0506   25.9063 H   0  0  0  0  0  0
  -22.0603   -2.7589   23.2839 H   0  0  0  0  0  0
  -22.4145  -11.9934   22.4800 H   0  0  0  0  0  0
  -21.1163  -13.1338   22.2600 H   0  0  0  0  0  0
  -24.6778  -15.8498   20.5405 H   0  0  0  0  0  0
  -26.3022  -15.6285   20.1249 H   0  0  0  0  0  0
  -26.7125  -32.5526   23.1149 H   0  0  0  0  0  0
  -25.0012  -33.9753   25.0433 H   0  0  0  0  0  0
  -22.6936  -31.3098   21.4138 H   0  0  0  0  0  0
  -23.3741  -35.9645   23.3307 H   0  0  0  0  0  0
  -24.3581  -36.8931   22.2053 H   0  0  0  0  0  0
  -23.7234  -37.6520   23.6658 H   0  0  0  0  0  0
  -26.0537  -31.6043   20.6019 H   0  0  0  0  0  0
  -26.8196  -30.8792   21.9883 H   0  0  0  0  0  0
  -28.1070  -29.1028   21.1566 H   0  0  0  0  0  0
  -26.0576  -25.9782   19.0036 H   0  0  0  0  0  0
  -23.9762  -27.2993   19.0332 H   0  0  0  0  0  0
  -23.7154  -30.6010   19.4060 H   0  0  0  0  0  0
  -22.7366  -29.2445   19.8720 H   0  0  0  0  0  0
  -25.1279  -36.1967   25.0833 H   0  0  0  0  0  0
  -20.9955  -28.3235   24.1449 H   0  0  0  0  0  0
  -20.5689  -26.2259   23.3620 H   0  0  0  0  0  0
  -21.6639  -26.7444   22.1224 H   0  0  0  0  0  0
  -19.6898  -25.6299   21.1252 H   0  0  0  0  0  0
  -19.6693  -27.3210   20.6777 H   0  0  0  0  0  0
  -17.4197  -26.6704   21.4024 H   0  0  0  0  0  0
  -18.0287  -26.0069   22.9018 H   0  0  0  0  0  0
  -19.7923  -30.7266   24.2289 H   0  0  0  0  0  0
  -17.5002  -31.6268   24.5166 H   0  0  0  0  0  0
  -15.5341  -30.2983   23.7654 H   0  0  0  0  0  0
  -15.8668  -28.0828   22.7048 H   0  0  0  0  0  0
  -24.5872  -30.7143   25.7815 H   0  0  0  0  0  0
  -24.8977  -32.2914   26.4962 H   0  0  0  0  0  0
  -25.8075  -30.8873   27.0216 H   0  0  0  0  0  0
  -26.2831  -29.6808   24.1191 H   0  0  0  0  0  0
  -27.4027  -29.7290   25.4624 H   0  0  0  0  0  0
  -27.8695  -30.4329   23.9307 H   0  0  0  0  0  0
  -27.2671  -33.3613   26.2111 H   0  0  0  0  0  0
  -28.3821  -32.6960   25.0266 H   0  0  0  0  0  0
  -28.0789  -31.8440   26.5334 H   0  0  0  0  0  0
  -28.2596  -38.0102   24.7533 H   0  0  0  0  0  0
  -28.1085  -36.2646   24.6219 H   0  0  0  0  0  0
  -27.2321  -37.1390   25.8858 H   0  0  0  0  0  0
  -20.9309  -29.8695   21.6909 H   0  0  0  0  0  0
  -26.0176  -38.2872   24.1439 H   0  0  0  0  0  0
  -29.1280  -17.9986   22.2054 H   0  0  0  0  0  0
  -28.6671  -20.3716   22.5288 H   0  0  0  0  0  0
  -29.2970  -21.1093   18.3696 H   0  0  0  0  0  0
  -30.6543  -16.6079   19.0398 H   0  0  0  0  0  0
  -29.3580  -15.7662   21.6832 H   0  0  0  0  0  0
  -30.2824  -23.0915   19.2692 H   0  0  0  0  0  0
  -28.5639  -23.5065   18.8837 H   0  0  0  0  0  0
  -31.4850  -24.3429   21.2267 H   0  0  0  0  0  0
  -30.6634  -25.7360   21.9132 H   0  0  0  0  0  0
  -31.0238  -25.6792   20.1894 H   0  0  0  0  0  0
  -30.6652  -19.0019   15.8592 H   0  0  0  0  0  0
  -30.8736  -20.2990   17.0133 H   0  0  0  0  0  0
  -29.2641  -19.9470   16.3501 H   0  0  0  0  0  0
  -28.0765  -25.7378   21.9315 H   0  0  0  0  0  0
  -27.2621  -24.9390   20.6207 H   0  0  0  0  0  0
  1 25  1  0  0  0
  1 30  2  0  0  0
  1 79  1  0  0  0
  2  3  1  0  0  0
  2 25  1  0  0  0
  2 88  1  0  0  0
  2 89  1  0  0  0
  3  4  1  0  0  0
  3 90  1  0  0  0
  3 91  1  0  0  0
  4  5  1  0  0  0
  4 92  1  0  0  0
  4 93  1  0  0  0
  5  6  1  0  0  0
  5 26  1  0  0  0
  5 94  1  0  0  0
  6 25  1  0  0  0
  6 95  1  0  0  0
  6 96  1  0  0  0
  7  8  2  0  0  0
  7 26  1  0  0  0
  7 29  1  0  0  0
  8  9  1  0  0  0
  8 22  1  0  0  0
  9 10  1  0  0  0
  9 27  2  0  0  0
 10 11  2  0  0  0
 10 15  1  0  0  0
 11 12  1  0  0  0
 11 97  1  0  0  0
 12 13  2  0  0  0
 12 98  1  0  0  0
 13 14  1  0  0  0
 13 31  1  0  0  0
 14 15  2  0  0  0
 14 99  1  0  0  0
 15100  1  0  0  0
 16 17  2  0  0  0
 16 21  1  0  0  0
 16 31  1  0  0  0
 17 18  1  0  0  0
 17101  1  0  0  0
 18 19  2  0  0  0
 18102  1  0  0  0
 19 20  1  0  0  0
 19 24  1  0  0  0
 20 21  2  0  0  0
 20103  1  0  0  0
 21 23  1  0  0  0
 22 28  1  0  0  0
 22 32  2  0  0  0
 26 27  1  0  0  0
 28104  1  0  0  0
 28105  1  0  0  0
 29106  1  0  0  0
 29107  1  0  0  0
 33 34  1  0  0  0
 33 66  1  0  0  0
 33 70  2  0  0  0
 34 36  1  0  0  0
 34 59  1  0  0  0
 34108  1  0  0  0
 35 44  2  0  0  0
 35 45  1  0  0  0
 35 68  1  0  0  0
 36 56  1  0  0  0
 36109  1  0  0  0
 37 39  1  0  0  0
 37 47  1  0  0  0
 37 66  1  0  0  0
 37110  1  0  0  0
 38 43  2  0  0  0
 38 46  1  0  0  0
 38 47  1  0  0  0
 39 64  1  0  0  0
 39 67  2  0  0  0
 40 52  1  0  0  0
 40 53  2  0  0  0
 40 58  1  0  0  0
 41111  1  0  0  0
 41112  1  0  0  0
 41113  1  0  0  0
 41 48  1  0  0  0
 42 43  1  0  0  0
 42 66  1  0  0  0
 42114  1  0  0  0
 42115  1  0  0  0
 43 44  1  0  0  0
 44116  1  0  0  0
 45 46  2  0  0  0
 45117  1  0  0  0
 46118  1  0  0  0
 47119  1  0  0  0
 47120  1  0  0  0
 48 56  1  0  0  0
 48 65  1  0  0  0
 48121  1  0  0  0
 49 50  1  0  0  0
 49 53  1  0  0  0
 49 64  1  0  0  0
 49122  1  0  0  0
 50 51  1  0  0  0
 50123  1  0  0  0
 50124  1  0  0  0
 51 52  1  0  0  0
 51125  1  0  0  0
 51126  1  0  0  0
 52127  1  0  0  0
 52128  1  0  0  0
 53 54  1  0  0  0
 54 55  2  0  0  0
 54129  1  0  0  0
 55 57  1  0  0  0
 55130  1  0  0  0
 56 69  2  0  0  0
 57 58  2  0  0  0
 57131  1  0  0  0
 58132  1  0  0  0
 59 60  1  0  0  0
 59 61  1  0  0  0
 59 62  1  0  0  0
 60133  1  0  0  0
 60134  1  0  0  0
 60135  1  0  0  0
 61136  1  0  0  0
 61137  1  0  0  0
 61138  1  0  0  0
 62139  1  0  0  0
 62140  1  0  0  0
 62141  1  0  0  0
 63 65  1  0  0  0
 63142  1  0  0  0
 63143  1  0  0  0
 63144  1  0  0  0
 64145  1  0  0  0
 65146  1  0  0  0
 68 84  1  0  0  0
 71 72  2  0  0  0
 71 74  1  0  0  0
 71147  1  0  0  0
 72 75  1  0  0  0
 72148  1  0  0  0
 73 75  2  0  0  0
 73 76  1  0  0  0
 73149  1  0  0  0
 74 76  2  0  0  0
 74 78  1  0  0  0
 75 85  1  0  0  0
 76 87  1  0  0  0
 77 81  1  0  0  0
 77 85  1  0  0  0
 77 86  2  0  0  0
 78 79  2  0  0  0
 78150  1  0  0  0
 79151  1  0  0  0
 80 81  1  0  0  0
 80 85  1  0  0  0
 80152  1  0  0  0
 80153  1  0  0  0
 81 82  1  0  0  0
 81 84  1  0  0  0
 82154  1  0  0  0
 82155  1  0  0  0
 82156  1  0  0  0
 83 87  1  0  0  0
 83157  1  0  0  0
 83158  1  0  0  0
 83159  1  0  0  0
 84160  1  0  0  0
 84161  1  0  0  0
M  ISO  4   1 100  68 101  79 100  84 101
M  END
> <chiral flag>
0

> <version>
0

> <s_m_source_file>
/data/baiqing/PycharmProjects/Reinvent-master-3.2/result/LINK_invent/BTK/process_docking_weight1_custom_product_contain_oxygen_bond_distance_aromatic_linkinvent_7_9_3/rearranged_h_0101.sdf

> <i_m_source_file_index>
9

> <r_mmod_Potential_Energy-OPLS-2005>
51.3215675354004

> <r_mmod_Stretch_Energy-OPLS-2005>
41.0050048828125

> <r_mmod_Bend_Energy-OPLS-2005>
122.277191162109

> <r_mmod_Torsional_Energy-OPLS-2005>
255.233001708984

> <r_mmod_Improper_Torsional_Energy-OPLS-2005>
10.6317586898804

> <r_mmod_Van_der_Waal_Energy-OPLS-2005>
164.177947998047

> <r_mmod_Electrostatic_Energy-OPLS-2005>
-354.443298339844

> <r_mmod_Solvation_Energy-OPLS-2005>
-208.338958740234

> <b_mmod_Minimization_Converged-OPLS-2005>
0

> <r_mmod_RMS_Derivative-OPLS-2005>
3.22449660301208

$$$$
9
                    3D
 Structure written by MMmdl.
168176  0  0  1  0            999 V2000
  -30.6956  -14.4787   20.4847 C   0  0  0  0  0  0
  -30.4041  -12.2773   19.4440 C   0  0  0  0  0  0
  -29.4953  -12.4746   18.2126 C   0  0  0  0  0  0
  -28.0062  -12.3822   18.6042 C   0  0  0  0  0  0
  -27.6501  -13.2179   19.8654 C   0  0  2  0  0  0
  -28.6926  -13.0305   20.9932 C   0  0  0  0  0  0
  -25.2513  -13.8210   20.5661 C   0  0  0  0  0  0
  -24.1803  -13.0457   20.9171 C   0  0  0  0  0  0
  -24.6382  -11.6932   20.8726 C   0  0  0  0  0  0
  -23.9069  -10.4306   21.0378 C   0  0  0  0  0  0
  -24.3628   -9.4213   21.9142 C   0  0  0  0  0  0
  -23.6304   -8.2247   22.0725 C   0  0  0  0  0  0
  -22.4289   -8.0275   21.3522 C   0  0  0  0  0  0
  -21.9931   -9.0241   20.4619 C   0  0  0  0  0  0
  -22.7249  -10.2128   20.3016 C   0  0  0  0  0  0
  -21.6864   -6.0726   22.5262 C   0  0  0  0  0  0
  -21.4018   -6.5632   23.8194 C   0  0  0  0  0  0
  -21.3677   -5.6776   24.9158 C   0  0  0  0  0  0
  -21.6052   -4.3047   24.7206 C   0  0  0  0  0  0
  -21.8825   -3.8136   23.4331 C   0  0  0  0  0  0
  -21.9200   -4.6951   22.3388 C   0  0  0  0  0  0
  -22.7816  -13.5214   21.1844 C   0  0  0  0  0  0
  -22.1647   -4.2131   21.0966 F   0  0  0  0  0  0
  -21.5648   -3.4537   25.7720 F   0  0  0  0  0  0
  -30.0245  -13.2964   20.4350 N   0  0  0  0  0  0
  -26.2956  -12.9397   20.3310 N   0  0  0  0  0  0
  -25.9314  -11.6546   20.5745 N   0  0  0  0  0  0
  -22.0488  -12.8177   22.0423 N   0  0  0  0  0  0
  -25.4230  -15.1927   20.4055 N   0  0  0  0  0  0
  -31.8740  -14.5882   20.1372 O   0  0  0  0  0  0
  -21.6651   -6.8872   21.4222 O   0  0  0  0  0  0
  -22.3471  -14.5494   20.6687 O   0  0  0  0  0  0
  -24.6132  -31.8695   23.2108 C   0  0  0  0  0  0
  -25.9064  -32.4814   23.8374 C   0  0  1  0  0  0
  -27.2232  -27.4380   20.0893 C   0  0  0  0  0  0
  -25.5930  -33.8610   24.2318 N   0  0  0  0  0  0
  -23.3985  -30.4980   21.5510 C   0  0  2  0  0  0
  -24.8429  -28.9740   20.1073 C   0  0  0  0  0  0
  -22.7396  -29.4681   22.4966 C   0  0  0  0  0  0
  -18.0277  -28.1368   22.8511 C   0  0  0  0  0  0
  -24.1504  -36.7296   23.2635 C   0  0  0  0  0  0
  -25.9297  -30.8310   21.3716 C   0  0  0  0  0  0
  -26.0021  -29.4702   20.7146 C   0  0  0  0  0  0
  -27.1930  -28.7076   20.7107 C   0  0  0  0  0  0
  -26.0509  -26.9811   19.4376 C   0  0  0  0  0  0
  -24.8622  -27.7278   19.4655 C   0  0  0  0  0  0
  -23.6054  -29.8381   20.1628 C   0  0  0  0  0  0
  -25.4121  -36.3091   24.0338 C   0  0  1  0  0  0
  -20.5872  -28.3661   23.1316 C   0  0  2  0  0  0
  -20.6779  -26.9393   22.5426 C   0  0  0  0  0  0
  -19.5755  -26.6374   21.5235 C   0  0  0  0  0  0
  -18.1931  -26.7920   22.1634 C   0  0  0  0  0  0
  -19.1524  -28.8832   23.2925 C   0  0  0  0  0  0
  -18.9445  -30.1439   23.8930 C   0  0  0  0  0  0
  -17.6444  -30.6580   24.0562 C   0  0  0  0  0  0
  -25.9046  -34.9461   23.5119 C   0  0  0  0  0  0
  -16.5336  -29.9077   23.6315 C   0  0  0  0  0  0
  -16.7265  -28.6490   23.0346 C   0  0  0  0  0  0
  -26.4482  -31.6581   25.0699 C   0  0  0  0  0  0
  -25.3717  -31.3709   26.1419 C   0  0  0  0  0  0
  -27.0349  -30.3026   24.6107 C   0  0  0  0  0  0
  -27.6043  -32.4301   25.7469 C   0  0  0  0  0  0
  -27.5586  -37.1815   24.8456 C   0  0  0  0  0  0
  -21.4127  -29.3031   22.3704 N   0  0  0  0  0  0
  -26.4304  -37.3769   23.9395 N   0  0  0  0  0  0
  -24.6644  -31.0804   22.1022 N   0  0  0  0  0  0
  -23.4185  -28.8212   23.2986 O   0  0  0  0  0  0
  -28.3795  -26.6808   20.1445 O   0  0  0  0  0  0
  -26.5576  -34.8916   22.4665 O   0  0  0  0  0  0
  -23.5329  -32.1473   23.7506 O   0  0  0  0  0  0
  -28.8051  -18.5330   21.0504 C   0  0  0  0  0  0
  -31.0410  -19.0613   20.2559 C   0  0  0  0  0  0
  -29.9907  -18.1274   20.3981 C   0  0  0  0  0  0
  -28.6542  -19.8639   21.5126 C   0  0  0  0  0  0
  -30.9012  -20.3847   20.7187 C   0  0  0  0  0  0
  -29.6972  -20.8085   21.3216 C   0  0  0  0  0  0
  -27.3570  -20.2535   22.1988 C   0  0  0  0  0  0
  -28.5069  -17.4774   16.1912 C   0  0  0  0  0  0
  -29.3134  -17.7646   17.4646 C   0  0  0  0  0  0
  -29.1683  -16.6398   18.5067 C   0  0  0  0  0  0
  -29.1555  -24.4269   20.8908 C   0  0  0  0  0  0
  -28.2267  -25.2592   19.9874 C   0  0  0  0  0  0
  -28.7610  -22.9292   20.8600 C   0  0  0  0  0  0
  -30.1158  -16.7559   19.7225 C   0  0  2  0  0  0
  -31.9441  -21.2958   20.5518 N   0  0  0  0  0  0
  -29.9141  -15.5730   20.5858 N   0  0  0  0  0  0
  -29.5886  -22.1303   21.7090 O   0  0  0  0  0  0
  -31.4542  -12.3438   19.1546 H   0  0  0  0  0  0
  -30.2716  -11.2755   19.8552 H   0  0  0  0  0  0
  -29.7279  -11.7282   17.4516 H   0  0  0  0  0  0
  -29.6998  -13.4424   17.7550 H   0  0  0  0  0  0
  -27.7732  -11.3318   18.7724 H   0  0  0  0  0  0
  -27.3814  -12.6976   17.7668 H   0  0  0  0  0  0
  -27.6791  -14.2612   19.5572 H   0  0  0  0  0  0
  -28.6538  -12.0097   21.3764 H   0  0  0  0  0  0
  -28.4750  -13.6849   21.8400 H   0  0  0  0  0  0
  -25.2776   -9.5692   22.4716 H   0  0  0  0  0  0
  -24.0021   -7.4642   22.7451 H   0  0  0  0  0  0
  -21.0866   -8.8761   19.8931 H   0  0  0  0  0  0
  -22.3696  -10.9661   19.6130 H   0  0  0  0  0  0
  -21.1998   -7.6133   23.9698 H   0  0  0  0  0  0
  -21.1495   -6.0497   25.9061 H   0  0  0  0  0  0
  -22.0595   -2.7598   23.2826 H   0  0  0  0  0  0
  -22.4142  -11.9860   22.4806 H   0  0  0  0  0  0
  -21.1081  -13.1132   22.2615 H   0  0  0  0  0  0
  -24.6549  -15.8480   20.5039 H   0  0  0  0  0  0
  -26.2676  -15.6299   20.0654 H   0  0  0  0  0  0
  -26.7113  -32.5522   23.1104 H   0  0  0  0  0  0
  -25.0118  -33.9747   25.0489 H   0  0  0  0  0  0
  -22.6888  -31.3168   21.4160 H   0  0  0  0  0  0
  -23.3765  -35.9628   23.3292 H   0  0  0  0  0  0
  -24.3606  -36.8909   22.2048 H   0  0  0  0  0  0
  -23.7263  -37.6505   23.6654 H   0  0  0  0  0  0
  -26.0529  -31.5981   20.6051 H   0  0  0  0  0  0
  -26.8140  -30.8706   21.9971 H   0  0  0  0  0  0
  -28.0781  -29.0819   21.2076 H   0  0  0  0  0  0
  -26.0303  -26.0490   18.8935 H   0  0  0  0  0  0
  -23.9771  -27.3505   18.9715 H   0  0  0  0  0  0
  -23.7097  -30.6149   19.4044 H   0  0  0  0  0  0
  -22.7314  -29.2551   19.8685 H   0  0  0  0  0  0
  -25.1318  -36.1934   25.0832 H   0  0  0  0  0  0
  -20.9990  -28.3232   24.1428 H   0  0  0  0  0  0
  -20.5716  -26.2256   23.3611 H   0  0  0  0  0  0
  -21.6638  -26.7469   22.1186 H   0  0  0  0  0  0
  -19.6911  -25.6298   21.1229 H   0  0  0  0  0  0
  -19.6698  -27.3202   20.6785 H   0  0  0  0  0  0
  -17.4225  -26.6709   21.4010 H   0  0  0  0  0  0
  -18.0302  -26.0047   22.9005 H   0  0  0  0  0  0
  -19.7920  -30.7253   24.2307 H   0  0  0  0  0  0
  -17.4994  -31.6265   24.5144 H   0  0  0  0  0  0
  -15.5331  -30.2977   23.7630 H   0  0  0  0  0  0
  -15.8673  -28.0812   22.7033 H   0  0  0  0  0  0
  -24.5853  -30.7127   25.7706 H   0  0  0  0  0  0
  -24.8954  -32.2889   26.4875 H   0  0  0  0  0  0
  -25.8001  -30.8815   27.0173 H   0  0  0  0  0  0
  -26.2940  -29.6748   24.1147 H   0  0  0  0  0  0
  -27.4114  -29.7291   25.4585 H   0  0  0  0  0  0
  -27.8755  -30.4352   23.9292 H   0  0  0  0  0  0
  -27.2663  -33.3586   26.2078 H   0  0  0  0  0  0
  -28.3840  -32.6888   25.0295 H   0  0  0  0  0  0
  -28.0733  -31.8413   26.5358 H   0  0  0  0  0  0
  -28.2597  -38.0118   24.7514 H   0  0  0  0  0  0
  -28.1107  -36.2657   24.6293 H   0  0  0  0  0  0
  -27.2312  -37.1454   25.8861 H   0  0  0  0  0  0
  -20.9262  -29.8726   21.6920 H   0  0  0  0  0  0
  -26.0193  -38.2855   24.1373 H   0  0  0  0  0  0
  -27.9886  -17.8323   21.1570 H   0  0  0  0  0  0
  -31.9485  -18.7631   19.7480 H   0  0  0  0  0  0
  -26.8918  -19.3873   22.6703 H   0  0  0  0  0  0
  -26.6494  -20.6617   21.4769 H   0  0  0  0  0  0
  -27.5263  -20.9983   22.9779 H   0  0  0  0  0  0
  -28.6237  -18.2823   15.4654 H   0  0  0  0  0  0
  -27.4433  -17.3668   16.4069 H   0  0  0  0  0  0
  -28.8420  -16.5548   15.7166 H   0  0  0  0  0  0
  -28.9856  -18.7152   17.8903 H   0  0  0  0  0  0
  -30.3633  -17.8906   17.1987 H   0  0  0  0  0  0
  -29.3529  -15.6907   18.0060 H   0  0  0  0  0  0
  -28.1312  -16.6052   18.8445 H   0  0  0  0  0  0
  -29.0878  -24.7966   21.9152 H   0  0  0  0  0  0
  -30.1911  -24.5521   20.5753 H   0  0  0  0  0  0
  -27.2201  -24.9308   20.2419 H   0  0  0  0  0  0
  -28.3924  -25.0040   18.9405 H   0  0  0  0  0  0
  -28.8043  -22.5657   19.8306 H   0  0  0  0  0  0
  -27.7260  -22.8263   21.1887 H   0  0  0  0  0  0
  -31.1252  -16.7214   19.3067 H   0  0  0  0  0  0
  -32.6301  -21.1297   19.8219 H   0  0  0  0  0  0
  -31.7103  -22.2768   20.6625 H   0  0  0  0  0  0
  -28.9781  -15.4240   20.9269 H   0  0  0  0  0  0
  1 25  1  0  0  0
  1 30  2  0  0  0
  1 86  1  0  0  0
  2  3  1  0  0  0
  2 25  1  0  0  0
  2 88  1  0  0  0
  2 89  1  0  0  0
  3  4  1  0  0  0
  3 90  1  0  0  0
  3 91  1  0  0  0
  4  5  1  0  0  0
  4 92  1  0  0  0
  4 93  1  0  0  0
  5  6  1  0  0  0
  5 26  1  0  0  0
  5 94  1  0  0  0
  6 25  1  0  0  0
  6 95  1  0  0  0
  6 96  1  0  0  0
  7  8  2  0  0  0
  7 26  1  0  0  0
  7 29  1  0  0  0
  8  9  1  0  0  0
  8 22  1  0  0  0
  9 10  1  0  0  0
  9 27  2  0  0  0
 10 11  2  0  0  0
 10 15  1  0  0  0
 11 12  1  0  0  0
 11 97  1  0  0  0
 12 13  2  0  0  0
 12 98  1  0  0  0
 13 14  1  0  0  0
 13 31  1  0  0  0
 14 15  2  0  0  0
 14 99  1  0  0  0
 15100  1  0  0  0
 16 17  2  0  0  0
 16 21  1  0  0  0
 16 31  1  0  0  0
 17 18  1  0  0  0
 17101  1  0  0  0
 18 19  2  0  0  0
 18102  1  0  0  0
 19 20  1  0  0  0
 19 24  1  0  0  0
 20 21  2  0  0  0
 20103  1  0  0  0
 21 23  1  0  0  0
 22 28  1  0  0  0
 22 32  2  0  0  0
 26 27  1  0  0  0
 28104  1  0  0  0
 28105  1  0  0  0
 29106  1  0  0  0
 29107  1  0  0  0
 33 34  1  0  0  0
 33 66  1  0  0  0
 33 70  2  0  0  0
 34 36  1  0  0  0
 34 59  1  0  0  0
 34108  1  0  0  0
 35 44  2  0  0  0
 35 45  1  0  0  0
 35 68  1  0  0  0
 36 56  1  0  0  0
 36109  1  0  0  0
 37 39  1  0  0  0
 37 47  1  0  0  0
 37 66  1  0  0  0
 37110  1  0  0  0
 38 43  2  0  0  0
 38 46  1  0  0  0
 38 47  1  0  0  0
 39 64  1  0  0  0
 39 67  2  0  0  0
 40 52  1  0  0  0
 40 53  2  0  0  0
 40 58  1  0  0  0
 41111  1  0  0  0
 41112  1  0  0  0
 41113  1  0  0  0
 41 48  1  0  0  0
 42 43  1  0  0  0
 42 66  1  0  0  0
 42114  1  0  0  0
 42115  1  0  0  0
 43 44  1  0  0  0
 44116  1  0  0  0
 45 46  2  0  0  0
 45117  1  0  0  0
 46118  1  0  0  0
 47119  1  0  0  0
 47120  1  0  0  0
 48 56  1  0  0  0
 48 65  1  0  0  0
 48121  1  0  0  0
 49 50  1  0  0  0
 49 53  1  0  0  0
 49 64  1  0  0  0
 49122  1  0  0  0
 50 51  1  0  0  0
 50123  1  0  0  0
 50124  1  0  0  0
 51 52  1  0  0  0
 51125  1  0  0  0
 51126  1  0  0  0
 52127  1  0  0  0
 52128  1  0  0  0
 53 54  1  0  0  0
 54 55  2  0  0  0
 54129  1  0  0  0
 55 57  1  0  0  0
 55130  1  0  0  0
 56 69  2  0  0  0
 57 58  2  0  0  0
 57131  1  0  0  0
 58132  1  0  0  0
 59 60  1  0  0  0
 59 61  1  0  0  0
 59 62  1  0  0  0
 60133  1  0  0  0
 60134  1  0  0  0
 60135  1  0  0  0
 61136  1  0  0  0
 61137  1  0  0  0
 61138  1  0  0  0
 62139  1  0  0  0
 62140  1  0  0  0
 62141  1  0  0  0
 63 65  1  0  0  0
 63142  1  0  0  0
 63143  1  0  0  0
 63144  1  0  0  0
 64145  1  0  0  0
 65146  1  0  0  0
 68 82  1  0  0  0
 71 73  2  0  0  0
 71 74  1  0  0  0
 71147  1  0  0  0
 72 73  1  0  0  0
 72 75  2  0  0  0
 72148  1  0  0  0
 73 84  1  0  0  0
 74 76  2  0  0  0
 74 77  1  0  0  0
 75 76  1  0  0  0
 75 85  1  0  0  0
 76 87  1  0  0  0
 77149  1  0  0  0
 77150  1  0  0  0
 77151  1  0  0  0
 78 79  1  0  0  0
 78152  1  0  0  0
 78153  1  0  0  0
 78154  1  0  0  0
 79 80  1  0  0  0
 79155  1  0  0  0
 79156  1  0  0  0
 80157  1  0  0  0
 80158  1  0  0  0
 80 84  1  0  0  0
 81 82  1  0  0  0
 81 83  1  0  0  0
 81159  1  0  0  0
 81160  1  0  0  0
 82161  1  0  0  0
 82162  1  0  0  0
 83 87  1  0  0  0
 83163  1  0  0  0
 83164  1  0  0  0
 84 86  1  0  0  0
 84165  1  0  0  0
 85166  1  0  0  0
 85167  1  0  0  0
 86168  1  0  0  0
M  ISO  4   1 100  68 101  82 101  86 100
M  END
> <chiral flag>
0

> <version>
0

> <s_m_source_file>
/data/baiqing/PycharmProjects/Reinvent-master-3.2/result/LINK_invent/BTK/process_docking_weight1_custom_product_contain_oxygen_bond_distance_aromatic_linkinvent_7_9_3/rearranged_h_0101.sdf

> <i_m_source_file_index>
10

> <r_mmod_Potential_Energy-OPLS-2005>
-92.0117568969727

> <r_mmod_Stretch_Energy-OPLS-2005>
37.6016616821289

> <r_mmod_Bend_Energy-OPLS-2005>
96.8149108886719

> <r_mmod_Torsional_Energy-OPLS-2005>
259.772735595703

> <r_mmod_Improper_Torsional_Energy-OPLS-2005>
15.0515432357788

> <r_mmod_Van_der_Waal_Energy-OPLS-2005>
153.612899780273

> <r_mmod_Electrostatic_Energy-OPLS-2005>
-455.516174316406

> <r_mmod_Solvation_Energy-OPLS-2005>
-219.273803710938

> <b_mmod_Minimization_Converged-OPLS-2005>
0

> <r_mmod_RMS_Derivative-OPLS-2005>
3.27713370323181

$$$$
10
                    3D
 Structure written by MMmdl.
158167  0  0  1  0            999 V2000
  -30.6789  -14.4732   20.5973 C   0  0  0  0  0  0
  -30.4327  -12.3144   19.4214 C   0  0  0  0  0  0
  -29.4987  -12.4991   18.2058 C   0  0  0  0  0  0
  -28.0176  -12.3682   18.6146 C   0  0  0  0  0  0
  -27.6650  -13.2014   19.8767 C   0  0  2  0  0  0
  -28.7033  -12.9554   20.9944 C   0  0  0  0  0  0
  -25.2585  -13.8145   20.5666 C   0  0  0  0  0  0
  -24.1844  -13.0444   20.9188 C   0  0  0  0  0  0
  -24.6394  -11.6908   20.8774 C   0  0  0  0  0  0
  -23.9065  -10.4306   21.0438 C   0  0  0  0  0  0
  -24.3623   -9.4212   21.9187 C   0  0  0  0  0  0
  -23.6313   -8.2244   22.0739 C   0  0  0  0  0  0
  -22.4288   -8.0291   21.3552 C   0  0  0  0  0  0
  -21.9922   -9.0265   20.4647 C   0  0  0  0  0  0
  -22.7246  -10.2149   20.3070 C   0  0  0  0  0  0
  -21.6841   -6.0752   22.5295 C   0  0  0  0  0  0
  -21.4013   -6.5648   23.8234 C   0  0  0  0  0  0
  -21.3663   -5.6789   24.9187 C   0  0  0  0  0  0
  -21.6032   -4.3053   24.7226 C   0  0  0  0  0  0
  -21.8823   -3.8160   23.4347 C   0  0  0  0  0  0
  -21.9190   -4.6981   22.3411 C   0  0  0  0  0  0
  -22.7866  -13.5259   21.1840 C   0  0  0  0  0  0
  -22.1655   -4.2167   21.0987 F   0  0  0  0  0  0
  -21.5623   -3.4538   25.7739 F   0  0  0  0  0  0
  -30.0365  -13.2802   20.4584 N   0  0  0  0  0  0
  -26.3021  -12.9315   20.3357 N   0  0  0  0  0  0
  -25.9308  -11.6479   20.5792 N   0  0  0  0  0  0
  -22.0500  -12.8294   22.0416 N   0  0  0  0  0  0
  -25.4287  -15.1861   20.4047 N   0  0  0  0  0  0
  -31.7785  -14.6871   20.0813 O   0  0  0  0  0  0
  -21.6631   -6.8908   21.4265 O   0  0  0  0  0  0
  -22.3572  -14.5563   20.6650 O   0  0  0  0  0  0
  -24.6168  -31.8659   23.2068 C   0  0  0  0  0  0
  -25.9051  -32.4817   23.8373 C   0  0  1  0  0  0
  -27.2316  -27.4134   20.1201 C   0  0  0  0  0  0
  -25.5905  -33.8613   24.2306 N   0  0  0  0  0  0
  -23.4062  -30.4886   21.5441 C   0  0  2  0  0  0
  -24.8551  -28.9444   20.1173 C   0  0  0  0  0  0
  -22.7414  -29.4669   22.4961 C   0  0  0  0  0  0
  -18.0276  -28.1383   22.8494 C   0  0  0  0  0  0
  -24.1486  -36.7304   23.2642 C   0  0  0  0  0  0
  -25.9357  -30.8227   21.3645 C   0  0  0  0  0  0
  -26.0132  -29.4533   20.7197 C   0  0  0  0  0  0
  -27.2070  -28.6937   20.7213 C   0  0  0  0  0  0
  -26.0641  -26.9214   19.5062 C   0  0  0  0  0  0
  -24.8751  -27.6767   19.5068 C   0  0  0  0  0  0
  -23.6190  -29.8149   20.1610 C   0  0  0  0  0  0
  -25.4111  -36.3102   24.0342 C   0  0  1  0  0  0
  -20.5872  -28.3680   23.1314 C   0  0  2  0  0  0
  -20.6772  -26.9416   22.5421 C   0  0  0  0  0  0
  -19.5754  -26.6397   21.5211 C   0  0  0  0  0  0
  -18.1931  -26.7933   22.1619 C   0  0  0  0  0  0
  -19.1526  -28.8849   23.2903 C   0  0  0  0  0  0
  -18.9459  -30.1457   23.8916 C   0  0  0  0  0  0
  -17.6468  -30.6592   24.0574 C   0  0  0  0  0  0
  -25.9036  -34.9471   23.5113 C   0  0  0  0  0  0
  -16.5359  -29.9095   23.6335 C   0  0  0  0  0  0
  -16.7270  -28.6512   23.0352 C   0  0  0  0  0  0
  -26.4481  -31.6598   25.0707 C   0  0  0  0  0  0
  -25.3766  -31.3715   26.1471 C   0  0  0  0  0  0
  -27.0307  -30.3037   24.6083 C   0  0  0  0  0  0
  -27.6046  -32.4333   25.7487 C   0  0  0  0  0  0
  -27.5575  -37.1810   24.8467 C   0  0  0  0  0  0
  -21.4144  -29.3040   22.3708 N   0  0  0  0  0  0
  -26.4289  -37.3793   23.9413 N   0  0  0  0  0  0
  -24.6704  -31.0754   22.0965 N   0  0  0  0  0  0
  -23.4174  -28.8224   23.3025 O   0  0  0  0  0  0
  -28.3742  -26.6425   20.1039 O   0  0  0  0  0  0
  -26.5602  -34.8937   22.4674 O   0  0  0  0  0  0
  -23.5353  -32.1418   23.7448 O   0  0  0  0  0  0
  -28.6594  -18.8714   20.5575 C   0  0  0  0  0  0
  -28.7251  -17.4888   20.8628 C   0  0  0  0  0  0
  -31.0821  -18.9779   20.6062 C   0  0  0  0  0  0
  -29.8436  -19.6331   20.4054 C   0  0  0  0  0  0
  -29.9695  -16.8279   21.0137 C   0  0  0  0  0  0
  -31.1508  -17.6064   20.9355 C   0  0  0  0  0  0
  -29.8411  -21.0650   19.8997 C   0  0  0  0  0  0
  -28.0483  -23.3760   22.1871 C   0  0  0  0  0  0
  -28.2960  -21.9288   21.7194 C   0  0  0  0  0  0
  -29.1512  -23.4486   20.0711 C   0  0  0  0  0  0
  -28.1491  -24.2456   20.9278 C   0  0  2  0  0  0
  -28.5165  -25.7358   21.2141 C   0  0  0  0  0  0
  -29.1029  -22.0370   20.5038 N   0  0  0  0  0  0
  -29.9758  -15.4156   21.2635 N   0  0  0  0  0  0
  -30.5678  -21.3270   18.9373 O   0  0  0  0  0  0
  -32.3622  -17.0596   21.1901 F   0  0  0  0  0  0
  -31.4735  -12.4295   19.1170 H   0  0  0  0  0  0
  -30.3531  -11.2988   19.8111 H   0  0  0  0  0  0
  -29.7368  -11.7613   17.4380 H   0  0  0  0  0  0
  -29.6672  -13.4772   17.7547 H   0  0  0  0  0  0
  -27.8210  -11.3135   18.8053 H   0  0  0  0  0  0
  -27.3709  -12.6467   17.7819 H   0  0  0  0  0  0
  -27.7219  -14.2548   19.5970 H   0  0  0  0  0  0
  -28.6794  -11.9079   21.2966 H   0  0  0  0  0  0
  -28.4497  -13.5162   21.8962 H   0  0  0  0  0  0
  -25.2782   -9.5677   22.4740 H   0  0  0  0  0  0
  -24.0017   -7.4638   22.7448 H   0  0  0  0  0  0
  -21.0842   -8.8804   19.8977 H   0  0  0  0  0  0
  -22.3719  -10.9679   19.6175 H   0  0  0  0  0  0
  -21.2011   -7.6156   23.9758 H   0  0  0  0  0  0
  -21.1466   -6.0506   25.9090 H   0  0  0  0  0  0
  -22.0597   -2.7623   23.2841 H   0  0  0  0  0  0
  -22.4096  -11.9984   22.4862 H   0  0  0  0  0  0
  -21.1110  -13.1322   22.2591 H   0  0  0  0  0  0
  -24.6548  -15.8333   20.5063 H   0  0  0  0  0  0
  -26.2607  -15.6185   20.0262 H   0  0  0  0  0  0
  -26.7118  -32.5521   23.1131 H   0  0  0  0  0  0
  -25.0097  -33.9769   25.0477 H   0  0  0  0  0  0
  -22.6965  -31.3065   21.3990 H   0  0  0  0  0  0
  -23.3742  -35.9643   23.3332 H   0  0  0  0  0  0
  -24.3580  -36.8876   22.2048 H   0  0  0  0  0  0
  -23.7251  -37.6525   23.6633 H   0  0  0  0  0  0
  -26.0539  -31.5824   20.5906 H   0  0  0  0  0  0
  -26.8225  -30.8787   21.9840 H   0  0  0  0  0  0
  -28.1036  -29.0789   21.1873 H   0  0  0  0  0  0
  -26.0749  -25.9490   19.0349 H   0  0  0  0  0  0
  -23.9859  -27.2767   19.0389 H   0  0  0  0  0  0
  -23.7337  -30.5845   19.3982 H   0  0  0  0  0  0
  -22.7436  -29.2358   19.8626 H   0  0  0  0  0  0
  -25.1288  -36.1959   25.0838 H   0  0  0  0  0  0
  -20.9985  -28.3244   24.1418 H   0  0  0  0  0  0
  -20.5664  -26.2283   23.3609 H   0  0  0  0  0  0
  -21.6644  -26.7440   22.1217 H   0  0  0  0  0  0
  -19.6911  -25.6305   21.1228 H   0  0  0  0  0  0
  -19.6689  -27.3218   20.6757 H   0  0  0  0  0  0
  -17.4199  -26.6692   21.4016 H   0  0  0  0  0  0
  -18.0320  -26.0067   22.9009 H   0  0  0  0  0  0
  -19.7943  -30.7265   24.2274 H   0  0  0  0  0  0
  -17.5028  -31.6267   24.5171 H   0  0  0  0  0  0
  -15.5360  -30.3000   23.7660 H   0  0  0  0  0  0
  -15.8670  -28.0845   22.7045 H   0  0  0  0  0  0
  -24.5934  -30.7049   25.7828 H   0  0  0  0  0  0
  -24.8979  -32.2874   26.4940 H   0  0  0  0  0  0
  -25.8159  -30.8887   27.0204 H   0  0  0  0  0  0
  -26.2828  -29.6821   24.1133 H   0  0  0  0  0  0
  -27.4057  -29.7267   25.4541 H   0  0  0  0  0  0
  -27.8687  -30.4355   23.9238 H   0  0  0  0  0  0
  -27.2626  -33.3603   26.2114 H   0  0  0  0  0  0
  -28.3850  -32.6945   25.0321 H   0  0  0  0  0  0
  -28.0721  -31.8428   26.5373 H   0  0  0  0  0  0
  -28.2611  -38.0091   24.7506 H   0  0  0  0  0  0
  -28.1056  -36.2623   24.6300 H   0  0  0  0  0  0
  -27.2302  -37.1468   25.8875 H   0  0  0  0  0  0
  -20.9300  -29.8765   21.6937 H   0  0  0  0  0  0
  -26.0174  -38.2869   24.1402 H   0  0  0  0  0  0
  -27.6942  -19.3272   20.3800 H   0  0  0  0  0  0
  -27.8024  -16.9300   20.9455 H   0  0  0  0  0  0
  -32.0033  -19.5308   20.4937 H   0  0  0  0  0  0
  -28.8242  -23.6655   22.8988 H   0  0  0  0  0  0
  -27.0889  -23.4902   22.6929 H   0  0  0  0  0  0
  -27.3498  -21.4419   21.4777 H   0  0  0  0  0  0
  -28.7929  -21.3327   22.4887 H   0  0  0  0  0  0
  -30.1643  -23.8214   20.2266 H   0  0  0  0  0  0
  -28.9229  -23.5419   19.0074 H   0  0  0  0  0  0
  -27.1767  -24.2126   20.4358 H   0  0  0  0  0  0
  -29.5525  -25.7874   21.5504 H   0  0  0  0  0  0
  -27.9267  -26.0931   22.0609 H   0  0  0  0  0  0
  -29.1325  -15.0483   21.6741 H   0  0  0  0  0  0
  1 25  1  0  0  0
  1 30  2  0  0  0
  1 84  1  0  0  0
  2  3  1  0  0  0
  2 25  1  0  0  0
  2 87  1  0  0  0
  2 88  1  0  0  0
  3  4  1  0  0  0
  3 89  1  0  0  0
  3 90  1  0  0  0
  4  5  1  0  0  0
  4 91  1  0  0  0
  4 92  1  0  0  0
  5  6  1  0  0  0
  5 26  1  0  0  0
  5 93  1  0  0  0
  6 25  1  0  0  0
  6 94  1  0  0  0
  6 95  1  0  0  0
  7  8  2  0  0  0
  7 26  1  0  0  0
  7 29  1  0  0  0
  8  9  1  0  0  0
  8 22  1  0  0  0
  9 10  1  0  0  0
  9 27  2  0  0  0
 10 11  2  0  0  0
 10 15  1  0  0  0
 11 12  1  0  0  0
 11 96  1  0  0  0
 12 13  2  0  0  0
 12 97  1  0  0  0
 13 14  1  0  0  0
 13 31  1  0  0  0
 14 15  2  0  0  0
 14 98  1  0  0  0
 15 99  1  0  0  0
 16 17  2  0  0  0
 16 21  1  0  0  0
 16 31  1  0  0  0
 17 18  1  0  0  0
 17100  1  0  0  0
 18 19  2  0  0  0
 18101  1  0  0  0
 19 20  1  0  0  0
 19 24  1  0  0  0
 20 21  2  0  0  0
 20102  1  0  0  0
 21 23  1  0  0  0
 22 28  1  0  0  0
 22 32  2  0  0  0
 26 27  1  0  0  0
 28103  1  0  0  0
 28104  1  0  0  0
 29105  1  0  0  0
 29106  1  0  0  0
 33 34  1  0  0  0
 33 66  1  0  0  0
 33 70  2  0  0  0
 34 36  1  0  0  0
 34 59  1  0  0  0
 34107  1  0  0  0
 35 44  2  0  0  0
 35 45  1  0  0  0
 35 68  1  0  0  0
 36 56  1  0  0  0
 36108  1  0  0  0
 37 39  1  0  0  0
 37 47  1  0  0  0
 37 66  1  0  0  0
 37109  1  0  0  0
 38 43  2  0  0  0
 38 46  1  0  0  0
 38 47  1  0  0  0
 39 64  1  0  0  0
 39 67  2  0  0  0
 40 52  1  0  0  0
 40 53  2  0  0  0
 40 58  1  0  0  0
 41110  1  0  0  0
 41111  1  0  0  0
 41112  1  0  0  0
 41 48  1  0  0  0
 42 43  1  0  0  0
 42 66  1  0  0  0
 42113  1  0  0  0
 42114  1  0  0  0
 43 44  1  0  0  0
 44115  1  0  0  0
 45 46  2  0  0  0
 45116  1  0  0  0
 46117  1  0  0  0
 47118  1  0  0  0
 47119  1  0  0  0
 48 56  1  0  0  0
 48 65  1  0  0  0
 48120  1  0  0  0
 49 50  1  0  0  0
 49 53  1  0  0  0
 49 64  1  0  0  0
 49121  1  0  0  0
 50 51  1  0  0  0
 50122  1  0  0  0
 50123  1  0  0  0
 51 52  1  0  0  0
 51124  1  0  0  0
 51125  1  0  0  0
 52126  1  0  0  0
 52127  1  0  0  0
 53 54  1  0  0  0
 54 55  2  0  0  0
 54128  1  0  0  0
 55 57  1  0  0  0
 55129  1  0  0  0
 56 69  2  0  0  0
 57 58  2  0  0  0
 57130  1  0  0  0
 58131  1  0  0  0
 59 60  1  0  0  0
 59 61  1  0  0  0
 59 62  1  0  0  0
 60132  1  0  0  0
 60133  1  0  0  0
 60134  1  0  0  0
 61135  1  0  0  0
 61136  1  0  0  0
 61137  1  0  0  0
 62138  1  0  0  0
 62139  1  0  0  0
 62140  1  0  0  0
 63 65  1  0  0  0
 63141  1  0  0  0
 63142  1  0  0  0
 63143  1  0  0  0
 64144  1  0  0  0
 65145  1  0  0  0
 68 82  1  0  0  0
 71 72  2  0  0  0
 71 74  1  0  0  0
 71146  1  0  0  0
 72 75  1  0  0  0
 72147  1  0  0  0
 73 74  2  0  0  0
 73 76  1  0  0  0
 73148  1  0  0  0
 74 77  1  0  0  0
 75 76  2  0  0  0
 75 84  1  0  0  0
 76 86  1  0  0  0
 77 83  1  0  0  0
 77 85  2  0  0  0
 78 79  1  0  0  0
 78 81  1  0  0  0
 78149  1  0  0  0
 78150  1  0  0  0
 79 83  1  0  0  0
 79151  1  0  0  0
 79152  1  0  0  0
 80 81  1  0  0  0
 80 83  1  0  0  0
 80153  1  0  0  0
 80154  1  0  0  0
 81 82  1  0  0  0
 81155  1  0  0  0
 82156  1  0  0  0
 82157  1  0  0  0
 84158  1  0  0  0
M  ISO  4   1 100  68 101  82 101  84 100
M  END
> <chiral flag>
0

> <version>
0

> <s_m_source_file>
/data/baiqing/PycharmProjects/Reinvent-master-3.2/result/LINK_invent/BTK/process_docking_weight1_custom_product_contain_oxygen_bond_distance_aromatic_linkinvent_7_9_3/rearranged_h_0101.sdf

> <i_m_source_file_index>
11

> <r_mmod_Potential_Energy-OPLS-2005>
61.5994758605957

> <r_mmod_Stretch_Energy-OPLS-2005>
42.0884399414062

> <r_mmod_Bend_Energy-OPLS-2005>
121.888999938965

> <r_mmod_Torsional_Energy-OPLS-2005>
345.329681396484

> <r_mmod_Improper_Torsional_Energy-OPLS-2005>
5.24740695953369

> <r_mmod_Van_der_Waal_Energy-OPLS-2005>
143.141616821289

> <r_mmod_Electrostatic_Energy-OPLS-2005>
-371.111633300781

> <r_mmod_Solvation_Energy-OPLS-2005>
-238.52311706543

> <b_mmod_Minimization_Converged-OPLS-2005>
0

> <r_mmod_RMS_Derivative-OPLS-2005>
3.09271645545959

$$$$
11
                    3D
 Structure written by MMmdl.
157166  0  0  1  0            999 V2000
  -30.4927  -14.8903   20.5128 C   0  0  0  0  0  0
  -30.4839  -12.5564   19.5134 C   0  0  0  0  0  0
  -29.5388  -12.5081   18.2841 C   0  0  0  0  0  0
  -28.0612  -12.3045   18.6970 C   0  0  0  0  0  0
  -27.6589  -13.2035   19.8955 C   0  0  2  0  0  0
  -28.7105  -13.0527   21.0090 C   0  0  0  0  0  0
  -25.2559  -13.8126   20.5837 C   0  0  0  0  0  0
  -24.1778  -13.0436   20.9174 C   0  0  0  0  0  0
  -24.6334  -11.6900   20.8733 C   0  0  0  0  0  0
  -23.8990  -10.4310   21.0378 C   0  0  0  0  0  0
  -24.3589   -9.4238   21.9152 C   0  0  0  0  0  0
  -23.6305   -8.2253   22.0712 C   0  0  0  0  0  0
  -22.4269   -8.0284   21.3527 C   0  0  0  0  0  0
  -21.9894   -9.0228   20.4626 C   0  0  0  0  0  0
  -22.7146  -10.2155   20.3047 C   0  0  0  0  0  0
  -21.6854   -6.0769   22.5298 C   0  0  0  0  0  0
  -21.4025   -6.5665   23.8226 C   0  0  0  0  0  0
  -21.3652   -5.6799   24.9162 C   0  0  0  0  0  0
  -21.6023   -4.3064   24.7205 C   0  0  0  0  0  0
  -21.8828   -3.8176   23.4314 C   0  0  0  0  0  0
  -21.9199   -4.7006   22.3390 C   0  0  0  0  0  0
  -22.7836  -13.5242   21.1834 C   0  0  0  0  0  0
  -22.1662   -4.2196   21.0965 F   0  0  0  0  0  0
  -21.5602   -3.4534   25.7701 F   0  0  0  0  0  0
  -29.9749  -13.5869   20.4631 N   0  0  0  0  0  0
  -26.3028  -12.9305   20.3561 N   0  0  0  0  0  0
  -25.9284  -11.6473   20.5813 N   0  0  0  0  0  0
  -22.0498  -12.8313   22.0451 N   0  0  0  0  0  0
  -25.4304  -15.1883   20.4470 N   0  0  0  0  0  0
  -31.6535  -15.0490   20.1127 O   0  0  0  0  0  0
  -21.6640   -6.8880   21.4247 O   0  0  0  0  0  0
  -22.3531  -14.5550   20.6656 O   0  0  0  0  0  0
  -24.6398  -31.8472   23.1917 C   0  0  0  0  0  0
  -25.9198  -32.4708   23.8286 C   0  0  1  0  0  0
  -27.2613  -27.2132   20.1261 C   0  0  0  0  0  0
  -25.5970  -33.8504   24.2216 N   0  0  0  0  0  0
  -23.4432  -30.4681   21.5295 C   0  0  2  0  0  0
  -24.8995  -28.8975   20.1127 C   0  0  0  0  0  0
  -22.7551  -29.4587   22.4804 C   0  0  0  0  0  0
  -18.0315  -28.1409   22.8474 C   0  0  0  0  0  0
  -24.1507  -36.7257   23.2636 C   0  0  0  0  0  0
  -25.9950  -30.7429   21.3836 C   0  0  0  0  0  0
  -26.0707  -29.3598   20.7221 C   0  0  0  0  0  0
  -27.2465  -28.5327   20.7145 C   0  0  0  0  0  0
  -26.0531  -26.8180   19.5040 C   0  0  0  0  0  0
  -24.8982  -27.6336   19.4982 C   0  0  0  0  0  0
  -23.6718  -29.7937   20.1524 C   0  0  0  0  0  0
  -25.4142  -36.3028   24.0302 C   0  0  1  0  0  0
  -20.5929  -28.3743   23.1214 C   0  0  2  0  0  0
  -20.6811  -26.9450   22.5387 C   0  0  0  0  0  0
  -19.5775  -26.6413   21.5204 C   0  0  0  0  0  0
  -18.1957  -26.7962   22.1618 C   0  0  0  0  0  0
  -19.1569  -28.8894   23.2847 C   0  0  0  0  0  0
  -18.9487  -30.1484   23.8875 C   0  0  0  0  0  0
  -17.6483  -30.6598   24.0572 C   0  0  0  0  0  0
  -25.9067  -34.9398   23.5063 C   0  0  0  0  0  0
  -16.5375  -29.9082   23.6346 C   0  0  0  0  0  0
  -16.7300  -28.6514   23.0345 C   0  0  0  0  0  0
  -26.4553  -31.6552   25.0710 C   0  0  0  0  0  0
  -25.3755  -31.3739   26.1415 C   0  0  0  0  0  0
  -27.0442  -30.2941   24.6308 C   0  0  0  0  0  0
  -27.6088  -32.4327   25.7496 C   0  0  0  0  0  0
  -27.5568  -37.1790   24.8475 C   0  0  0  0  0  0
  -21.4242  -29.3076   22.3566 N   0  0  0  0  0  0
  -26.4298  -37.3735   23.9392 N   0  0  0  0  0  0
  -24.7104  -31.0396   22.0899 N   0  0  0  0  0  0
  -23.4211  -28.8123   23.2934 O   0  0  0  0  0  0
  -28.3919  -26.3355   20.2050 O   0  0  0  0  0  0
  -26.5634  -34.8900   22.4633 O   0  0  0  0  0  0
  -23.5538  -32.1304   23.7182 O   0  0  0  0  0  0
  -28.8612  -18.6631   21.5325 C   0  0  0  0  0  0
  -28.6964  -20.0757   21.3064 C   0  0  0  0  0  0
  -30.2362  -19.9329   19.5426 C   0  0  0  0  0  0
  -29.6811  -17.7577   20.7601 C   0  0  0  0  0  0
  -29.3280  -20.7984   20.2551 C   0  0  0  0  0  0
  -30.4134  -18.5004   19.7748 C   0  0  0  0  0  0
  -29.5453  -16.1656   21.0085 C   0  0  0  0  0  0
  -26.6747  -22.5415   20.5634 C   0  0  0  0  0  0
  -27.6503  -23.3425   21.4388 C   0  0  0  0  0  0
  -27.5224  -22.0112   19.3880 C   0  0  0  0  0  0
  -28.8362  -23.5287   20.5079 C   0  0  2  0  0  0
  -28.5117  -24.9183   19.6335 C   0  0  0  0  0  0
  -28.5152  -15.8853   21.6913 N   0  0  0  0  0  0
  -28.9221  -22.1550   19.7917 N   0  0  0  0  0  0
  -31.2859  -17.8347   18.9830 F   0  0  0  0  0  0
  -31.5069  -12.7661   19.1990 H   0  0  0  0  0  0
  -30.5440  -11.5828   20.0018 H   0  0  0  0  0  0
  -29.8545  -11.7033   17.6198 H   0  0  0  0  0  0
  -29.6330  -13.4369   17.7213 H   0  0  0  0  0  0
  -27.9501  -11.2536   18.9821 H   0  0  0  0  0  0
  -27.3891  -12.4615   17.8514 H   0  0  0  0  0  0
  -27.6826  -14.2374   19.5560 H   0  0  0  0  0  0
  -28.8050  -11.9955   21.2687 H   0  0  0  0  0  0
  -28.4154  -13.5021   21.9519 H   0  0  0  0  0  0
  -25.2706   -9.5752   22.4752 H   0  0  0  0  0  0
  -24.0081   -7.4657   22.7405 H   0  0  0  0  0  0
  -21.0818   -8.8720   19.8913 H   0  0  0  0  0  0
  -22.3566  -10.9715   19.6203 H   0  0  0  0  0  0
  -21.2014   -7.6190   23.9759 H   0  0  0  0  0  0
  -21.1471   -6.0497   25.9063 H   0  0  0  0  0  0
  -22.0612   -2.7648   23.2790 H   0  0  0  0  0  0
  -22.4238  -12.0200   22.5175 H   0  0  0  0  0  0
  -21.1077  -13.1269   22.2538 H   0  0  0  0  0  0
  -26.3437  -15.6247   20.4503 H   0  0  0  0  0  0
  -24.6805  -15.8499   20.6186 H   0  0  0  0  0  0
  -26.7261  -32.5362   23.1015 H   0  0  0  0  0  0
  -25.0176  -33.9606   25.0399 H   0  0  0  0  0  0
  -22.7426  -31.2904   21.3737 H   0  0  0  0  0  0
  -23.3756  -35.9595   23.3296 H   0  0  0  0  0  0
  -24.3595  -36.8896   22.2052 H   0  0  0  0  0  0
  -23.7274  -37.6454   23.6686 H   0  0  0  0  0  0
  -26.1609  -31.5026   20.6189 H   0  0  0  0  0  0
  -26.8611  -30.7849   22.0324 H   0  0  0  0  0  0
  -28.1425  -28.8932   21.2011 H   0  0  0  0  0  0
  -25.9581  -25.8508   19.0374 H   0  0  0  0  0  0
  -24.0010  -27.2634   19.0226 H   0  0  0  0  0  0
  -23.8078  -30.5682   19.3945 H   0  0  0  0  0  0
  -22.7920  -29.2292   19.8438 H   0  0  0  0  0  0
  -25.1341  -36.1844   25.0785 H   0  0  0  0  0  0
  -21.0059  -28.3362   24.1307 H   0  0  0  0  0  0
  -20.5753  -26.2349   23.3594 H   0  0  0  0  0  0
  -21.6661  -26.7478   22.1140 H   0  0  0  0  0  0
  -19.6933  -25.6326   21.1224 H   0  0  0  0  0  0
  -19.6699  -27.3225   20.6736 H   0  0  0  0  0  0
  -17.4228  -26.6715   21.4018 H   0  0  0  0  0  0
  -18.0335  -26.0097   22.9008 H   0  0  0  0  0  0
  -19.7961  -30.7326   24.2209 H   0  0  0  0  0  0
  -17.5029  -31.6267   24.5196 H   0  0  0  0  0  0
  -15.5367  -30.2975   23.7693 H   0  0  0  0  0  0
  -15.8704  -28.0843   22.7033 H   0  0  0  0  0  0
  -24.5924  -30.7095   25.7741 H   0  0  0  0  0  0
  -24.8958  -32.2925   26.4802 H   0  0  0  0  0  0
  -25.8041  -30.8934   27.0212 H   0  0  0  0  0  0
  -26.3066  -29.6611   24.1358 H   0  0  0  0  0  0
  -27.4090  -29.7304   25.4902 H   0  0  0  0  0  0
  -27.8960  -30.4172   23.9620 H   0  0  0  0  0  0
  -27.2682  -33.3656   26.2009 H   0  0  0  0  0  0
  -28.3942  -32.6833   25.0349 H   0  0  0  0  0  0
  -28.0713  -31.8489   26.5467 H   0  0  0  0  0  0
  -28.2632  -38.0044   24.7463 H   0  0  0  0  0  0
  -28.1025  -36.2564   24.6400 H   0  0  0  0  0  0
  -27.2264  -37.1561   25.8874 H   0  0  0  0  0  0
  -20.9417  -29.8708   21.6691 H   0  0  0  0  0  0
  -26.0164  -38.2807   24.1342 H   0  0  0  0  0  0
  -28.2640  -18.2761   22.3452 H   0  0  0  0  0  0
  -27.9939  -20.5855   21.9436 H   0  0  0  0  0  0
  -30.7970  -20.3591   18.7260 H   0  0  0  0  0  0
  -25.8658  -23.1679   20.1873 H   0  0  0  0  0  0
  -26.2222  -21.7284   21.1307 H   0  0  0  0  0  0
  -27.9483  -22.7775   22.3228 H   0  0  0  0  0  0
  -27.2476  -24.2960   21.7813 H   0  0  0  0  0  0
  -27.3547  -22.6110   18.4953 H   0  0  0  0  0  0
  -27.2367  -20.9913   19.1101 H   0  0  0  0  0  0
  -29.7540  -23.7059   21.0731 H   0  0  0  0  0  0
  -27.6734  -24.7278   18.9745 H   0  0  0  0  0  0
  -29.3375  -25.0060   18.9290 H   0  0  0  0  0  0
  -28.0083  -16.7261   21.9371 H   0  0  0  0  0  0
  1 25  1  0  0  0
  1 30  2  0  0  0
  1 77  1  0  0  0
  2  3  1  0  0  0
  2 25  1  0  0  0
  2 86  1  0  0  0
  2 87  1  0  0  0
  3  4  1  0  0  0
  3 88  1  0  0  0
  3 89  1  0  0  0
  4  5  1  0  0  0
  4 90  1  0  0  0
  4 91  1  0  0  0
  5  6  1  0  0  0
  5 26  1  0  0  0
  5 92  1  0  0  0
  6 25  1  0  0  0
  6 93  1  0  0  0
  6 94  1  0  0  0
  7  8  2  0  0  0
  7 26  1  0  0  0
  7 29  1  0  0  0
  8  9  1  0  0  0
  8 22  1  0  0  0
  9 10  1  0  0  0
  9 27  2  0  0  0
 10 11  2  0  0  0
 10 15  1  0  0  0
 11 12  1  0  0  0
 11 95  1  0  0  0
 12 13  2  0  0  0
 12 96  1  0  0  0
 13 14  1  0  0  0
 13 31  1  0  0  0
 14 15  2  0  0  0
 14 97  1  0  0  0
 15 98  1  0  0  0
 16 17  2  0  0  0
 16 21  1  0  0  0
 16 31  1  0  0  0
 17 18  1  0  0  0
 17 99  1  0  0  0
 18 19  2  0  0  0
 18100  1  0  0  0
 19 20  1  0  0  0
 19 24  1  0  0  0
 20 21  2  0  0  0
 20101  1  0  0  0
 21 23  1  0  0  0
 22 28  1  0  0  0
 22 32  2  0  0  0
 26 27  1  0  0  0
 28102  1  0  0  0
 28103  1  0  0  0
 29104  1  0  0  0
 29105  1  0  0  0
 33 34  1  0  0  0
 33 66  1  0  0  0
 33 70  2  0  0  0
 34 36  1  0  0  0
 34 59  1  0  0  0
 34106  1  0  0  0
 35 44  2  0  0  0
 35 45  1  0  0  0
 35 68  1  0  0  0
 36 56  1  0  0  0
 36107  1  0  0  0
 37 39  1  0  0  0
 37 47  1  0  0  0
 37 66  1  0  0  0
 37108  1  0  0  0
 38 43  2  0  0  0
 38 46  1  0  0  0
 38 47  1  0  0  0
 39 64  1  0  0  0
 39 67  2  0  0  0
 40 52  1  0  0  0
 40 53  2  0  0  0
 40 58  1  0  0  0
 41109  1  0  0  0
 41110  1  0  0  0
 41111  1  0  0  0
 41 48  1  0  0  0
 42 43  1  0  0  0
 42 66  1  0  0  0
 42112  1  0  0  0
 42113  1  0  0  0
 43 44  1  0  0  0
 44114  1  0  0  0
 45 46  2  0  0  0
 45115  1  0  0  0
 46116  1  0  0  0
 47117  1  0  0  0
 47118  1  0  0  0
 48 56  1  0  0  0
 48 65  1  0  0  0
 48119  1  0  0  0
 49 50  1  0  0  0
 49 53  1  0  0  0
 49 64  1  0  0  0
 49120  1  0  0  0
 50 51  1  0  0  0
 50121  1  0  0  0
 50122  1  0  0  0
 51 52  1  0  0  0
 51123  1  0  0  0
 51124  1  0  0  0
 52125  1  0  0  0
 52126  1  0  0  0
 53 54  1  0  0  0
 54 55  2  0  0  0
 54127  1  0  0  0
 55 57  1  0  0  0
 55128  1  0  0  0
 56 69  2  0  0  0
 57 58  2  0  0  0
 57129  1  0  0  0
 58130  1  0  0  0
 59 60  1  0  0  0
 59 61  1  0  0  0
 59 62  1  0  0  0
 60131  1  0  0  0
 60132  1  0  0  0
 60133  1  0  0  0
 61134  1  0  0  0
 61135  1  0  0  0
 61136  1  0  0  0
 62137  1  0  0  0
 62138  1  0  0  0
 62139  1  0  0  0
 63 65  1  0  0  0
 63140  1  0  0  0
 63141  1  0  0  0
 63142  1  0  0  0
 64143  1  0  0  0
 65144  1  0  0  0
 68 82  1  0  0  0
 71 72  2  0  0  0
 71 74  1  0  0  0
 71145  1  0  0  0
 72 75  1  0  0  0
 72146  1  0  0  0
 73 75  2  0  0  0
 73 76  1  0  0  0
 73147  1  0  0  0
 74 76  2  0  0  0
 74 77  1  0  0  0
 75 84  1  0  0  0
 76 85  1  0  0  0
 77 83  2  0  0  0
 78 79  1  0  0  0
 78 80  1  0  0  0
 78148  1  0  0  0
 78149  1  0  0  0
 79 81  1  0  0  0
 79150  1  0  0  0
 79151  1  0  0  0
 80 84  1  0  0  0
 80152  1  0  0  0
 80153  1  0  0  0
 81 82  1  0  0  0
 81 84  1  0  0  0
 81154  1  0  0  0
 82155  1  0  0  0
 82156  1  0  0  0
 83157  1  0  0  0
M  ISO  4   1 100  68 101  77 100  82 101
M  END
> <chiral flag>
0

> <version>
0

> <s_m_source_file>
/data/baiqing/PycharmProjects/Reinvent-master-3.2/result/LINK_invent/BTK/process_docking_weight1_custom_product_contain_oxygen_bond_distance_aromatic_linkinvent_7_9_3/rearranged_h_0101.sdf

> <i_m_source_file_index>
12

> <r_mmod_Potential_Energy-OPLS-2005>
684.191040039062

> <r_mmod_Stretch_Energy-OPLS-2005>
226.066375732422

> <r_mmod_Bend_Energy-OPLS-2005>
329.590179443359

> <r_mmod_Torsional_Energy-OPLS-2005>
266.551483154297

> <r_mmod_Improper_Torsional_Energy-OPLS-2005>
11.7590274810791

> <r_mmod_Van_der_Waal_Energy-OPLS-2005>
162.176879882812

> <r_mmod_Electrostatic_Energy-OPLS-2005>
-231.422317504883

> <r_mmod_Solvation_Energy-OPLS-2005>
-216.761764526367

> <b_mmod_Minimization_Converged-OPLS-2005>
0

> <r_mmod_RMS_Derivative-OPLS-2005>
6.27369213104248

$$$$
12
                    3D
 Structure written by MMmdl.
160168  0  0  1  0            999 V2000
  -30.7202  -14.4261   20.5064 C   0  0  0  0  0  0
  -30.4036  -12.2567   19.4227 C   0  0  0  0  0  0
  -29.4880  -12.4791   18.2024 C   0  0  0  0  0  0
  -28.0066  -12.3630   18.6117 C   0  0  0  0  0  0
  -27.6569  -13.2079   19.8667 C   0  0  2  0  0  0
  -28.6987  -12.9964   20.9896 C   0  0  0  0  0  0
  -25.2559  -13.8172   20.5654 C   0  0  0  0  0  0
  -24.1816  -13.0442   20.9159 C   0  0  0  0  0  0
  -24.6375  -11.6914   20.8728 C   0  0  0  0  0  0
  -23.9041  -10.4303   21.0405 C   0  0  0  0  0  0
  -24.3605   -9.4221   21.9171 C   0  0  0  0  0  0
  -23.6301   -8.2247   22.0751 C   0  0  0  0  0  0
  -22.4283   -8.0274   21.3539 C   0  0  0  0  0  0
  -21.9899   -9.0241   20.4639 C   0  0  0  0  0  0
  -22.7218  -10.2127   20.3055 C   0  0  0  0  0  0
  -21.6863   -6.0731   22.5286 C   0  0  0  0  0  0
  -21.4026   -6.5644   23.8213 C   0  0  0  0  0  0
  -21.3658   -5.6798   24.9174 C   0  0  0  0  0  0
  -21.6037   -4.3058   24.7228 C   0  0  0  0  0  0
  -21.8823   -3.8149   23.4354 C   0  0  0  0  0  0
  -21.9200   -4.6960   22.3410 C   0  0  0  0  0  0
  -22.7835  -13.5224   21.1848 C   0  0  0  0  0  0
  -22.1665   -4.2151   21.0985 F   0  0  0  0  0  0
  -21.5628   -3.4539   25.7735 F   0  0  0  0  0  0
  -30.0316  -13.2610   20.4278 N   0  0  0  0  0  0
  -26.2990  -12.9344   20.3324 N   0  0  0  0  0  0
  -25.9299  -11.6509   20.5761 N   0  0  0  0  0  0
  -22.0503  -12.8183   22.0401 N   0  0  0  0  0  0
  -25.4289  -15.1890   20.4066 N   0  0  0  0  0  0
  -31.8982  -14.5222   20.1531 O   0  0  0  0  0  0
  -21.6655   -6.8867   21.4241 O   0  0  0  0  0  0
  -22.3488  -14.5535   20.6732 O   0  0  0  0  0  0
  -24.6097  -31.8714   23.2143 C   0  0  0  0  0  0
  -25.9013  -32.4845   23.8410 C   0  0  1  0  0  0
  -27.2370  -27.4692   20.0698 C   0  0  0  0  0  0
  -25.5889  -33.8648   24.2340 N   0  0  0  0  0  0
  -23.3960  -30.4956   21.5541 C   0  0  2  0  0  0
  -24.8413  -28.9692   20.1115 C   0  0  0  0  0  0
  -22.7372  -29.4674   22.5017 C   0  0  0  0  0  0
  -18.0260  -28.1366   22.8508 C   0  0  0  0  0  0
  -24.1492  -36.7335   23.2639 C   0  0  0  0  0  0
  -25.9223  -30.8406   21.3670 C   0  0  0  0  0  0
  -25.9974  -29.4779   20.7153 C   0  0  0  0  0  0
  -27.1923  -28.7273   20.7066 C   0  0  0  0  0  0
  -26.0594  -26.9637   19.4769 C   0  0  0  0  0  0
  -24.8654  -27.7068   19.4951 C   0  0  0  0  0  0
  -23.6002  -29.8303   20.1670 C   0  0  0  0  0  0
  -25.4111  -36.3128   24.0340 C   0  0  1  0  0  0
  -20.5847  -28.3651   23.1326 C   0  0  2  0  0  0
  -20.6756  -26.9395   22.5420 C   0  0  0  0  0  0
  -19.5745  -26.6384   21.5210 C   0  0  0  0  0  0
  -18.1915  -26.7920   22.1619 C   0  0  0  0  0  0
  -19.1509  -28.8827   23.2921 C   0  0  0  0  0  0
  -18.9439  -30.1433   23.8932 C   0  0  0  0  0  0
  -17.6446  -30.6583   24.0564 C   0  0  0  0  0  0
  -25.9034  -34.9490   23.5129 C   0  0  0  0  0  0
  -16.5339  -29.9080   23.6330 C   0  0  0  0  0  0
  -16.7254  -28.6493   23.0368 C   0  0  0  0  0  0
  -26.4460  -31.6619   25.0731 C   0  0  0  0  0  0
  -25.3728  -31.3697   26.1479 C   0  0  0  0  0  0
  -27.0305  -30.3069   24.6099 C   0  0  0  0  0  0
  -27.6048  -32.4342   25.7474 C   0  0  0  0  0  0
  -27.5587  -37.1816   24.8461 C   0  0  0  0  0  0
  -21.4112  -29.3033   22.3741 N   0  0  0  0  0  0
  -26.4303  -37.3800   23.9407 N   0  0  0  0  0  0
  -24.6604  -31.0823   22.1038 N   0  0  0  0  0  0
  -23.4162  -28.8209   23.3043 O   0  0  0  0  0  0
  -28.4199  -26.7671   20.0878 O   0  0  0  0  0  0
  -26.5598  -34.8928   22.4689 O   0  0  0  0  0  0
  -23.5293  -32.1480   23.7543 O   0  0  0  0  0  0
  -31.5166  -18.5856   19.2311 C   0  0  0  0  0  0
  -29.9875  -19.2588   20.9697 C   0  0  0  0  0  0
  -31.1994  -17.2385   19.4701 C   0  0  0  0  0  0
  -29.6771  -17.9055   21.2307 C   0  0  0  0  0  0
  -30.9323  -19.6324   19.9778 C   0  0  0  0  0  0
  -30.3042  -16.8734   20.5042 C   0  0  0  0  0  0
  -30.2638  -21.7109   18.7869 C   0  0  0  0  0  0
  -28.3921  -24.6808   18.7291 C   0  0  0  0  0  0
  -29.3277  -23.8283   17.8551 C   0  0  0  0  0  0
  -28.8613  -26.1421   18.8840 C   0  0  0  0  0  0
  -31.3393  -21.0581   19.6999 C   0  0  1  0  0  0
  -29.9852  -15.5135   20.8075 N   0  0  0  0  0  0
  -30.2665  -23.0517   18.6704 N   0  0  0  0  0  0
  -31.5988  -21.8096   20.9372 N   0  3  0  0  0  0
  -29.4305  -21.0230   18.1869 O   0  0  0  0  0  0
  -31.4516  -12.3179   19.1272 H   0  0  0  0  0  0
  -30.2677  -11.2536   19.8301 H   0  0  0  0  0  0
  -29.7177  -11.7534   17.4213 H   0  0  0  0  0  0
  -29.6760  -13.4642   17.7712 H   0  0  0  0  0  0
  -27.8025  -11.3095   18.8074 H   0  0  0  0  0  0
  -27.3635  -12.6465   17.7774 H   0  0  0  0  0  0
  -27.6992  -14.2534   19.5605 H   0  0  0  0  0  0
  -28.6565  -11.9699   21.3580 H   0  0  0  0  0  0
  -28.4846  -13.6301   21.8513 H   0  0  0  0  0  0
  -25.2756   -9.5710   22.4716 H   0  0  0  0  0  0
  -24.0032   -7.4648   22.7469 H   0  0  0  0  0  0
  -21.0838   -8.8746   19.8937 H   0  0  0  0  0  0
  -22.3680  -10.9654   19.6155 H   0  0  0  0  0  0
  -21.2026   -7.6158   23.9706 H   0  0  0  0  0  0
  -21.1471   -6.0539   25.9071 H   0  0  0  0  0  0
  -22.0606   -2.7616   23.2859 H   0  0  0  0  0  0
  -22.4170  -11.9846   22.4763 H   0  0  0  0  0  0
  -21.1119  -13.1180   22.2640 H   0  0  0  0  0  0
  -24.6674  -15.8514   20.5135 H   0  0  0  0  0  0
  -26.2816  -15.6221   20.0754 H   0  0  0  0  0  0
  -26.7069  -32.5554   23.1161 H   0  0  0  0  0  0
  -25.0036  -33.9816   25.0481 H   0  0  0  0  0  0
  -22.6831  -31.3113   21.4183 H   0  0  0  0  0  0
  -23.3745  -35.9674   23.3320 H   0  0  0  0  0  0
  -24.3572  -36.8946   22.2048 H   0  0  0  0  0  0
  -23.7257  -37.6550   23.6644 H   0  0  0  0  0  0
  -26.0305  -31.6040   20.5947 H   0  0  0  0  0  0
  -26.8118  -30.8924   21.9832 H   0  0  0  0  0  0
  -28.0849  -29.1162   21.1761 H   0  0  0  0  0  0
  -26.0302  -25.9945   19.0112 H   0  0  0  0  0  0
  -23.9750  -27.3047   19.0330 H   0  0  0  0  0  0
  -23.6958  -30.6072   19.4078 H   0  0  0  0  0  0
  -22.7255  -29.2449   19.8769 H   0  0  0  0  0  0
  -25.1278  -36.1997   25.0833 H   0  0  0  0  0  0
  -20.9945  -28.3220   24.1445 H   0  0  0  0  0  0
  -20.5665  -26.2261   23.3601 H   0  0  0  0  0  0
  -21.6618  -26.7446   22.1207 H   0  0  0  0  0  0
  -19.6908  -25.6296   21.1236 H   0  0  0  0  0  0
  -19.6681  -27.3190   20.6736 H   0  0  0  0  0  0
  -17.4185  -26.6684   21.4015 H   0  0  0  0  0  0
  -18.0323  -26.0032   22.8991 H   0  0  0  0  0  0
  -19.7910  -30.7242   24.2322 H   0  0  0  0  0  0
  -17.4995  -31.6266   24.5147 H   0  0  0  0  0  0
  -15.5342  -30.2997   23.7625 H   0  0  0  0  0  0
  -15.8655  -28.0812   22.7092 H   0  0  0  0  0  0
  -24.5893  -30.7064   25.7795 H   0  0  0  0  0  0
  -24.8921  -32.2839   26.4970 H   0  0  0  0  0  0
  -25.8082  -30.8819   27.0211 H   0  0  0  0  0  0
  -26.2841  -29.6810   24.1190 H   0  0  0  0  0  0
  -27.4129  -29.7331   25.4552 H   0  0  0  0  0  0
  -27.8648  -30.4418   23.9214 H   0  0  0  0  0  0
  -27.2678  -33.3630   26.2088 H   0  0  0  0  0  0
  -28.3812  -32.6931   25.0263 H   0  0  0  0  0  0
  -28.0761  -31.8449   26.5347 H   0  0  0  0  0  0
  -28.2604  -38.0115   24.7506 H   0  0  0  0  0  0
  -28.1084  -36.2641   24.6286 H   0  0  0  0  0  0
  -27.2300  -37.1476   25.8865 H   0  0  0  0  0  0
  -20.9267  -29.8762   21.6973 H   0  0  0  0  0  0
  -26.0204  -38.2891   24.1382 H   0  0  0  0  0  0
  -32.2222  -18.8136   18.4438 H   0  0  0  0  0  0
  -29.4886  -20.0172   21.5559 H   0  0  0  0  0  0
  -31.6692  -16.5010   18.8373 H   0  0  0  0  0  0
  -28.9612  -17.6712   22.0060 H   0  0  0  0  0  0
  -28.2581  -24.2182   19.7071 H   0  0  0  0  0  0
  -27.4141  -24.6618   18.2531 H   0  0  0  0  0  0
  -29.8873  -24.4568   17.1599 H   0  0  0  0  0  0
  -28.7205  -23.1790   17.2216 H   0  0  0  0  0  0
  -28.5936  -26.7350   18.0082 H   0  0  0  0  0  0
  -29.9512  -26.1579   18.9318 H   0  0  0  0  0  0
  -32.2701  -21.0619   19.1307 H   0  0  0  0  0  0
  -29.0687  -15.3376   21.1887 H   0  0  0  0  0  0
  -31.0051  -23.5773   19.1171 H   0  0  0  0  0  0
  -30.7341  -22.0223   21.3979 H   0  0  0  0  0  0
  -32.0846  -22.6637   20.7405 H   0  0  0  0  0  0
  -32.1703  -21.2558   21.5477 H   0  0  0  0  0  0
  1 25  1  0  0  0
  1 30  2  0  0  0
  1 82  1  0  0  0
  2  3  1  0  0  0
  2 25  1  0  0  0
  2 86  1  0  0  0
  2 87  1  0  0  0
  3  4  1  0  0  0
  3 88  1  0  0  0
  3 89  1  0  0  0
  4  5  1  0  0  0
  4 90  1  0  0  0
  4 91  1  0  0  0
  5  6  1  0  0  0
  5 26  1  0  0  0
  5 92  1  0  0  0
  6 25  1  0  0  0
  6 93  1  0  0  0
  6 94  1  0  0  0
  7  8  2  0  0  0
  7 26  1  0  0  0
  7 29  1  0  0  0
  8  9  1  0  0  0
  8 22  1  0  0  0
  9 10  1  0  0  0
  9 27  2  0  0  0
 10 11  2  0  0  0
 10 15  1  0  0  0
 11 12  1  0  0  0
 11 95  1  0  0  0
 12 13  2  0  0  0
 12 96  1  0  0  0
 13 14  1  0  0  0
 13 31  1  0  0  0
 14 15  2  0  0  0
 14 97  1  0  0  0
 15 98  1  0  0  0
 16 17  2  0  0  0
 16 21  1  0  0  0
 16 31  1  0  0  0
 17 18  1  0  0  0
 17 99  1  0  0  0
 18 19  2  0  0  0
 18100  1  0  0  0
 19 20  1  0  0  0
 19 24  1  0  0  0
 20 21  2  0  0  0
 20101  1  0  0  0
 21 23  1  0  0  0
 22 28  1  0  0  0
 22 32  2  0  0  0
 26 27  1  0  0  0
 28102  1  0  0  0
 28103  1  0  0  0
 29104  1  0  0  0
 29105  1  0  0  0
 33 34  1  0  0  0
 33 66  1  0  0  0
 33 70  2  0  0  0
 34 36  1  0  0  0
 34 59  1  0  0  0
 34106  1  0  0  0
 35 44  2  0  0  0
 35 45  1  0  0  0
 35 68  1  0  0  0
 36 56  1  0  0  0
 36107  1  0  0  0
 37 39  1  0  0  0
 37 47  1  0  0  0
 37 66  1  0  0  0
 37108  1  0  0  0
 38 43  2  0  0  0
 38 46  1  0  0  0
 38 47  1  0  0  0
 39 64  1  0  0  0
 39 67  2  0  0  0
 40 52  1  0  0  0
 40 53  2  0  0  0
 40 58  1  0  0  0
 41109  1  0  0  0
 41110  1  0  0  0
 41111  1  0  0  0
 41 48  1  0  0  0
 42 43  1  0  0  0
 42 66  1  0  0  0
 42112  1  0  0  0
 42113  1  0  0  0
 43 44  1  0  0  0
 44114  1  0  0  0
 45 46  2  0  0  0
 45115  1  0  0  0
 46116  1  0  0  0
 47117  1  0  0  0
 47118  1  0  0  0
 48 56  1  0  0  0
 48 65  1  0  0  0
 48119  1  0  0  0
 49 50  1  0  0  0
 49 53  1  0  0  0
 49 64  1  0  0  0
 49120  1  0  0  0
 50 51  1  0  0  0
 50121  1  0  0  0
 50122  1  0  0  0
 51 52  1  0  0  0
 51123  1  0  0  0
 51124  1  0  0  0
 52125  1  0  0  0
 52126  1  0  0  0
 53 54  1  0  0  0
 54 55  2  0  0  0
 54127  1  0  0  0
 55 57  1  0  0  0
 55128  1  0  0  0
 56 69  2  0  0  0
 57 58  2  0  0  0
 57129  1  0  0  0
 58130  1  0  0  0
 59 60  1  0  0  0
 59 61  1  0  0  0
 59 62  1  0  0  0
 60131  1  0  0  0
 60132  1  0  0  0
 60133  1  0  0  0
 61134  1  0  0  0
 61135  1  0  0  0
 61136  1  0  0  0
 62137  1  0  0  0
 62138  1  0  0  0
 62139  1  0  0  0
 63 65  1  0  0  0
 63140  1  0  0  0
 63141  1  0  0  0
 63142  1  0  0  0
 64143  1  0  0  0
 65144  1  0  0  0
 68 80  1  0  0  0
 71 73  2  0  0  0
 71 75  1  0  0  0
 71145  1  0  0  0
 72 74  1  0  0  0
 72 75  2  0  0  0
 72146  1  0  0  0
 73 76  1  0  0  0
 73147  1  0  0  0
 74 76  2  0  0  0
 74148  1  0  0  0
 75 81  1  0  0  0
 76 82  1  0  0  0
 77 81  1  0  0  0
 77 83  1  0  0  0
 77 85  2  0  0  0
 78 79  1  0  0  0
 78 80  1  0  0  0
 78149  1  0  0  0
 78150  1  0  0  0
 79 83  1  0  0  0
 79151  1  0  0  0
 79152  1  0  0  0
 80153  1  0  0  0
 80154  1  0  0  0
 81 84  1  0  0  0
 81155  1  0  0  0
 82156  1  0  0  0
 83157  1  0  0  0
 84158  1  0  0  0
 84159  1  0  0  0
 84160  1  0  0  0
M  CHG  1  84   1
M  ISO  4   1 100  68 101  80 101  82 100
M  END
> <chiral flag>
0

> <version>
0

> <s_m_source_file>
/data/baiqing/PycharmProjects/Reinvent-master-3.2/result/LINK_invent/BTK/process_docking_weight1_custom_product_contain_oxygen_bond_distance_aromatic_linkinvent_7_9_3/rearranged_h_0101.sdf

> <i_m_source_file_index>
13

> <r_mmod_Potential_Energy-OPLS-2005>
-368.318023681641

> <r_mmod_Stretch_Energy-OPLS-2005>
35.7713050842285

> <r_mmod_Bend_Energy-OPLS-2005>
103.338508605957

> <r_mmod_Torsional_Energy-OPLS-2005>
245.746368408203

> <r_mmod_Improper_Torsional_Energy-OPLS-2005>
4.59666633605957

> <r_mmod_Van_der_Waal_Energy-OPLS-2005>
170.348098754883

> <r_mmod_Electrostatic_Energy-OPLS-2005>
-389.958251953125

> <r_mmod_Solvation_Energy-OPLS-2005>
-554.06787109375

> <b_mmod_Minimization_Converged-OPLS-2005>
0

> <r_mmod_RMS_Derivative-OPLS-2005>
2.12529110908508

$$$$
13
                    3D
 Structure written by MMmdl.
158167  0  0  1  0            999 V2000
  -30.6789  -14.4732   20.5973 C   0  0  0  0  0  0
  -30.4327  -12.3144   19.4214 C   0  0  0  0  0  0
  -29.4987  -12.4991   18.2058 C   0  0  0  0  0  0
  -28.0176  -12.3682   18.6146 C   0  0  0  0  0  0
  -27.6650  -13.2014   19.8767 C   0  0  2  0  0  0
  -28.7033  -12.9554   20.9944 C   0  0  0  0  0  0
  -25.2585  -13.8145   20.5666 C   0  0  0  0  0  0
  -24.1844  -13.0444   20.9188 C   0  0  0  0  0  0
  -24.6394  -11.6908   20.8774 C   0  0  0  0  0  0
  -23.9065  -10.4306   21.0438 C   0  0  0  0  0  0
  -24.3623   -9.4212   21.9187 C   0  0  0  0  0  0
  -23.6313   -8.2244   22.0739 C   0  0  0  0  0  0
  -22.4288   -8.0291   21.3552 C   0  0  0  0  0  0
  -21.9922   -9.0265   20.4647 C   0  0  0  0  0  0
  -22.7246  -10.2149   20.3070 C   0  0  0  0  0  0
  -21.6841   -6.0752   22.5295 C   0  0  0  0  0  0
  -21.4013   -6.5648   23.8234 C   0  0  0  0  0  0
  -21.3663   -5.6789   24.9187 C   0  0  0  0  0  0
  -21.6032   -4.3053   24.7226 C   0  0  0  0  0  0
  -21.8823   -3.8160   23.4347 C   0  0  0  0  0  0
  -21.9190   -4.6981   22.3411 C   0  0  0  0  0  0
  -22.7866  -13.5259   21.1840 C   0  0  0  0  0  0
  -22.1655   -4.2167   21.0987 F   0  0  0  0  0  0
  -21.5623   -3.4538   25.7739 F   0  0  0  0  0  0
  -30.0365  -13.2802   20.4584 N   0  0  0  0  0  0
  -26.3021  -12.9315   20.3357 N   0  0  0  0  0  0
  -25.9308  -11.6479   20.5792 N   0  0  0  0  0  0
  -22.0500  -12.8294   22.0416 N   0  0  0  0  0  0
  -25.4287  -15.1861   20.4047 N   0  0  0  0  0  0
  -31.7785  -14.6871   20.0813 O   0  0  0  0  0  0
  -21.6631   -6.8908   21.4265 O   0  0  0  0  0  0
  -22.3572  -14.5563   20.6650 O   0  0  0  0  0  0
  -24.6168  -31.8659   23.2068 C   0  0  0  0  0  0
  -25.9051  -32.4817   23.8373 C   0  0  1  0  0  0
  -27.2316  -27.4134   20.1201 C   0  0  0  0  0  0
  -25.5905  -33.8613   24.2306 N   0  0  0  0  0  0
  -23.4062  -30.4886   21.5441 C   0  0  2  0  0  0
  -24.8551  -28.9444   20.1173 C   0  0  0  0  0  0
  -22.7414  -29.4669   22.4961 C   0  0  0  0  0  0
  -18.0276  -28.1383   22.8494 C   0  0  0  0  0  0
  -24.1486  -36.7304   23.2642 C   0  0  0  0  0  0
  -25.9357  -30.8227   21.3645 C   0  0  0  0  0  0
  -26.0132  -29.4533   20.7197 C   0  0  0  0  0  0
  -27.2070  -28.6937   20.7213 C   0  0  0  0  0  0
  -26.0641  -26.9214   19.5062 C   0  0  0  0  0  0
  -24.8751  -27.6767   19.5068 C   0  0  0  0  0  0
  -23.6190  -29.8149   20.1610 C   0  0  0  0  0  0
  -25.4111  -36.3102   24.0342 C   0  0  1  0  0  0
  -20.5872  -28.3680   23.1314 C   0  0  2  0  0  0
  -20.6772  -26.9416   22.5421 C   0  0  0  0  0  0
  -19.5754  -26.6397   21.5211 C   0  0  0  0  0  0
  -18.1931  -26.7933   22.1619 C   0  0  0  0  0  0
  -19.1526  -28.8849   23.2903 C   0  0  0  0  0  0
  -18.9459  -30.1457   23.8916 C   0  0  0  0  0  0
  -17.6468  -30.6592   24.0574 C   0  0  0  0  0  0
  -25.9036  -34.9471   23.5113 C   0  0  0  0  0  0
  -16.5359  -29.9095   23.6335 C   0  0  0  0  0  0
  -16.7270  -28.6512   23.0352 C   0  0  0  0  0  0
  -26.4481  -31.6598   25.0707 C   0  0  0  0  0  0
  -25.3766  -31.3715   26.1471 C   0  0  0  0  0  0
  -27.0307  -30.3037   24.6083 C   0  0  0  0  0  0
  -27.6046  -32.4333   25.7487 C   0  0  0  0  0  0
  -27.5575  -37.1810   24.8467 C   0  0  0  0  0  0
  -21.4144  -29.3040   22.3708 N   0  0  0  0  0  0
  -26.4289  -37.3793   23.9413 N   0  0  0  0  0  0
  -24.6704  -31.0754   22.0965 N   0  0  0  0  0  0
  -23.4174  -28.8224   23.3025 O   0  0  0  0  0  0
  -28.3742  -26.6425   20.1039 O   0  0  0  0  0  0
  -26.5602  -34.8937   22.4674 O   0  0  0  0  0  0
  -23.5353  -32.1418   23.7448 O   0  0  0  0  0  0
  -28.6594  -18.8714   20.5575 C   0  0  0  0  0  0
  -28.7251  -17.4888   20.8628 C   0  0  0  0  0  0
  -31.0821  -18.9779   20.6062 C   0  0  0  0  0  0
  -29.8436  -19.6331   20.4054 C   0  0  0  0  0  0
  -29.9695  -16.8279   21.0137 C   0  0  0  0  0  0
  -31.1508  -17.6064   20.9355 C   0  0  0  0  0  0
  -29.8411  -21.0650   19.8997 C   0  0  0  0  0  0
  -28.0483  -23.3760   22.1871 C   0  0  0  0  0  0
  -28.2960  -21.9288   21.7194 C   0  0  0  0  0  0
  -29.1512  -23.4486   20.0711 C   0  0  0  0  0  0
  -28.1491  -24.2456   20.9278 C   0  0  2  0  0  0
  -28.5165  -25.7358   21.2141 C   0  0  0  0  0  0
  -29.1029  -22.0370   20.5038 N   0  0  0  0  0  0
  -29.9758  -15.4156   21.2635 N   0  0  0  0  0  0
  -30.5678  -21.3270   18.9373 O   0  0  0  0  0  0
  -32.3622  -17.0596   21.1901 F   0  0  0  0  0  0
  -31.4735  -12.4295   19.1170 H   0  0  0  0  0  0
  -30.3531  -11.2988   19.8111 H   0  0  0  0  0  0
  -29.7368  -11.7613   17.4380 H   0  0  0  0  0  0
  -29.6672  -13.4772   17.7547 H   0  0  0  0  0  0
  -27.8210  -11.3135   18.8053 H   0  0  0  0  0  0
  -27.3709  -12.6467   17.7819 H   0  0  0  0  0  0
  -27.7219  -14.2548   19.5970 H   0  0  0  0  0  0
  -28.6794  -11.9079   21.2966 H   0  0  0  0  0  0
  -28.4497  -13.5162   21.8962 H   0  0  0  0  0  0
  -25.2782   -9.5677   22.4740 H   0  0  0  0  0  0
  -24.0017   -7.4638   22.7448 H   0  0  0  0  0  0
  -21.0842   -8.8804   19.8977 H   0  0  0  0  0  0
  -22.3719  -10.9679   19.6175 H   0  0  0  0  0  0
  -21.2011   -7.6156   23.9758 H   0  0  0  0  0  0
  -21.1466   -6.0506   25.9090 H   0  0  0  0  0  0
  -22.0597   -2.7623   23.2841 H   0  0  0  0  0  0
  -22.4096  -11.9984   22.4862 H   0  0  0  0  0  0
  -21.1110  -13.1322   22.2591 H   0  0  0  0  0  0
  -24.6548  -15.8333   20.5063 H   0  0  0  0  0  0
  -26.2607  -15.6185   20.0262 H   0  0  0  0  0  0
  -26.7118  -32.5521   23.1131 H   0  0  0  0  0  0
  -25.0097  -33.9769   25.0477 H   0  0  0  0  0  0
  -22.6965  -31.3065   21.3990 H   0  0  0  0  0  0
  -23.3742  -35.9643   23.3332 H   0  0  0  0  0  0
  -24.3580  -36.8876   22.2048 H   0  0  0  0  0  0
  -23.7251  -37.6525   23.6633 H   0  0  0  0  0  0
  -26.0539  -31.5824   20.5906 H   0  0  0  0  0  0
  -26.8225  -30.8787   21.9840 H   0  0  0  0  0  0
  -28.1036  -29.0789   21.1873 H   0  0  0  0  0  0
  -26.0749  -25.9490   19.0349 H   0  0  0  0  0  0
  -23.9859  -27.2767   19.0389 H   0  0  0  0  0  0
  -23.7337  -30.5845   19.3982 H   0  0  0  0  0  0
  -22.7436  -29.2358   19.8626 H   0  0  0  0  0  0
  -25.1288  -36.1959   25.0838 H   0  0  0  0  0  0
  -20.9985  -28.3244   24.1418 H   0  0  0  0  0  0
  -20.5664  -26.2283   23.3609 H   0  0  0  0  0  0
  -21.6644  -26.7440   22.1217 H   0  0  0  0  0  0
  -19.6911  -25.6305   21.1228 H   0  0  0  0  0  0
  -19.6689  -27.3218   20.6757 H   0  0  0  0  0  0
  -17.4199  -26.6692   21.4016 H   0  0  0  0  0  0
  -18.0320  -26.0067   22.9009 H   0  0  0  0  0  0
  -19.7943  -30.7265   24.2274 H   0  0  0  0  0  0
  -17.5028  -31.6267   24.5171 H   0  0  0  0  0  0
  -15.5360  -30.3000   23.7660 H   0  0  0  0  0  0
  -15.8670  -28.0845   22.7045 H   0  0  0  0  0  0
  -24.5934  -30.7049   25.7828 H   0  0  0  0  0  0
  -24.8979  -32.2874   26.4940 H   0  0  0  0  0  0
  -25.8159  -30.8887   27.0204 H   0  0  0  0  0  0
  -26.2828  -29.6821   24.1133 H   0  0  0  0  0  0
  -27.4057  -29.7267   25.4541 H   0  0  0  0  0  0
  -27.8687  -30.4355   23.9238 H   0  0  0  0  0  0
  -27.2626  -33.3603   26.2114 H   0  0  0  0  0  0
  -28.3850  -32.6945   25.0321 H   0  0  0  0  0  0
  -28.0721  -31.8428   26.5373 H   0  0  0  0  0  0
  -28.2611  -38.0091   24.7506 H   0  0  0  0  0  0
  -28.1056  -36.2623   24.6300 H   0  0  0  0  0  0
  -27.2302  -37.1468   25.8875 H   0  0  0  0  0  0
  -20.9300  -29.8765   21.6937 H   0  0  0  0  0  0
  -26.0174  -38.2869   24.1402 H   0  0  0  0  0  0
  -27.6942  -19.3272   20.3800 H   0  0  0  0  0  0
  -27.8024  -16.9300   20.9455 H   0  0  0  0  0  0
  -32.0033  -19.5308   20.4937 H   0  0  0  0  0  0
  -28.8242  -23.6655   22.8988 H   0  0  0  0  0  0
  -27.0889  -23.4902   22.6929 H   0  0  0  0  0  0
  -27.3498  -21.4419   21.4777 H   0  0  0  0  0  0
  -28.7929  -21.3327   22.4887 H   0  0  0  0  0  0
  -30.1643  -23.8214   20.2266 H   0  0  0  0  0  0
  -28.9229  -23.5419   19.0074 H   0  0  0  0  0  0
  -27.1767  -24.2126   20.4358 H   0  0  0  0  0  0
  -29.5525  -25.7874   21.5504 H   0  0  0  0  0  0
  -27.9267  -26.0931   22.0609 H   0  0  0  0  0  0
  -29.1325  -15.0483   21.6741 H   0  0  0  0  0  0
  1 25  1  0  0  0
  1 30  2  0  0  0
  1 84  1  0  0  0
  2  3  1  0  0  0
  2 25  1  0  0  0
  2 87  1  0  0  0
  2 88  1  0  0  0
  3  4  1  0  0  0
  3 89  1  0  0  0
  3 90  1  0  0  0
  4  5  1  0  0  0
  4 91  1  0  0  0
  4 92  1  0  0  0
  5  6  1  0  0  0
  5 26  1  0  0  0
  5 93  1  0  0  0
  6 25  1  0  0  0
  6 94  1  0  0  0
  6 95  1  0  0  0
  7  8  2  0  0  0
  7 26  1  0  0  0
  7 29  1  0  0  0
  8  9  1  0  0  0
  8 22  1  0  0  0
  9 10  1  0  0  0
  9 27  2  0  0  0
 10 11  2  0  0  0
 10 15  1  0  0  0
 11 12  1  0  0  0
 11 96  1  0  0  0
 12 13  2  0  0  0
 12 97  1  0  0  0
 13 14  1  0  0  0
 13 31  1  0  0  0
 14 15  2  0  0  0
 14 98  1  0  0  0
 15 99  1  0  0  0
 16 17  2  0  0  0
 16 21  1  0  0  0
 16 31  1  0  0  0
 17 18  1  0  0  0
 17100  1  0  0  0
 18 19  2  0  0  0
 18101  1  0  0  0
 19 20  1  0  0  0
 19 24  1  0  0  0
 20 21  2  0  0  0
 20102  1  0  0  0
 21 23  1  0  0  0
 22 28  1  0  0  0
 22 32  2  0  0  0
 26 27  1  0  0  0
 28103  1  0  0  0
 28104  1  0  0  0
 29105  1  0  0  0
 29106  1  0  0  0
 33 34  1  0  0  0
 33 66  1  0  0  0
 33 70  2  0  0  0
 34 36  1  0  0  0
 34 59  1  0  0  0
 34107  1  0  0  0
 35 44  2  0  0  0
 35 45  1  0  0  0
 35 68  1  0  0  0
 36 56  1  0  0  0
 36108  1  0  0  0
 37 39  1  0  0  0
 37 47  1  0  0  0
 37 66  1  0  0  0
 37109  1  0  0  0
 38 43  2  0  0  0
 38 46  1  0  0  0
 38 47  1  0  0  0
 39 64  1  0  0  0
 39 67  2  0  0  0
 40 52  1  0  0  0
 40 53  2  0  0  0
 40 58  1  0  0  0
 41110  1  0  0  0
 41111  1  0  0  0
 41112  1  0  0  0
 41 48  1  0  0  0
 42 43  1  0  0  0
 42 66  1  0  0  0
 42113  1  0  0  0
 42114  1  0  0  0
 43 44  1  0  0  0
 44115  1  0  0  0
 45 46  2  0  0  0
 45116  1  0  0  0
 46117  1  0  0  0
 47118  1  0  0  0
 47119  1  0  0  0
 48 56  1  0  0  0
 48 65  1  0  0  0
 48120  1  0  0  0
 49 50  1  0  0  0
 49 53  1  0  0  0
 49 64  1  0  0  0
 49121  1  0  0  0
 50 51  1  0  0  0
 50122  1  0  0  0
 50123  1  0  0  0
 51 52  1  0  0  0
 51124  1  0  0  0
 51125  1  0  0  0
 52126  1  0  0  0
 52127  1  0  0  0
 53 54  1  0  0  0
 54 55  2  0  0  0
 54128  1  0  0  0
 55 57  1  0  0  0
 55129  1  0  0  0
 56 69  2  0  0  0
 57 58  2  0  0  0
 57130  1  0  0  0
 58131  1  0  0  0
 59 60  1  0  0  0
 59 61  1  0  0  0
 59 62  1  0  0  0
 60132  1  0  0  0
 60133  1  0  0  0
 60134  1  0  0  0
 61135  1  0  0  0
 61136  1  0  0  0
 61137  1  0  0  0
 62138  1  0  0  0
 62139  1  0  0  0
 62140  1  0  0  0
 63 65  1  0  0  0
 63141  1  0  0  0
 63142  1  0  0  0
 63143  1  0  0  0
 64144  1  0  0  0
 65145  1  0  0  0
 68 82  1  0  0  0
 71 72  2  0  0  0
 71 74  1  0  0  0
 71146  1  0  0  0
 72 75  1  0  0  0
 72147  1  0  0  0
 73 74  2  0  0  0
 73 76  1  0  0  0
 73148  1  0  0  0
 74 77  1  0  0  0
 75 76  2  0  0  0
 75 84  1  0  0  0
 76 86  1  0  0  0
 77 83  1  0  0  0
 77 85  2  0  0  0
 78 79  1  0  0  0
 78 81  1  0  0  0
 78149  1  0  0  0
 78150  1  0  0  0
 79 83  1  0  0  0
 79151  1  0  0  0
 79152  1  0  0  0
 80 81  1  0  0  0
 80 83  1  0  0  0
 80153  1  0  0  0
 80154  1  0  0  0
 81 82  1  0  0  0
 81155  1  0  0  0
 82156  1  0  0  0
 82157  1  0  0  0
 84158  1  0  0  0
M  ISO  4   1 100  68 101  82 101  84 100
M  END
> <chiral flag>
0

> <version>
0

> <s_m_source_file>
/data/baiqing/PycharmProjects/Reinvent-master-3.2/result/LINK_invent/BTK/process_docking_weight1_custom_product_contain_oxygen_bond_distance_aromatic_linkinvent_7_9_3/rearranged_h_0101.sdf

> <i_m_source_file_index>
14

> <r_mmod_Potential_Energy-OPLS-2005>
61.5994758605957

> <r_mmod_Stretch_Energy-OPLS-2005>
42.0884399414062

> <r_mmod_Bend_Energy-OPLS-2005>
121.888999938965

> <r_mmod_Torsional_Energy-OPLS-2005>
345.329681396484

> <r_mmod_Improper_Torsional_Energy-OPLS-2005>
5.24740695953369

> <r_mmod_Van_der_Waal_Energy-OPLS-2005>
143.141616821289

> <r_mmod_Electrostatic_Energy-OPLS-2005>
-371.111633300781

> <r_mmod_Solvation_Energy-OPLS-2005>
-238.52311706543

> <b_mmod_Minimization_Converged-OPLS-2005>
0

> <r_mmod_RMS_Derivative-OPLS-2005>
3.09271645545959

$$$$
14
                    3D
 Structure written by MMmdl.
162171  0  0  1  0            999 V2000
  -30.7093  -14.4420   20.4551 C   0  0  0  0  0  0
  -30.4134  -12.2404   19.4467 C   0  0  0  0  0  0
  -29.4992  -12.4367   18.2173 C   0  0  0  0  0  0
  -28.0136  -12.3422   18.6207 C   0  0  0  0  0  0
  -27.6575  -13.1998   19.8625 C   0  0  2  0  0  0
  -28.7015  -13.0216   20.9944 C   0  0  0  0  0  0
  -25.2592  -13.8132   20.5643 C   0  0  0  0  0  0
  -24.1834  -13.0438   20.9171 C   0  0  0  0  0  0
  -24.6387  -11.6902   20.8757 C   0  0  0  0  0  0
  -23.9044  -10.4296   21.0412 C   0  0  0  0  0  0
  -24.3615   -9.4211   21.9195 C   0  0  0  0  0  0
  -23.6300   -8.2237   22.0753 C   0  0  0  0  0  0
  -22.4284   -8.0268   21.3524 C   0  0  0  0  0  0
  -21.9898   -9.0248   20.4639 C   0  0  0  0  0  0
  -22.7214  -10.2136   20.3062 C   0  0  0  0  0  0
  -21.6848   -6.0721   22.5267 C   0  0  0  0  0  0
  -21.4010   -6.5633   23.8200 C   0  0  0  0  0  0
  -21.3664   -5.6796   24.9171 C   0  0  0  0  0  0
  -21.6055   -4.3055   24.7224 C   0  0  0  0  0  0
  -21.8824   -3.8136   23.4342 C   0  0  0  0  0  0
  -21.9203   -4.6955   22.3404 C   0  0  0  0  0  0
  -22.7870  -13.5256   21.1840 C   0  0  0  0  0  0
  -22.1676   -4.2145   21.0988 F   0  0  0  0  0  0
  -21.5637   -3.4550   25.7747 F   0  0  0  0  0  0
  -30.0396  -13.2643   20.4326 N   0  0  0  0  0  0
  -26.3004  -12.9295   20.3316 N   0  0  0  0  0  0
  -25.9306  -11.6470   20.5781 N   0  0  0  0  0  0
  -22.0505  -12.8251   22.0399 N   0  0  0  0  0  0
  -25.4322  -15.1837   20.3970 N   0  0  0  0  0  0
  -31.9057  -14.5537   20.1802 O   0  0  0  0  0  0
  -21.6628   -6.8865   21.4231 O   0  0  0  0  0  0
  -22.3568  -14.5584   20.6728 O   0  0  0  0  0  0
  -24.6184  -31.8672   23.2047 C   0  0  0  0  0  0
  -25.9078  -32.4809   23.8353 C   0  0  1  0  0  0
  -27.2482  -27.4072   20.0923 C   0  0  0  0  0  0
  -25.5923  -33.8597   24.2315 N   0  0  0  0  0  0
  -23.4050  -30.4900   21.5481 C   0  0  2  0  0  0
  -24.8518  -28.9445   20.1216 C   0  0  0  0  0  0
  -22.7428  -29.4694   22.5008 C   0  0  0  0  0  0
  -18.0297  -28.1390   22.8493 C   0  0  0  0  0  0
  -24.1487  -36.7287   23.2628 C   0  0  0  0  0  0
  -25.9373  -30.8253   21.3581 C   0  0  0  0  0  0
  -26.0168  -29.4552   20.7075 C   0  0  0  0  0  0
  -27.2134  -28.6969   20.6801 C   0  0  0  0  0  0
  -26.0533  -26.9147   19.5115 C   0  0  0  0  0  0
  -24.8660  -27.6736   19.5239 C   0  0  0  0  0  0
  -23.6138  -29.8146   20.1674 C   0  0  0  0  0  0
  -25.4105  -36.3090   24.0348 C   0  0  1  0  0  0
  -20.5892  -28.3682   23.1328 C   0  0  2  0  0  0
  -20.6786  -26.9416   22.5435 C   0  0  0  0  0  0
  -19.5767  -26.6397   21.5220 C   0  0  0  0  0  0
  -18.1938  -26.7945   22.1624 C   0  0  0  0  0  0
  -19.1540  -28.8853   23.2910 C   0  0  0  0  0  0
  -18.9462  -30.1462   23.8920 C   0  0  0  0  0  0
  -17.6448  -30.6588   24.0565 C   0  0  0  0  0  0
  -25.9044  -34.9465   23.5121 C   0  0  0  0  0  0
  -16.5348  -29.9077   23.6308 C   0  0  0  0  0  0
  -16.7284  -28.6498   23.0338 C   0  0  0  0  0  0
  -26.4472  -31.6572   25.0672 C   0  0  0  0  0  0
  -25.3746  -31.3725   26.1425 C   0  0  0  0  0  0
  -27.0252  -30.2989   24.6049 C   0  0  0  0  0  0
  -27.6079  -32.4252   25.7425 C   0  0  0  0  0  0
  -27.5619  -37.1751   24.8430 C   0  0  0  0  0  0
  -21.4159  -29.3031   22.3720 N   0  0  0  0  0  0
  -26.4269  -37.3790   23.9466 N   0  0  0  0  0  0
  -24.6716  -31.0777   22.0945 N   0  0  0  0  0  0
  -23.4202  -28.8249   23.3067 O   0  0  0  0  0  0
  -28.4413  -26.6925   20.0791 O   0  0  0  0  0  0
  -26.5614  -34.8923   22.4689 O   0  0  0  0  0  0
  -23.5385  -32.1419   23.7449 O   0  0  0  0  0  0
  -30.7527  -18.9062   18.8229 C   0  0  0  0  0  0
  -30.8185  -20.2752   19.1403 C   0  0  0  0  0  0
  -29.7481  -18.4424   20.9891 C   0  0  0  0  0  0
  -30.2180  -17.9774   19.7417 C   0  0  0  0  0  0
  -30.3325  -20.7602   20.3766 C   0  0  0  0  0  0
  -29.7977  -19.8166   21.3032 C   0  0  0  0  0  0
  -30.8188  -24.9693   20.8948 C   0  0  0  0  0  0
  -31.1710  -24.0092   22.0395 C   0  0  0  0  0  0
  -30.4528  -22.6507   21.9817 C   0  0  0  0  0  0
  -29.6113  -22.9823   19.6806 C   0  0  0  0  0  0
  -29.7884  -24.5438   19.8157 C   0  0  1  0  0  0
  -30.1324  -16.5179   19.3161 C   0  0  0  0  0  0
  -28.4007  -25.2468   19.9925 C   0  0  0  0  0  0
  -30.3929  -22.1562   20.6120 N   0  0  0  0  0  0
  -29.9047  -15.5099   20.3590 N   0  0  0  0  0  0
  -31.3926  -26.0637   20.8163 O   0  0  0  0  0  0
  -30.2511  -24.9901   18.5471 O   0  0  0  0  0  0
  -29.2941  -20.2142   22.4988 F   0  0  0  0  0  0
  -31.4628  -12.3012   19.1515 H   0  0  0  0  0  0
  -30.2833  -11.2428   19.8687 H   0  0  0  0  0  0
  -29.7233  -11.6766   17.4679 H   0  0  0  0  0  0
  -29.7018  -13.4008   17.7494 H   0  0  0  0  0  0
  -27.7957  -11.2942   18.8268 H   0  0  0  0  0  0
  -27.3750  -12.6223   17.7792 H   0  0  0  0  0  0
  -27.6844  -14.2354   19.5300 H   0  0  0  0  0  0
  -28.6520  -12.0116   21.4056 H   0  0  0  0  0  0
  -28.4903  -13.6939   21.8269 H   0  0  0  0  0  0
  -25.2767   -9.5694   22.4758 H   0  0  0  0  0  0
  -24.0032   -7.4628   22.7468 H   0  0  0  0  0  0
  -21.0821   -8.8761   19.8941 H   0  0  0  0  0  0
  -22.3667  -10.9688   19.6174 H   0  0  0  0  0  0
  -21.1990   -7.6142   23.9714 H   0  0  0  0  0  0
  -21.1473   -6.0510   25.9079 H   0  0  0  0  0  0
  -22.0597   -2.7598   23.2843 H   0  0  0  0  0  0
  -22.4156  -11.9925   22.4794 H   0  0  0  0  0  0
  -21.1115  -13.1246   22.2620 H   0  0  0  0  0  0
  -24.6608  -15.8343   20.4931 H   0  0  0  0  0  0
  -26.2719  -15.6123   20.0298 H   0  0  0  0  0  0
  -26.7152  -32.5512   23.1117 H   0  0  0  0  0  0
  -25.0063  -33.9726   25.0451 H   0  0  0  0  0  0
  -22.6905  -31.3047   21.4091 H   0  0  0  0  0  0
  -23.3749  -35.9605   23.3233 H   0  0  0  0  0  0
  -24.3590  -36.8941   22.2050 H   0  0  0  0  0  0
  -23.7214  -37.6472   23.6655 H   0  0  0  0  0  0
  -26.0562  -31.5889   20.5876 H   0  0  0  0  0  0
  -26.8241  -30.8800   21.9789 H   0  0  0  0  0  0
  -28.1153  -29.0979   21.1205 H   0  0  0  0  0  0
  -26.0068  -25.9483   19.0333 H   0  0  0  0  0  0
  -23.9667  -27.2731   19.0753 H   0  0  0  0  0  0
  -23.7212  -30.5841   19.4022 H   0  0  0  0  0  0
  -22.7328  -29.2386   19.8762 H   0  0  0  0  0  0
  -25.1261  -36.1903   25.0831 H   0  0  0  0  0  0
  -21.0012  -28.3267   24.1440 H   0  0  0  0  0  0
  -20.5668  -26.2298   23.3623 H   0  0  0  0  0  0
  -21.6656  -26.7436   22.1245 H   0  0  0  0  0  0
  -19.6908  -25.6306   21.1237 H   0  0  0  0  0  0
  -19.6701  -27.3210   20.6759 H   0  0  0  0  0  0
  -17.4215  -26.6705   21.4017 H   0  0  0  0  0  0
  -18.0321  -26.0092   22.9027 H   0  0  0  0  0  0
  -19.7925  -30.7286   24.2295 H   0  0  0  0  0  0
  -17.4986  -31.6260   24.5176 H   0  0  0  0  0  0
  -15.5340  -30.2971   23.7611 H   0  0  0  0  0  0
  -15.8698  -28.0800   22.7053 H   0  0  0  0  0  0
  -24.5928  -30.7042   25.7780 H   0  0  0  0  0  0
  -24.8925  -32.2908   26.4800 H   0  0  0  0  0  0
  -25.8100  -30.8948   27.0211 H   0  0  0  0  0  0
  -26.2776  -29.6790   24.1085 H   0  0  0  0  0  0
  -27.3980  -29.7175   25.4489 H   0  0  0  0  0  0
  -27.8628  -30.4248   23.9189 H   0  0  0  0  0  0
  -27.2748  -33.3563   26.2016 H   0  0  0  0  0  0
  -28.3881  -32.6794   25.0238 H   0  0  0  0  0  0
  -28.0741  -31.8352   26.5321 H   0  0  0  0  0  0
  -28.2515  -38.0172   24.7679 H   0  0  0  0  0  0
  -28.1253  -36.2734   24.5968 H   0  0  0  0  0  0
  -27.2403  -37.1054   25.8835 H   0  0  0  0  0  0
  -20.9331  -29.8694   21.6872 H   0  0  0  0  0  0
  -26.0144  -38.2828   24.1576 H   0  0  0  0  0  0
  -31.1073  -18.5722   17.8563 H   0  0  0  0  0  0
  -31.2539  -20.9529   18.4178 H   0  0  0  0  0  0
  -29.3236  -17.7559   21.7070 H   0  0  0  0  0  0
  -30.9989  -24.4964   22.9998 H   0  0  0  0  0  0
  -32.2458  -23.8302   21.9815 H   0  0  0  0  0  0
  -29.4436  -22.7450   22.3857 H   0  0  0  0  0  0
  -30.9843  -21.9469   22.6230 H   0  0  0  0  0  0
  -29.8462  -22.6803   18.6579 H   0  0  0  0  0  0
  -28.5606  -22.7152   19.8217 H   0  0  0  0  0  0
  -29.3081  -16.4240   18.6086 H   0  0  0  0  0  0
  -31.0265  -16.2940   18.7268 H   0  0  0  0  0  0
  -27.9173  -24.8628   20.8928 H   0  0  0  0  0  0
  -27.7927  -24.9251   19.1486 H   0  0  0  0  0  0
  -28.9397  -15.3379   20.5925 H   0  0  0  0  0  0
  -30.4265  -25.9197   18.6626 H   0  0  0  0  0  0
  1 25  1  0  0  0
  1 30  2  0  0  0
  1 85  1  0  0  0
  2  3  1  0  0  0
  2 25  1  0  0  0
  2 89  1  0  0  0
  2 90  1  0  0  0
  3  4  1  0  0  0
  3 91  1  0  0  0
  3 92  1  0  0  0
  4  5  1  0  0  0
  4 93  1  0  0  0
  4 94  1  0  0  0
  5  6  1  0  0  0
  5 26  1  0  0  0
  5 95  1  0  0  0
  6 25  1  0  0  0
  6 96  1  0  0  0
  6 97  1  0  0  0
  7  8  2  0  0  0
  7 26  1  0  0  0
  7 29  1  0  0  0
  8  9  1  0  0  0
  8 22  1  0  0  0
  9 10  1  0  0  0
  9 27  2  0  0  0
 10 11  2  0  0  0
 10 15  1  0  0  0
 11 12  1  0  0  0
 11 98  1  0  0  0
 12 13  2  0  0  0
 12 99  1  0  0  0
 13 14  1  0  0  0
 13 31  1  0  0  0
 14 15  2  0  0  0
 14100  1  0  0  0
 15101  1  0  0  0
 16 17  2  0  0  0
 16 21  1  0  0  0
 16 31  1  0  0  0
 17 18  1  0  0  0
 17102  1  0  0  0
 18 19  2  0  0  0
 18103  1  0  0  0
 19 20  1  0  0  0
 19 24  1  0  0  0
 20 21  2  0  0  0
 20104  1  0  0  0
 21 23  1  0  0  0
 22 28  1  0  0  0
 22 32  2  0  0  0
 26 27  1  0  0  0
 28105  1  0  0  0
 28106  1  0  0  0
 29107  1  0  0  0
 29108  1  0  0  0
 33 34  1  0  0  0
 33 66  1  0  0  0
 33 70  2  0  0  0
 34 36  1  0  0  0
 34 59  1  0  0  0
 34109  1  0  0  0
 35 44  2  0  0  0
 35 45  1  0  0  0
 35 68  1  0  0  0
 36 56  1  0  0  0
 36110  1  0  0  0
 37 39  1  0  0  0
 37 47  1  0  0  0
 37 66  1  0  0  0
 37111  1  0  0  0
 38 43  2  0  0  0
 38 46  1  0  0  0
 38 47  1  0  0  0
 39 64  1  0  0  0
 39 67  2  0  0  0
 40 52  1  0  0  0
 40 53  2  0  0  0
 40 58  1  0  0  0
 41112  1  0  0  0
 41113  1  0  0  0
 41114  1  0  0  0
 41 48  1  0  0  0
 42 43  1  0  0  0
 42 66  1  0  0  0
 42115  1  0  0  0
 42116  1  0  0  0
 43 44  1  0  0  0
 44117  1  0  0  0
 45 46  2  0  0  0
 45118  1  0  0  0
 46119  1  0  0  0
 47120  1  0  0  0
 47121  1  0  0  0
 48 56  1  0  0  0
 48 65  1  0  0  0
 48122  1  0  0  0
 49 50  1  0  0  0
 49 53  1  0  0  0
 49 64  1  0  0  0
 49123  1  0  0  0
 50 51  1  0  0  0
 50124  1  0  0  0
 50125  1  0  0  0
 51 52  1  0  0  0
 51126  1  0  0  0
 51127  1  0  0  0
 52128  1  0  0  0
 52129  1  0  0  0
 53 54  1  0  0  0
 54 55  2  0  0  0
 54130  1  0  0  0
 55 57  1  0  0  0
 55131  1  0  0  0
 56 69  2  0  0  0
 57 58  2  0  0  0
 57132  1  0  0  0
 58133  1  0  0  0
 59 60  1  0  0  0
 59 61  1  0  0  0
 59 62  1  0  0  0
 60134  1  0  0  0
 60135  1  0  0  0
 60136  1  0  0  0
 61137  1  0  0  0
 61138  1  0  0  0
 61139  1  0  0  0
 62140  1  0  0  0
 62141  1  0  0  0
 62142  1  0  0  0
 63 65  1  0  0  0
 63143  1  0  0  0
 63144  1  0  0  0
 63145  1  0  0  0
 64146  1  0  0  0
 65147  1  0  0  0
 68 83  1  0  0  0
 71 72  2  0  0  0
 71 74  1  0  0  0
 71148  1  0  0  0
 72 75  1  0  0  0
 72149  1  0  0  0
 73 74  2  0  0  0
 73 76  1  0  0  0
 73150  1  0  0  0
 74 82  1  0  0  0
 75 76  2  0  0  0
 75 84  1  0  0  0
 76 88  1  0  0  0
 77 78  1  0  0  0
 77 81  1  0  0  0
 77 86  2  0  0  0
 78 79  1  0  0  0
 78151  1  0  0  0
 78152  1  0  0  0
 79 84  1  0  0  0
 79153  1  0  0  0
 79154  1  0  0  0
 80 81  1  0  0  0
 80 84  1  0  0  0
 80155  1  0  0  0
 80156  1  0  0  0
 81 83  1  0  0  0
 81 87  1  0  0  0
 82 85  1  0  0  0
 82157  1  0  0  0
 82158  1  0  0  0
 83159  1  0  0  0
 83160  1  0  0  0
 85161  1  0  0  0
 87162  1  0  0  0
M  ISO  4   1 100  68 101  83 101  85 100
M  END
> <chiral flag>
0

> <version>
0

> <s_m_source_file>
/data/baiqing/PycharmProjects/Reinvent-master-3.2/result/LINK_invent/BTK/process_docking_weight1_custom_product_contain_oxygen_bond_distance_aromatic_linkinvent_7_9_3/rearranged_h_0101.sdf

> <i_m_source_file_index>
15

> <r_mmod_Potential_Energy-OPLS-2005>
27.4951019287109

> <r_mmod_Stretch_Energy-OPLS-2005>
44.6706809997559

> <r_mmod_Bend_Energy-OPLS-2005>
116.947486877441

> <r_mmod_Torsional_Energy-OPLS-2005>
250.168106079102

> <r_mmod_Improper_Torsional_Energy-OPLS-2005>
18.727180480957

> <r_mmod_Van_der_Waal_Energy-OPLS-2005>
173.101715087891

> <r_mmod_Electrostatic_Energy-OPLS-2005>
-356.326782226562

> <r_mmod_Solvation_Energy-OPLS-2005>
-241.723373413086

> <b_mmod_Minimization_Converged-OPLS-2005>
0

> <r_mmod_RMS_Derivative-OPLS-2005>
4.06274318695068

$$$$
15
                    3D
 Structure written by MMmdl.
161170  0  0  1  0            999 V2000
  -30.6803  -14.5594   20.4932 C   0  0  0  0  0  0
  -30.4349  -12.3502   19.4181 C   0  0  0  0  0  0
  -29.5013  -12.4850   18.1976 C   0  0  0  0  0  0
  -28.0234  -12.3339   18.6149 C   0  0  0  0  0  0
  -27.6561  -13.2073   19.8464 C   0  0  2  0  0  0
  -28.7073  -13.0562   20.9675 C   0  0  0  0  0  0
  -25.2578  -13.8116   20.5615 C   0  0  0  0  0  0
  -24.1869  -13.0402   20.9156 C   0  0  0  0  0  0
  -24.6442  -11.6860   20.8714 C   0  0  0  0  0  0
  -23.9092  -10.4253   21.0374 C   0  0  0  0  0  0
  -24.3642   -9.4174   21.9153 C   0  0  0  0  0  0
  -23.6298   -8.2233   22.0744 C   0  0  0  0  0  0
  -22.4282   -8.0261   21.3524 C   0  0  0  0  0  0
  -21.9923   -9.0230   20.4632 C   0  0  0  0  0  0
  -22.7258  -10.2104   20.3031 C   0  0  0  0  0  0
  -21.6848   -6.0766   22.5318 C   0  0  0  0  0  0
  -21.3989   -6.5654   23.8259 C   0  0  0  0  0  0
  -21.3651   -5.6801   24.9220 C   0  0  0  0  0  0
  -21.6058   -4.3056   24.7258 C   0  0  0  0  0  0
  -21.8805   -3.8154   23.4359 C   0  0  0  0  0  0
  -21.9179   -4.6994   22.3427 C   0  0  0  0  0  0
  -22.7869  -13.5202   21.1798 C   0  0  0  0  0  0
  -22.1636   -4.2178   21.1006 F   0  0  0  0  0  0
  -21.5641   -3.4532   25.7758 F   0  0  0  0  0  0
  -30.0233  -13.3685   20.3945 N   0  0  0  0  0  0
  -26.3015  -12.9305   20.3218 N   0  0  0  0  0  0
  -25.9368  -11.6451   20.5712 N   0  0  0  0  0  0
  -22.0450  -12.8264   22.0362 N   0  0  0  0  0  0
  -25.4232  -15.1858   20.4074 N   0  0  0  0  0  0
  -31.8665  -14.6858   20.1827 O   0  0  0  0  0  0
  -21.6598   -6.8894   21.4268 O   0  0  0  0  0  0
  -22.3534  -14.5483   20.6615 O   0  0  0  0  0  0
  -24.6141  -31.8672   23.2146 C   0  0  0  0  0  0
  -25.9030  -32.4826   23.8430 C   0  0  1  0  0  0
  -27.2295  -27.4014   20.1260 C   0  0  0  0  0  0
  -25.5911  -33.8628   24.2381 N   0  0  0  0  0  0
  -23.3991  -30.4949   21.5502 C   0  0  2  0  0  0
  -24.8506  -28.9597   20.1159 C   0  0  0  0  0  0
  -22.7381  -29.4642   22.4927 C   0  0  0  0  0  0
  -18.0262  -28.1379   22.8475 C   0  0  0  0  0  0
  -24.1472  -36.7327   23.2634 C   0  0  0  0  0  0
  -25.9305  -30.8310   21.3645 C   0  0  0  0  0  0
  -26.0118  -29.4605   20.7160 C   0  0  0  0  0  0
  -27.2046  -28.6949   20.7098 C   0  0  0  0  0  0
  -26.0479  -26.9216   19.5200 C   0  0  0  0  0  0
  -24.8666  -27.6934   19.5052 C   0  0  0  0  0  0
  -23.6155  -29.8359   20.1612 C   0  0  0  0  0  0
  -25.4089  -36.3120   24.0349 C   0  0  1  0  0  0
  -20.5860  -28.3676   23.1310 C   0  0  2  0  0  0
  -20.6762  -26.9413   22.5412 C   0  0  0  0  0  0
  -19.5758  -26.6387   21.5194 C   0  0  0  0  0  0
  -18.1926  -26.7924   22.1606 C   0  0  0  0  0  0
  -19.1514  -28.8841   23.2894 C   0  0  0  0  0  0
  -18.9460  -30.1445   23.8914 C   0  0  0  0  0  0
  -17.6473  -30.6598   24.0562 C   0  0  0  0  0  0
  -25.9030  -34.9480   23.5161 C   0  0  0  0  0  0
  -16.5357  -29.9110   23.6323 C   0  0  0  0  0  0
  -16.7258  -28.6517   23.0346 C   0  0  0  0  0  0
  -26.4488  -31.6610   25.0755 C   0  0  0  0  0  0
  -25.3775  -31.3732   26.1525 C   0  0  0  0  0  0
  -27.0313  -30.3056   24.6116 C   0  0  0  0  0  0
  -27.6068  -32.4305   25.7548 C   0  0  0  0  0  0
  -27.5571  -37.1827   24.8467 C   0  0  0  0  0  0
  -21.4110  -29.3039   22.3702 N   0  0  0  0  0  0
  -26.4273  -37.3811   23.9430 N   0  0  0  0  0  0
  -24.6662  -31.0790   22.1025 N   0  0  0  0  0  0
  -23.4166  -28.8121   23.2897 O   0  0  0  0  0  0
  -28.3920  -26.6453   20.0996 O   0  0  0  0  0  0
  -26.5580  -34.8918   22.4714 O   0  0  0  0  0  0
  -23.5349  -32.1375   23.7586 O   0  0  0  0  0  0
  -31.3827  -18.7271   22.2303 C   0  0  0  0  0  0
  -30.8112  -19.7606   21.4519 C   0  0  0  0  0  0
  -31.1140  -17.3691   21.9503 C   0  0  0  0  0  0
  -29.7334  -18.0676   20.0741 C   0  0  0  0  0  0
  -29.9868  -19.4474   20.3491 C   0  0  0  0  0  0
  -30.2767  -17.0187   20.8692 C   0  0  0  0  0  0
  -29.4364  -20.5258   19.4291 C   0  0  0  0  0  0
  -26.7905  -22.9462   19.0240 C   0  0  0  0  0  0
  -27.9551  -23.8361   18.5673 C   0  0  0  0  0  0
  -27.2705  -21.6088   19.6440 C   0  0  0  0  0  0
  -29.2816  -22.8191   20.5108 C   0  0  0  0  0  0
  -28.8880  -24.1515   19.7480 C   0  0  2  0  0  0
  -28.3526  -25.3072   20.6689 C   0  0  0  0  0  0
  -28.7145  -21.5605   19.9488 N   0  0  0  0  0  0
  -29.8910  -15.6492   20.6657 N   0  0  0  0  0  0
  -29.4465  -20.3134   18.2115 O   0  0  0  0  0  0
  -31.4774  -12.4691   19.1152 H   0  0  0  0  0  0
  -30.3619  -11.3543   19.8565 H   0  0  0  0  0  0
  -29.7530  -11.7364   17.4427 H   0  0  0  0  0  0
  -29.6470  -13.4567   17.7267 H   0  0  0  0  0  0
  -27.8543  -11.2799   18.8380 H   0  0  0  0  0  0
  -27.3737  -12.5683   17.7732 H   0  0  0  0  0  0
  -27.6738  -14.2441   19.5045 H   0  0  0  0  0  0
  -28.7066  -12.0336   21.3494 H   0  0  0  0  0  0
  -28.4767  -13.7003   21.8185 H   0  0  0  0  0  0
  -25.2787   -9.5643   22.4758 H   0  0  0  0  0  0
  -23.9976   -7.4666   22.7522 H   0  0  0  0  0  0
  -21.0830   -8.8756   19.9004 H   0  0  0  0  0  0
  -22.3662  -10.9657   19.6160 H   0  0  0  0  0  0
  -21.1916   -7.6157   23.9750 H   0  0  0  0  0  0
  -21.1496   -6.0532   25.9135 H   0  0  0  0  0  0
  -22.0571   -2.7609   23.2866 H   0  0  0  0  0  0
  -22.4029  -11.9994   22.4932 H   0  0  0  0  0  0
  -21.1051  -13.1333   22.2449 H   0  0  0  0  0  0
  -24.6340  -15.8135   20.5120 H   0  0  0  0  0  0
  -26.2661  -15.6541   20.0987 H   0  0  0  0  0  0
  -26.7072  -32.5550   23.1172 H   0  0  0  0  0  0
  -25.0096  -33.9801   25.0557 H   0  0  0  0  0  0
  -22.6814  -31.3086   21.4188 H   0  0  0  0  0  0
  -23.3726  -35.9668   23.3294 H   0  0  0  0  0  0
  -24.3549  -36.8949   22.2044 H   0  0  0  0  0  0
  -23.7231  -37.6539   23.6647 H   0  0  0  0  0  0
  -26.0358  -31.5925   20.5913 H   0  0  0  0  0  0
  -26.8174  -30.8921   21.9820 H   0  0  0  0  0  0
  -28.0988  -29.0938   21.1676 H   0  0  0  0  0  0
  -26.0354  -25.9541   19.0469 H   0  0  0  0  0  0
  -23.9766  -27.3122   19.0241 H   0  0  0  0  0  0
  -23.7364  -30.6221   19.4140 H   0  0  0  0  0  0
  -22.7327  -29.2729   19.8500 H   0  0  0  0  0  0
  -25.1258  -36.1975   25.0840 H   0  0  0  0  0  0
  -20.9953  -28.3255   24.1439 H   0  0  0  0  0  0
  -20.5654  -26.2280   23.3585 H   0  0  0  0  0  0
  -21.6631  -26.7452   22.1217 H   0  0  0  0  0  0
  -19.6924  -25.6293   21.1233 H   0  0  0  0  0  0
  -19.6716  -27.3186   20.6710 H   0  0  0  0  0  0
  -17.4188  -26.6641   21.4017 H   0  0  0  0  0  0
  -18.0369  -26.0069   22.9016 H   0  0  0  0  0  0
  -19.7949  -30.7233   24.2291 H   0  0  0  0  0  0
  -17.5054  -31.6283   24.5165 H   0  0  0  0  0  0
  -15.5374  -30.3042   23.7650 H   0  0  0  0  0  0
  -15.8633  -28.0855   22.7075 H   0  0  0  0  0  0
  -24.5958  -30.7041   25.7924 H   0  0  0  0  0  0
  -24.8952  -32.2891   26.4951 H   0  0  0  0  0  0
  -25.8157  -30.8961   27.0300 H   0  0  0  0  0  0
  -26.2863  -29.6829   24.1147 H   0  0  0  0  0  0
  -27.4065  -29.7283   25.4579 H   0  0  0  0  0  0
  -27.8703  -30.4382   23.9276 H   0  0  0  0  0  0
  -27.2702  -33.3592   26.2167 H   0  0  0  0  0  0
  -28.3914  -32.6865   25.0421 H   0  0  0  0  0  0
  -28.0686  -31.8377   26.5458 H   0  0  0  0  0  0
  -28.2610  -38.0109   24.7507 H   0  0  0  0  0  0
  -28.1048  -36.2645   24.6292 H   0  0  0  0  0  0
  -27.2294  -37.1490   25.8873 H   0  0  0  0  0  0
  -20.9205  -29.8829   21.7020 H   0  0  0  0  0  0
  -26.0154  -38.2884   24.1454 H   0  0  0  0  0  0
  -32.0290  -18.9733   23.0581 H   0  0  0  0  0  0
  -31.0361  -20.7906   21.6915 H   0  0  0  0  0  0
  -31.5344  -16.6003   22.5856 H   0  0  0  0  0  0
  -29.1002  -17.8193   19.2324 H   0  0  0  0  0  0
  -26.1219  -22.7427   18.1835 H   0  0  0  0  0  0
  -26.1772  -23.4840   19.7488 H   0  0  0  0  0  0
  -27.6015  -24.7516   18.0936 H   0  0  0  0  0  0
  -28.5152  -23.3128   17.7921 H   0  0  0  0  0  0
  -27.0006  -20.8004   18.9608 H   0  0  0  0  0  0
  -26.7140  -21.4013   20.5580 H   0  0  0  0  0  0
  -28.9801  -22.8768   21.5566 H   0  0  0  0  0  0
  -30.3684  -22.7459   20.5317 H   0  0  0  0  0  0
  -29.8097  -24.5542   19.3246 H   0  0  0  0  0  0
  -29.0027  -25.3549   21.5438 H   0  0  0  0  0  0
  -27.3640  -25.0562   21.0597 H   0  0  0  0  0  0
  -28.8992  -15.4787   20.6420 H   0  0  0  0  0  0
  1 25  1  0  0  0
  1 30  2  0  0  0
  1 85  1  0  0  0
  2  3  1  0  0  0
  2 25  1  0  0  0
  2 87  1  0  0  0
  2 88  1  0  0  0
  3  4  1  0  0  0
  3 89  1  0  0  0
  3 90  1  0  0  0
  4  5  1  0  0  0
  4 91  1  0  0  0
  4 92  1  0  0  0
  5  6  1  0  0  0
  5 26  1  0  0  0
  5 93  1  0  0  0
  6 25  1  0  0  0
  6 94  1  0  0  0
  6 95  1  0  0  0
  7  8  2  0  0  0
  7 26  1  0  0  0
  7 29  1  0  0  0
  8  9  1  0  0  0
  8 22  1  0  0  0
  9 10  1  0  0  0
  9 27  2  0  0  0
 10 11  2  0  0  0
 10 15  1  0  0  0
 11 12  1  0  0  0
 11 96  1  0  0  0
 12 13  2  0  0  0
 12 97  1  0  0  0
 13 14  1  0  0  0
 13 31  1  0  0  0
 14 15  2  0  0  0
 14 98  1  0  0  0
 15 99  1  0  0  0
 16 17  2  0  0  0
 16 21  1  0  0  0
 16 31  1  0  0  0
 17 18  1  0  0  0
 17100  1  0  0  0
 18 19  2  0  0  0
 18101  1  0  0  0
 19 20  1  0  0  0
 19 24  1  0  0  0
 20 21  2  0  0  0
 20102  1  0  0  0
 21 23  1  0  0  0
 22 28  1  0  0  0
 22 32  2  0  0  0
 26 27  1  0  0  0
 28103  1  0  0  0
 28104  1  0  0  0
 29105  1  0  0  0
 29106  1  0  0  0
 33 34  1  0  0  0
 33 66  1  0  0  0
 33 70  2  0  0  0
 34 36  1  0  0  0
 34 59  1  0  0  0
 34107  1  0  0  0
 35 44  2  0  0  0
 35 45  1  0  0  0
 35 68  1  0  0  0
 36 56  1  0  0  0
 36108  1  0  0  0
 37 39  1  0  0  0
 37 47  1  0  0  0
 37 66  1  0  0  0
 37109  1  0  0  0
 38 43  2  0  0  0
 38 46  1  0  0  0
 38 47  1  0  0  0
 39 64  1  0  0  0
 39 67  2  0  0  0
 40 52  1  0  0  0
 40 53  2  0  0  0
 40 58  1  0  0  0
 41110  1  0  0  0
 41111  1  0  0  0
 41112  1  0  0  0
 41 48  1  0  0  0
 42 43  1  0  0  0
 42 66  1  0  0  0
 42113  1  0  0  0
 42114  1  0  0  0
 43 44  1  0  0  0
 44115  1  0  0  0
 45 46  2  0  0  0
 45116  1  0  0  0
 46117  1  0  0  0
 47118  1  0  0  0
 47119  1  0  0  0
 48 56  1  0  0  0
 48 65  1  0  0  0
 48120  1  0  0  0
 49 50  1  0  0  0
 49 53  1  0  0  0
 49 64  1  0  0  0
 49121  1  0  0  0
 50 51  1  0  0  0
 50122  1  0  0  0
 50123  1  0  0  0
 51 52  1  0  0  0
 51124  1  0  0  0
 51125  1  0  0  0
 52126  1  0  0  0
 52127  1  0  0  0
 53 54  1  0  0  0
 54 55  2  0  0  0
 54128  1  0  0  0
 55 57  1  0  0  0
 55129  1  0  0  0
 56 69  2  0  0  0
 57 58  2  0  0  0
 57130  1  0  0  0
 58131  1  0  0  0
 59 60  1  0  0  0
 59 61  1  0  0  0
 59 62  1  0  0  0
 60132  1  0  0  0
 60133  1  0  0  0
 60134  1  0  0  0
 61135  1  0  0  0
 61136  1  0  0  0
 61137  1  0  0  0
 62138  1  0  0  0
 62139  1  0  0  0
 62140  1  0  0  0
 63 65  1  0  0  0
 63141  1  0  0  0
 63142  1  0  0  0
 63143  1  0  0  0
 64144  1  0  0  0
 65145  1  0  0  0
 68 83  1  0  0  0
 71 72  2  0  0  0
 71 73  1  0  0  0
 71146  1  0  0  0
 72 75  1  0  0  0
 72147  1  0  0  0
 73 76  2  0  0  0
 73148  1  0  0  0
 74 75  2  0  0  0
 74 76  1  0  0  0
 74149  1  0  0  0
 75 77  1  0  0  0
 76 85  1  0  0  0
 77 84  1  0  0  0
 77 86  2  0  0  0
 78 79  1  0  0  0
 78 80  1  0  0  0
 78150  1  0  0  0
 78151  1  0  0  0
 79 82  1  0  0  0
 79152  1  0  0  0
 79153  1  0  0  0
 80 84  1  0  0  0
 80154  1  0  0  0
 80155  1  0  0  0
 81 82  1  0  0  0
 81 84  1  0  0  0
 81156  1  0  0  0
 81157  1  0  0  0
 82 83  1  0  0  0
 82158  1  0  0  0
 83159  1  0  0  0
 83160  1  0  0  0
 85161  1  0  0  0
M  ISO  4   1 100  68 101  83 101  85 100
M  END
> <chiral flag>
0

> <version>
0

> <s_m_source_file>
/data/baiqing/PycharmProjects/Reinvent-master-3.2/result/LINK_invent/BTK/process_docking_weight1_custom_product_contain_oxygen_bond_distance_aromatic_linkinvent_7_9_3/rearranged_h_0101.sdf

> <i_m_source_file_index>
16

> <r_mmod_Potential_Energy-OPLS-2005>
208.640625

> <r_mmod_Stretch_Energy-OPLS-2005>
54.4645347595215

> <r_mmod_Bend_Energy-OPLS-2005>
112.49242401123

> <r_mmod_Torsional_Energy-OPLS-2005>
419.239044189453

> <r_mmod_Improper_Torsional_Energy-OPLS-2005>
12.640097618103

> <r_mmod_Van_der_Waal_Energy-OPLS-2005>
146.639755249023

> <r_mmod_Electrostatic_Energy-OPLS-2005>
-337.976318359375

> <r_mmod_Solvation_Energy-OPLS-2005>
-224.923614501953

> <b_mmod_Minimization_Converged-OPLS-2005>
0

> <r_mmod_RMS_Derivative-OPLS-2005>
5.23935031890869

$$$$
16
                    3D
 Structure written by MMmdl.
160168  0  0  1  0            999 V2000
  -30.7223  -14.4814   20.5719 C   0  0  0  0  0  0
  -30.4154  -12.3182   19.4198 C   0  0  0  0  0  0
  -29.4877  -12.4906   18.2014 C   0  0  0  0  0  0
  -28.0103  -12.3479   18.6189 C   0  0  0  0  0  0
  -27.6513  -13.2089   19.8601 C   0  0  2  0  0  0
  -28.6942  -13.0337   20.9849 C   0  0  0  0  0  0
  -25.2549  -13.8168   20.5635 C   0  0  0  0  0  0
  -24.1816  -13.0449   20.9174 C   0  0  0  0  0  0
  -24.6362  -11.6920   20.8713 C   0  0  0  0  0  0
  -23.9028  -10.4302   21.0380 C   0  0  0  0  0  0
  -24.3587   -9.4218   21.9165 C   0  0  0  0  0  0
  -23.6275   -8.2242   22.0745 C   0  0  0  0  0  0
  -22.4269   -8.0264   21.3528 C   0  0  0  0  0  0
  -21.9880   -9.0235   20.4637 C   0  0  0  0  0  0
  -22.7191  -10.2125   20.3041 C   0  0  0  0  0  0
  -21.6858   -6.0719   22.5273 C   0  0  0  0  0  0
  -21.4018   -6.5630   23.8202 C   0  0  0  0  0  0
  -21.3657   -5.6786   24.9167 C   0  0  0  0  0  0
  -21.6038   -4.3047   24.7219 C   0  0  0  0  0  0
  -21.8829   -3.8130   23.4349 C   0  0  0  0  0  0
  -21.9195   -4.6943   22.3402 C   0  0  0  0  0  0
  -22.7838  -13.5239   21.1841 C   0  0  0  0  0  0
  -22.1667   -4.2119   21.0980 F   0  0  0  0  0  0
  -21.5619   -3.4541   25.7730 F   0  0  0  0  0  0
  -30.0185  -13.3272   20.4164 N   0  0  0  0  0  0
  -26.2963  -12.9337   20.3286 N   0  0  0  0  0  0
  -25.9281  -11.6505   20.5727 N   0  0  0  0  0  0
  -22.0502  -12.8232   22.0417 N   0  0  0  0  0  0
  -25.4269  -15.1877   20.4005 N   0  0  0  0  0  0
  -31.8846  -14.5857   20.1670 O   0  0  0  0  0  0
  -21.6656   -6.8853   21.4227 O   0  0  0  0  0  0
  -22.3514  -14.5533   20.6660 O   0  0  0  0  0  0
  -24.6105  -31.8700   23.2125 C   0  0  0  0  0  0
  -25.9000  -32.4841   23.8410 C   0  0  1  0  0  0
  -27.2217  -27.4509   20.0897 C   0  0  0  0  0  0
  -25.5902  -33.8650   24.2345 N   0  0  0  0  0  0
  -23.3957  -30.4957   21.5540 C   0  0  2  0  0  0
  -24.8398  -28.9621   20.1154 C   0  0  0  0  0  0
  -22.7376  -29.4685   22.5029 C   0  0  0  0  0  0
  -18.0279  -28.1371   22.8521 C   0  0  0  0  0  0
  -24.1494  -36.7321   23.2635 C   0  0  0  0  0  0
  -25.9246  -30.8430   21.3597 C   0  0  0  0  0  0
  -26.0014  -29.4776   20.7051 C   0  0  0  0  0  0
  -27.1977  -28.7287   20.6876 C   0  0  0  0  0  0
  -26.0500  -26.9442   19.4927 C   0  0  0  0  0  0
  -24.8577  -27.6940   19.5072 C   0  0  0  0  0  0
  -23.5990  -29.8267   20.1703 C   0  0  0  0  0  0
  -25.4113  -36.3130   24.0341 C   0  0  1  0  0  0
  -20.5859  -28.3661   23.1356 C   0  0  2  0  0  0
  -20.6786  -26.9406   22.5443 C   0  0  0  0  0  0
  -19.5762  -26.6395   21.5246 C   0  0  0  0  0  0
  -18.1930  -26.7942   22.1642 C   0  0  0  0  0  0
  -19.1521  -28.8829   23.2946 C   0  0  0  0  0  0
  -18.9445  -30.1446   23.8943 C   0  0  0  0  0  0
  -17.6443  -30.6597   24.0553 C   0  0  0  0  0  0
  -25.9027  -34.9492   23.5136 C   0  0  0  0  0  0
  -16.5326  -29.9082   23.6331 C   0  0  0  0  0  0
  -16.7259  -28.6490   23.0370 C   0  0  0  0  0  0
  -26.4462  -31.6578   25.0698 C   0  0  0  0  0  0
  -25.3737  -31.3618   26.1440 C   0  0  0  0  0  0
  -27.0254  -30.3027   24.6001 C   0  0  0  0  0  0
  -27.6079  -32.4246   25.7434 C   0  0  0  0  0  0
  -27.5589  -37.1807   24.8475 C   0  0  0  0  0  0
  -21.4104  -29.3021   22.3758 N   0  0  0  0  0  0
  -26.4299  -37.3810   23.9420 N   0  0  0  0  0  0
  -24.6625  -31.0828   22.1011 N   0  0  0  0  0  0
  -23.4166  -28.8219   23.3055 O   0  0  0  0  0  0
  -28.3792  -26.7132   20.0748 O   0  0  0  0  0  0
  -26.5575  -34.8940   22.4681 O   0  0  0  0  0  0
  -23.5306  -32.1436   23.7559 O   0  0  0  0  0  0
  -28.9948  -19.8316   19.6614 C   0  0  0  0  0  0
  -28.4485  -19.9209   22.0301 C   0  0  0  0  0  0
  -29.6780  -17.9838   21.1271 C   0  0  0  0  0  0
  -29.6310  -18.5873   19.8392 C   0  0  0  0  0  0
  -28.4490  -20.5245   20.7537 C   0  0  0  0  0  0
  -29.0702  -18.6506   22.2289 C   0  0  0  0  0  0
  -30.5291  -16.7511   21.3469 C   0  0  0  0  0  0
  -28.5480  -22.9598   20.9144 C   0  0  0  0  0  0
  -30.3444  -17.9901   18.6338 C   0  0  0  0  0  0
  -28.6811  -18.7331   24.6104 C   0  0  0  0  0  0
  -28.2704  -24.2346   20.0952 C   0  0  0  0  0  0
  -28.3652  -25.5455   20.9069 C   0  0  0  0  0  0
  -27.9460  -21.8296   20.5042 N   0  0  0  0  0  0
  -30.0125  -15.5563   20.9841 N   0  0  0  0  0  0
  -31.6688  -16.9083   21.8003 O   0  0  0  0  0  0
  -29.2967  -22.9945   21.8942 O   0  0  0  0  0  0
  -29.1454  -18.0335   23.4628 O   0  0  0  0  0  0
  -31.4564  -12.4122   19.1067 H   0  0  0  0  0  0
  -30.3248  -11.3147   19.8401 H   0  0  0  0  0  0
  -29.7321  -11.7513   17.4389 H   0  0  0  0  0  0
  -29.6498  -13.4688   17.7443 H   0  0  0  0  0  0
  -27.8299  -11.2929   18.8320 H   0  0  0  0  0  0
  -27.3563  -12.5999   17.7823 H   0  0  0  0  0  0
  -27.6852  -14.2484   19.5327 H   0  0  0  0  0  0
  -28.6742  -12.0137   21.3690 H   0  0  0  0  0  0
  -28.4569  -13.6746   21.8376 H   0  0  0  0  0  0
  -25.2744   -9.5695   22.4728 H   0  0  0  0  0  0
  -23.9986   -7.4646   22.7479 H   0  0  0  0  0  0
  -21.0806   -8.8728   19.8962 H   0  0  0  0  0  0
  -22.3628  -10.9639   19.6136 H   0  0  0  0  0  0
  -21.2028   -7.6148   23.9679 H   0  0  0  0  0  0
  -21.1465   -6.0537   25.9061 H   0  0  0  0  0  0
  -22.0609   -2.7592   23.2861 H   0  0  0  0  0  0
  -22.4144  -11.9892   22.4779 H   0  0  0  0  0  0
  -21.1103  -13.1190   22.2639 H   0  0  0  0  0  0
  -24.6561  -15.8399   20.4993 H   0  0  0  0  0  0
  -26.2665  -15.6218   20.0378 H   0  0  0  0  0  0
  -26.7060  -32.5563   23.1173 H   0  0  0  0  0  0
  -25.0069  -33.9833   25.0504 H   0  0  0  0  0  0
  -22.6828  -31.3112   21.4163 H   0  0  0  0  0  0
  -23.3775  -35.9646   23.3322 H   0  0  0  0  0  0
  -24.3594  -36.8888   22.2047 H   0  0  0  0  0  0
  -23.7240  -37.6529   23.6631 H   0  0  0  0  0  0
  -26.0280  -31.6076   20.5912 H   0  0  0  0  0  0
  -26.8192  -30.9015   21.9679 H   0  0  0  0  0  0
  -28.1005  -29.1172   21.1387 H   0  0  0  0  0  0
  -26.0527  -25.9788   19.0088 H   0  0  0  0  0  0
  -23.9667  -27.2885   19.0487 H   0  0  0  0  0  0
  -23.6915  -30.6033   19.4087 H   0  0  0  0  0  0
  -22.7262  -29.2385   19.8816 H   0  0  0  0  0  0
  -25.1290  -36.2020   25.0839 H   0  0  0  0  0  0
  -20.9949  -28.3211   24.1481 H   0  0  0  0  0  0
  -20.5757  -26.2235   23.3598 H   0  0  0  0  0  0
  -21.6641  -26.7503   22.1172 H   0  0  0  0  0  0
  -19.6930  -25.6322   21.1243 H   0  0  0  0  0  0
  -19.6720  -27.3237   20.6803 H   0  0  0  0  0  0
  -17.4215  -26.6736   21.4022 H   0  0  0  0  0  0
  -18.0296  -26.0071   22.9015 H   0  0  0  0  0  0
  -19.7901  -30.7268   24.2337 H   0  0  0  0  0  0
  -17.4979  -31.6289   24.5118 H   0  0  0  0  0  0
  -15.5331  -30.2974   23.7656 H   0  0  0  0  0  0
  -15.8664  -28.0803   22.7079 H   0  0  0  0  0  0
  -24.5999  -30.6874   25.7743 H   0  0  0  0  0  0
  -24.8813  -32.2709   26.4861 H   0  0  0  0  0  0
  -25.8069  -30.8801   27.0201 H   0  0  0  0  0  0
  -26.2723  -29.6840   24.1089 H   0  0  0  0  0  0
  -27.4071  -29.7228   25.4413 H   0  0  0  0  0  0
  -27.8570  -30.4368   23.9084 H   0  0  0  0  0  0
  -27.2768  -33.3576   26.2004 H   0  0  0  0  0  0
  -28.3862  -32.6718   25.0202 H   0  0  0  0  0  0
  -28.0777  -31.8342   26.5310 H   0  0  0  0  0  0
  -28.2609  -38.0097   24.7500 H   0  0  0  0  0  0
  -28.1057  -36.2619   24.6310 H   0  0  0  0  0  0
  -27.2283  -37.1442   25.8866 H   0  0  0  0  0  0
  -20.9244  -29.8626   21.6883 H   0  0  0  0  0  0
  -26.0208  -38.2902   24.1398 H   0  0  0  0  0  0
  -28.9870  -20.3016   18.6870 H   0  0  0  0  0  0
  -27.9952  -20.4670   22.8453 H   0  0  0  0  0  0
  -30.1154  -18.5472   17.7265 H   0  0  0  0  0  0
  -30.0552  -16.9538   18.4669 H   0  0  0  0  0  0
  -31.4251  -18.0362   18.7728 H   0  0  0  0  0  0
  -28.8722  -18.1273   25.4978 H   0  0  0  0  0  0
  -27.6079  -18.9180   24.5633 H   0  0  0  0  0  0
  -29.2074  -19.6780   24.7469 H   0  0  0  0  0  0
  -27.2967  -24.1599   19.6137 H   0  0  0  0  0  0
  -29.0045  -24.2669   19.2902 H   0  0  0  0  0  0
  -29.2938  -25.5687   21.4773 H   0  0  0  0  0  0
  -27.5579  -25.5830   21.6419 H   0  0  0  0  0  0
  -27.3662  -21.9350   19.6811 H   0  0  0  0  0  0
  -29.0111  -15.4898   20.9303 H   0  0  0  0  0  0
  1 25  1  0  0  0
  1 30  2  0  0  0
  1 84  1  0  0  0
  2  3  1  0  0  0
  2 25  1  0  0  0
  2 88  1  0  0  0
  2 89  1  0  0  0
  3  4  1  0  0  0
  3 90  1  0  0  0
  3 91  1  0  0  0
  4  5  1  0  0  0
  4 92  1  0  0  0
  4 93  1  0  0  0
  5  6  1  0  0  0
  5 26  1  0  0  0
  5 94  1  0  0  0
  6 25  1  0  0  0
  6 95  1  0  0  0
  6 96  1  0  0  0
  7  8  2  0  0  0
  7 26  1  0  0  0
  7 29  1  0  0  0
  8  9  1  0  0  0
  8 22  1  0  0  0
  9 10  1  0  0  0
  9 27  2  0  0  0
 10 11  2  0  0  0
 10 15  1  0  0  0
 11 12  1  0  0  0
 11 97  1  0  0  0
 12 13  2  0  0  0
 12 98  1  0  0  0
 13 14  1  0  0  0
 13 31  1  0  0  0
 14 15  2  0  0  0
 14 99  1  0  0  0
 15100  1  0  0  0
 16 17  2  0  0  0
 16 21  1  0  0  0
 16 31  1  0  0  0
 17 18  1  0  0  0
 17101  1  0  0  0
 18 19  2  0  0  0
 18102  1  0  0  0
 19 20  1  0  0  0
 19 24  1  0  0  0
 20 21  2  0  0  0
 20103  1  0  0  0
 21 23  1  0  0  0
 22 28  1  0  0  0
 22 32  2  0  0  0
 26 27  1  0  0  0
 28104  1  0  0  0
 28105  1  0  0  0
 29106  1  0  0  0
 29107  1  0  0  0
 33 34  1  0  0  0
 33 66  1  0  0  0
 33 70  2  0  0  0
 34 36  1  0  0  0
 34 59  1  0  0  0
 34108  1  0  0  0
 35 44  2  0  0  0
 35 45  1  0  0  0
 35 68  1  0  0  0
 36 56  1  0  0  0
 36109  1  0  0  0
 37 39  1  0  0  0
 37 47  1  0  0  0
 37 66  1  0  0  0
 37110  1  0  0  0
 38 43  2  0  0  0
 38 46  1  0  0  0
 38 47  1  0  0  0
 39 64  1  0  0  0
 39 67  2  0  0  0
 40 52  1  0  0  0
 40 53  2  0  0  0
 40 58  1  0  0  0
 41111  1  0  0  0
 41112  1  0  0  0
 41113  1  0  0  0
 41 48  1  0  0  0
 42 43  1  0  0  0
 42 66  1  0  0  0
 42114  1  0  0  0
 42115  1  0  0  0
 43 44  1  0  0  0
 44116  1  0  0  0
 45 46  2  0  0  0
 45117  1  0  0  0
 46118  1  0  0  0
 47119  1  0  0  0
 47120  1  0  0  0
 48 56  1  0  0  0
 48 65  1  0  0  0
 48121  1  0  0  0
 49 50  1  0  0  0
 49 53  1  0  0  0
 49 64  1  0  0  0
 49122  1  0  0  0
 50 51  1  0  0  0
 50123  1  0  0  0
 50124  1  0  0  0
 51 52  1  0  0  0
 51125  1  0  0  0
 51126  1  0  0  0
 52127  1  0  0  0
 52128  1  0  0  0
 53 54  1  0  0  0
 54 55  2  0  0  0
 54129  1  0  0  0
 55 57  1  0  0  0
 55130  1  0  0  0
 56 69  2  0  0  0
 57 58  2  0  0  0
 57131  1  0  0  0
 58132  1  0  0  0
 59 60  1  0  0  0
 59 61  1  0  0  0
 59 62  1  0  0  0
 60133  1  0  0  0
 60134  1  0  0  0
 60135  1  0  0  0
 61136  1  0  0  0
 61137  1  0  0  0
 61138  1  0  0  0
 62139  1  0  0  0
 62140  1  0  0  0
 62141  1  0  0  0
 63 65  1  0  0  0
 63142  1  0  0  0
 63143  1  0  0  0
 63144  1  0  0  0
 64145  1  0  0  0
 65146  1  0  0  0
 68 82  1  0  0  0
 71 74  2  0  0  0
 71 75  1  0  0  0
 71147  1  0  0  0
 72 75  2  0  0  0
 72 76  1  0  0  0
 72148  1  0  0  0
 73 74  1  0  0  0
 73 76  2  0  0  0
 73 77  1  0  0  0
 74 79  1  0  0  0
 75 83  1  0  0  0
 76 87  1  0  0  0
 77 84  1  0  0  0
 77 85  2  0  0  0
 78 81  1  0  0  0
 78 83  1  0  0  0
 78 86  2  0  0  0
 79149  1  0  0  0
 79150  1  0  0  0
 79151  1  0  0  0
 80 87  1  0  0  0
 80152  1  0  0  0
 80153  1  0  0  0
 80154  1  0  0  0
 81 82  1  0  0  0
 81155  1  0  0  0
 81156  1  0  0  0
 82157  1  0  0  0
 82158  1  0  0  0
 83159  1  0  0  0
 84160  1  0  0  0
M  ISO  4   1 100  68 101  82 101  84 100
M  END
> <chiral flag>
0

> <version>
0

> <s_m_source_file>
/data/baiqing/PycharmProjects/Reinvent-master-3.2/result/LINK_invent/BTK/process_docking_weight1_custom_product_contain_oxygen_bond_distance_aromatic_linkinvent_7_9_3/rearranged_h_0101.sdf

> <i_m_source_file_index>
17

> <r_mmod_Potential_Energy-OPLS-2005>
-13.9881725311279

> <r_mmod_Stretch_Energy-OPLS-2005>
38.4443778991699

> <r_mmod_Bend_Energy-OPLS-2005>
99.8736114501953

> <r_mmod_Torsional_Energy-OPLS-2005>
309.498168945312

> <r_mmod_Improper_Torsional_Energy-OPLS-2005>
7.79908752441406

> <r_mmod_Van_der_Waal_Energy-OPLS-2005>
159.271179199219

> <r_mmod_Electrostatic_Energy-OPLS-2005>
-395.877532958984

> <r_mmod_Solvation_Energy-OPLS-2005>
-249.053848266602

> <b_mmod_Minimization_Converged-OPLS-2005>
0

> <r_mmod_RMS_Derivative-OPLS-2005>
3.95530843734741

$$$$
17
                    3D
 Structure written by MMmdl.
159167  0  0  1  0            999 V2000
  -30.7150  -14.4936   20.5821 C   0  0  0  0  0  0
  -30.4149  -12.3246   19.4316 C   0  0  0  0  0  0
  -29.4911  -12.5018   18.2107 C   0  0  0  0  0  0
  -28.0139  -12.3579   18.6278 C   0  0  0  0  0  0
  -27.6558  -13.2134   19.8722 C   0  0  2  0  0  0
  -28.6982  -13.0278   20.9975 C   0  0  0  0  0  0
  -25.2554  -13.8171   20.5707 C   0  0  0  0  0  0
  -24.1818  -13.0430   20.9194 C   0  0  0  0  0  0
  -24.6386  -11.6900   20.8743 C   0  0  0  0  0  0
  -23.9061  -10.4282   21.0418 C   0  0  0  0  0  0
  -24.3608   -9.4194   21.9203 C   0  0  0  0  0  0
  -23.6280   -8.2230   22.0772 C   0  0  0  0  0  0
  -22.4259   -8.0280   21.3559 C   0  0  0  0  0  0
  -21.9887   -9.0257   20.4663 C   0  0  0  0  0  0
  -22.7224  -10.2133   20.3076 C   0  0  0  0  0  0
  -21.6842   -6.0733   22.5288 C   0  0  0  0  0  0
  -21.4011   -6.5642   23.8224 C   0  0  0  0  0  0
  -21.3656   -5.6798   24.9190 C   0  0  0  0  0  0
  -21.6037   -4.3060   24.7234 C   0  0  0  0  0  0
  -21.8812   -3.8147   23.4357 C   0  0  0  0  0  0
  -21.9185   -4.6960   22.3410 C   0  0  0  0  0  0
  -22.7844  -13.5230   21.1854 C   0  0  0  0  0  0
  -22.1654   -4.2146   21.0988 F   0  0  0  0  0  0
  -21.5624   -3.4544   25.7748 F   0  0  0  0  0  0
  -30.0241  -13.3293   20.4354 N   0  0  0  0  0  0
  -26.2989  -12.9357   20.3368 N   0  0  0  0  0  0
  -25.9317  -11.6510   20.5778 N   0  0  0  0  0  0
  -22.0468  -12.8247   22.0413 N   0  0  0  0  0  0
  -25.4270  -15.1895   20.4149 N   0  0  0  0  0  0
  -31.8435  -14.6498   20.1070 O   0  0  0  0  0  0
  -21.6626   -6.8876   21.4253 O   0  0  0  0  0  0
  -22.3534  -14.5540   20.6710 O   0  0  0  0  0  0
  -24.6166  -31.8650   23.2091 C   0  0  0  0  0  0
  -25.9048  -32.4819   23.8387 C   0  0  1  0  0  0
  -27.2320  -27.4135   20.1187 C   0  0  0  0  0  0
  -25.5872  -33.8618   24.2300 N   0  0  0  0  0  0
  -23.4059  -30.4879   21.5468 C   0  0  2  0  0  0
  -24.8567  -28.9494   20.1153 C   0  0  0  0  0  0
  -22.7426  -29.4639   22.4965 C   0  0  0  0  0  0
  -18.0263  -28.1393   22.8492 C   0  0  0  0  0  0
  -24.1482  -36.7347   23.2638 C   0  0  0  0  0  0
  -25.9348  -30.8275   21.3638 C   0  0  0  0  0  0
  -26.0150  -29.4571   20.7186 C   0  0  0  0  0  0
  -27.2087  -28.6956   20.7200 C   0  0  0  0  0  0
  -26.0646  -26.9283   19.4988 C   0  0  0  0  0  0
  -24.8767  -27.6839   19.5019 C   0  0  0  0  0  0
  -23.6184  -29.8178   20.1619 C   0  0  0  0  0  0
  -25.4104  -36.3125   24.0325 C   0  0  1  0  0  0
  -20.5857  -28.3675   23.1304 C   0  0  2  0  0  0
  -20.6741  -26.9401   22.5413 C   0  0  0  0  0  0
  -19.5718  -26.6388   21.5209 C   0  0  0  0  0  0
  -18.1902  -26.7930   22.1631 C   0  0  0  0  0  0
  -19.1511  -28.8846   23.2890 C   0  0  0  0  0  0
  -18.9452  -30.1457   23.8905 C   0  0  0  0  0  0
  -17.6453  -30.6588   24.0577 C   0  0  0  0  0  0
  -25.9026  -34.9481   23.5122 C   0  0  0  0  0  0
  -16.5344  -29.9100   23.6337 C   0  0  0  0  0  0
  -16.7251  -28.6519   23.0345 C   0  0  0  0  0  0
  -26.4492  -31.6601   25.0719 C   0  0  0  0  0  0
  -25.3774  -31.3694   26.1484 C   0  0  0  0  0  0
  -27.0320  -30.3041   24.6104 C   0  0  0  0  0  0
  -27.6073  -32.4333   25.7460 C   0  0  0  0  0  0
  -27.5571  -37.1826   24.8452 C   0  0  0  0  0  0
  -21.4144  -29.3043   22.3720 N   0  0  0  0  0  0
  -26.4293  -37.3806   23.9387 N   0  0  0  0  0  0
  -24.6701  -31.0744   22.0987 N   0  0  0  0  0  0
  -23.4184  -28.8179   23.3007 O   0  0  0  0  0  0
  -28.3678  -26.6318   20.0975 O   0  0  0  0  0  0
  -26.5615  -34.8936   22.4700 O   0  0  0  0  0  0
  -23.5357  -32.1400   23.7489 O   0  0  0  0  0  0
  -30.5268  -19.0469   20.4108 C   0  0  0  0  0  0
  -28.7761  -18.4447   21.9674 C   0  0  0  0  0  0
  -29.9655  -18.0988   21.2956 C   0  0  0  0  0  0
  -29.9448  -20.3267   20.2144 C   0  0  0  0  0  0
  -28.1916  -19.7222   21.7882 C   0  0  0  0  0  0
  -28.7722  -20.7002   20.9372 C   0  0  0  0  0  0
  -30.5965  -21.2342   19.1854 C   0  0  0  0  0  0
  -30.7081  -16.7848   21.6037 C   0  0  0  0  0  0
  -27.8852  -24.3550   21.1622 C   0  0  0  0  0  0
  -28.5450  -25.7689   21.2389 C   0  0  0  0  0  0
  -28.8025  -23.1721   20.7407 C   0  0  0  0  0  0
  -27.0228  -20.0356   22.4795 N   0  0  0  0  0  0
  -30.0755  -15.5127   21.1988 N   0  0  0  0  0  0
  -28.0979  -21.9194   20.8405 O   0  0  0  0  0  0
  -31.4609  -12.4092   19.1324 H   0  0  0  0  0  0
  -30.3088  -11.3220   19.8476 H   0  0  0  0  0  0
  -29.7325  -11.7646   17.4443 H   0  0  0  0  0  0
  -29.6568  -13.4815   17.7603 H   0  0  0  0  0  0
  -27.8350  -11.3037   18.8446 H   0  0  0  0  0  0
  -27.3571  -12.6123   17.7948 H   0  0  0  0  0  0
  -27.6915  -14.2564   19.5562 H   0  0  0  0  0  0
  -28.6794  -12.0033   21.3726 H   0  0  0  0  0  0
  -28.4567  -13.6562   21.8561 H   0  0  0  0  0  0
  -25.2751   -9.5663   22.4790 H   0  0  0  0  0  0
  -23.9978   -7.4616   22.7490 H   0  0  0  0  0  0
  -21.0813   -8.8787   19.8975 H   0  0  0  0  0  0
  -22.3686  -10.9687   19.6196 H   0  0  0  0  0  0
  -21.2019   -7.6154   23.9727 H   0  0  0  0  0  0
  -21.1482   -6.0535   25.9093 H   0  0  0  0  0  0
  -22.0591   -2.7606   23.2866 H   0  0  0  0  0  0
  -22.4041  -11.9898   22.4822 H   0  0  0  0  0  0
  -21.1113  -13.1354   22.2643 H   0  0  0  0  0  0
  -24.6628  -15.8445   20.5404 H   0  0  0  0  0  0
  -26.2818  -15.6328   20.1035 H   0  0  0  0  0  0
  -26.7123  -32.5539   23.1152 H   0  0  0  0  0  0
  -24.9962  -33.9766   25.0406 H   0  0  0  0  0  0
  -22.6954  -31.3043   21.4037 H   0  0  0  0  0  0
  -23.3721  -35.9705   23.3325 H   0  0  0  0  0  0
  -24.3556  -36.8959   22.2046 H   0  0  0  0  0  0
  -23.7274  -37.6570   23.6658 H   0  0  0  0  0  0
  -26.0421  -31.5888   20.5902 H   0  0  0  0  0  0
  -26.8243  -30.8902   21.9794 H   0  0  0  0  0  0
  -28.1036  -29.0832   21.1879 H   0  0  0  0  0  0
  -26.0751  -25.9599   19.0190 H   0  0  0  0  0  0
  -23.9868  -27.2869   19.0316 H   0  0  0  0  0  0
  -23.7281  -30.5900   19.3992 H   0  0  0  0  0  0
  -22.7431  -29.2368   19.8661 H   0  0  0  0  0  0
  -25.1287  -36.1997   25.0821 H   0  0  0  0  0  0
  -20.9944  -28.3246   24.1423 H   0  0  0  0  0  0
  -20.5619  -26.2297   23.3616 H   0  0  0  0  0  0
  -21.6617  -26.7416   22.1219 H   0  0  0  0  0  0
  -19.6876  -25.6302   21.1229 H   0  0  0  0  0  0
  -19.6655  -27.3207   20.6741 H   0  0  0  0  0  0
  -17.4164  -26.6676   21.4038 H   0  0  0  0  0  0
  -18.0305  -26.0072   22.9028 H   0  0  0  0  0  0
  -19.7930  -30.7266   24.2275 H   0  0  0  0  0  0
  -17.5012  -31.6267   24.5190 H   0  0  0  0  0  0
  -15.5348  -30.3008   23.7656 H   0  0  0  0  0  0
  -15.8650  -28.0855   22.7043 H   0  0  0  0  0  0
  -24.5947  -30.7038   25.7824 H   0  0  0  0  0  0
  -24.8975  -32.2848   26.4953 H   0  0  0  0  0  0
  -25.8135  -30.8852   27.0237 H   0  0  0  0  0  0
  -26.2857  -29.6820   24.1152 H   0  0  0  0  0  0
  -27.4068  -29.7274   25.4569 H   0  0  0  0  0  0
  -27.8711  -30.4342   23.9265 H   0  0  0  0  0  0
  -27.2688  -33.3627   26.2053 H   0  0  0  0  0  0
  -28.3855  -32.6917   25.0263 H   0  0  0  0  0  0
  -28.0774  -31.8459   26.5353 H   0  0  0  0  0  0
  -28.2607  -38.0105   24.7483 H   0  0  0  0  0  0
  -28.1050  -36.2637   24.6302 H   0  0  0  0  0  0
  -27.2279  -37.1509   25.8854 H   0  0  0  0  0  0
  -20.9317  -29.8811   21.6975 H   0  0  0  0  0  0
  -26.0188  -38.2892   24.1383 H   0  0  0  0  0  0
  -31.4347  -18.7940   19.8792 H   0  0  0  0  0  0
  -28.3328  -17.7348   22.6522 H   0  0  0  0  0  0
  -31.3397  -20.6983   18.5941 H   0  0  0  0  0  0
  -31.1064  -22.0706   19.6640 H   0  0  0  0  0  0
  -29.8499  -21.6142   18.4872 H   0  0  0  0  0  0
  -30.8509  -16.7363   22.6844 H   0  0  0  0  0  0
  -31.7167  -16.8646   21.1944 H   0  0  0  0  0  0
  -27.0002  -24.3864   20.5282 H   0  0  0  0  0  0
  -27.5129  -24.1184   22.1592 H   0  0  0  0  0  0
  -29.6154  -25.6579   21.4159 H   0  0  0  0  0  0
  -28.1690  -26.2822   22.1257 H   0  0  0  0  0  0
  -29.6928  -23.1497   21.3715 H   0  0  0  0  0  0
  -29.1165  -23.3500   19.7146 H   0  0  0  0  0  0
  -26.7647  -21.0170   22.5103 H   0  0  0  0  0  0
  -26.8035  -19.5295   23.3313 H   0  0  0  0  0  0
  -29.1307  -15.3443   21.5067 H   0  0  0  0  0  0
  1 25  1  0  0  0
  1 30  2  0  0  0
  1 83  1  0  0  0
  2  3  1  0  0  0
  2 25  1  0  0  0
  2 85  1  0  0  0
  2 86  1  0  0  0
  3  4  1  0  0  0
  3 87  1  0  0  0
  3 88  1  0  0  0
  4  5  1  0  0  0
  4 89  1  0  0  0
  4 90  1  0  0  0
  5  6  1  0  0  0
  5 26  1  0  0  0
  5 91  1  0  0  0
  6 25  1  0  0  0
  6 92  1  0  0  0
  6 93  1  0  0  0
  7  8  2  0  0  0
  7 26  1  0  0  0
  7 29  1  0  0  0
  8  9  1  0  0  0
  8 22  1  0  0  0
  9 10  1  0  0  0
  9 27  2  0  0  0
 10 11  2  0  0  0
 10 15  1  0  0  0
 11 12  1  0  0  0
 11 94  1  0  0  0
 12 13  2  0  0  0
 12 95  1  0  0  0
 13 14  1  0  0  0
 13 31  1  0  0  0
 14 15  2  0  0  0
 14 96  1  0  0  0
 15 97  1  0  0  0
 16 17  2  0  0  0
 16 21  1  0  0  0
 16 31  1  0  0  0
 17 18  1  0  0  0
 17 98  1  0  0  0
 18 19  2  0  0  0
 18 99  1  0  0  0
 19 20  1  0  0  0
 19 24  1  0  0  0
 20 21  2  0  0  0
 20100  1  0  0  0
 21 23  1  0  0  0
 22 28  1  0  0  0
 22 32  2  0  0  0
 26 27  1  0  0  0
 28101  1  0  0  0
 28102  1  0  0  0
 29103  1  0  0  0
 29104  1  0  0  0
 33 34  1  0  0  0
 33 66  1  0  0  0
 33 70  2  0  0  0
 34 36  1  0  0  0
 34 59  1  0  0  0
 34105  1  0  0  0
 35 44  2  0  0  0
 35 45  1  0  0  0
 35 68  1  0  0  0
 36 56  1  0  0  0
 36106  1  0  0  0
 37 39  1  0  0  0
 37 47  1  0  0  0
 37 66  1  0  0  0
 37107  1  0  0  0
 38 43  2  0  0  0
 38 46  1  0  0  0
 38 47  1  0  0  0
 39 64  1  0  0  0
 39 67  2  0  0  0
 40 52  1  0  0  0
 40 53  2  0  0  0
 40 58  1  0  0  0
 41108  1  0  0  0
 41109  1  0  0  0
 41110  1  0  0  0
 41 48  1  0  0  0
 42 43  1  0  0  0
 42 66  1  0  0  0
 42111  1  0  0  0
 42112  1  0  0  0
 43 44  1  0  0  0
 44113  1  0  0  0
 45 46  2  0  0  0
 45114  1  0  0  0
 46115  1  0  0  0
 47116  1  0  0  0
 47117  1  0  0  0
 48 56  1  0  0  0
 48 65  1  0  0  0
 48118  1  0  0  0
 49 50  1  0  0  0
 49 53  1  0  0  0
 49 64  1  0  0  0
 49119  1  0  0  0
 50 51  1  0  0  0
 50120  1  0  0  0
 50121  1  0  0  0
 51 52  1  0  0  0
 51122  1  0  0  0
 51123  1  0  0  0
 52124  1  0  0  0
 52125  1  0  0  0
 53 54  1  0  0  0
 54 55  2  0  0  0
 54126  1  0  0  0
 55 57  1  0  0  0
 55127  1  0  0  0
 56 69  2  0  0  0
 57 58  2  0  0  0
 57128  1  0  0  0
 58129  1  0  0  0
 59 60  1  0  0  0
 59 61  1  0  0  0
 59 62  1  0  0  0
 60130  1  0  0  0
 60131  1  0  0  0
 60132  1  0  0  0
 61133  1  0  0  0
 61134  1  0  0  0
 61135  1  0  0  0
 62136  1  0  0  0
 62137  1  0  0  0
 62138  1  0  0  0
 63 65  1  0  0  0
 63139  1  0  0  0
 63140  1  0  0  0
 63141  1  0  0  0
 64142  1  0  0  0
 65143  1  0  0  0
 68 80  1  0  0  0
 71 73  2  0  0  0
 71 74  1  0  0  0
 71144  1  0  0  0
 72 73  1  0  0  0
 72 75  2  0  0  0
 72145  1  0  0  0
 73 78  1  0  0  0
 74 76  2  0  0  0
 74 77  1  0  0  0
 75 76  1  0  0  0
 75 82  1  0  0  0
 76 84  1  0  0  0
 77146  1  0  0  0
 77147  1  0  0  0
 77148  1  0  0  0
 78 83  1  0  0  0
 78149  1  0  0  0
 78150  1  0  0  0
 79 80  1  0  0  0
 79 81  1  0  0  0
 79151  1  0  0  0
 79152  1  0  0  0
 80153  1  0  0  0
 80154  1  0  0  0
 81 84  1  0  0  0
 81155  1  0  0  0
 81156  1  0  0  0
 82157  1  0  0  0
 82158  1  0  0  0
 83159  1  0  0  0
M  ISO  4   1 100  68 101  80 101  83 100
M  END
> <chiral flag>
0

> <version>
0

> <s_m_source_file>
/data/baiqing/PycharmProjects/Reinvent-master-3.2/result/LINK_invent/BTK/process_docking_weight1_custom_product_contain_oxygen_bond_distance_aromatic_linkinvent_7_9_3/rearranged_h_0101.sdf

> <i_m_source_file_index>
18

> <r_mmod_Potential_Energy-OPLS-2005>
-108.067001342773

> <r_mmod_Stretch_Energy-OPLS-2005>
44.0062713623047

> <r_mmod_Bend_Energy-OPLS-2005>
116.890327453613

> <r_mmod_Torsional_Energy-OPLS-2005>
247.107070922852

> <r_mmod_Improper_Torsional_Energy-OPLS-2005>
5.90333318710327

> <r_mmod_Van_der_Waal_Energy-OPLS-2005>
149.513137817383

> <r_mmod_Electrostatic_Energy-OPLS-2005>
-469.732086181641

> <r_mmod_Solvation_Energy-OPLS-2005>
-217.820526123047

> <b_mmod_Minimization_Converged-OPLS-2005>
0

> <r_mmod_RMS_Derivative-OPLS-2005>
2.04946994781494

$$$$
18
                    3D
 Structure written by MMmdl.
155164  0  0  1  0            999 V2000
  -30.5835  -14.8537   20.4223 C   0  0  0  0  0  0
  -30.4535  -12.5166   19.4443 C   0  0  0  0  0  0
  -29.5163  -12.5373   18.2126 C   0  0  0  0  0  0
  -28.0515  -12.3336   18.6460 C   0  0  0  0  0  0
  -27.6596  -13.2263   19.8539 C   0  0  2  0  0  0
  -28.7248  -13.1689   20.9744 C   0  0  0  0  0  0
  -25.2686  -13.8157   20.5790 C   0  0  0  0  0  0
  -24.1931  -13.0467   20.9203 C   0  0  0  0  0  0
  -24.6481  -11.6903   20.8733 C   0  0  0  0  0  0
  -23.9134  -10.4319   21.0412 C   0  0  0  0  0  0
  -24.3681   -9.4211   21.9181 C   0  0  0  0  0  0
  -23.6328   -8.2262   22.0771 C   0  0  0  0  0  0
  -22.4292   -8.0322   21.3572 C   0  0  0  0  0  0
  -21.9956   -9.0304   20.4656 C   0  0  0  0  0  0
  -22.7316  -10.2165   20.3054 C   0  0  0  0  0  0
  -21.6855   -6.0766   22.5295 C   0  0  0  0  0  0
  -21.3988   -6.5648   23.8233 C   0  0  0  0  0  0
  -21.3645   -5.6795   24.9182 C   0  0  0  0  0  0
  -21.6048   -4.3065   24.7224 C   0  0  0  0  0  0
  -21.8827   -3.8166   23.4340 C   0  0  0  0  0  0
  -21.9203   -4.6992   22.3403 C   0  0  0  0  0  0
  -22.7950  -13.5285   21.1847 C   0  0  0  0  0  0
  -22.1683   -4.2188   21.0982 F   0  0  0  0  0  0
  -21.5636   -3.4536   25.7728 F   0  0  0  0  0  0
  -30.0071  -13.5856   20.3842 N   0  0  0  0  0  0
  -26.3113  -12.9364   20.3371 N   0  0  0  0  0  0
  -25.9421  -11.6508   20.5737 N   0  0  0  0  0  0
  -22.0555  -12.8290   22.0339 N   0  0  0  0  0  0
  -25.4457  -15.1910   20.4325 N   0  0  0  0  0  0
  -31.7545  -14.9788   20.0532 O   0  0  0  0  0  0
  -21.6643   -6.8927   21.4259 O   0  0  0  0  0  0
  -22.3667  -14.5654   20.6728 O   0  0  0  0  0  0
  -24.6516  -31.8468   23.1774 C   0  0  0  0  0  0
  -25.9278  -32.4710   23.8196 C   0  0  1  0  0  0
  -27.2969  -27.1650   20.1481 C   0  0  0  0  0  0
  -25.5964  -33.8485   24.2084 N   0  0  0  0  0  0
  -23.4548  -30.4686   21.5161 C   0  0  2  0  0  0
  -24.9257  -28.8650   20.1298 C   0  0  0  0  0  0
  -22.7555  -29.4733   22.4764 C   0  0  0  0  0  0
  -18.0312  -28.1259   22.8582 C   0  0  0  0  0  0
  -24.1497  -36.7275   23.2639 C   0  0  0  0  0  0
  -26.0093  -30.7371   21.3673 C   0  0  0  0  0  0
  -26.0979  -29.3396   20.7264 C   0  0  0  0  0  0
  -27.2745  -28.5014   20.7271 C   0  0  0  0  0  0
  -26.0939  -26.7795   19.5292 C   0  0  0  0  0  0
  -24.9287  -27.5883   19.5396 C   0  0  0  0  0  0
  -23.6927  -29.7623   20.1508 C   0  0  0  0  0  0
  -25.4098  -36.2999   24.0308 C   0  0  1  0  0  0
  -20.5937  -28.3781   23.0964 C   0  0  2  0  0  0
  -20.6852  -26.9486   22.4995 C   0  0  0  0  0  0
  -19.5498  -26.6245   21.5232 C   0  0  0  0  0  0
  -18.2041  -26.7567   22.2307 C   0  0  0  0  0  0
  -19.1546  -28.8880   23.2727 C   0  0  0  0  0  0
  -18.9365  -30.1473   23.8721 C   0  0  0  0  0  0
  -17.6309  -30.6423   24.0532 C   0  0  0  0  0  0
  -25.9045  -34.9405   23.4987 C   0  0  0  0  0  0
  -16.5234  -29.8840   23.6331 C   0  0  0  0  0  0
  -16.7261  -28.6255   23.0427 C   0  0  0  0  0  0
  -26.4520  -31.6593   25.0682 C   0  0  0  0  0  0
  -25.3653  -31.3874   26.1355 C   0  0  0  0  0  0
  -27.0411  -30.2974   24.6313 C   0  0  0  0  0  0
  -27.5969  -32.4424   25.7524 C   0  0  0  0  0  0
  -27.5546  -37.1795   24.8455 C   0  0  0  0  0  0
  -21.4244  -29.3189   22.3400 N   0  0  0  0  0  0
  -26.4240  -37.3725   23.9422 N   0  0  0  0  0  0
  -24.7235  -31.0398   22.0762 N   0  0  0  0  0  0
  -23.4130  -28.8329   23.3000 O   0  0  0  0  0  0
  -28.4117  -26.2473   20.2292 O   0  0  0  0  0  0
  -26.5651  -34.8939   22.4575 O   0  0  0  0  0  0
  -23.5655  -32.1318   23.7048 O   0  0  0  0  0  0
  -30.0291  -19.7824   19.5478 C   0  0  0  0  0  0
  -28.6424  -19.6509   21.4501 C   0  0  0  0  0  0
  -30.3419  -18.3539   19.6756 C   0  0  0  0  0  0
  -28.9090  -18.2301   21.5432 C   0  0  0  0  0  0
  -29.1318  -20.5231   20.4120 C   0  0  0  0  0  0
  -29.7437  -17.4817   20.6536 C   0  0  0  0  0  0
  -27.1518  -21.8215   19.9740 C   0  0  0  0  0  0
  -26.3817  -22.8563   20.7862 C   0  0  0  0  0  0
  -27.4685  -23.5395   21.6071 C   0  0  0  0  0  0
  -28.6822  -23.3782   20.6889 C   0  0  2  0  0  0
  -28.5426  -24.7666   19.7381 C   0  0  0  0  0  0
  -28.4910  -21.9093   20.1205 N   0  0  0  0  0  0
  -29.7699  -15.9536   20.7645 N   0  0  0  0  0  0
  -26.5580  -20.9729   19.3021 O   0  0  0  0  0  0
  -31.4943  -12.6340   19.1418 H   0  0  0  0  0  0
  -30.3966  -11.5315   19.9140 H   0  0  0  0  0  0
  -29.8058  -11.7584   17.5053 H   0  0  0  0  0  0
  -29.6081  -13.4822   17.6743 H   0  0  0  0  0  0
  -27.9387  -11.2818   18.9145 H   0  0  0  0  0  0
  -27.3786  -12.5082   17.8061 H   0  0  0  0  0  0
  -27.6483  -14.2483   19.4731 H   0  0  0  0  0  0
  -28.8088  -12.1580   21.3782 H   0  0  0  0  0  0
  -28.4561  -13.8064   21.8159 H   0  0  0  0  0  0
  -25.2850   -9.5642   22.4739 H   0  0  0  0  0  0
  -24.0026   -7.4639   22.7498 H   0  0  0  0  0  0
  -21.0885   -8.8831   19.8966 H   0  0  0  0  0  0
  -22.3812  -10.9697   19.6142 H   0  0  0  0  0  0
  -21.1949   -7.6146   23.9743 H   0  0  0  0  0  0
  -21.1459   -6.0510   25.9088 H   0  0  0  0  0  0
  -22.0617   -2.7630   23.2821 H   0  0  0  0  0  0
  -22.4162  -11.9916   22.4680 H   0  0  0  0  0  0
  -21.1159  -13.1314   22.2500 H   0  0  0  0  0  0
  -24.7111  -15.8604   20.6325 H   0  0  0  0  0  0
  -26.3130  -15.6275   20.1500 H   0  0  0  0  0  0
  -26.7417  -32.5380   23.1013 H   0  0  0  0  0  0
  -25.0120  -33.9518   25.0246 H   0  0  0  0  0  0
  -22.7672  -31.2993   21.3399 H   0  0  0  0  0  0
  -23.3724  -35.9653   23.3285 H   0  0  0  0  0  0
  -24.3573  -36.8939   22.2054 H   0  0  0  0  0  0
  -23.7304  -37.6481   23.6710 H   0  0  0  0  0  0
  -26.1437  -31.4874   20.5846 H   0  0  0  0  0  0
  -26.8768  -30.8118   22.0120 H   0  0  0  0  0  0
  -28.1630  -28.8731   21.2200 H   0  0  0  0  0  0
  -26.0418  -25.8000   19.0843 H   0  0  0  0  0  0
  -24.0181  -27.1876   19.1214 H   0  0  0  0  0  0
  -23.8336  -30.5125   19.3707 H   0  0  0  0  0  0
  -22.8126  -29.1984   19.8404 H   0  0  0  0  0  0
  -25.1307  -36.1751   25.0802 H   0  0  0  0  0  0
  -21.0124  -28.3245   24.1044 H   0  0  0  0  0  0
  -20.6312  -26.2387   23.3263 H   0  0  0  0  0  0
  -21.6513  -26.7678   22.0308 H   0  0  0  0  0  0
  -19.6531  -25.6098   21.1379 H   0  0  0  0  0  0
  -19.5881  -27.2982   20.6664 H   0  0  0  0  0  0
  -17.3847  -26.5414   21.5446 H   0  0  0  0  0  0
  -18.1446  -26.0165   23.0296 H   0  0  0  0  0  0
  -19.7813  -30.7350   24.2025 H   0  0  0  0  0  0
  -17.4694  -31.6019   24.5271 H   0  0  0  0  0  0
  -15.5151  -30.2524   23.7653 H   0  0  0  0  0  0
  -15.8737  -28.0354   22.7321 H   0  0  0  0  0  0
  -24.5723  -30.7364   25.7662 H   0  0  0  0  0  0
  -24.9015  -32.3163   26.4693 H   0  0  0  0  0  0
  -25.7874  -30.9034   27.0166 H   0  0  0  0  0  0
  -26.3074  -29.6672   24.1299 H   0  0  0  0  0  0
  -27.3977  -29.7282   25.4896 H   0  0  0  0  0  0
  -27.8969  -30.4150   23.9667 H   0  0  0  0  0  0
  -27.2390  -33.3688   26.2011 H   0  0  0  0  0  0
  -28.3831  -32.7064   25.0449 H   0  0  0  0  0  0
  -28.0582  -31.8649   26.5538 H   0  0  0  0  0  0
  -28.2543  -38.0104   24.7462 H   0  0  0  0  0  0
  -28.1053  -36.2622   24.6308 H   0  0  0  0  0  0
  -27.2284  -37.1489   25.8865 H   0  0  0  0  0  0
  -20.9569  -29.8735   21.6373 H   0  0  0  0  0  0
  -26.0095  -38.2795   24.1420 H   0  0  0  0  0  0
  -30.4423  -20.2963   18.6899 H   0  0  0  0  0  0
  -27.9263  -20.0403   22.1592 H   0  0  0  0  0  0
  -31.0098  -17.9161   18.9431 H   0  0  0  0  0  0
  -28.3863  -17.6895   22.3228 H   0  0  0  0  0  0
  -25.6095  -22.3875   21.3951 H   0  0  0  0  0  0
  -25.8946  -23.5626   20.1180 H   0  0  0  0  0  0
  -27.6087  -23.0381   22.5648 H   0  0  0  0  0  0
  -27.2236  -24.5857   21.8092 H   0  0  0  0  0  0
  -29.6178  -23.4138   21.2489 H   0  0  0  0  0  0
  -29.5083  -24.7964   19.2342 H   0  0  0  0  0  0
  -27.8663  -24.5712   18.9047 H   0  0  0  0  0  0
  -28.9227  -15.5914   21.1716 H   0  0  0  0  0  0
  1 25  1  0  0  0
  1 30  2  0  0  0
  1 83  1  0  0  0
  2  3  1  0  0  0
  2 25  1  0  0  0
  2 85  1  0  0  0
  2 86  1  0  0  0
  3  4  1  0  0  0
  3 87  1  0  0  0
  3 88  1  0  0  0
  4  5  1  0  0  0
  4 89  1  0  0  0
  4 90  1  0  0  0
  5  6  1  0  0  0
  5 26  1  0  0  0
  5 91  1  0  0  0
  6 25  1  0  0  0
  6 92  1  0  0  0
  6 93  1  0  0  0
  7  8  2  0  0  0
  7 26  1  0  0  0
  7 29  1  0  0  0
  8  9  1  0  0  0
  8 22  1  0  0  0
  9 10  1  0  0  0
  9 27  2  0  0  0
 10 11  2  0  0  0
 10 15  1  0  0  0
 11 12  1  0  0  0
 11 94  1  0  0  0
 12 13  2  0  0  0
 12 95  1  0  0  0
 13 14  1  0  0  0
 13 31  1  0  0  0
 14 15  2  0  0  0
 14 96  1  0  0  0
 15 97  1  0  0  0
 16 17  2  0  0  0
 16 21  1  0  0  0
 16 31  1  0  0  0
 17 18  1  0  0  0
 17 98  1  0  0  0
 18 19  2  0  0  0
 18 99  1  0  0  0
 19 20  1  0  0  0
 19 24  1  0  0  0
 20 21  2  0  0  0
 20100  1  0  0  0
 21 23  1  0  0  0
 22 28  1  0  0  0
 22 32  2  0  0  0
 26 27  1  0  0  0
 28101  1  0  0  0
 28102  1  0  0  0
 29103  1  0  0  0
 29104  1  0  0  0
 33 34  1  0  0  0
 33 66  1  0  0  0
 33 70  2  0  0  0
 34 36  1  0  0  0
 34 59  1  0  0  0
 34105  1  0  0  0
 35 44  2  0  0  0
 35 45  1  0  0  0
 35 68  1  0  0  0
 36 56  1  0  0  0
 36106  1  0  0  0
 37 39  1  0  0  0
 37 47  1  0  0  0
 37 66  1  0  0  0
 37107  1  0  0  0
 38 43  2  0  0  0
 38 46  1  0  0  0
 38 47  1  0  0  0
 39 64  1  0  0  0
 39 67  2  0  0  0
 40 52  1  0  0  0
 40 53  2  0  0  0
 40 58  1  0  0  0
 41108  1  0  0  0
 41109  1  0  0  0
 41110  1  0  0  0
 41 48  1  0  0  0
 42 43  1  0  0  0
 42 66  1  0  0  0
 42111  1  0  0  0
 42112  1  0  0  0
 43 44  1  0  0  0
 44113  1  0  0  0
 45 46  2  0  0  0
 45114  1  0  0  0
 46115  1  0  0  0
 47116  1  0  0  0
 47117  1  0  0  0
 48 56  1  0  0  0
 48 65  1  0  0  0
 48118  1  0  0  0
 49 50  1  0  0  0
 49 53  1  0  0  0
 49 64  1  0  0  0
 49119  1  0  0  0
 50 51  1  0  0  0
 50120  1  0  0  0
 50121  1  0  0  0
 51 52  1  0  0  0
 51122  1  0  0  0
 51123  1  0  0  0
 52124  1  0  0  0
 52125  1  0  0  0
 53 54  1  0  0  0
 54 55  2  0  0  0
 54126  1  0  0  0
 55 57  1  0  0  0
 55127  1  0  0  0
 56 69  2  0  0  0
 57 58  2  0  0  0
 57128  1  0  0  0
 58129  1  0  0  0
 59 60  1  0  0  0
 59 61  1  0  0  0
 59 62  1  0  0  0
 60130  1  0  0  0
 60131  1  0  0  0
 60132  1  0  0  0
 61133  1  0  0  0
 61134  1  0  0  0
 61135  1  0  0  0
 62136  1  0  0  0
 62137  1  0  0  0
 62138  1  0  0  0
 63 65  1  0  0  0
 63139  1  0  0  0
 63140  1  0  0  0
 63141  1  0  0  0
 64142  1  0  0  0
 65143  1  0  0  0
 68 81  1  0  0  0
 71 73  2  0  0  0
 71 75  1  0  0  0
 71144  1  0  0  0
 72 74  1  0  0  0
 72 75  2  0  0  0
 72145  1  0  0  0
 73 76  1  0  0  0
 73146  1  0  0  0
 74 76  2  0  0  0
 74147  1  0  0  0
 75 82  1  0  0  0
 76 83  1  0  0  0
 77 78  1  0  0  0
 77 82  1  0  0  0
 77 84  2  0  0  0
 78 79  1  0  0  0
 78148  1  0  0  0
 78149  1  0  0  0
 79 80  1  0  0  0
 79150  1  0  0  0
 79151  1  0  0  0
 80 81  1  0  0  0
 80 82  1  0  0  0
 80152  1  0  0  0
 81153  1  0  0  0
 81154  1  0  0  0
 83155  1  0  0  0
M  ISO  4   1 100  68 101  81 101  83 100
M  END
> <chiral flag>
0

> <version>
0

> <s_m_source_file>
/data/baiqing/PycharmProjects/Reinvent-master-3.2/result/LINK_invent/BTK/process_docking_weight1_custom_product_contain_oxygen_bond_distance_aromatic_linkinvent_7_9_3/rearranged_h_0101.sdf

> <i_m_source_file_index>
19

> <r_mmod_Potential_Energy-OPLS-2005>
616.4443359375

> <r_mmod_Stretch_Energy-OPLS-2005>
250.749221801758

> <r_mmod_Bend_Energy-OPLS-2005>
341.133361816406

> <r_mmod_Torsional_Energy-OPLS-2005>
326.640441894531

> <r_mmod_Improper_Torsional_Energy-OPLS-2005>
8.42994976043701

> <r_mmod_Van_der_Waal_Energy-OPLS-2005>
126.613868713379

> <r_mmod_Electrostatic_Energy-OPLS-2005>
-355.10498046875

> <r_mmod_Solvation_Energy-OPLS-2005>
-225.868148803711

> <b_mmod_Minimization_Converged-OPLS-2005>
0

> <r_mmod_RMS_Derivative-OPLS-2005>
9.95054721832275

$$$$
19
                    3D
 Structure written by MMmdl.
160169  0  0  1  0            999 V2000
  -30.7498  -14.4710   20.6170 C   0  0  0  0  0  0
  -30.4167  -12.3279   19.4300 C   0  0  0  0  0  0
  -29.4953  -12.5234   18.2109 C   0  0  0  0  0  0
  -28.0198  -12.3664   18.6244 C   0  0  0  0  0  0
  -27.6604  -13.2187   19.8703 C   0  0  2  0  0  0
  -28.7004  -13.0315   20.9970 C   0  0  0  0  0  0
  -25.2590  -13.8199   20.5739 C   0  0  0  0  0  0
  -24.1835  -13.0448   20.9160 C   0  0  0  0  0  0
  -24.6398  -11.6926   20.8692 C   0  0  0  0  0  0
  -23.9065  -10.4314   21.0380 C   0  0  0  0  0  0
  -24.3624   -9.4243   21.9168 C   0  0  0  0  0  0
  -23.6322   -8.2267   22.0729 C   0  0  0  0  0  0
  -22.4305   -8.0284   21.3529 C   0  0  0  0  0  0
  -21.9920   -9.0250   20.4635 C   0  0  0  0  0  0
  -22.7228  -10.2146   20.3044 C   0  0  0  0  0  0
  -21.6859   -6.0754   22.5294 C   0  0  0  0  0  0
  -21.4019   -6.5659   23.8229 C   0  0  0  0  0  0
  -21.3651   -5.6806   24.9189 C   0  0  0  0  0  0
  -21.6035   -4.3067   24.7235 C   0  0  0  0  0  0
  -21.8818   -3.8162   23.4364 C   0  0  0  0  0  0
  -21.9199   -4.6981   22.3422 C   0  0  0  0  0  0
  -22.7852  -13.5235   21.1860 C   0  0  0  0  0  0
  -22.1666   -4.2162   21.1002 F   0  0  0  0  0  0
  -21.5611   -3.4555   25.7751 F   0  0  0  0  0  0
  -30.0337  -13.3237   20.4451 N   0  0  0  0  0  0
  -26.3023  -12.9387   20.3348 N   0  0  0  0  0  0
  -25.9332  -11.6523   20.5708 N   0  0  0  0  0  0
  -22.0502  -12.8211   22.0410 N   0  0  0  0  0  0
  -25.4354  -15.1931   20.4304 N   0  0  0  0  0  0
  -31.8497  -14.6439   20.0880 O   0  0  0  0  0  0
  -21.6657   -6.8885   21.4243 O   0  0  0  0  0  0
  -22.3516  -14.5547   20.6738 O   0  0  0  0  0  0
  -24.6154  -31.8699   23.2126 C   0  0  0  0  0  0
  -25.9034  -32.4839   23.8428 C   0  0  1  0  0  0
  -27.2217  -27.4076   20.1023 C   0  0  0  0  0  0
  -25.5885  -33.8641   24.2354 N   0  0  0  0  0  0
  -23.4060  -30.4949   21.5541 C   0  0  2  0  0  0
  -24.8567  -28.9670   20.1132 C   0  0  0  0  0  0
  -22.7411  -29.4675   22.4981 C   0  0  0  0  0  0
  -18.0291  -28.1394   22.8453 C   0  0  0  0  0  0
  -24.1490  -36.7325   23.2632 C   0  0  0  0  0  0
  -25.9401  -30.8210   21.3835 C   0  0  0  0  0  0
  -26.0158  -29.4516   20.7365 C   0  0  0  0  0  0
  -27.1987  -28.6685   20.7515 C   0  0  0  0  0  0
  -26.0720  -26.9941   19.4032 C   0  0  0  0  0  0
  -24.8801  -27.7339   19.4462 C   0  0  0  0  0  0
  -23.6181  -29.8327   20.1678 C   0  0  0  0  0  0
  -25.4113  -36.3132   24.0328 C   0  0  1  0  0  0
  -20.5869  -28.3691   23.1276 C   0  0  2  0  0  0
  -20.6798  -26.9426   22.5360 C   0  0  0  0  0  0
  -19.5793  -26.6427   21.5121 C   0  0  0  0  0  0
  -18.1974  -26.7938   22.1569 C   0  0  0  0  0  0
  -19.1535  -28.8858   23.2858 C   0  0  0  0  0  0
  -18.9463  -30.1448   23.8913 C   0  0  0  0  0  0
  -17.6464  -30.6565   24.0580 C   0  0  0  0  0  0
  -25.9031  -34.9485   23.5146 C   0  0  0  0  0  0
  -16.5350  -29.9095   23.6325 C   0  0  0  0  0  0
  -16.7277  -28.6528   23.0308 C   0  0  0  0  0  0
  -26.4455  -31.6616   25.0753 C   0  0  0  0  0  0
  -25.3699  -31.3733   26.1489 C   0  0  0  0  0  0
  -27.0280  -30.3044   24.6143 C   0  0  0  0  0  0
  -27.6044  -32.4333   25.7501 C   0  0  0  0  0  0
  -27.5590  -37.1821   24.8458 C   0  0  0  0  0  0
  -21.4143  -29.3071   22.3699 N   0  0  0  0  0  0
  -26.4314  -37.3812   23.9386 N   0  0  0  0  0  0
  -24.6717  -31.0753   22.1075 N   0  0  0  0  0  0
  -23.4150  -28.8197   23.3032 O   0  0  0  0  0  0
  -28.3242  -26.5716   20.1014 O   0  0  0  0  0  0
  -26.5603  -34.8920   22.4710 O   0  0  0  0  0  0
  -23.5331  -32.1463   23.7479 O   0  0  0  0  0  0
  -29.6767  -18.3611   20.3407 C   0  0  0  0  0  0
  -30.1731  -18.9737   22.6344 C   0  0  0  0  0  0
  -29.0886  -19.6322   20.1363 C   0  0  0  0  0  0
  -29.5731  -20.2390   22.4376 C   0  0  0  0  0  0
  -30.2095  -18.0098   21.6015 C   0  0  0  0  0  0
  -28.9944  -20.5796   21.1909 C   0  0  0  0  0  0
  -26.8460  -21.5981   20.9440 C   0  0  0  0  0  0
  -28.7638  -23.0351   21.1282 C   0  0  0  0  0  0
  -25.8790  -22.7823   20.8472 C   0  0  0  0  0  0
  -26.5612  -24.1118   20.5445 C   0  0  0  0  0  0
  -27.8532  -24.2884   21.3403 C   0  0  2  0  0  0
  -30.8799  -16.6486   21.8556 C   0  0  0  0  0  0
  -28.4868  -25.7425   21.2824 C   0  0  0  0  0  0
  -28.1958  -21.7824   21.0587 N   0  0  0  0  0  0
  -30.1837  -15.4430   21.3621 N   0  0  0  0  0  0
  -26.3198  -20.4775   20.9234 O   0  0  0  0  0  0
  -29.9874  -23.1972   21.0446 O   0  0  0  0  0  0
  -31.4625  -12.4107   19.1291 H   0  0  0  0  0  0
  -30.3051  -11.3227   19.8399 H   0  0  0  0  0  0
  -29.7431  -11.8058   17.4277 H   0  0  0  0  0  0
  -29.6582  -13.5118   17.7790 H   0  0  0  0  0  0
  -27.8477  -11.3104   18.8361 H   0  0  0  0  0  0
  -27.3613  -12.6222   17.7941 H   0  0  0  0  0  0
  -27.6952  -14.2634   19.5565 H   0  0  0  0  0  0
  -28.6796  -12.0070   21.3724 H   0  0  0  0  0  0
  -28.4523  -13.6568   21.8540 H   0  0  0  0  0  0
  -25.2759   -9.5749   22.4745 H   0  0  0  0  0  0
  -24.0040   -7.4670   22.7465 H   0  0  0  0  0  0
  -21.0833   -8.8779   19.8963 H   0  0  0  0  0  0
  -22.3671  -10.9687   19.6175 H   0  0  0  0  0  0
  -21.2013   -7.6165   23.9741 H   0  0  0  0  0  0
  -21.1453   -6.0530   25.9094 H   0  0  0  0  0  0
  -22.0600   -2.7618   23.2872 H   0  0  0  0  0  0
  -22.4120  -11.9866   22.4773 H   0  0  0  0  0  0
  -21.1130  -13.1237   22.2633 H   0  0  0  0  0  0
  -24.6795  -15.8556   20.5728 H   0  0  0  0  0  0
  -26.3115  -15.6395   20.1846 H   0  0  0  0  0  0
  -26.7088  -32.5562   23.1186 H   0  0  0  0  0  0
  -25.0014  -33.9830   25.0482 H   0  0  0  0  0  0
  -22.6975  -31.3147   21.4164 H   0  0  0  0  0  0
  -23.3759  -35.9658   23.3325 H   0  0  0  0  0  0
  -24.3575  -36.8914   22.2039 H   0  0  0  0  0  0
  -23.7240  -37.6534   23.6627 H   0  0  0  0  0  0
  -26.0597  -31.5843   20.6141 H   0  0  0  0  0  0
  -26.8261  -30.8771   22.0041 H   0  0  0  0  0  0
  -28.0811  -29.0214   21.2655 H   0  0  0  0  0  0
  -26.0871  -26.0848   18.8237 H   0  0  0  0  0  0
  -24.0010  -27.3691   18.9338 H   0  0  0  0  0  0
  -23.7232  -30.6079   19.4090 H   0  0  0  0  0  0
  -22.7444  -29.2500   19.8719 H   0  0  0  0  0  0
  -25.1302  -36.2022   25.0828 H   0  0  0  0  0  0
  -20.9904  -28.3272   24.1420 H   0  0  0  0  0  0
  -20.5647  -26.2280   23.3501 H   0  0  0  0  0  0
  -21.6708  -26.7427   22.1233 H   0  0  0  0  0  0
  -19.6763  -27.3289   20.6696 H   0  0  0  0  0  0
  -19.6939  -25.6357   21.1081 H   0  0  0  0  0  0
  -17.4246  -26.6676   21.3980 H   0  0  0  0  0  0
  -18.0420  -26.0072   22.8959 H   0  0  0  0  0  0
  -19.7923  -30.7244   24.2365 H   0  0  0  0  0  0
  -17.4997  -31.6200   24.5254 H   0  0  0  0  0  0
  -15.5360  -30.3016   23.7652 H   0  0  0  0  0  0
  -15.8679  -28.0881   22.6981 H   0  0  0  0  0  0
  -24.5854  -30.7114   25.7802 H   0  0  0  0  0  0
  -24.8902  -32.2893   26.4933 H   0  0  0  0  0  0
  -25.8007  -30.8873   27.0253 H   0  0  0  0  0  0
  -26.2831  -29.6821   24.1161 H   0  0  0  0  0  0
  -27.4006  -29.7262   25.4614 H   0  0  0  0  0  0
  -27.8697  -30.4361   23.9342 H   0  0  0  0  0  0
  -27.2672  -33.3618   26.2122 H   0  0  0  0  0  0
  -28.3812  -32.6920   25.0294 H   0  0  0  0  0  0
  -28.0758  -31.8437   26.5372 H   0  0  0  0  0  0
  -28.2637  -38.0096   24.7512 H   0  0  0  0  0  0
  -28.1071  -36.2630   24.6309 H   0  0  0  0  0  0
  -27.2295  -37.1506   25.8861 H   0  0  0  0  0  0
  -20.9312  -29.8768   21.6891 H   0  0  0  0  0  0
  -26.0211  -38.2904   24.1380 H   0  0  0  0  0  0
  -29.7095  -17.6498   19.5252 H   0  0  0  0  0  0
  -30.5953  -18.7405   23.6026 H   0  0  0  0  0  0
  -28.6563  -19.8545   19.1715 H   0  0  0  0  0  0
  -29.5252  -20.9298   23.2690 H   0  0  0  0  0  0
  -25.3399  -22.8494   21.7937 H   0  0  0  0  0  0
  -25.1349  -22.5721   20.0780 H   0  0  0  0  0  0
  -25.8512  -24.8941   20.8047 H   0  0  0  0  0  0
  -26.7808  -24.1732   19.4787 H   0  0  0  0  0  0
  -27.5764  -24.1793   22.3903 H   0  0  0  0  0  0
  -31.0100  -16.5154   22.9312 H   0  0  0  0  0  0
  -31.8937  -16.7135   21.4553 H   0  0  0  0  0  0
  -29.5582  -25.6799   21.4747 H   0  0  0  0  0  0
  -28.1058  -26.3030   22.1379 H   0  0  0  0  0  0
  -29.2635  -15.2622   21.7331 H   0  0  0  0  0  0
  1 25  1  0  0  0
  1 30  2  0  0  0
  1 85  1  0  0  0
  2  3  1  0  0  0
  2 25  1  0  0  0
  2 88  1  0  0  0
  2 89  1  0  0  0
  3  4  1  0  0  0
  3 90  1  0  0  0
  3 91  1  0  0  0
  4  5  1  0  0  0
  4 92  1  0  0  0
  4 93  1  0  0  0
  5  6  1  0  0  0
  5 26  1  0  0  0
  5 94  1  0  0  0
  6 25  1  0  0  0
  6 95  1  0  0  0
  6 96  1  0  0  0
  7  8  2  0  0  0
  7 26  1  0  0  0
  7 29  1  0  0  0
  8  9  1  0  0  0
  8 22  1  0  0  0
  9 10  1  0  0  0
  9 27  2  0  0  0
 10 11  2  0  0  0
 10 15  1  0  0  0
 11 12  1  0  0  0
 11 97  1  0  0  0
 12 13  2  0  0  0
 12 98  1  0  0  0
 13 14  1  0  0  0
 13 31  1  0  0  0
 14 15  2  0  0  0
 14 99  1  0  0  0
 15100  1  0  0  0
 16 17  2  0  0  0
 16 21  1  0  0  0
 16 31  1  0  0  0
 17 18  1  0  0  0
 17101  1  0  0  0
 18 19  2  0  0  0
 18102  1  0  0  0
 19 20  1  0  0  0
 19 24  1  0  0  0
 20 21  2  0  0  0
 20103  1  0  0  0
 21 23  1  0  0  0
 22 28  1  0  0  0
 22 32  2  0  0  0
 26 27  1  0  0  0
 28104  1  0  0  0
 28105  1  0  0  0
 29106  1  0  0  0
 29107  1  0  0  0
 33 34  1  0  0  0
 33 66  1  0  0  0
 33 70  2  0  0  0
 34 36  1  0  0  0
 34 59  1  0  0  0
 34108  1  0  0  0
 35 44  2  0  0  0
 35 45  1  0  0  0
 35 68  1  0  0  0
 36 56  1  0  0  0
 36109  1  0  0  0
 37 39  1  0  0  0
 37 47  1  0  0  0
 37 66  1  0  0  0
 37110  1  0  0  0
 38 43  2  0  0  0
 38 46  1  0  0  0
 38 47  1  0  0  0
 39 64  1  0  0  0
 39 67  2  0  0  0
 40 52  1  0  0  0
 40 53  2  0  0  0
 40 58  1  0  0  0
 41111  1  0  0  0
 41112  1  0  0  0
 41113  1  0  0  0
 41 48  1  0  0  0
 42 43  1  0  0  0
 42 66  1  0  0  0
 42114  1  0  0  0
 42115  1  0  0  0
 43 44  1  0  0  0
 44116  1  0  0  0
 45 46  2  0  0  0
 45117  1  0  0  0
 46118  1  0  0  0
 47119  1  0  0  0
 47120  1  0  0  0
 48 56  1  0  0  0
 48 65  1  0  0  0
 48121  1  0  0  0
 49 50  1  0  0  0
 49 53  1  0  0  0
 49 64  1  0  0  0
 49122  1  0  0  0
 50 51  1  0  0  0
 50123  1  0  0  0
 50124  1  0  0  0
 51 52  1  0  0  0
 51125  1  0  0  0
 51126  1  0  0  0
 52127  1  0  0  0
 52128  1  0  0  0
 53 54  1  0  0  0
 54 55  2  0  0  0
 54129  1  0  0  0
 55 57  1  0  0  0
 55130  1  0  0  0
 56 69  2  0  0  0
 57 58  2  0  0  0
 57131  1  0  0  0
 58132  1  0  0  0
 59 60  1  0  0  0
 59 61  1  0  0  0
 59 62  1  0  0  0
 60133  1  0  0  0
 60134  1  0  0  0
 60135  1  0  0  0
 61136  1  0  0  0
 61137  1  0  0  0
 61138  1  0  0  0
 62139  1  0  0  0
 62140  1  0  0  0
 62141  1  0  0  0
 63 65  1  0  0  0
 63142  1  0  0  0
 63143  1  0  0  0
 63144  1  0  0  0
 64145  1  0  0  0
 65146  1  0  0  0
 68 83  1  0  0  0
 71 73  2  0  0  0
 71 75  1  0  0  0
 71147  1  0  0  0
 72 74  1  0  0  0
 72 75  2  0  0  0
 72148  1  0  0  0
 73 76  1  0  0  0
 73149  1  0  0  0
 74 76  2  0  0  0
 74150  1  0  0  0
 75 82  1  0  0  0
 76 84  1  0  0  0
 77 79  1  0  0  0
 77 84  1  0  0  0
 77 86  2  0  0  0
 78 81  1  0  0  0
 78 84  1  0  0  0
 78 87  2  0  0  0
 79 80  1  0  0  0
 79151  1  0  0  0
 79152  1  0  0  0
 80 81  1  0  0  0
 80153  1  0  0  0
 80154  1  0  0  0
 81 83  1  0  0  0
 81155  1  0  0  0
 82 85  1  0  0  0
 82156  1  0  0  0
 82157  1  0  0  0
 83158  1  0  0  0
 83159  1  0  0  0
 85160  1  0  0  0
M  ISO  4   1 100  68 101  83 101  85 100
M  END
> <chiral flag>
0

> <version>
0

> <s_m_source_file>
/data/baiqing/PycharmProjects/Reinvent-master-3.2/result/LINK_invent/BTK/process_docking_weight1_custom_product_contain_oxygen_bond_distance_aromatic_linkinvent_7_9_3/rearranged_h_0101.sdf

> <i_m_source_file_index>
20

> <r_mmod_Potential_Energy-OPLS-2005>
18.5667324066162

> <r_mmod_Stretch_Energy-OPLS-2005>
53.5964431762695

> <r_mmod_Bend_Energy-OPLS-2005>
123.483154296875

> <r_mmod_Torsional_Energy-OPLS-2005>
274.327819824219

> <r_mmod_Improper_Torsional_Energy-OPLS-2005>
2.66200804710388

> <r_mmod_Van_der_Waal_Energy-OPLS-2005>
173.988174438477

> <r_mmod_Electrostatic_Energy-OPLS-2005>
-390.180389404297

> <r_mmod_Solvation_Energy-OPLS-2005>
-238.999755859375

> <b_mmod_Minimization_Converged-OPLS-2005>
0

> <r_mmod_RMS_Derivative-OPLS-2005>
3.35161900520325

$$$$
20
                    3D
 Structure written by MMmdl.
162171  0  0  1  0            999 V2000
  -30.6058  -14.6243   20.5061 C   0  0  0  0  0  0
  -30.4463  -12.3824   19.4442 C   0  0  0  0  0  0
  -29.5117  -12.5043   18.2189 C   0  0  0  0  0  0
  -28.0317  -12.3425   18.6281 C   0  0  0  0  0  0
  -27.6540  -13.2054   19.8606 C   0  0  2  0  0  0
  -28.6996  -13.0391   20.9878 C   0  0  0  0  0  0
  -25.2565  -13.8121   20.5672 C   0  0  0  0  0  0
  -24.1823  -13.0410   20.9185 C   0  0  0  0  0  0
  -24.6363  -11.6876   20.8706 C   0  0  0  0  0  0
  -23.9019  -10.4269   21.0382 C   0  0  0  0  0  0
  -24.3565   -9.4196   21.9170 C   0  0  0  0  0  0
  -23.6247   -8.2232   22.0745 C   0  0  0  0  0  0
  -22.4237   -8.0251   21.3533 C   0  0  0  0  0  0
  -21.9865   -9.0223   20.4643 C   0  0  0  0  0  0
  -22.7184  -10.2108   20.3048 C   0  0  0  0  0  0
  -21.6845   -6.0713   22.5284 C   0  0  0  0  0  0
  -21.4011   -6.5622   23.8215 C   0  0  0  0  0  0
  -21.3671   -5.6775   24.9180 C   0  0  0  0  0  0
  -21.6044   -4.3035   24.7230 C   0  0  0  0  0  0
  -21.8820   -3.8129   23.4352 C   0  0  0  0  0  0
  -21.9204   -4.6945   22.3412 C   0  0  0  0  0  0
  -22.7854  -13.5233   21.1848 C   0  0  0  0  0  0
  -22.1671   -4.2131   21.0989 F   0  0  0  0  0  0
  -21.5623   -3.4531   25.7749 F   0  0  0  0  0  0
  -30.0179  -13.3909   20.4304 N   0  0  0  0  0  0
  -26.2975  -12.9293   20.3278 N   0  0  0  0  0  0
  -25.9288  -11.6449   20.5704 N   0  0  0  0  0  0
  -22.0465  -12.8245   22.0393 N   0  0  0  0  0  0
  -25.4281  -15.1839   20.4114 N   0  0  0  0  0  0
  -31.7720  -14.8160   20.1415 O   0  0  0  0  0  0
  -21.6613   -6.8847   21.4238 O   0  0  0  0  0  0
  -22.3563  -14.5551   20.6698 O   0  0  0  0  0  0
  -24.6273  -31.8587   23.2046 C   0  0  0  0  0  0
  -25.9119  -32.4774   23.8371 C   0  0  1  0  0  0
  -27.2202  -27.3231   20.1108 C   0  0  0  0  0  0
  -25.5922  -33.8576   24.2310 N   0  0  0  0  0  0
  -23.4206  -30.4883   21.5427 C   0  0  2  0  0  0
  -24.8664  -28.9496   20.1057 C   0  0  0  0  0  0
  -22.7470  -29.4640   22.4881 C   0  0  0  0  0  0
  -18.0282  -28.1388   22.8470 C   0  0  0  0  0  0
  -24.1487  -36.7291   23.2639 C   0  0  0  0  0  0
  -25.9628  -30.7940   21.3753 C   0  0  0  0  0  0
  -26.0355  -29.4219   20.7161 C   0  0  0  0  0  0
  -27.2144  -28.6189   20.7130 C   0  0  0  0  0  0
  -26.0334  -26.9191   19.4535 C   0  0  0  0  0  0
  -24.8670  -27.7039   19.4647 C   0  0  0  0  0  0
  -23.6359  -29.8289   20.1562 C   0  0  0  0  0  0
  -25.4103  -36.3091   24.0340 C   0  0  1  0  0  0
  -20.5886  -28.3706   23.1246 C   0  0  2  0  0  0
  -20.6755  -26.9425   22.5385 C   0  0  0  0  0  0
  -19.5738  -26.6397   21.5176 C   0  0  0  0  0  0
  -18.1922  -26.7930   22.1600 C   0  0  0  0  0  0
  -19.1540  -28.8858   23.2856 C   0  0  0  0  0  0
  -18.9464  -30.1449   23.8892 C   0  0  0  0  0  0
  -17.6464  -30.6588   24.0560 C   0  0  0  0  0  0
  -25.9036  -34.9449   23.5126 C   0  0  0  0  0  0
  -16.5350  -29.9096   23.6325 C   0  0  0  0  0  0
  -16.7267  -28.6512   23.0348 C   0  0  0  0  0  0
  -26.4507  -31.6569   25.0737 C   0  0  0  0  0  0
  -25.3749  -31.3697   26.1474 C   0  0  0  0  0  0
  -27.0335  -30.2985   24.6185 C   0  0  0  0  0  0
  -27.6082  -32.4304   25.7492 C   0  0  0  0  0  0
  -27.5581  -37.1805   24.8468 C   0  0  0  0  0  0
  -21.4180  -29.3061   22.3637 N   0  0  0  0  0  0
  -26.4286  -37.3790   23.9417 N   0  0  0  0  0  0
  -24.6889  -31.0624   22.0982 N   0  0  0  0  0  0
  -23.4182  -28.8160   23.2958 O   0  0  0  0  0  0
  -28.3256  -26.4576   20.1911 O   0  0  0  0  0  0
  -26.5617  -34.8913   22.4697 O   0  0  0  0  0  0
  -23.5432  -32.1360   23.7379 O   0  0  0  0  0  0
  -30.8700  -17.9035   21.0916 C   0  0  0  0  0  0
  -28.6312  -17.7729   20.2477 C   0  0  0  0  0  0
  -30.7949  -19.3363   21.1039 C   0  0  0  0  0  0
  -29.5945  -20.0289   20.6972 C   0  0  0  0  0  0
  -29.7913  -17.0872   20.6829 C   0  0  0  0  0  0
  -28.5286  -19.1926   20.2480 C   0  0  0  0  0  0
  -32.0200  -20.0491   21.6174 C   0  0  0  0  0  0
  -28.7294  -23.4827   21.9426 C   0  0  0  0  0  0
  -29.3495  -22.0817   22.1444 C   0  0  0  0  0  0
  -28.9941  -22.4599   19.8140 C   0  0  0  0  0  0
  -29.0546  -23.8852   20.4922 C   0  0  1  0  0  0
  -28.1156  -25.0203   19.8896 C   0  0  0  0  0  0
  -29.4166  -21.4606   20.8248 N   0  0  0  0  0  0
  -27.3099  -19.7560   19.8658 N   0  0  0  0  0  0
  -32.4278  -21.1218   20.9551 N   0  0  0  0  0  0
  -29.7442  -15.6358   20.8233 N   0  0  0  0  0  0
  -32.6637  -19.6089   22.5712 O   0  0  0  0  0  0
  -31.4872  -12.5139   19.1423 H   0  0  0  0  0  0
  -30.3826  -11.3822   19.8746 H   0  0  0  0  0  0
  -29.7765  -11.7557   17.4707 H   0  0  0  0  0  0
  -29.6566  -13.4738   17.7411 H   0  0  0  0  0  0
  -27.8611  -11.2889   18.8508 H   0  0  0  0  0  0
  -27.3820  -12.5786   17.7849 H   0  0  0  0  0  0
  -27.6795  -14.2416   19.5243 H   0  0  0  0  0  0
  -28.7099  -12.0099   21.3500 H   0  0  0  0  0  0
  -28.4420  -13.6511   21.8535 H   0  0  0  0  0  0
  -25.2700   -9.5688   22.4742 H   0  0  0  0  0  0
  -23.9955   -7.4629   22.7460 H   0  0  0  0  0  0
  -21.0799   -8.8731   19.8948 H   0  0  0  0  0  0
  -22.3616  -10.9633   19.6150 H   0  0  0  0  0  0
  -21.1988   -7.6126   23.9704 H   0  0  0  0  0  0
  -21.1499   -6.0513   25.9082 H   0  0  0  0  0  0
  -22.0593   -2.7593   23.2861 H   0  0  0  0  0  0
  -22.4040  -11.9892   22.4797 H   0  0  0  0  0  0
  -21.1090  -13.1314   22.2578 H   0  0  0  0  0  0
  -24.6550  -15.8327   20.5153 H   0  0  0  0  0  0
  -26.2616  -15.6168   20.0401 H   0  0  0  0  0  0
  -26.7201  -32.5476   23.1130 H   0  0  0  0  0  0
  -25.0090  -33.9705   25.0472 H   0  0  0  0  0  0
  -22.7166  -31.3112   21.4036 H   0  0  0  0  0  0
  -23.3756  -35.9623   23.3295 H   0  0  0  0  0  0
  -24.3586  -36.8905   22.2059 H   0  0  0  0  0  0
  -23.7220  -37.6483   23.6648 H   0  0  0  0  0  0
  -26.0973  -31.5609   20.6096 H   0  0  0  0  0  0
  -26.8414  -30.8394   22.0077 H   0  0  0  0  0  0
  -28.1080  -28.9746   21.2065 H   0  0  0  0  0  0
  -25.9725  -25.9795   18.9252 H   0  0  0  0  0  0
  -23.9766  -27.3447   18.9666 H   0  0  0  0  0  0
  -23.7561  -30.6075   19.4012 H   0  0  0  0  0  0
  -22.7568  -29.2574   19.8532 H   0  0  0  0  0  0
  -25.1281  -36.1953   25.0836 H   0  0  0  0  0  0
  -20.9985  -28.3284   24.1361 H   0  0  0  0  0  0
  -20.5599  -26.2332   23.3591 H   0  0  0  0  0  0
  -21.6637  -26.7413   22.1227 H   0  0  0  0  0  0
  -19.6892  -25.6303   21.1234 H   0  0  0  0  0  0
  -19.6671  -27.3187   20.6686 H   0  0  0  0  0  0
  -17.4179  -26.6656   21.4014 H   0  0  0  0  0  0
  -18.0340  -26.0067   22.9005 H   0  0  0  0  0  0
  -19.7941  -30.7256   24.2268 H   0  0  0  0  0  0
  -17.5030  -31.6261   24.5176 H   0  0  0  0  0  0
  -15.5356  -30.3009   23.7644 H   0  0  0  0  0  0
  -15.8657  -28.0831   22.7073 H   0  0  0  0  0  0
  -24.5947  -30.7015   25.7816 H   0  0  0  0  0  0
  -24.8913  -32.2850   26.4895 H   0  0  0  0  0  0
  -25.8089  -30.8898   27.0254 H   0  0  0  0  0  0
  -26.2892  -29.6744   24.1232 H   0  0  0  0  0  0
  -27.4034  -29.7242   25.4688 H   0  0  0  0  0  0
  -27.8773  -30.4247   23.9401 H   0  0  0  0  0  0
  -27.2709  -33.3622   26.2044 H   0  0  0  0  0  0
  -28.3893  -32.6825   25.0307 H   0  0  0  0  0  0
  -28.0749  -31.8445   26.5418 H   0  0  0  0  0  0
  -28.2612  -38.0095   24.7527 H   0  0  0  0  0  0
  -28.1068  -36.2633   24.6279 H   0  0  0  0  0  0
  -27.2312  -37.1447   25.8875 H   0  0  0  0  0  0
  -20.9339  -29.8834   21.6906 H   0  0  0  0  0  0
  -26.0172  -38.2873   24.1405 H   0  0  0  0  0  0
  -31.7698  -17.4255   21.4522 H   0  0  0  0  0  0
  -27.7778  -17.1883   19.9381 H   0  0  0  0  0  0
  -29.0864  -24.2068   22.6762 H   0  0  0  0  0  0
  -27.6471  -23.4065   22.0664 H   0  0  0  0  0  0
  -28.7613  -21.4831   22.8412 H   0  0  0  0  0  0
  -30.3535  -22.1742   22.5608 H   0  0  0  0  0  0
  -29.6365  -22.4146   18.9331 H   0  0  0  0  0  0
  -27.9776  -22.2541   19.4819 H   0  0  0  0  0  0
  -30.0890  -24.2287   20.4522 H   0  0  0  0  0  0
  -27.1139  -24.7264   20.2010 H   0  0  0  0  0  0
  -28.1360  -24.9298   18.8030 H   0  0  0  0  0  0
  -26.4906  -19.1592   19.8927 H   0  0  0  0  0  0
  -27.1390  -20.6717   20.2662 H   0  0  0  0  0  0
  -31.8504  -21.4812   20.2074 H   0  0  0  0  0  0
  -33.2558  -21.6188   21.2462 H   0  0  0  0  0  0
  -28.8248  -15.2751   21.0229 H   0  0  0  0  0  0
  1 25  1  0  0  0
  1 30  2  0  0  0
  1 86  1  0  0  0
  2  3  1  0  0  0
  2 25  1  0  0  0
  2 88  1  0  0  0
  2 89  1  0  0  0
  3  4  1  0  0  0
  3 90  1  0  0  0
  3 91  1  0  0  0
  4  5  1  0  0  0
  4 92  1  0  0  0
  4 93  1  0  0  0
  5  6  1  0  0  0
  5 26  1  0  0  0
  5 94  1  0  0  0
  6 25  1  0  0  0
  6 95  1  0  0  0
  6 96  1  0  0  0
  7  8  2  0  0  0
  7 26  1  0  0  0
  7 29  1  0  0  0
  8  9  1  0  0  0
  8 22  1  0  0  0
  9 10  1  0  0  0
  9 27  2  0  0  0
 10 11  2  0  0  0
 10 15  1  0  0  0
 11 12  1  0  0  0
 11 97  1  0  0  0
 12 13  2  0  0  0
 12 98  1  0  0  0
 13 14  1  0  0  0
 13 31  1  0  0  0
 14 15  2  0  0  0
 14 99  1  0  0  0
 15100  1  0  0  0
 16 17  2  0  0  0
 16 21  1  0  0  0
 16 31  1  0  0  0
 17 18  1  0  0  0
 17101  1  0  0  0
 18 19  2  0  0  0
 18102  1  0  0  0
 19 20  1  0  0  0
 19 24  1  0  0  0
 20 21  2  0  0  0
 20103  1  0  0  0
 21 23  1  0  0  0
 22 28  1  0  0  0
 22 32  2  0  0  0
 26 27  1  0  0  0
 28104  1  0  0  0
 28105  1  0  0  0
 29106  1  0  0  0
 29107  1  0  0  0
 33 34  1  0  0  0
 33 66  1  0  0  0
 33 70  2  0  0  0
 34 36  1  0  0  0
 34 59  1  0  0  0
 34108  1  0  0  0
 35 44  2  0  0  0
 35 45  1  0  0  0
 35 68  1  0  0  0
 36 56  1  0  0  0
 36109  1  0  0  0
 37 39  1  0  0  0
 37 47  1  0  0  0
 37 66  1  0  0  0
 37110  1  0  0  0
 38 43  2  0  0  0
 38 46  1  0  0  0
 38 47  1  0  0  0
 39 64  1  0  0  0
 39 67  2  0  0  0
 40 52  1  0  0  0
 40 53  2  0  0  0
 40 58  1  0  0  0
 41111  1  0  0  0
 41112  1  0  0  0
 41113  1  0  0  0
 41 48  1  0  0  0
 42 43  1  0  0  0
 42 66  1  0  0  0
 42114  1  0  0  0
 42115  1  0  0  0
 43 44  1  0  0  0
 44116  1  0  0  0
 45 46  2  0  0  0
 45117  1  0  0  0
 46118  1  0  0  0
 47119  1  0  0  0
 47120  1  0  0  0
 48 56  1  0  0  0
 48 65  1  0  0  0
 48121  1  0  0  0
 49 50  1  0  0  0
 49 53  1  0  0  0
 49 64  1  0  0  0
 49122  1  0  0  0
 50 51  1  0  0  0
 50123  1  0  0  0
 50124  1  0  0  0
 51 52  1  0  0  0
 51125  1  0  0  0
 51126  1  0  0  0
 52127  1  0  0  0
 52128  1  0  0  0
 53 54  1  0  0  0
 54 55  2  0  0  0
 54129  1  0  0  0
 55 57  1  0  0  0
 55130  1  0  0  0
 56 69  2  0  0  0
 57 58  2  0  0  0
 57131  1  0  0  0
 58132  1  0  0  0
 59 60  1  0  0  0
 59 61  1  0  0  0
 59 62  1  0  0  0
 60133  1  0  0  0
 60134  1  0  0  0
 60135  1  0  0  0
 61136  1  0  0  0
 61137  1  0  0  0
 61138  1  0  0  0
 62139  1  0  0  0
 62140  1  0  0  0
 62141  1  0  0  0
 63 65  1  0  0  0
 63142  1  0  0  0
 63143  1  0  0  0
 63144  1  0  0  0
 64145  1  0  0  0
 65146  1  0  0  0
 68 82  1  0  0  0
 71 73  2  0  0  0
 71 75  1  0  0  0
 71147  1  0  0  0
 72 75  2  0  0  0
 72 76  1  0  0  0
 72148  1  0  0  0
 73 74  1  0  0  0
 73 77  1  0  0  0
 74 76  2  0  0  0
 74 83  1  0  0  0
 75 86  1  0  0  0
 76 84  1  0  0  0
 77 85  1  0  0  0
 77 87  2  0  0  0
 78 79  1  0  0  0
 78 81  1  0  0  0
 78149  1  0  0  0
 78150  1  0  0  0
 79 83  1  0  0  0
 79151  1  0  0  0
 79152  1  0  0  0
 80 81  1  0  0  0
 80 83  1  0  0  0
 80153  1  0  0  0
 80154  1  0  0  0
 81 82  1  0  0  0
 81155  1  0  0  0
 82156  1  0  0  0
 82157  1  0  0  0
 84158  1  0  0  0
 84159  1  0  0  0
 85160  1  0  0  0
 85161  1  0  0  0
 86162  1  0  0  0
M  ISO  4   1 100  68 101  82 101  86 100
M  END
> <chiral flag>
0

> <version>
0

> <s_m_source_file>
/data/baiqing/PycharmProjects/Reinvent-master-3.2/result/LINK_invent/BTK/process_docking_weight1_custom_product_contain_oxygen_bond_distance_aromatic_linkinvent_7_9_3/rearranged_h_0101.sdf

> <i_m_source_file_index>
21

> <r_mmod_Potential_Energy-OPLS-2005>
52.8541717529297

> <r_mmod_Stretch_Energy-OPLS-2005>
77.8710021972656

> <r_mmod_Bend_Energy-OPLS-2005>
187.806610107422

> <r_mmod_Torsional_Energy-OPLS-2005>
321.045349121094

> <r_mmod_Improper_Torsional_Energy-OPLS-2005>
11.435359954834

> <r_mmod_Van_der_Waal_Energy-OPLS-2005>
149.434188842773

> <r_mmod_Electrostatic_Energy-OPLS-2005>
-492.231658935547

> <r_mmod_Solvation_Energy-OPLS-2005>
-251.233291625977

> <b_mmod_Minimization_Converged-OPLS-2005>
0

> <r_mmod_RMS_Derivative-OPLS-2005>
3.1328272819519

$$$$
21
                    3D
 Structure written by MMmdl.
163172  0  0  1  0            999 V2000
  -30.6374  -14.6000   20.6162 C   0  0  0  0  0  0
  -30.4494  -12.4032   19.4293 C   0  0  0  0  0  0
  -29.5041  -12.5289   18.2152 C   0  0  0  0  0  0
  -28.0288  -12.3558   18.6320 C   0  0  0  0  0  0
  -27.6615  -13.2061   19.8780 C   0  0  2  0  0  0
  -28.7082  -13.0003   20.9937 C   0  0  0  0  0  0
  -25.2605  -13.8160   20.5705 C   0  0  0  0  0  0
  -24.1849  -13.0438   20.9186 C   0  0  0  0  0  0
  -24.6397  -11.6898   20.8736 C   0  0  0  0  0  0
  -23.9054  -10.4286   21.0401 C   0  0  0  0  0  0
  -24.3598   -9.4208   21.9183 C   0  0  0  0  0  0
  -23.6281   -8.2241   22.0750 C   0  0  0  0  0  0
  -22.4267   -8.0276   21.3531 C   0  0  0  0  0  0
  -21.9901   -9.0249   20.4639 C   0  0  0  0  0  0
  -22.7227  -10.2131   20.3054 C   0  0  0  0  0  0
  -21.6850   -6.0732   22.5280 C   0  0  0  0  0  0
  -21.4003   -6.5635   23.8217 C   0  0  0  0  0  0
  -21.3651   -5.6783   24.9182 C   0  0  0  0  0  0
  -21.6055   -4.3046   24.7236 C   0  0  0  0  0  0
  -21.8817   -3.8143   23.4354 C   0  0  0  0  0  0
  -21.9191   -4.6957   22.3403 C   0  0  0  0  0  0
  -22.7878  -13.5237   21.1859 C   0  0  0  0  0  0
  -22.1664   -4.2142   21.0982 F   0  0  0  0  0  0
  -21.5628   -3.4533   25.7753 F   0  0  0  0  0  0
  -30.0185  -13.3861   20.4446 N   0  0  0  0  0  0
  -26.3038  -12.9323   20.3396 N   0  0  0  0  0  0
  -25.9328  -11.6475   20.5779 N   0  0  0  0  0  0
  -22.0510  -12.8228   22.0422 N   0  0  0  0  0  0
  -25.4305  -15.1892   20.4121 N   0  0  0  0  0  0
  -31.7403  -14.8133   20.0996 O   0  0  0  0  0  0
  -21.6621   -6.8878   21.4246 O   0  0  0  0  0  0
  -22.3560  -14.5547   20.6717 O   0  0  0  0  0  0
  -24.6240  -31.8618   23.1998 C   0  0  0  0  0  0
  -25.9085  -32.4793   23.8333 C   0  0  1  0  0  0
  -27.2300  -27.3310   20.1157 C   0  0  0  0  0  0
  -25.5893  -33.8581   24.2270 N   0  0  0  0  0  0
  -23.4165  -30.4841   21.5436 C   0  0  2  0  0  0
  -24.8653  -28.9334   20.1151 C   0  0  0  0  0  0
  -22.7472  -29.4648   22.4935 C   0  0  0  0  0  0
  -18.0295  -28.1363   22.8473 C   0  0  0  0  0  0
  -24.1469  -36.7269   23.2643 C   0  0  0  0  0  0
  -25.9575  -30.7924   21.3724 C   0  0  0  0  0  0
  -26.0335  -29.4200   20.7163 C   0  0  0  0  0  0
  -27.2193  -28.6307   20.7045 C   0  0  0  0  0  0
  -26.0436  -26.8920   19.4871 C   0  0  0  0  0  0
  -24.8730  -27.6746   19.4916 C   0  0  0  0  0  0
  -23.6316  -29.8118   20.1611 C   0  0  0  0  0  0
  -25.4101  -36.3084   24.0338 C   0  0  1  0  0  0
  -20.5889  -28.3669   23.1269 C   0  0  2  0  0  0
  -20.6779  -26.9383   22.5401 C   0  0  0  0  0  0
  -19.5755  -26.6353   21.5193 C   0  0  0  0  0  0
  -18.1933  -26.7910   22.1588 C   0  0  0  0  0  0
  -19.1546  -28.8825   23.2863 C   0  0  0  0  0  0
  -18.9485  -30.1427   23.8873 C   0  0  0  0  0  0
  -17.6496  -30.6572   24.0551 C   0  0  0  0  0  0
  -25.9044  -34.9461   23.5112 C   0  0  0  0  0  0
  -16.5386  -29.9070   23.6340 C   0  0  0  0  0  0
  -16.7285  -28.6487   23.0359 C   0  0  0  0  0  0
  -26.4452  -31.6613   25.0714 C   0  0  0  0  0  0
  -25.3659  -31.3744   26.1429 C   0  0  0  0  0  0
  -27.0345  -30.3068   24.6167 C   0  0  0  0  0  0
  -27.6003  -32.4378   25.7468 C   0  0  0  0  0  0
  -27.5580  -37.1780   24.8475 C   0  0  0  0  0  0
  -21.4187  -29.3035   22.3674 N   0  0  0  0  0  0
  -26.4279  -37.3791   23.9435 N   0  0  0  0  0  0
  -24.6847  -31.0643   22.0936 N   0  0  0  0  0  0
  -23.4212  -28.8192   23.3004 O   0  0  0  0  0  0
  -28.3639  -26.5123   20.1132 O   0  0  0  0  0  0
  -26.5627  -34.8937   22.4692 O   0  0  0  0  0  0
  -23.5411  -32.1408   23.7352 O   0  0  0  0  0  0
  -30.7280  -18.2326   21.8147 C   0  0  0  0  0  0
  -30.6861  -19.6281   21.5390 C   0  0  0  0  0  0
  -29.2940  -19.2001   19.6274 C   0  0  0  0  0  0
  -30.0541  -17.2641   21.0156 C   0  0  0  0  0  0
  -29.9729  -20.1582   20.4325 C   0  0  0  0  0  0
  -29.3290  -17.7957   19.9064 C   0  0  0  0  0  0
  -31.2806  -21.9919   19.5666 C   0  0  0  0  0  0
  -29.0524  -22.5046   20.2720 C   0  0  0  0  0  0
  -31.5865  -23.4713   19.2777 C   0  0  0  0  0  0
  -30.6565  -24.4494   20.0001 C   0  0  0  0  0  0
  -29.1941  -24.0286   19.8367 C   0  0  2  0  0  0
  -30.3444  -15.5342   22.9475 C   0  0  0  0  0  0
  -28.2154  -25.0916   20.5073 C   0  0  0  0  0  0
  -29.9485  -15.7467   21.4683 C   0  0  2  0  0  0
  -30.0772  -21.5894   20.0786 N   0  0  0  0  0  0
  -28.6064  -16.9420   19.0725 N   0  0  0  0  0  0
  -32.1860  -21.1923   19.2913 O   0  0  0  0  0  0
  -27.9807  -22.1555   20.7793 O   0  0  0  0  0  0
  -31.4831  -12.5585   19.1150 H   0  0  0  0  0  0
  -30.4172  -11.3939   19.8406 H   0  0  0  0  0  0
  -29.7682  -11.7925   17.4556 H   0  0  0  0  0  0
  -29.6403  -13.5087   17.7520 H   0  0  0  0  0  0
  -27.8680  -11.2987   18.8491 H   0  0  0  0  0  0
  -27.3693  -12.5989   17.7975 H   0  0  0  0  0  0
  -27.6975  -14.2511   19.5734 H   0  0  0  0  0  0
  -28.7264  -11.9520   21.2965 H   0  0  0  0  0  0
  -28.4423  -13.5454   21.8980 H   0  0  0  0  0  0
  -25.2743   -9.5691   22.4753 H   0  0  0  0  0  0
  -23.9994   -7.4635   22.7465 H   0  0  0  0  0  0
  -21.0836   -8.8780   19.8931 H   0  0  0  0  0  0
  -22.3702  -10.9675   19.6155 H   0  0  0  0  0  0
  -21.1978   -7.6134   23.9728 H   0  0  0  0  0  0
  -21.1475   -6.0504   25.9083 H   0  0  0  0  0  0
  -22.0595   -2.7606   23.2866 H   0  0  0  0  0  0
  -22.4120  -11.9912   22.4854 H   0  0  0  0  0  0
  -21.1124  -13.1260   22.2609 H   0  0  0  0  0  0
  -24.6588  -15.8391   20.5131 H   0  0  0  0  0  0
  -26.2882  -15.6389   20.1098 H   0  0  0  0  0  0
  -26.7153  -32.5504   23.1077 H   0  0  0  0  0  0
  -25.0026  -33.9703   25.0410 H   0  0  0  0  0  0
  -22.7092  -31.3041   21.3986 H   0  0  0  0  0  0
  -23.3764  -35.9566   23.3297 H   0  0  0  0  0  0
  -24.3562  -36.8916   22.2060 H   0  0  0  0  0  0
  -23.7186  -37.6445   23.6690 H   0  0  0  0  0  0
  -26.0959  -31.5560   20.6052 H   0  0  0  0  0  0
  -26.8345  -30.8402   22.0060 H   0  0  0  0  0  0
  -28.1212  -29.0027   21.1699 H   0  0  0  0  0  0
  -26.0137  -25.9377   18.9802 H   0  0  0  0  0  0
  -23.9820  -27.3004   19.0056 H   0  0  0  0  0  0
  -23.7457  -30.5854   19.4011 H   0  0  0  0  0  0
  -22.7525  -29.2385   19.8610 H   0  0  0  0  0  0
  -25.1280  -36.1914   25.0830 H   0  0  0  0  0  0
  -20.9972  -28.3238   24.1392 H   0  0  0  0  0  0
  -20.5661  -26.2266   23.3596 H   0  0  0  0  0  0
  -21.6653  -26.7396   22.1223 H   0  0  0  0  0  0
  -19.6909  -25.6253   21.1255 H   0  0  0  0  0  0
  -19.6703  -27.3130   20.6695 H   0  0  0  0  0  0
  -17.4203  -26.6664   21.3987 H   0  0  0  0  0  0
  -18.0318  -26.0032   22.8958 H   0  0  0  0  0  0
  -19.7964  -30.7239   24.2226 H   0  0  0  0  0  0
  -17.5061  -31.6256   24.5138 H   0  0  0  0  0  0
  -15.5391  -30.2976   23.7669 H   0  0  0  0  0  0
  -15.8682  -28.0814   22.7071 H   0  0  0  0  0  0
  -24.5834  -30.7096   25.7738 H   0  0  0  0  0  0
  -24.8814  -32.2899   26.4849 H   0  0  0  0  0  0
  -25.7940  -30.8918   27.0224 H   0  0  0  0  0  0
  -26.2933  -29.6787   24.1209 H   0  0  0  0  0  0
  -27.4110  -29.7358   25.4667 H   0  0  0  0  0  0
  -27.8759  -30.4424   23.9360 H   0  0  0  0  0  0
  -27.2606  -33.3707   26.1989 H   0  0  0  0  0  0
  -28.3798  -32.6924   25.0266 H   0  0  0  0  0  0
  -28.0677  -31.8549   26.5411 H   0  0  0  0  0  0
  -28.2588  -38.0092   24.7607 H   0  0  0  0  0  0
  -28.1106  -36.2646   24.6227 H   0  0  0  0  0  0
  -27.2322  -37.1348   25.8882 H   0  0  0  0  0  0
  -20.9360  -29.8755   21.6889 H   0  0  0  0  0  0
  -26.0165  -38.2865   24.1481 H   0  0  0  0  0  0
  -31.2820  -17.9268   22.6894 H   0  0  0  0  0  0
  -31.2356  -20.2991   22.1860 H   0  0  0  0  0  0
  -28.7486  -19.5492   18.7621 H   0  0  0  0  0  0
  -31.5270  -23.6223   18.1994 H   0  0  0  0  0  0
  -32.6195  -23.6781   19.5600 H   0  0  0  0  0  0
  -30.8045  -25.4512   19.5916 H   0  0  0  0  0  0
  -30.9169  -24.5040   21.0584 H   0  0  0  0  0  0
  -28.9613  -24.0413   18.7705 H   0  0  0  0  0  0
  -29.7542  -16.1638   23.6132 H   0  0  0  0  0  0
  -31.4003  -15.7479   23.1196 H   0  0  0  0  0  0
  -30.1799  -14.5020   23.2594 H   0  0  0  0  0  0
  -28.3601  -25.0569   21.5884 H   0  0  0  0  0  0
  -27.1944  -24.7433   20.3600 H   0  0  0  0  0  0
  -28.8758  -15.5783   21.4175 H   0  0  0  0  0  0
  -28.2817  -17.3215   18.1896 H   0  0  0  0  0  0
  -28.9293  -15.9881   18.9735 H   0  0  0  0  0  0
  1 25  1  0  0  0
  1 30  2  0  0  0
  1 84  1  0  0  0
  2  3  1  0  0  0
  2 25  1  0  0  0
  2 89  1  0  0  0
  2 90  1  0  0  0
  3  4  1  0  0  0
  3 91  1  0  0  0
  3 92  1  0  0  0
  4  5  1  0  0  0
  4 93  1  0  0  0
  4 94  1  0  0  0
  5  6  1  0  0  0
  5 26  1  0  0  0
  5 95  1  0  0  0
  6 25  1  0  0  0
  6 96  1  0  0  0
  6 97  1  0  0  0
  7  8  2  0  0  0
  7 26  1  0  0  0
  7 29  1  0  0  0
  8  9  1  0  0  0
  8 22  1  0  0  0
  9 10  1  0  0  0
  9 27  2  0  0  0
 10 11  2  0  0  0
 10 15  1  0  0  0
 11 12  1  0  0  0
 11 98  1  0  0  0
 12 13  2  0  0  0
 12 99  1  0  0  0
 13 14  1  0  0  0
 13 31  1  0  0  0
 14 15  2  0  0  0
 14100  1  0  0  0
 15101  1  0  0  0
 16 17  2  0  0  0
 16 21  1  0  0  0
 16 31  1  0  0  0
 17 18  1  0  0  0
 17102  1  0  0  0
 18 19  2  0  0  0
 18103  1  0  0  0
 19 20  1  0  0  0
 19 24  1  0  0  0
 20 21  2  0  0  0
 20104  1  0  0  0
 21 23  1  0  0  0
 22 28  1  0  0  0
 22 32  2  0  0  0
 26 27  1  0  0  0
 28105  1  0  0  0
 28106  1  0  0  0
 29107  1  0  0  0
 29108  1  0  0  0
 33 34  1  0  0  0
 33 66  1  0  0  0
 33 70  2  0  0  0
 34 36  1  0  0  0
 34 59  1  0  0  0
 34109  1  0  0  0
 35 44  2  0  0  0
 35 45  1  0  0  0
 35 68  1  0  0  0
 36 56  1  0  0  0
 36110  1  0  0  0
 37 39  1  0  0  0
 37 47  1  0  0  0
 37 66  1  0  0  0
 37111  1  0  0  0
 38 43  2  0  0  0
 38 46  1  0  0  0
 38 47  1  0  0  0
 39 64  1  0  0  0
 39 67  2  0  0  0
 40 52  1  0  0  0
 40 53  2  0  0  0
 40 58  1  0  0  0
 41112  1  0  0  0
 41113  1  0  0  0
 41114  1  0  0  0
 41 48  1  0  0  0
 42 43  1  0  0  0
 42 66  1  0  0  0
 42115  1  0  0  0
 42116  1  0  0  0
 43 44  1  0  0  0
 44117  1  0  0  0
 45 46  2  0  0  0
 45118  1  0  0  0
 46119  1  0  0  0
 47120  1  0  0  0
 47121  1  0  0  0
 48 56  1  0  0  0
 48 65  1  0  0  0
 48122  1  0  0  0
 49 50  1  0  0  0
 49 53  1  0  0  0
 49 64  1  0  0  0
 49123  1  0  0  0
 50 51  1  0  0  0
 50124  1  0  0  0
 50125  1  0  0  0
 51 52  1  0  0  0
 51126  1  0  0  0
 51127  1  0  0  0
 52128  1  0  0  0
 52129  1  0  0  0
 53 54  1  0  0  0
 54 55  2  0  0  0
 54130  1  0  0  0
 55 57  1  0  0  0
 55131  1  0  0  0
 56 69  2  0  0  0
 57 58  2  0  0  0
 57132  1  0  0  0
 58133  1  0  0  0
 59 60  1  0  0  0
 59 61  1  0  0  0
 59 62  1  0  0  0
 60134  1  0  0  0
 60135  1  0  0  0
 60136  1  0  0  0
 61137  1  0  0  0
 61138  1  0  0  0
 61139  1  0  0  0
 62140  1  0  0  0
 62141  1  0  0  0
 62142  1  0  0  0
 63 65  1  0  0  0
 63143  1  0  0  0
 63144  1  0  0  0
 63145  1  0  0  0
 64146  1  0  0  0
 65147  1  0  0  0
 68 83  1  0  0  0
 71 72  2  0  0  0
 71 74  1  0  0  0
 71148  1  0  0  0
 72 75  1  0  0  0
 72149  1  0  0  0
 73 75  2  0  0  0
 73 76  1  0  0  0
 73150  1  0  0  0
 74 76  2  0  0  0
 74 84  1  0  0  0
 75 85  1  0  0  0
 76 86  1  0  0  0
 77 79  1  0  0  0
 77 85  1  0  0  0
 77 87  2  0  0  0
 78 81  1  0  0  0
 78 85  1  0  0  0
 78 88  2  0  0  0
 79 80  1  0  0  0
 79151  1  0  0  0
 79152  1  0  0  0
 80 81  1  0  0  0
 80153  1  0  0  0
 80154  1  0  0  0
 81 83  1  0  0  0
 81155  1  0  0  0
 82156  1  0  0  0
 82157  1  0  0  0
 82158  1  0  0  0
 82 84  1  0  0  0
 83159  1  0  0  0
 83160  1  0  0  0
 84161  1  0  0  0
 86162  1  0  0  0
 86163  1  0  0  0
M  ISO  4   1 100  68 101  83 101  84 100
M  END
> <chiral flag>
0

> <version>
0

> <s_m_source_file>
/data/baiqing/PycharmProjects/Reinvent-master-3.2/result/LINK_invent/BTK/process_docking_weight1_custom_product_contain_oxygen_bond_distance_aromatic_linkinvent_7_9_3/rearranged_h_0101.sdf

> <i_m_source_file_index>
22

> <r_mmod_Potential_Energy-OPLS-2005>
136.525650024414

> <r_mmod_Stretch_Energy-OPLS-2005>
92.5652313232422

> <r_mmod_Bend_Energy-OPLS-2005>
140.389770507812

> <r_mmod_Torsional_Energy-OPLS-2005>
247.019760131836

> <r_mmod_Improper_Torsional_Energy-OPLS-2005>
6.9397029876709

> <r_mmod_Van_der_Waal_Energy-OPLS-2005>
159.087310791016

> <r_mmod_Electrostatic_Energy-OPLS-2005>
-317.721771240234

> <r_mmod_Solvation_Energy-OPLS-2005>
-228.697967529297

> <b_mmod_Minimization_Converged-OPLS-2005>
0

> <r_mmod_RMS_Derivative-OPLS-2005>
2.70384216308594

$$$$
22
                    3D
 Structure written by MMmdl.
146154  0  0  1  0            999 V2000
  -30.4382  -15.1872   20.4108 C   0  0  0  0  0  0
  -30.4601  -12.7172   19.5204 C   0  0  0  0  0  0
  -29.5394  -12.5720   18.2807 C   0  0  0  0  0  0
  -28.0786  -12.3150   18.6991 C   0  0  0  0  0  0
  -27.6262  -13.2622   19.8400 C   0  0  2  0  0  0
  -28.6591  -13.3448   20.9819 C   0  0  0  0  0  0
  -25.2454  -13.8239   20.5760 C   0  0  0  0  0  0
  -24.1761  -13.0437   20.9173 C   0  0  0  0  0  0
  -24.6406  -11.6928   20.8713 C   0  0  0  0  0  0
  -23.9100  -10.4289   21.0387 C   0  0  0  0  0  0
  -24.3645   -9.4206   21.9174 C   0  0  0  0  0  0
  -23.6304   -8.2251   22.0757 C   0  0  0  0  0  0
  -22.4282   -8.0292   21.3552 C   0  0  0  0  0  0
  -21.9924   -9.0265   20.4650 C   0  0  0  0  0  0
  -22.7267  -10.2132   20.3047 C   0  0  0  0  0  0
  -21.6857   -6.0742   22.5281 C   0  0  0  0  0  0
  -21.4019   -6.5643   23.8215 C   0  0  0  0  0  0
  -21.3655   -5.6796   24.9175 C   0  0  0  0  0  0
  -21.6044   -4.3060   24.7227 C   0  0  0  0  0  0
  -21.8819   -3.8151   23.4348 C   0  0  0  0  0  0
  -21.9191   -4.6967   22.3402 C   0  0  0  0  0  0
  -22.7782  -13.5196   21.1853 C   0  0  0  0  0  0
  -22.1661   -4.2152   21.0980 F   0  0  0  0  0  0
  -21.5623   -3.4543   25.7739 F   0  0  0  0  0  0
  -29.9197  -13.8112   20.3922 N   0  0  0  0  0  0
  -26.2884  -12.9492   20.3270 N   0  0  0  0  0  0
  -25.9349  -11.6602   20.5714 N   0  0  0  0  0  0
  -22.0455  -12.8174   22.0422 N   0  0  0  0  0  0
  -25.4178  -15.1980   20.4400 N   0  0  0  0  0  0
  -31.6242  -15.2537   20.0397 O   0  0  0  0  0  0
  -21.6646   -6.8889   21.4246 O   0  0  0  0  0  0
  -22.3451  -14.5506   20.6719 O   0  0  0  0  0  0
  -24.6557  -31.8291   23.1758 C   0  0  0  0  0  0
  -25.9267  -32.4618   23.8195 C   0  0  1  0  0  0
  -27.2250  -26.9959   20.1697 C   0  0  0  0  0  0
  -25.5957  -33.8433   24.2104 N   0  0  0  0  0  0
  -23.4681  -30.4425   21.5226 C   0  0  2  0  0  0
  -24.9222  -28.8416   20.1082 C   0  0  0  0  0  0
  -22.7635  -29.4466   22.4795 C   0  0  0  0  0  0
  -18.0316  -28.1404   22.8464 C   0  0  0  0  0  0
  -24.1493  -36.7230   23.2644 C   0  0  0  0  0  0
  -26.0321  -30.6570   21.3964 C   0  0  0  0  0  0
  -26.1017  -29.2532   20.7406 C   0  0  0  0  0  0
  -27.2471  -28.3483   20.7522 C   0  0  0  0  0  0
  -26.0205  -26.7241   19.4826 C   0  0  0  0  0  0
  -24.9026  -27.5962   19.4605 C   0  0  0  0  0  0
  -23.7041  -29.7608   20.1465 C   0  0  0  0  0  0
  -25.4131  -36.2990   24.0301 C   0  0  1  0  0  0
  -20.5935  -28.3748   23.1195 C   0  0  2  0  0  0
  -20.6794  -26.9435   22.5399 C   0  0  0  0  0  0
  -19.5769  -26.6379   21.5208 C   0  0  0  0  0  0
  -18.1952  -26.7935   22.1621 C   0  0  0  0  0  0
  -19.1574  -28.8894   23.2818 C   0  0  0  0  0  0
  -18.9488  -30.1480   23.8860 C   0  0  0  0  0  0
  -17.6484  -30.6595   24.0555 C   0  0  0  0  0  0
  -25.9091  -34.9368   23.5023 C   0  0  0  0  0  0
  -16.5373  -29.9085   23.6337 C   0  0  0  0  0  0
  -16.7299  -28.6502   23.0360 C   0  0  0  0  0  0
  -26.4545  -31.6541   25.0698 C   0  0  0  0  0  0
  -25.3691  -31.3770   26.1366 C   0  0  0  0  0  0
  -27.0437  -30.2916   24.6388 C   0  0  0  0  0  0
  -27.6039  -32.4346   25.7504 C   0  0  0  0  0  0
  -27.5573  -37.1769   24.8463 C   0  0  0  0  0  0
  -21.4311  -29.3045   22.3549 N   0  0  0  0  0  0
  -26.4282  -37.3718   23.9404 N   0  0  0  0  0  0
  -24.7393  -31.0015   22.0859 N   0  0  0  0  0  0
  -23.4207  -28.8032   23.3015 O   0  0  0  0  0  0
  -28.2413  -25.9295   20.2774 O   0  0  0  0  0  0
  -26.5699  -34.8892   22.4619 O   0  0  0  0  0  0
  -23.5642  -32.1226   23.6896 O   0  0  0  0  0  0
  -29.3504  -20.1467   20.9157 C   0  0  0  0  0  0
  -28.9652  -21.4347   20.1423 C   0  0  0  0  0  0
  -28.7845  -20.9647   18.8466 C   0  0  0  0  0  0
  -29.4221  -18.8254   20.2934 C   0  0  0  0  0  0
  -28.8461  -23.0122   20.6088 C   0  0  0  0  0  0
  -28.0628  -24.3633   19.8828 C   0  0  0  0  0  0
  -28.4579  -21.6800   17.6993 N   0  0  0  0  0  0
  -29.3736  -23.3109   21.6860 O   0  0  0  0  0  0
  -28.0725  -16.5451   20.9658 O   0  0  0  0  0  0
  -30.0601  -17.1407   22.3650 O   0  0  0  0  0  0
  -29.0232  -19.1879   18.6282 S   0  0  0  0  0  0
  -29.5052  -16.9030   21.0164 S   0  0  0  0  0  0
  -31.4821  -12.9252   19.2029 H   0  0  0  0  0  0
  -30.5084  -11.7796   20.0758 H   0  0  0  0  0  0
  -29.8946  -11.7675   17.6362 H   0  0  0  0  0  0
  -29.5892  -13.4855   17.6860 H   0  0  0  0  0  0
  -28.0073  -11.2789   19.0326 H   0  0  0  0  0  0
  -27.4127  -12.4061   17.8402 H   0  0  0  0  0  0
  -27.5701  -14.2519   19.3857 H   0  0  0  0  0  0
  -28.7869  -12.3768   21.4680 H   0  0  0  0  0  0
  -28.3252  -14.0352   21.7562 H   0  0  0  0  0  0
  -25.2793   -9.5678   22.4745 H   0  0  0  0  0  0
  -24.0009   -7.4644   22.7483 H   0  0  0  0  0  0
  -21.0853   -8.8794   19.8956 H   0  0  0  0  0  0
  -22.3737  -10.9672   19.6154 H   0  0  0  0  0  0
  -21.2019   -7.6154   23.9719 H   0  0  0  0  0  0
  -21.1476   -6.0528   25.9079 H   0  0  0  0  0  0
  -22.0599   -2.7614   23.2848 H   0  0  0  0  0  0
  -22.4091  -11.9826   22.4779 H   0  0  0  0  0  0
  -21.1081  -13.1195   22.2667 H   0  0  0  0  0  0
  -24.6734  -15.8540   20.6474 H   0  0  0  0  0  0
  -26.3314  -15.6444   20.3899 H   0  0  0  0  0  0
  -26.7331  -32.5180   23.0910 H   0  0  0  0  0  0
  -25.0056  -33.9524   25.0218 H   0  0  0  0  0  0
  -22.7778  -31.2723   21.3566 H   0  0  0  0  0  0
  -23.3759  -35.9558   23.3286 H   0  0  0  0  0  0
  -24.3572  -36.8896   22.2063 H   0  0  0  0  0  0
  -23.7247  -37.6414   23.6708 H   0  0  0  0  0  0
  -26.2037  -31.4021   20.6182 H   0  0  0  0  0  0
  -26.8955  -30.7124   22.0477 H   0  0  0  0  0  0
  -28.1388  -28.6585   21.2784 H   0  0  0  0  0  0
  -25.9060  -25.7748   18.9807 H   0  0  0  0  0  0
  -24.0062  -27.2791   18.9455 H   0  0  0  0  0  0
  -23.8527  -30.5305   19.3881 H   0  0  0  0  0  0
  -22.8158  -29.2100   19.8321 H   0  0  0  0  0  0
  -25.1328  -36.1796   25.0791 H   0  0  0  0  0  0
  -21.0024  -28.3353   24.1316 H   0  0  0  0  0  0
  -20.5672  -26.2372   23.3638 H   0  0  0  0  0  0
  -21.6660  -26.7415   22.1208 H   0  0  0  0  0  0
  -19.6934  -25.6278   21.1269 H   0  0  0  0  0  0
  -19.6706  -27.3164   20.6716 H   0  0  0  0  0  0
  -17.4218  -26.6661   21.4029 H   0  0  0  0  0  0
  -18.0363  -26.0088   22.9032 H   0  0  0  0  0  0
  -19.7966  -30.7298   24.2221 H   0  0  0  0  0  0
  -17.5040  -31.6274   24.5162 H   0  0  0  0  0  0
  -15.5373  -30.2980   23.7683 H   0  0  0  0  0  0
  -15.8696  -28.0809   22.7103 H   0  0  0  0  0  0
  -24.5887  -30.7103   25.7676 H   0  0  0  0  0  0
  -24.8868  -32.2968   26.4685 H   0  0  0  0  0  0
  -25.7944  -30.9008   27.0210 H   0  0  0  0  0  0
  -26.3087  -29.6602   24.1382 H   0  0  0  0  0  0
  -27.3974  -29.7263   25.5019 H   0  0  0  0  0  0
  -27.9027  -30.4110   23.9784 H   0  0  0  0  0  0
  -27.2591  -33.3671   26.1987 H   0  0  0  0  0  0
  -28.3904  -32.6869   25.0379 H   0  0  0  0  0  0
  -28.0647  -31.8539   26.5505 H   0  0  0  0  0  0
  -28.2566  -38.0088   24.7519 H   0  0  0  0  0  0
  -28.1095  -36.2613   24.6282 H   0  0  0  0  0  0
  -27.2290  -37.1405   25.8866 H   0  0  0  0  0  0
  -20.9556  -29.8743   21.6692 H   0  0  0  0  0  0
  -26.0138  -38.2778   24.1417 H   0  0  0  0  0  0
  -29.5205  -20.2408   21.9780 H   0  0  0  0  0  0
  -27.0009  -24.1414   19.9791 H   0  0  0  0  0  0
  -28.2699  -24.2971   18.8154 H   0  0  0  0  0  0
  -28.4189  -22.6893   17.6082 H   0  0  0  0  0  0
  -28.4055  -21.2238   16.7916 H   0  0  0  0  0  0
  1 25  1  0  0  0
  1 30  2  0  0  0
  1 82  1  0  0  0
  2  3  1  0  0  0
  2 25  1  0  0  0
  2 83  1  0  0  0
  2 84  1  0  0  0
  3  4  1  0  0  0
  3 85  1  0  0  0
  3 86  1  0  0  0
  4  5  1  0  0  0
  4 87  1  0  0  0
  4 88  1  0  0  0
  5  6  1  0  0  0
  5 26  1  0  0  0
  5 89  1  0  0  0
  6 25  1  0  0  0
  6 90  1  0  0  0
  6 91  1  0  0  0
  7  8  2  0  0  0
  7 26  1  0  0  0
  7 29  1  0  0  0
  8  9  1  0  0  0
  8 22  1  0  0  0
  9 10  1  0  0  0
  9 27  2  0  0  0
 10 11  2  0  0  0
 10 15  1  0  0  0
 11 12  1  0  0  0
 11 92  1  0  0  0
 12 13  2  0  0  0
 12 93  1  0  0  0
 13 14  1  0  0  0
 13 31  1  0  0  0
 14 15  2  0  0  0
 14 94  1  0  0  0
 15 95  1  0  0  0
 16 17  2  0  0  0
 16 21  1  0  0  0
 16 31  1  0  0  0
 17 18  1  0  0  0
 17 96  1  0  0  0
 18 19  2  0  0  0
 18 97  1  0  0  0
 19 20  1  0  0  0
 19 24  1  0  0  0
 20 21  2  0  0  0
 20 98  1  0  0  0
 21 23  1  0  0  0
 22 28  1  0  0  0
 22 32  2  0  0  0
 26 27  1  0  0  0
 28 99  1  0  0  0
 28100  1  0  0  0
 29101  1  0  0  0
 29102  1  0  0  0
 33 34  1  0  0  0
 33 66  1  0  0  0
 33 70  2  0  0  0
 34 36  1  0  0  0
 34 59  1  0  0  0
 34103  1  0  0  0
 35 44  2  0  0  0
 35 45  1  0  0  0
 35 68  1  0  0  0
 36 56  1  0  0  0
 36104  1  0  0  0
 37 39  1  0  0  0
 37 47  1  0  0  0
 37 66  1  0  0  0
 37105  1  0  0  0
 38 43  2  0  0  0
 38 46  1  0  0  0
 38 47  1  0  0  0
 39 64  1  0  0  0
 39 67  2  0  0  0
 40 52  1  0  0  0
 40 53  2  0  0  0
 40 58  1  0  0  0
 41106  1  0  0  0
 41107  1  0  0  0
 41108  1  0  0  0
 41 48  1  0  0  0
 42 43  1  0  0  0
 42 66  1  0  0  0
 42109  1  0  0  0
 42110  1  0  0  0
 43 44  1  0  0  0
 44111  1  0  0  0
 45 46  2  0  0  0
 45112  1  0  0  0
 46113  1  0  0  0
 47114  1  0  0  0
 47115  1  0  0  0
 48 56  1  0  0  0
 48 65  1  0  0  0
 48116  1  0  0  0
 49 50  1  0  0  0
 49 53  1  0  0  0
 49 64  1  0  0  0
 49117  1  0  0  0
 50 51  1  0  0  0
 50118  1  0  0  0
 50119  1  0  0  0
 51 52  1  0  0  0
 51120  1  0  0  0
 51121  1  0  0  0
 52122  1  0  0  0
 52123  1  0  0  0
 53 54  1  0  0  0
 54 55  2  0  0  0
 54124  1  0  0  0
 55 57  1  0  0  0
 55125  1  0  0  0
 56 69  2  0  0  0
 57 58  2  0  0  0
 57126  1  0  0  0
 58127  1  0  0  0
 59 60  1  0  0  0
 59 61  1  0  0  0
 59 62  1  0  0  0
 60128  1  0  0  0
 60129  1  0  0  0
 60130  1  0  0  0
 61131  1  0  0  0
 61132  1  0  0  0
 61133  1  0  0  0
 62134  1  0  0  0
 62135  1  0  0  0
 62136  1  0  0  0
 63 65  1  0  0  0
 63137  1  0  0  0
 63138  1  0  0  0
 63139  1  0  0  0
 64140  1  0  0  0
 65141  1  0  0  0
 68 76  1  0  0  0
 71 72  1  0  0  0
 71 74  2  0  0  0
 71142  1  0  0  0
 72 73  2  0  0  0
 72 75  1  0  0  0
 73 77  1  0  0  0
 73 81  1  0  0  0
 74 81  1  0  0  0
 74 82  1  0  0  0
 75 76  1  0  0  0
 75 78  2  0  0  0
 76143  1  0  0  0
 76144  1  0  0  0
 77145  1  0  0  0
 77146  1  0  0  0
 79 82  2  0  0  0
 80 82  2  0  0  0
M  ISO  4   1 100  68 101  76 101  82 100
M  END
> <chiral flag>
0

> <version>
0

> <s_m_source_file>
/data/baiqing/PycharmProjects/Reinvent-master-3.2/result/LINK_invent/BTK/process_docking_weight1_custom_product_contain_oxygen_bond_distance_aromatic_linkinvent_7_9_3/rearranged_h_0101.sdf

> <i_m_source_file_index>
23

> <r_mmod_Potential_Energy-OPLS-2005>
1131.38977050781

> <r_mmod_Stretch_Energy-OPLS-2005>
481.824584960938

> <r_mmod_Bend_Energy-OPLS-2005>
403.428527832031

> <r_mmod_Torsional_Energy-OPLS-2005>
190.488006591797

> <r_mmod_Improper_Torsional_Energy-OPLS-2005>
5.76115274429321

> <r_mmod_Van_der_Waal_Energy-OPLS-2005>
99.9416656494141

> <r_mmod_Electrostatic_Energy-OPLS-2005>
-154.667022705078

> <r_mmod_Solvation_Energy-OPLS-2005>
-253.812789916992

> <b_mmod_Minimization_Converged-OPLS-2005>
0

> <r_mmod_RMS_Derivative-OPLS-2005>
0.919985294342041

$$$$
23
                    3D
 Structure written by MMmdl.
165173  0  0  1  0            999 V2000
  -30.6948  -14.5167   20.4258 C   0  0  0  0  0  0
  -30.4189  -12.2958   19.4281 C   0  0  0  0  0  0
  -29.4925  -12.4315   18.2024 C   0  0  0  0  0  0
  -28.0098  -12.3354   18.6209 C   0  0  0  0  0  0
  -27.6469  -13.2104   19.8537 C   0  0  2  0  0  0
  -28.7031  -13.0855   20.9736 C   0  0  0  0  0  0
  -25.2556  -13.8175   20.5717 C   0  0  0  0  0  0
  -24.1808  -13.0442   20.9181 C   0  0  0  0  0  0
  -24.6367  -11.6912   20.8749 C   0  0  0  0  0  0
  -23.9035  -10.4297   21.0409 C   0  0  0  0  0  0
  -24.3594   -9.4224   21.9192 C   0  0  0  0  0  0
  -23.6277   -8.2256   22.0770 C   0  0  0  0  0  0
  -22.4263   -8.0285   21.3551 C   0  0  0  0  0  0
  -21.9880   -9.0259   20.4660 C   0  0  0  0  0  0
  -22.7205  -10.2139   20.3062 C   0  0  0  0  0  0
  -21.6860   -6.0727   22.5275 C   0  0  0  0  0  0
  -21.4027   -6.5637   23.8205 C   0  0  0  0  0  0
  -21.3657   -5.6790   24.9169 C   0  0  0  0  0  0
  -21.6039   -4.3051   24.7226 C   0  0  0  0  0  0
  -21.8822   -3.8142   23.4349 C   0  0  0  0  0  0
  -21.9196   -4.6954   22.3403 C   0  0  0  0  0  0
  -22.7826  -13.5259   21.1823 C   0  0  0  0  0  0
  -22.1668   -4.2136   21.0984 F   0  0  0  0  0  0
  -21.5612   -3.4539   25.7742 F   0  0  0  0  0  0
  -30.0230  -13.3368   20.3830 N   0  0  0  0  0  0
  -26.2970  -12.9329   20.3353 N   0  0  0  0  0  0
  -25.9292  -11.6491   20.5789 N   0  0  0  0  0  0
  -22.0452  -12.8269   22.0385 N   0  0  0  0  0  0
  -25.4281  -15.1901   20.4196 N   0  0  0  0  0  0
  -31.9131  -14.6059   20.2537 O   0  0  0  0  0  0
  -21.6651   -6.8868   21.4234 O   0  0  0  0  0  0
  -22.3519  -14.5559   20.6657 O   0  0  0  0  0  0
  -24.6152  -31.8683   23.2099 C   0  0  0  0  0  0
  -25.9049  -32.4822   23.8393 C   0  0  1  0  0  0
  -27.2319  -27.4270   20.0927 C   0  0  0  0  0  0
  -25.5907  -33.8619   24.2320 N   0  0  0  0  0  0
  -23.4030  -30.4917   21.5512 C   0  0  2  0  0  0
  -24.8464  -28.9570   20.1157 C   0  0  0  0  0  0
  -22.7398  -29.4668   22.4990 C   0  0  0  0  0  0
  -18.0271  -28.1397   22.8495 C   0  0  0  0  0  0
  -24.1475  -36.7311   23.2634 C   0  0  0  0  0  0
  -25.9318  -30.8305   21.3629 C   0  0  0  0  0  0
  -26.0081  -29.4638   20.7106 C   0  0  0  0  0  0
  -27.2025  -28.7061   20.6966 C   0  0  0  0  0  0
  -26.0484  -26.9387   19.4891 C   0  0  0  0  0  0
  -24.8613  -27.6928   19.5036 C   0  0  0  0  0  0
  -23.6105  -29.8257   20.1657 C   0  0  0  0  0  0
  -25.4097  -36.3099   24.0332 C   0  0  1  0  0  0
  -20.5862  -28.3671   23.1326 C   0  0  2  0  0  0
  -20.6759  -26.9406   22.5416 C   0  0  0  0  0  0
  -19.5738  -26.6400   21.5211 C   0  0  0  0  0  0
  -18.1919  -26.7947   22.1626 C   0  0  0  0  0  0
  -19.1519  -28.8849   23.2913 C   0  0  0  0  0  0
  -18.9453  -30.1456   23.8923 C   0  0  0  0  0  0
  -17.6458  -30.6600   24.0574 C   0  0  0  0  0  0
  -25.9038  -34.9470   23.5116 C   0  0  0  0  0  0
  -16.5346  -29.9109   23.6334 C   0  0  0  0  0  0
  -16.7265  -28.6529   23.0356 C   0  0  0  0  0  0
  -26.4478  -31.6606   25.0727 C   0  0  0  0  0  0
  -25.3754  -31.3730   26.1495 C   0  0  0  0  0  0
  -27.0302  -30.3042   24.6095 C   0  0  0  0  0  0
  -27.6048  -32.4319   25.7511 C   0  0  0  0  0  0
  -27.5568  -37.1812   24.8467 C   0  0  0  0  0  0
  -21.4127  -29.3044   22.3729 N   0  0  0  0  0  0
  -26.4280  -37.3787   23.9408 N   0  0  0  0  0  0
  -24.6687  -31.0773   22.1001 N   0  0  0  0  0  0
  -23.4168  -28.8209   23.3039 O   0  0  0  0  0  0
  -28.4063  -26.6979   20.1138 O   0  0  0  0  0  0
  -26.5587  -34.8925   22.4668 O   0  0  0  0  0  0
  -23.5348  -32.1446   23.7479 O   0  0  0  0  0  0
  -29.4542  -19.0610   23.4281 C   0  0  0  0  0  0
  -28.7521  -20.0332   21.3012 C   0  0  0  0  0  0
  -29.0188  -18.8862   22.0970 C   0  0  0  0  0  0
  -29.6115  -20.3554   23.9608 C   0  0  0  0  0  0
  -29.3331  -21.4892   23.1683 C   0  0  0  0  0  0
  -28.8991  -21.3376   21.8335 C   0  0  0  0  0  0
  -29.7961  -15.9861   18.7817 C   0  0  0  0  0  0
  -29.5873  -24.5733   20.4427 C   0  0  0  0  0  0
  -30.1256  -16.8332   21.0311 C   0  0  0  0  0  0
  -28.3120  -25.2745   19.9387 C   0  0  0  0  0  0
  -29.5771  -23.0313   20.3048 C   0  0  0  0  0  0
  -28.8103  -17.4676   21.5569 C   0  0  1  0  0  0
  -30.0019  -20.5407   25.2871 N   0  0  0  0  0  0
  -29.4822  -22.7573   23.7328 N   0  0  0  0  0  0
  -29.9303  -15.6166   20.2079 N   0  0  0  0  0  0
  -27.7842  -17.4300   20.5820 O   0  0  0  0  0  0
  -28.5444  -22.4500   21.0992 O   0  0  0  0  0  0
  -31.4631  -12.3835   19.1232 H   0  0  0  0  0  0
  -30.3191  -11.3094   19.8831 H   0  0  0  0  0  0
  -29.7160  -11.6493   17.4755 H   0  0  0  0  0  0
  -29.6827  -13.3706   17.6845 H   0  0  0  0  0  0
  -27.8096  -11.2872   18.8439 H   0  0  0  0  0  0
  -27.3667  -12.5912   17.7786 H   0  0  0  0  0  0
  -27.6448  -14.2434   19.5162 H   0  0  0  0  0  0
  -28.6760  -12.0951   21.4287 H   0  0  0  0  0  0
  -28.4951  -13.7983   21.7736 H   0  0  0  0  0  0
  -25.2738   -9.5719   22.4770 H   0  0  0  0  0  0
  -23.9987   -7.4662   22.7505 H   0  0  0  0  0  0
  -21.0801   -8.8774   19.8983 H   0  0  0  0  0  0
  -22.3653  -10.9675   19.6180 H   0  0  0  0  0  0
  -21.2040   -7.6151   23.9704 H   0  0  0  0  0  0
  -21.1466   -6.0529   25.9068 H   0  0  0  0  0  0
  -22.0598   -2.7605   23.2861 H   0  0  0  0  0  0
  -22.4062  -11.9949   22.4803 H   0  0  0  0  0  0
  -21.1084  -13.1341   22.2591 H   0  0  0  0  0  0
  -24.6592  -15.8424   20.5284 H   0  0  0  0  0  0
  -26.3045  -15.6395   20.1719 H   0  0  0  0  0  0
  -26.7113  -32.5537   23.1158 H   0  0  0  0  0  0
  -25.0090  -33.9768   25.0484 H   0  0  0  0  0  0
  -22.6937  -31.3100   21.4105 H   0  0  0  0  0  0
  -23.3731  -35.9655   23.3318 H   0  0  0  0  0  0
  -24.3570  -36.8907   22.2045 H   0  0  0  0  0  0
  -23.7240  -37.6526   23.6645 H   0  0  0  0  0  0
  -26.0392  -31.5921   20.5900 H   0  0  0  0  0  0
  -26.8219  -30.8890   21.9779 H   0  0  0  0  0  0
  -28.0996  -29.0901   21.1617 H   0  0  0  0  0  0
  -26.0207  -25.9765   18.9994 H   0  0  0  0  0  0
  -23.9679  -27.2962   19.0409 H   0  0  0  0  0  0
  -23.7250  -30.6012   19.4090 H   0  0  0  0  0  0
  -22.7335  -29.2485   19.8662 H   0  0  0  0  0  0
  -25.1270  -36.1960   25.0826 H   0  0  0  0  0  0
  -20.9957  -28.3245   24.1453 H   0  0  0  0  0  0
  -20.5659  -26.2283   23.3609 H   0  0  0  0  0  0
  -21.6638  -26.7462   22.1211 H   0  0  0  0  0  0
  -19.6895  -25.6317   21.1239 H   0  0  0  0  0  0
  -19.6683  -27.3222   20.6757 H   0  0  0  0  0  0
  -17.4183  -26.6697   21.4035 H   0  0  0  0  0  0
  -18.0319  -26.0088   22.9027 H   0  0  0  0  0  0
  -19.7929  -30.7254   24.2314 H   0  0  0  0  0  0
  -17.5027  -31.6288   24.5165 H   0  0  0  0  0  0
  -15.5355  -30.3025   23.7654 H   0  0  0  0  0  0
  -15.8666  -28.0859   22.7068 H   0  0  0  0  0  0
  -24.5935  -30.7048   25.7874 H   0  0  0  0  0  0
  -24.8952  -32.2904   26.4913 H   0  0  0  0  0  0
  -25.8141  -30.8956   27.0266 H   0  0  0  0  0  0
  -26.2850  -29.6829   24.1128 H   0  0  0  0  0  0
  -27.4048  -29.7246   25.4541 H   0  0  0  0  0  0
  -27.8691  -30.4350   23.9258 H   0  0  0  0  0  0
  -27.2659  -33.3603   26.2111 H   0  0  0  0  0  0
  -28.3887  -32.6896   25.0382 H   0  0  0  0  0  0
  -28.0697  -31.8436   26.5433 H   0  0  0  0  0  0
  -28.2598  -38.0091   24.7500 H   0  0  0  0  0  0
  -28.1040  -36.2631   24.6304 H   0  0  0  0  0  0
  -27.2295  -37.1482   25.8868 H   0  0  0  0  0  0
  -20.9279  -29.8775   21.6964 H   0  0  0  0  0  0
  -26.0165  -38.2856   24.1432 H   0  0  0  0  0  0
  -29.6490  -18.1900   24.0390 H   0  0  0  0  0  0
  -28.4048  -19.9134   20.2845 H   0  0  0  0  0  0
  -29.5571  -17.0393   18.6301 H   0  0  0  0  0  0
  -28.9932  -15.4308   18.3032 H   0  0  0  0  0  0
  -30.7064  -15.7868   18.2111 H   0  0  0  0  0  0
  -29.7553  -24.8420   21.4844 H   0  0  0  0  0  0
  -30.4393  -24.9668   19.8875 H   0  0  0  0  0  0
  -30.6769  -17.5730   20.4488 H   0  0  0  0  0  0
  -30.7710  -16.6252   21.8872 H   0  0  0  0  0  0
  -28.1525  -25.0389   18.8862 H   0  0  0  0  0  0
  -27.4625  -24.8772   20.4983 H   0  0  0  0  0  0
  -30.5553  -22.6389   20.5912 H   0  0  0  0  0  0
  -29.4188  -22.7485   19.2628 H   0  0  0  0  0  0
  -28.4508  -16.8472   22.3800 H   0  0  0  0  0  0
  -29.8153  -19.7684   25.9169 H   0  0  0  0  0  0
  -29.6651  -21.4163   25.6742 H   0  0  0  0  0  0
  -30.1964  -22.7932   24.4502 H   0  0  0  0  0  0
  -29.5687  -23.5145   23.0668 H   0  0  0  0  0  0
  -26.9909  -17.7455   21.0033 H   0  0  0  0  0  0
  1 25  1  0  0  0
  1 30  2  0  0  0
  1 85  1  0  0  0
  2  3  1  0  0  0
  2 25  1  0  0  0
  2 88  1  0  0  0
  2 89  1  0  0  0
  3  4  1  0  0  0
  3 90  1  0  0  0
  3 91  1  0  0  0
  4  5  1  0  0  0
  4 92  1  0  0  0
  4 93  1  0  0  0
  5  6  1  0  0  0
  5 26  1  0  0  0
  5 94  1  0  0  0
  6 25  1  0  0  0
  6 95  1  0  0  0
  6 96  1  0  0  0
  7  8  2  0  0  0
  7 26  1  0  0  0
  7 29  1  0  0  0
  8  9  1  0  0  0
  8 22  1  0  0  0
  9 10  1  0  0  0
  9 27  2  0  0  0
 10 11  2  0  0  0
 10 15  1  0  0  0
 11 12  1  0  0  0
 11 97  1  0  0  0
 12 13  2  0  0  0
 12 98  1  0  0  0
 13 14  1  0  0  0
 13 31  1  0  0  0
 14 15  2  0  0  0
 14 99  1  0  0  0
 15100  1  0  0  0
 16 17  2  0  0  0
 16 21  1  0  0  0
 16 31  1  0  0  0
 17 18  1  0  0  0
 17101  1  0  0  0
 18 19  2  0  0  0
 18102  1  0  0  0
 19 20  1  0  0  0
 19 24  1  0  0  0
 20 21  2  0  0  0
 20103  1  0  0  0
 21 23  1  0  0  0
 22 28  1  0  0  0
 22 32  2  0  0  0
 26 27  1  0  0  0
 28104  1  0  0  0
 28105  1  0  0  0
 29106  1  0  0  0
 29107  1  0  0  0
 33 34  1  0  0  0
 33 66  1  0  0  0
 33 70  2  0  0  0
 34 36  1  0  0  0
 34 59  1  0  0  0
 34108  1  0  0  0
 35 44  2  0  0  0
 35 45  1  0  0  0
 35 68  1  0  0  0
 36 56  1  0  0  0
 36109  1  0  0  0
 37 39  1  0  0  0
 37 47  1  0  0  0
 37 66  1  0  0  0
 37110  1  0  0  0
 38 43  2  0  0  0
 38 46  1  0  0  0
 38 47  1  0  0  0
 39 64  1  0  0  0
 39 67  2  0  0  0
 40 52  1  0  0  0
 40 53  2  0  0  0
 40 58  1  0  0  0
 41111  1  0  0  0
 41112  1  0  0  0
 41113  1  0  0  0
 41 48  1  0  0  0
 42 43  1  0  0  0
 42 66  1  0  0  0
 42114  1  0  0  0
 42115  1  0  0  0
 43 44  1  0  0  0
 44116  1  0  0  0
 45 46  2  0  0  0
 45117  1  0  0  0
 46118  1  0  0  0
 47119  1  0  0  0
 47120  1  0  0  0
 48 56  1  0  0  0
 48 65  1  0  0  0
 48121  1  0  0  0
 49 50  1  0  0  0
 49 53  1  0  0  0
 49 64  1  0  0  0
 49122  1  0  0  0
 50 51  1  0  0  0
 50123  1  0  0  0
 50124  1  0  0  0
 51 52  1  0  0  0
 51125  1  0  0  0
 51126  1  0  0  0
 52127  1  0  0  0
 52128  1  0  0  0
 53 54  1  0  0  0
 54 55  2  0  0  0
 54129  1  0  0  0
 55 57  1  0  0  0
 55130  1  0  0  0
 56 69  2  0  0  0
 57 58  2  0  0  0
 57131  1  0  0  0
 58132  1  0  0  0
 59 60  1  0  0  0
 59 61  1  0  0  0
 59 62  1  0  0  0
 60133  1  0  0  0
 60134  1  0  0  0
 60135  1  0  0  0
 61136  1  0  0  0
 61137  1  0  0  0
 61138  1  0  0  0
 62139  1  0  0  0
 62140  1  0  0  0
 62141  1  0  0  0
 63 65  1  0  0  0
 63142  1  0  0  0
 63143  1  0  0  0
 63144  1  0  0  0
 64145  1  0  0  0
 65146  1  0  0  0
 68 80  1  0  0  0
 71 73  2  0  0  0
 71 74  1  0  0  0
 71147  1  0  0  0
 72 73  1  0  0  0
 72 76  2  0  0  0
 72148  1  0  0  0
 73 82  1  0  0  0
 74 75  2  0  0  0
 74 83  1  0  0  0
 75 76  1  0  0  0
 75 84  1  0  0  0
 76 87  1  0  0  0
 77 85  1  0  0  0
 77149  1  0  0  0
 77150  1  0  0  0
 77151  1  0  0  0
 78 80  1  0  0  0
 78 81  1  0  0  0
 78152  1  0  0  0
 78153  1  0  0  0
 79 82  1  0  0  0
 79 85  1  0  0  0
 79154  1  0  0  0
 79155  1  0  0  0
 80156  1  0  0  0
 80157  1  0  0  0
 81 87  1  0  0  0
 81158  1  0  0  0
 81159  1  0  0  0
 82 86  1  0  0  0
 82160  1  0  0  0
 83161  1  0  0  0
 83162  1  0  0  0
 84163  1  0  0  0
 84164  1  0  0  0
 86165  1  0  0  0
M  ISO  4   1 100  68 101  80 101  85 100
M  END
> <chiral flag>
0

> <version>
0

> <s_m_source_file>
/data/baiqing/PycharmProjects/Reinvent-master-3.2/result/LINK_invent/BTK/process_docking_weight1_custom_product_contain_oxygen_bond_distance_aromatic_linkinvent_7_9_3/rearranged_h_0101.sdf

> <i_m_source_file_index>
24

> <r_mmod_Potential_Energy-OPLS-2005>
-49.6538124084473

> <r_mmod_Stretch_Energy-OPLS-2005>
39.4167709350586

> <r_mmod_Bend_Energy-OPLS-2005>
102.262550354004

> <r_mmod_Torsional_Energy-OPLS-2005>
358.598175048828

> <r_mmod_Improper_Torsional_Energy-OPLS-2005>
27.1138019561768

> <r_mmod_Van_der_Waal_Energy-OPLS-2005>
160.374114990234

> <r_mmod_Electrostatic_Energy-OPLS-2005>
-544.751586914062

> <r_mmod_Solvation_Energy-OPLS-2005>
-222.166580200195

> <b_mmod_Minimization_Converged-OPLS-2005>
0

> <r_mmod_RMS_Derivative-OPLS-2005>
2.44839286804199

$$$$
24
                    3D
 Structure written by MMmdl.
159168  0  0  1  0            999 V2000
  -30.7781  -14.3937   20.6388 C   0  0  0  0  0  0
  -30.4064  -12.2940   19.3979 C   0  0  0  0  0  0
  -29.4806  -12.5139   18.1888 C   0  0  0  0  0  0
  -28.0059  -12.3711   18.6097 C   0  0  0  0  0  0
  -27.6584  -13.2087   19.8695 C   0  0  2  0  0  0
  -28.7025  -12.9928   20.9865 C   0  0  0  0  0  0
  -25.2593  -13.8161   20.5695 C   0  0  0  0  0  0
  -24.1837  -13.0444   20.9179 C   0  0  0  0  0  0
  -24.6386  -11.6908   20.8726 C   0  0  0  0  0  0
  -23.9059  -10.4290   21.0397 C   0  0  0  0  0  0
  -24.3613   -9.4212   21.9181 C   0  0  0  0  0  0
  -23.6288   -8.2245   22.0755 C   0  0  0  0  0  0
  -22.4271   -8.0277   21.3538 C   0  0  0  0  0  0
  -21.9900   -9.0251   20.4643 C   0  0  0  0  0  0
  -22.7231  -10.2127   20.3054 C   0  0  0  0  0  0
  -21.6854   -6.0731   22.5281 C   0  0  0  0  0  0
  -21.4010   -6.5641   23.8212 C   0  0  0  0  0  0
  -21.3660   -5.6792   24.9171 C   0  0  0  0  0  0
  -21.6046   -4.3056   24.7224 C   0  0  0  0  0  0
  -21.8822   -3.8143   23.4346 C   0  0  0  0  0  0
  -21.9197   -4.6958   22.3403 C   0  0  0  0  0  0
  -22.7865  -13.5254   21.1850 C   0  0  0  0  0  0
  -22.1669   -4.2152   21.0980 F   0  0  0  0  0  0
  -21.5627   -3.4540   25.7735 F   0  0  0  0  0  0
  -30.0317  -13.2790   20.4225 N   0  0  0  0  0  0
  -26.3017  -12.9329   20.3356 N   0  0  0  0  0  0
  -25.9313  -11.6489   20.5745 N   0  0  0  0  0  0
  -22.0512  -12.8233   22.0395 N   0  0  0  0  0  0
  -25.4342  -15.1880   20.4116 N   0  0  0  0  0  0
  -31.9027  -14.5363   20.1477 O   0  0  0  0  0  0
  -21.6639   -6.8874   21.4240 O   0  0  0  0  0  0
  -22.3556  -14.5570   20.6723 O   0  0  0  0  0  0
  -24.6110  -31.8690   23.2138 C   0  0  0  0  0  0
  -25.9015  -32.4828   23.8420 C   0  0  1  0  0  0
  -27.2346  -27.4615   20.0735 C   0  0  0  0  0  0
  -25.5878  -33.8627   24.2333 N   0  0  0  0  0  0
  -23.3972  -30.4935   21.5554 C   0  0  2  0  0  0
  -24.8400  -28.9644   20.1183 C   0  0  0  0  0  0
  -22.7385  -29.4664   22.5031 C   0  0  0  0  0  0
  -18.0255  -28.1375   22.8513 C   0  0  0  0  0  0
  -24.1473  -36.7329   23.2641 C   0  0  0  0  0  0
  -25.9242  -30.8415   21.3627 C   0  0  0  0  0  0
  -26.0014  -29.4790   20.7071 C   0  0  0  0  0  0
  -27.2001  -28.7336   20.6852 C   0  0  0  0  0  0
  -26.0423  -26.9439   19.5109 C   0  0  0  0  0  0
  -24.8525  -27.6933   19.5218 C   0  0  0  0  0  0
  -23.6015  -29.8272   20.1702 C   0  0  0  0  0  0
  -25.4101  -36.3129   24.0342 C   0  0  1  0  0  0
  -20.5842  -28.3656   23.1349 C   0  0  2  0  0  0
  -20.6741  -26.9393   22.5445 C   0  0  0  0  0  0
  -19.5721  -26.6388   21.5240 C   0  0  0  0  0  0
  -18.1896  -26.7926   22.1639 C   0  0  0  0  0  0
  -19.1501  -28.8835   23.2923 C   0  0  0  0  0  0
  -18.9429  -30.1448   23.8928 C   0  0  0  0  0  0
  -17.6427  -30.6577   24.0592 C   0  0  0  0  0  0
  -25.9024  -34.9489   23.5136 C   0  0  0  0  0  0
  -16.5322  -29.9088   23.6334 C   0  0  0  0  0  0
  -16.7240  -28.6505   23.0357 C   0  0  0  0  0  0
  -26.4454  -31.6613   25.0746 C   0  0  0  0  0  0
  -25.3735  -31.3723   26.1509 C   0  0  0  0  0  0
  -27.0253  -30.3044   24.6124 C   0  0  0  0  0  0
  -27.6053  -32.4326   25.7492 C   0  0  0  0  0  0
  -27.5575  -37.1822   24.8457 C   0  0  0  0  0  0
  -21.4116  -29.3032   22.3771 N   0  0  0  0  0  0
  -26.4289  -37.3808   23.9396 N   0  0  0  0  0  0
  -24.6625  -31.0808   22.1030 N   0  0  0  0  0  0
  -23.4168  -28.8186   23.3047 O   0  0  0  0  0  0
  -28.4178  -26.7521   20.0691 O   0  0  0  0  0  0
  -26.5598  -34.8941   22.4704 O   0  0  0  0  0  0
  -23.5312  -32.1440   23.7545 O   0  0  0  0  0  0
  -30.0884  -18.7901   22.4479 C   0  0  0  0  0  0
  -30.2183  -18.1682   20.1071 C   0  0  0  0  0  0
  -29.7915  -20.1187   22.0741 C   0  0  0  0  0  0
  -29.9574  -19.5015   19.7367 C   0  0  0  0  0  0
  -30.3089  -17.8046   21.4658 C   0  0  0  0  0  0
  -29.7437  -20.5087   20.7102 C   0  0  0  0  0  0
  -29.2186  -24.5897   19.4344 C   0  0  0  0  0  0
  -28.5700  -25.7360   19.1625 C   0  0  0  0  0  0
  -30.8014  -16.4363   21.8393 C   0  0  0  0  0  0
  -29.2766  -23.4476   18.4409 C   0  0  0  0  0  0
  -29.9175  -24.2962   20.7520 C   0  0  0  0  0  0
  -28.7868  -22.1434   19.0918 C   0  0  0  0  0  0
  -29.5338  -22.9204   21.3370 C   0  0  0  0  0  0
  -29.5349  -21.8577   20.3223 N   0  0  0  0  0  0
  -30.1628  -15.3971   21.2830 N   0  0  0  0  0  0
  -31.7701  -16.3220   22.5989 O   0  0  0  0  0  0
  -31.4515  -12.3707   19.0928 H   0  0  0  0  0  0
  -30.2889  -11.2820   19.7884 H   0  0  0  0  0  0
  -29.7135  -11.8001   17.3979 H   0  0  0  0  0  0
  -29.6505  -13.5061   17.7667 H   0  0  0  0  0  0
  -27.8182  -11.3142   18.8030 H   0  0  0  0  0  0
  -27.3504  -12.6468   17.7830 H   0  0  0  0  0  0
  -27.7027  -14.2564   19.5728 H   0  0  0  0  0  0
  -28.6710  -11.9626   21.3429 H   0  0  0  0  0  0
  -28.4693  -13.6046   21.8584 H   0  0  0  0  0  0
  -25.2760   -9.5695   22.4755 H   0  0  0  0  0  0
  -24.0005   -7.4644   22.7474 H   0  0  0  0  0  0
  -21.0839   -8.8769   19.8945 H   0  0  0  0  0  0
  -22.3699  -10.9664   19.6160 H   0  0  0  0  0  0
  -21.1992   -7.6151   23.9716 H   0  0  0  0  0  0
  -21.1479   -6.0518   25.9074 H   0  0  0  0  0  0
  -22.0598   -2.7606   23.2845 H   0  0  0  0  0  0
  -22.4125  -11.9869   22.4734 H   0  0  0  0  0  0
  -21.1133  -13.1258   22.2625 H   0  0  0  0  0  0
  -24.6703  -15.8461   20.5210 H   0  0  0  0  0  0
  -26.2899  -15.6249   20.0925 H   0  0  0  0  0  0
  -26.7093  -32.5518   23.1193 H   0  0  0  0  0  0
  -24.9987  -33.9787   25.0447 H   0  0  0  0  0  0
  -22.6861  -31.3108   21.4196 H   0  0  0  0  0  0
  -23.3742  -35.9656   23.3300 H   0  0  0  0  0  0
  -24.3542  -36.8959   22.2048 H   0  0  0  0  0  0
  -23.7226  -37.6530   23.6660 H   0  0  0  0  0  0
  -26.0336  -31.6121   20.5983 H   0  0  0  0  0  0
  -26.8133  -30.8938   21.9800 H   0  0  0  0  0  0
  -28.1005  -29.1295   21.1350 H   0  0  0  0  0  0
  -26.0128  -25.9612   19.0619 H   0  0  0  0  0  0
  -23.9542  -27.2846   19.0783 H   0  0  0  0  0  0
  -23.7020  -30.6020   19.4097 H   0  0  0  0  0  0
  -22.7258  -29.2430   19.8811 H   0  0  0  0  0  0
  -25.1299  -36.1998   25.0843 H   0  0  0  0  0  0
  -20.9936  -28.3212   24.1468 H   0  0  0  0  0  0
  -20.5630  -26.2271   23.3630 H   0  0  0  0  0  0
  -21.6607  -26.7417   22.1229 H   0  0  0  0  0  0
  -19.6872  -25.6308   21.1243 H   0  0  0  0  0  0
  -19.6658  -27.3225   20.6789 H   0  0  0  0  0  0
  -17.4172  -26.6707   21.4025 H   0  0  0  0  0  0
  -18.0256  -26.0052   22.9005 H   0  0  0  0  0  0
  -19.7900  -30.7275   24.2299 H   0  0  0  0  0  0
  -17.4971  -31.6250   24.5201 H   0  0  0  0  0  0
  -15.5323  -30.3000   23.7635 H   0  0  0  0  0  0
  -15.8637  -28.0831   22.7064 H   0  0  0  0  0  0
  -24.5894  -30.7091   25.7840 H   0  0  0  0  0  0
  -24.8948  -32.2878   26.4997 H   0  0  0  0  0  0
  -25.8096  -30.8849   27.0241 H   0  0  0  0  0  0
  -26.2770  -29.6829   24.1192 H   0  0  0  0  0  0
  -27.4003  -29.7272   25.4588 H   0  0  0  0  0  0
  -27.8632  -30.4334   23.9272 H   0  0  0  0  0  0
  -27.2700  -33.3637   26.2080 H   0  0  0  0  0  0
  -28.3850  -32.6877   25.0300 H   0  0  0  0  0  0
  -28.0742  -31.8444   26.5390 H   0  0  0  0  0  0
  -28.2640  -38.0077   24.7471 H   0  0  0  0  0  0
  -28.1038  -36.2618   24.6333 H   0  0  0  0  0  0
  -27.2276  -37.1520   25.8857 H   0  0  0  0  0  0
  -20.9274  -29.8802   21.7033 H   0  0  0  0  0  0
  -26.0191  -38.2898   24.1393 H   0  0  0  0  0  0
  -30.1714  -18.5350   23.4950 H   0  0  0  0  0  0
  -30.4234  -17.4398   19.3357 H   0  0  0  0  0  0
  -29.6310  -20.8268   22.8721 H   0  0  0  0  0  0
  -29.9805  -19.7259   18.6817 H   0  0  0  0  0  0
  -28.0922  -25.9377   18.2128 H   0  0  0  0  0  0
  -30.3045  -23.3307   18.0946 H   0  0  0  0  0  0
  -28.6748  -23.6793   17.5602 H   0  0  0  0  0  0
  -29.7270  -25.0827   21.4826 H   0  0  0  0  0  0
  -30.9911  -24.3159   20.5597 H   0  0  0  0  0  0
  -28.8269  -21.3481   18.3521 H   0  0  0  0  0  0
  -27.7325  -22.2441   19.3542 H   0  0  0  0  0  0
  -28.5409  -22.9736   21.7867 H   0  0  0  0  0  0
  -30.2385  -22.7029   22.1402 H   0  0  0  0  0  0
  -29.1643  -15.4552   21.1853 H   0  0  0  0  0  0
  1 25  1  0  0  0
  1 30  2  0  0  0
  1 85  1  0  0  0
  2  3  1  0  0  0
  2 25  1  0  0  0
  2 87  1  0  0  0
  2 88  1  0  0  0
  3  4  1  0  0  0
  3 89  1  0  0  0
  3 90  1  0  0  0
  4  5  1  0  0  0
  4 91  1  0  0  0
  4 92  1  0  0  0
  5  6  1  0  0  0
  5 26  1  0  0  0
  5 93  1  0  0  0
  6 25  1  0  0  0
  6 94  1  0  0  0
  6 95  1  0  0  0
  7  8  2  0  0  0
  7 26  1  0  0  0
  7 29  1  0  0  0
  8  9  1  0  0  0
  8 22  1  0  0  0
  9 10  1  0  0  0
  9 27  2  0  0  0
 10 11  2  0  0  0
 10 15  1  0  0  0
 11 12  1  0  0  0
 11 96  1  0  0  0
 12 13  2  0  0  0
 12 97  1  0  0  0
 13 14  1  0  0  0
 13 31  1  0  0  0
 14 15  2  0  0  0
 14 98  1  0  0  0
 15 99  1  0  0  0
 16 17  2  0  0  0
 16 21  1  0  0  0
 16 31  1  0  0  0
 17 18  1  0  0  0
 17100  1  0  0  0
 18 19  2  0  0  0
 18101  1  0  0  0
 19 20  1  0  0  0
 19 24  1  0  0  0
 20 21  2  0  0  0
 20102  1  0  0  0
 21 23  1  0  0  0
 22 28  1  0  0  0
 22 32  2  0  0  0
 26 27  1  0  0  0
 28103  1  0  0  0
 28104  1  0  0  0
 29105  1  0  0  0
 29106  1  0  0  0
 33 34  1  0  0  0
 33 66  1  0  0  0
 33 70  2  0  0  0
 34 36  1  0  0  0
 34 59  1  0  0  0
 34107  1  0  0  0
 35 44  2  0  0  0
 35 45  1  0  0  0
 35 68  1  0  0  0
 36 56  1  0  0  0
 36108  1  0  0  0
 37 39  1  0  0  0
 37 47  1  0  0  0
 37 66  1  0  0  0
 37109  1  0  0  0
 38 43  2  0  0  0
 38 46  1  0  0  0
 38 47  1  0  0  0
 39 64  1  0  0  0
 39 67  2  0  0  0
 40 52  1  0  0  0
 40 53  2  0  0  0
 40 58  1  0  0  0
 41110  1  0  0  0
 41111  1  0  0  0
 41112  1  0  0  0
 41 48  1  0  0  0
 42 43  1  0  0  0
 42 66  1  0  0  0
 42113  1  0  0  0
 42114  1  0  0  0
 43 44  1  0  0  0
 44115  1  0  0  0
 45 46  2  0  0  0
 45116  1  0  0  0
 46117  1  0  0  0
 47118  1  0  0  0
 47119  1  0  0  0
 48 56  1  0  0  0
 48 65  1  0  0  0
 48120  1  0  0  0
 49 50  1  0  0  0
 49 53  1  0  0  0
 49 64  1  0  0  0
 49121  1  0  0  0
 50 51  1  0  0  0
 50122  1  0  0  0
 50123  1  0  0  0
 51 52  1  0  0  0
 51124  1  0  0  0
 51125  1  0  0  0
 52126  1  0  0  0
 52127  1  0  0  0
 53 54  1  0  0  0
 54 55  2  0  0  0
 54128  1  0  0  0
 55 57  1  0  0  0
 55129  1  0  0  0
 56 69  2  0  0  0
 57 58  2  0  0  0
 57130  1  0  0  0
 58131  1  0  0  0
 59 60  1  0  0  0
 59 61  1  0  0  0
 59 62  1  0  0  0
 60132  1  0  0  0
 60133  1  0  0  0
 60134  1  0  0  0
 61135  1  0  0  0
 61136  1  0  0  0
 61137  1  0  0  0
 62138  1  0  0  0
 62139  1  0  0  0
 62140  1  0  0  0
 63 65  1  0  0  0
 63141  1  0  0  0
 63142  1  0  0  0
 63143  1  0  0  0
 64144  1  0  0  0
 65145  1  0  0  0
 68 78  1  0  0  0
 71 73  2  0  0  0
 71 75  1  0  0  0
 71146  1  0  0  0
 72 74  1  0  0  0
 72 75  2  0  0  0
 72147  1  0  0  0
 73 76  1  0  0  0
 73148  1  0  0  0
 74 76  2  0  0  0
 74149  1  0  0  0
 75 79  1  0  0  0
 76 84  1  0  0  0
 77 78  2  0  0  0
 77 80  1  0  0  0
 77 81  1  0  0  0
 78150  1  0  0  0
 79 85  1  0  0  0
 79 86  2  0  0  0
 80 82  1  0  0  0
 80151  1  0  0  0
 80152  1  0  0  0
 81 83  1  0  0  0
 81153  1  0  0  0
 81154  1  0  0  0
 82 84  1  0  0  0
 82155  1  0  0  0
 82156  1  0  0  0
 83 84  1  0  0  0
 83157  1  0  0  0
 83158  1  0  0  0
 85159  1  0  0  0
M  ISO  4   1 100  68 101  78 101  85 100
M  END
> <chiral flag>
0

> <version>
0

> <s_m_source_file>
/data/baiqing/PycharmProjects/Reinvent-master-3.2/result/LINK_invent/BTK/process_docking_weight1_custom_product_contain_oxygen_bond_distance_aromatic_linkinvent_7_9_3/rearranged_h_0101.sdf

> <i_m_source_file_index>
25

> <r_mmod_Potential_Energy-OPLS-2005>
-61.5432167053223

> <r_mmod_Stretch_Energy-OPLS-2005>
34.8485565185547

> <r_mmod_Bend_Energy-OPLS-2005>
104.137817382812

> <r_mmod_Torsional_Energy-OPLS-2005>
277.81884765625

> <r_mmod_Improper_Torsional_Energy-OPLS-2005>
5.79231739044189

> <r_mmod_Van_der_Waal_Energy-OPLS-2005>
181.181884765625

> <r_mmod_Electrostatic_Energy-OPLS-2005>
-446.921569824219

> <r_mmod_Solvation_Energy-OPLS-2005>
-230.878509521484

> <b_mmod_Minimization_Converged-OPLS-2005>
0

> <r_mmod_RMS_Derivative-OPLS-2005>
1.80757772922516

$$$$
25
                    3D
 Structure written by MMmdl.
158166  0  0  1  0            999 V2000
  -30.7325  -14.4919   20.4849 C   0  0  0  0  0  0
  -30.4019  -12.2979   19.4430 C   0  0  0  0  0  0
  -29.4909  -12.4766   18.2134 C   0  0  0  0  0  0
  -28.0134  -12.3487   18.6257 C   0  0  0  0  0  0
  -27.6531  -13.2173   19.8622 C   0  0  2  0  0  0
  -28.6967  -13.0741   20.9932 C   0  0  0  0  0  0
  -25.2559  -13.8178   20.5678 C   0  0  0  0  0  0
  -24.1828  -13.0452   20.9201 C   0  0  0  0  0  0
  -24.6389  -11.6923   20.8769 C   0  0  0  0  0  0
  -23.9064  -10.4299   21.0418 C   0  0  0  0  0  0
  -24.3626   -9.4209   21.9187 C   0  0  0  0  0  0
  -23.6296   -8.2248   22.0761 C   0  0  0  0  0  0
  -22.4277   -8.0286   21.3552 C   0  0  0  0  0  0
  -21.9911   -9.0262   20.4657 C   0  0  0  0  0  0
  -22.7243  -10.2137   20.3061 C   0  0  0  0  0  0
  -21.6858   -6.0739   22.5278 C   0  0  0  0  0  0
  -21.4019   -6.5637   23.8214 C   0  0  0  0  0  0
  -21.3656   -5.6790   24.9176 C   0  0  0  0  0  0
  -21.6041   -4.3055   24.7229 C   0  0  0  0  0  0
  -21.8818   -3.8148   23.4351 C   0  0  0  0  0  0
  -21.9195   -4.6965   22.3403 C   0  0  0  0  0  0
  -22.7847  -13.5247   21.1855 C   0  0  0  0  0  0
  -22.1663   -4.2143   21.0989 F   0  0  0  0  0  0
  -21.5636   -3.4540   25.7743 F   0  0  0  0  0  0
  -30.0221  -13.3343   20.4181 N   0  0  0  0  0  0
  -26.2995  -12.9365   20.3340 N   0  0  0  0  0  0
  -25.9319  -11.6521   20.5787 N   0  0  0  0  0  0
  -22.0493  -12.8245   22.0409 N   0  0  0  0  0  0
  -25.4303  -15.1893   20.4061 N   0  0  0  0  0  0
  -31.9102  -14.5524   20.1276 O   0  0  0  0  0  0
  -21.6648   -6.8882   21.4238 O   0  0  0  0  0  0
  -22.3527  -14.5548   20.6688 O   0  0  0  0  0  0
  -24.6103  -31.8682   23.2108 C   0  0  0  0  0  0
  -25.9005  -32.4810   23.8410 C   0  0  1  0  0  0
  -27.2341  -27.4508   20.0853 C   0  0  0  0  0  0
  -25.5889  -33.8618   24.2353 N   0  0  0  0  0  0
  -23.3992  -30.4905   21.5513 C   0  0  2  0  0  0
  -24.8476  -28.9591   20.1135 C   0  0  0  0  0  0
  -22.7391  -29.4667   22.5016 C   0  0  0  0  0  0
  -18.0267  -28.1376   22.8448 C   0  0  0  0  0  0
  -24.1500  -36.7316   23.2648 C   0  0  0  0  0  0
  -25.9264  -30.8338   21.3661 C   0  0  0  0  0  0
  -26.0045  -29.4684   20.7178 C   0  0  0  0  0  0
  -27.2012  -28.7170   20.7118 C   0  0  0  0  0  0
  -26.0712  -26.9623   19.4580 C   0  0  0  0  0  0
  -24.8748  -27.7040   19.4813 C   0  0  0  0  0  0
  -23.6070  -29.8225   20.1657 C   0  0  0  0  0  0
  -25.4112  -36.3112   24.0355 C   0  0  1  0  0  0
  -20.5843  -28.3676   23.1316 C   0  0  2  0  0  0
  -20.6782  -26.9421   22.5393 C   0  0  0  0  0  0
  -19.5751  -26.6356   21.5211 C   0  0  0  0  0  0
  -18.1927  -26.7916   22.1600 C   0  0  0  0  0  0
  -19.1503  -28.8846   23.2880 C   0  0  0  0  0  0
  -18.9417  -30.1440   23.8912 C   0  0  0  0  0  0
  -17.6416  -30.6554   24.0589 C   0  0  0  0  0  0
  -25.9030  -34.9466   23.5145 C   0  0  0  0  0  0
  -16.5328  -29.9049   23.6307 C   0  0  0  0  0  0
  -16.7257  -28.6479   23.0295 C   0  0  0  0  0  0
  -26.4444  -31.6575   25.0722 C   0  0  0  0  0  0
  -25.3712  -31.3669   26.1490 C   0  0  0  0  0  0
  -27.0294  -30.3040   24.6068 C   0  0  0  0  0  0
  -27.6051  -32.4282   25.7448 C   0  0  0  0  0  0
  -27.5588  -37.1814   24.8472 C   0  0  0  0  0  0
  -21.4118  -29.3060   22.3743 N   0  0  0  0  0  0
  -26.4298  -37.3791   23.9418 N   0  0  0  0  0  0
  -24.6632  -31.0791   22.1006 N   0  0  0  0  0  0
  -23.4168  -28.8203   23.3054 O   0  0  0  0  0  0
  -28.3841  -26.6974   20.0537 O   0  0  0  0  0  0
  -26.5572  -34.8910   22.4694 O   0  0  0  0  0  0
  -23.5300  -32.1445   23.7501 O   0  0  0  0  0  0
  -30.1265  -19.2372   19.4105 C   0  0  0  0  0  0
  -29.0322  -20.0547   21.8370 C   0  0  0  0  0  0
  -29.9801  -18.2780   20.4403 C   0  0  0  0  0  0
  -29.7973  -20.5964   19.6000 C   0  0  0  0  0  0
  -29.4110  -18.7028   21.6636 C   0  0  0  0  0  0
  -29.2354  -21.0286   20.8317 C   0  0  0  0  0  0
  -30.6619  -16.9150   20.2240 C   0  0  0  0  0  0
  -27.7962  -24.4525   20.9923 C   0  0  0  0  0  0
  -28.5350  -25.8052   21.1644 C   0  0  0  0  0  0
  -28.5672  -23.3393   20.2416 C   0  0  0  0  0  0
  -30.1398  -21.4844   18.5840 N   0  0  0  0  0  0
  -29.2757  -17.8242   22.7370 N   0  0  0  0  0  0
  -30.0519  -15.6429   20.6769 N   0  0  0  0  0  0
  -28.9442  -22.3382   21.1949 O   0  0  0  0  0  0
  -31.4507  -12.3545   19.1452 H   0  0  0  0  0  0
  -30.2749  -11.3061   19.8797 H   0  0  0  0  0  0
  -29.7302  -11.7309   17.4545 H   0  0  0  0  0  0
  -29.6644  -13.4511   17.7544 H   0  0  0  0  0  0
  -27.8278  -11.2966   18.8456 H   0  0  0  0  0  0
  -27.3647  -12.6035   17.7861 H   0  0  0  0  0  0
  -27.6789  -14.2543   19.5278 H   0  0  0  0  0  0
  -28.6661  -12.0702   21.4203 H   0  0  0  0  0  0
  -28.4756  -13.7598   21.8121 H   0  0  0  0  0  0
  -25.2764   -9.5688   22.4780 H   0  0  0  0  0  0
  -24.0001   -7.4637   22.7484 H   0  0  0  0  0  0
  -21.0839   -8.8790   19.8958 H   0  0  0  0  0  0
  -22.3698  -10.9691   19.6188 H   0  0  0  0  0  0
  -21.2018   -7.6147   23.9713 H   0  0  0  0  0  0
  -21.1474   -6.0528   25.9076 H   0  0  0  0  0  0
  -22.0597   -2.7609   23.2861 H   0  0  0  0  0  0
  -22.4097  -11.9899   22.4795 H   0  0  0  0  0  0
  -21.1115  -13.1293   22.2615 H   0  0  0  0  0  0
  -24.6719  -15.8529   20.5185 H   0  0  0  0  0  0
  -26.2879  -15.6222   20.0882 H   0  0  0  0  0  0
  -26.7072  -32.5525   23.1175 H   0  0  0  0  0  0
  -25.0060  -33.9778   25.0517 H   0  0  0  0  0  0
  -22.6863  -31.3055   21.4115 H   0  0  0  0  0  0
  -23.3747  -35.9661   23.3312 H   0  0  0  0  0  0
  -24.3615  -36.8915   22.2065 H   0  0  0  0  0  0
  -23.7272  -37.6537   23.6639 H   0  0  0  0  0  0
  -26.0427  -31.6000   20.5969 H   0  0  0  0  0  0
  -26.8117  -30.8867   21.9861 H   0  0  0  0  0  0
  -28.0944  -29.1028   21.1832 H   0  0  0  0  0  0
  -26.0902  -26.0127   18.9435 H   0  0  0  0  0  0
  -23.9913  -27.3152   18.9939 H   0  0  0  0  0  0
  -23.7092  -30.5968   19.4041 H   0  0  0  0  0  0
  -22.7326  -29.2383   19.8730 H   0  0  0  0  0  0
  -25.1281  -36.1987   25.0842 H   0  0  0  0  0  0
  -20.9941  -28.3245   24.1435 H   0  0  0  0  0  0
  -20.5745  -26.2285   23.3577 H   0  0  0  0  0  0
  -21.6643  -26.7515   22.1154 H   0  0  0  0  0  0
  -19.6906  -25.6247   21.1263 H   0  0  0  0  0  0
  -19.6674  -27.3124   20.6717 H   0  0  0  0  0  0
  -17.4204  -26.6655   21.3992 H   0  0  0  0  0  0
  -18.0332  -26.0064   22.9001 H   0  0  0  0  0  0
  -19.7902  -30.7232   24.2313 H   0  0  0  0  0  0
  -17.4953  -31.6210   24.5231 H   0  0  0  0  0  0
  -15.5322  -30.2929   23.7626 H   0  0  0  0  0  0
  -15.8674  -28.0808   22.6969 H   0  0  0  0  0  0
  -24.5857  -30.7048   25.7823 H   0  0  0  0  0  0
  -24.8904  -32.2807   26.4992 H   0  0  0  0  0  0
  -25.8062  -30.8803   27.0231 H   0  0  0  0  0  0
  -26.2838  -29.6794   24.1123 H   0  0  0  0  0  0
  -27.4137  -29.7304   25.4515 H   0  0  0  0  0  0
  -27.8641  -30.4406   23.9179 H   0  0  0  0  0  0
  -27.2713  -33.3605   26.2038 H   0  0  0  0  0  0
  -28.3834  -32.6793   25.0220 H   0  0  0  0  0  0
  -28.0730  -31.8382   26.5340 H   0  0  0  0  0  0
  -28.2610  -38.0105   24.7503 H   0  0  0  0  0  0
  -28.1078  -36.2637   24.6304 H   0  0  0  0  0  0
  -27.2307  -37.1489   25.8876 H   0  0  0  0  0  0
  -20.9302  -29.8764   21.6930 H   0  0  0  0  0  0
  -26.0196  -38.2882   24.1373 H   0  0  0  0  0  0
  -30.5894  -18.9383   18.4808 H   0  0  0  0  0  0
  -28.6228  -20.3819   22.7816 H   0  0  0  0  0  0
  -31.6388  -17.0148   20.7005 H   0  0  0  0  0  0
  -30.8714  -16.8107   19.1572 H   0  0  0  0  0  0
  -26.8319  -24.6087   20.5159 H   0  0  0  0  0  0
  -27.5464  -24.0801   21.9855 H   0  0  0  0  0  0
  -29.5984  -25.6289   21.3345 H   0  0  0  0  0  0
  -28.1775  -26.2995   22.0707 H   0  0  0  0  0  0
  -29.4410  -23.7618   19.7462 H   0  0  0  0  0  0
  -27.9226  -22.9115   19.4716 H   0  0  0  0  0  0
  -30.8542  -21.1758   17.9322 H   0  0  0  0  0  0
  -30.2946  -22.4414   18.8781 H   0  0  0  0  0  0
  -29.2001  -18.2130   23.6716 H   0  0  0  0  0  0
  -29.8028  -16.9575   22.7086 H   0  0  0  0  0  0
  -29.0759  -15.6252   20.9307 H   0  0  0  0  0  0
  1 25  1  0  0  0
  1 30  2  0  0  0
  1 83  1  0  0  0
  2  3  1  0  0  0
  2 25  1  0  0  0
  2 85  1  0  0  0
  2 86  1  0  0  0
  3  4  1  0  0  0
  3 87  1  0  0  0
  3 88  1  0  0  0
  4  5  1  0  0  0
  4 89  1  0  0  0
  4 90  1  0  0  0
  5  6  1  0  0  0
  5 26  1  0  0  0
  5 91  1  0  0  0
  6 25  1  0  0  0
  6 92  1  0  0  0
  6 93  1  0  0  0
  7  8  2  0  0  0
  7 26  1  0  0  0
  7 29  1  0  0  0
  8  9  1  0  0  0
  8 22  1  0  0  0
  9 10  1  0  0  0
  9 27  2  0  0  0
 10 11  2  0  0  0
 10 15  1  0  0  0
 11 12  1  0  0  0
 11 94  1  0  0  0
 12 13  2  0  0  0
 12 95  1  0  0  0
 13 14  1  0  0  0
 13 31  1  0  0  0
 14 15  2  0  0  0
 14 96  1  0  0  0
 15 97  1  0  0  0
 16 17  2  0  0  0
 16 21  1  0  0  0
 16 31  1  0  0  0
 17 18  1  0  0  0
 17 98  1  0  0  0
 18 19  2  0  0  0
 18 99  1  0  0  0
 19 20  1  0  0  0
 19 24  1  0  0  0
 20 21  2  0  0  0
 20100  1  0  0  0
 21 23  1  0  0  0
 22 28  1  0  0  0
 22 32  2  0  0  0
 26 27  1  0  0  0
 28101  1  0  0  0
 28102  1  0  0  0
 29103  1  0  0  0
 29104  1  0  0  0
 33 34  1  0  0  0
 33 66  1  0  0  0
 33 70  2  0  0  0
 34 36  1  0  0  0
 34 59  1  0  0  0
 34105  1  0  0  0
 35 44  2  0  0  0
 35 45  1  0  0  0
 35 68  1  0  0  0
 36 56  1  0  0  0
 36106  1  0  0  0
 37 39  1  0  0  0
 37 47  1  0  0  0
 37 66  1  0  0  0
 37107  1  0  0  0
 38 43  2  0  0  0
 38 46  1  0  0  0
 38 47  1  0  0  0
 39 64  1  0  0  0
 39 67  2  0  0  0
 40 52  1  0  0  0
 40 53  2  0  0  0
 40 58  1  0  0  0
 41108  1  0  0  0
 41109  1  0  0  0
 41110  1  0  0  0
 41 48  1  0  0  0
 42 43  1  0  0  0
 42 66  1  0  0  0
 42111  1  0  0  0
 42112  1  0  0  0
 43 44  1  0  0  0
 44113  1  0  0  0
 45 46  2  0  0  0
 45114  1  0  0  0
 46115  1  0  0  0
 47116  1  0  0  0
 47117  1  0  0  0
 48 56  1  0  0  0
 48 65  1  0  0  0
 48118  1  0  0  0
 49 50  1  0  0  0
 49 53  1  0  0  0
 49 64  1  0  0  0
 49119  1  0  0  0
 50 51  1  0  0  0
 50120  1  0  0  0
 50121  1  0  0  0
 51 52  1  0  0  0
 51122  1  0  0  0
 51123  1  0  0  0
 52124  1  0  0  0
 52125  1  0  0  0
 53 54  1  0  0  0
 54 55  2  0  0  0
 54126  1  0  0  0
 55 57  1  0  0  0
 55127  1  0  0  0
 56 69  2  0  0  0
 57 58  2  0  0  0
 57128  1  0  0  0
 58129  1  0  0  0
 59 60  1  0  0  0
 59 61  1  0  0  0
 59 62  1  0  0  0
 60130  1  0  0  0
 60131  1  0  0  0
 60132  1  0  0  0
 61133  1  0  0  0
 61134  1  0  0  0
 61135  1  0  0  0
 62136  1  0  0  0
 62137  1  0  0  0
 62138  1  0  0  0
 63 65  1  0  0  0
 63139  1  0  0  0
 63140  1  0  0  0
 63141  1  0  0  0
 64142  1  0  0  0
 65143  1  0  0  0
 68 79  1  0  0  0
 71 73  2  0  0  0
 71 74  1  0  0  0
 71144  1  0  0  0
 72 75  2  0  0  0
 72 76  1  0  0  0
 72145  1  0  0  0
 73 75  1  0  0  0
 73 77  1  0  0  0
 74 76  2  0  0  0
 74 81  1  0  0  0
 75 82  1  0  0  0
 76 84  1  0  0  0
 77 83  1  0  0  0
 77146  1  0  0  0
 77147  1  0  0  0
 78 79  1  0  0  0
 78 80  1  0  0  0
 78148  1  0  0  0
 78149  1  0  0  0
 79150  1  0  0  0
 79151  1  0  0  0
 80 84  1  0  0  0
 80152  1  0  0  0
 80153  1  0  0  0
 81154  1  0  0  0
 81155  1  0  0  0
 82156  1  0  0  0
 82157  1  0  0  0
 83158  1  0  0  0
M  ISO  4   1 100  68 101  79 101  83 100
M  END
> <chiral flag>
0

> <version>
0

> <s_m_source_file>
/data/baiqing/PycharmProjects/Reinvent-master-3.2/result/LINK_invent/BTK/process_docking_weight1_custom_product_contain_oxygen_bond_distance_aromatic_linkinvent_7_9_3/rearranged_h_0101.sdf

> <i_m_source_file_index>
26

> <r_mmod_Potential_Energy-OPLS-2005>
-61.5339584350586

> <r_mmod_Stretch_Energy-OPLS-2005>
38.3418769836426

> <r_mmod_Bend_Energy-OPLS-2005>
127.337417602539

> <r_mmod_Torsional_Energy-OPLS-2005>
266.713500976562

> <r_mmod_Improper_Torsional_Energy-OPLS-2005>
16.5025939941406

> <r_mmod_Van_der_Waal_Energy-OPLS-2005>
160.703109741211

> <r_mmod_Electrostatic_Energy-OPLS-2005>
-471.749084472656

> <r_mmod_Solvation_Energy-OPLS-2005>
-219.704895019531

> <b_mmod_Minimization_Converged-OPLS-2005>
0

> <r_mmod_RMS_Derivative-OPLS-2005>
2.73638653755188

$$$$
26
                    3D
 Structure written by MMmdl.
155163  0  0  1  0            999 V2000
  -30.6705  -14.6238   20.5893 C   0  0  0  0  0  0
  -30.4302  -12.4097   19.4534 C   0  0  0  0  0  0
  -29.5050  -12.5271   18.2230 C   0  0  0  0  0  0
  -28.0289  -12.3550   18.6295 C   0  0  0  0  0  0
  -27.6508  -13.2204   19.8590 C   0  0  2  0  0  0
  -28.6867  -13.0650   20.9887 C   0  0  0  0  0  0
  -25.2548  -13.8181   20.5673 C   0  0  0  0  0  0
  -24.1818  -13.0439   20.9173 C   0  0  0  0  0  0
  -24.6392  -11.6912   20.8719 C   0  0  0  0  0  0
  -23.9065  -10.4294   21.0397 C   0  0  0  0  0  0
  -24.3617   -9.4212   21.9179 C   0  0  0  0  0  0
  -23.6293   -8.2247   22.0753 C   0  0  0  0  0  0
  -22.4275   -8.0282   21.3545 C   0  0  0  0  0  0
  -21.9908   -9.0254   20.4646 C   0  0  0  0  0  0
  -22.7235  -10.2133   20.3051 C   0  0  0  0  0  0
  -21.6854   -6.0736   22.5279 C   0  0  0  0  0  0
  -21.4015   -6.5639   23.8213 C   0  0  0  0  0  0
  -21.3660   -5.6792   24.9175 C   0  0  0  0  0  0
  -21.6044   -4.3055   24.7225 C   0  0  0  0  0  0
  -21.8819   -3.8147   23.4347 C   0  0  0  0  0  0
  -21.9193   -4.6963   22.3403 C   0  0  0  0  0  0
  -22.7844  -13.5231   21.1852 C   0  0  0  0  0  0
  -22.1661   -4.2149   21.0980 F   0  0  0  0  0  0
  -21.5629   -3.4539   25.7738 F   0  0  0  0  0  0
  -30.0092  -13.4234   20.4470 N   0  0  0  0  0  0
  -26.2968  -12.9367   20.3272 N   0  0  0  0  0  0
  -25.9316  -11.6516   20.5712 N   0  0  0  0  0  0
  -22.0493  -12.8220   22.0413 N   0  0  0  0  0  0
  -25.4277  -15.1903   20.4132 N   0  0  0  0  0  0
  -31.7676  -14.7993   20.0486 O   0  0  0  0  0  0
  -21.6640   -6.8878   21.4241 O   0  0  0  0  0  0
  -22.3525  -14.5539   20.6709 O   0  0  0  0  0  0
  -24.6256  -31.8594   23.2019 C   0  0  0  0  0  0
  -25.9104  -32.4777   23.8351 C   0  0  1  0  0  0
  -27.2246  -27.3220   20.1246 C   0  0  0  0  0  0
  -25.5920  -33.8578   24.2279 N   0  0  0  0  0  0
  -23.4196  -30.4817   21.5444 C   0  0  2  0  0  0
  -24.8671  -28.9333   20.1134 C   0  0  0  0  0  0
  -22.7471  -29.4621   22.4940 C   0  0  0  0  0  0
  -18.0284  -28.1383   22.8488 C   0  0  0  0  0  0
  -24.1489  -36.7294   23.2640 C   0  0  0  0  0  0
  -25.9594  -30.7920   21.3714 C   0  0  0  0  0  0
  -26.0353  -29.4182   20.7162 C   0  0  0  0  0  0
  -27.2204  -28.6251   20.7086 C   0  0  0  0  0  0
  -26.0386  -26.8867   19.4970 C   0  0  0  0  0  0
  -24.8699  -27.6726   19.4944 C   0  0  0  0  0  0
  -23.6346  -29.8133   20.1607 C   0  0  0  0  0  0
  -25.4113  -36.3083   24.0330 C   0  0  1  0  0  0
  -20.5884  -28.3687   23.1286 C   0  0  2  0  0  0
  -20.6773  -26.9411   22.5412 C   0  0  0  0  0  0
  -19.5750  -26.6384   21.5213 C   0  0  0  0  0  0
  -18.1929  -26.7927   22.1624 C   0  0  0  0  0  0
  -19.1536  -28.8852   23.2882 C   0  0  0  0  0  0
  -18.9460  -30.1454   23.8898 C   0  0  0  0  0  0
  -17.6460  -30.6587   24.0563 C   0  0  0  0  0  0
  -25.9048  -34.9452   23.5105 C   0  0  0  0  0  0
  -16.5351  -29.9085   23.6330 C   0  0  0  0  0  0
  -16.7272  -28.6502   23.0352 C   0  0  0  0  0  0
  -26.4492  -31.6586   25.0720 C   0  0  0  0  0  0
  -25.3730  -31.3717   26.1449 C   0  0  0  0  0  0
  -27.0338  -30.3013   24.6167 C   0  0  0  0  0  0
  -27.6052  -32.4321   25.7491 C   0  0  0  0  0  0
  -27.5579  -37.1802   24.8466 C   0  0  0  0  0  0
  -21.4185  -29.3040   22.3682 N   0  0  0  0  0  0
  -26.4292  -37.3777   23.9408 N   0  0  0  0  0  0
  -24.6870  -31.0609   22.0965 N   0  0  0  0  0  0
  -23.4194  -28.8165   23.3024 O   0  0  0  0  0  0
  -28.3399  -26.4754   20.1344 O   0  0  0  0  0  0
  -26.5619  -34.8919   22.4673 O   0  0  0  0  0  0
  -23.5420  -32.1389   23.7351 O   0  0  0  0  0  0
  -29.3501  -18.0223   21.8231 C   0  0  0  0  0  0
  -29.1651  -19.3986   21.4909 C   0  0  0  0  0  0
  -30.1623  -17.5627   19.6165 C   0  0  0  0  0  0
  -29.8710  -17.0483   20.9113 C   0  0  0  0  0  0
  -29.4897  -19.9046   20.2099 C   0  0  0  0  0  0
  -29.9848  -18.9418   19.2824 C   0  0  0  0  0  0
  -30.0397  -15.3767   22.7765 C   0  0  0  0  0  0
  -28.8659  -23.8684   19.9128 C   0  0  0  0  0  0
  -28.7589  -22.4169   20.5833 C   0  0  0  0  0  0
  -28.1547  -25.0946   20.6444 C   0  0  0  0  0  0
  -29.3624  -21.2825   19.8142 N   0  0  0  0  0  0
  -30.0803  -15.6357   21.3263 N   0  0  0  0  0  0
  -30.3073  -19.3545   18.0315 F   0  0  0  0  0  0
  -31.4721  -12.5291   19.1514 H   0  0  0  0  0  0
  -30.3653  -11.4105   19.8869 H   0  0  0  0  0  0
  -29.7755  -11.7815   17.4741 H   0  0  0  0  0  0
  -29.6444  -13.5006   17.7502 H   0  0  0  0  0  0
  -27.8686  -11.3005   18.8568 H   0  0  0  0  0  0
  -27.3749  -12.5872   17.7882 H   0  0  0  0  0  0
  -27.6749  -14.2599   19.5307 H   0  0  0  0  0  0
  -28.7004  -12.0390   21.3592 H   0  0  0  0  0  0
  -28.3862  -13.6756   21.8363 H   0  0  0  0  0  0
  -25.2764   -9.5690   22.4750 H   0  0  0  0  0  0
  -24.0004   -7.4640   22.7473 H   0  0  0  0  0  0
  -21.0838   -8.8772   19.8954 H   0  0  0  0  0  0
  -22.3693  -10.9670   19.6158 H   0  0  0  0  0  0
  -21.2008   -7.6148   23.9716 H   0  0  0  0  0  0
  -21.1482   -6.0523   25.9078 H   0  0  0  0  0  0
  -22.0598   -2.7609   23.2847 H   0  0  0  0  0  0
  -22.4111  -11.9877   22.4793 H   0  0  0  0  0  0
  -21.1114  -13.1247   22.2630 H   0  0  0  0  0  0
  -24.6680  -15.8507   20.5364 H   0  0  0  0  0  0
  -26.2927  -15.6306   20.1256 H   0  0  0  0  0  0
  -26.7172  -32.5451   23.1101 H   0  0  0  0  0  0
  -25.0068  -33.9722   25.0424 H   0  0  0  0  0  0
  -22.7133  -31.3019   21.3999 H   0  0  0  0  0  0
  -23.3750  -35.9628   23.3306 H   0  0  0  0  0  0
  -24.3579  -36.8911   22.2054 H   0  0  0  0  0  0
  -23.7244  -37.6498   23.6660 H   0  0  0  0  0  0
  -26.0880  -31.5545   20.6019 H   0  0  0  0  0  0
  -26.8407  -30.8431   21.9992 H   0  0  0  0  0  0
  -28.1197  -28.9939   21.1818 H   0  0  0  0  0  0
  -26.0102  -25.9212   19.0116 H   0  0  0  0  0  0
  -23.9755  -27.2966   19.0169 H   0  0  0  0  0  0
  -23.7535  -30.5882   19.4025 H   0  0  0  0  0  0
  -22.7549  -29.2416   19.8596 H   0  0  0  0  0  0
  -25.1294  -36.1937   25.0823 H   0  0  0  0  0  0
  -20.9975  -28.3261   24.1407 H   0  0  0  0  0  0
  -20.5674  -26.2296   23.3610 H   0  0  0  0  0  0
  -21.6642  -26.7441   22.1205 H   0  0  0  0  0  0
  -19.6912  -25.6295   21.1241 H   0  0  0  0  0  0
  -19.6687  -27.3196   20.6744 H   0  0  0  0  0  0
  -17.4199  -26.6675   21.4026 H   0  0  0  0  0  0
  -18.0330  -26.0068   22.9020 H   0  0  0  0  0  0
  -19.7936  -30.7270   24.2268 H   0  0  0  0  0  0
  -17.5015  -31.6267   24.5164 H   0  0  0  0  0  0
  -15.5352  -30.2988   23.7653 H   0  0  0  0  0  0
  -15.8672  -28.0821   22.7067 H   0  0  0  0  0  0
  -24.5912  -30.7056   25.7781 H   0  0  0  0  0  0
  -24.8911  -32.2879   26.4873 H   0  0  0  0  0  0
  -25.8061  -30.8901   27.0225 H   0  0  0  0  0  0
  -26.2909  -29.6760   24.1199 H   0  0  0  0  0  0
  -27.4052  -29.7271   25.4664 H   0  0  0  0  0  0
  -27.8770  -30.4306   23.9377 H   0  0  0  0  0  0
  -27.2664  -33.3622   26.2065 H   0  0  0  0  0  0
  -28.3864  -32.6878   25.0319 H   0  0  0  0  0  0
  -28.0719  -31.8448   26.5409 H   0  0  0  0  0  0
  -28.2598  -38.0097   24.7510 H   0  0  0  0  0  0
  -28.1073  -36.2628   24.6296 H   0  0  0  0  0  0
  -27.2296  -37.1457   25.8869 H   0  0  0  0  0  0
  -20.9363  -29.8760   21.6890 H   0  0  0  0  0  0
  -26.0174  -38.2853   24.1406 H   0  0  0  0  0  0
  -29.0778  -17.7381   22.8282 H   0  0  0  0  0  0
  -28.7770  -20.0654   22.2469 H   0  0  0  0  0  0
  -30.5519  -16.9082   18.8515 H   0  0  0  0  0  0
  -30.6964  -16.0681   23.3061 H   0  0  0  0  0  0
  -30.3663  -14.3718   23.0549 H   0  0  0  0  0  0
  -29.0276  -15.5002   23.1633 H   0  0  0  0  0  0
  -28.4656  -23.8137   18.9002 H   0  0  0  0  0  0
  -29.9220  -24.1141   19.7985 H   0  0  0  0  0  0
  -27.7060  -22.1852   20.7519 H   0  0  0  0  0  0
  -29.2211  -22.4505   21.5712 H   0  0  0  0  0  0
  -28.5205  -25.1144   21.6714 H   0  0  0  0  0  0
  -27.0965  -24.8525   20.7422 H   0  0  0  0  0  0
  -29.6355  -21.4734   18.8526 H   0  0  0  0  0  0
  1 25  1  0  0  0
  1 30  2  0  0  0
  1 82  1  0  0  0
  2  3  1  0  0  0
  2 25  1  0  0  0
  2 84  1  0  0  0
  2 85  1  0  0  0
  3  4  1  0  0  0
  3 86  1  0  0  0
  3 87  1  0  0  0
  4  5  1  0  0  0
  4 88  1  0  0  0
  4 89  1  0  0  0
  5  6  1  0  0  0
  5 26  1  0  0  0
  5 90  1  0  0  0
  6 25  1  0  0  0
  6 91  1  0  0  0
  6 92  1  0  0  0
  7  8  2  0  0  0
  7 26  1  0  0  0
  7 29  1  0  0  0
  8  9  1  0  0  0
  8 22  1  0  0  0
  9 10  1  0  0  0
  9 27  2  0  0  0
 10 11  2  0  0  0
 10 15  1  0  0  0
 11 12  1  0  0  0
 11 93  1  0  0  0
 12 13  2  0  0  0
 12 94  1  0  0  0
 13 14  1  0  0  0
 13 31  1  0  0  0
 14 15  2  0  0  0
 14 95  1  0  0  0
 15 96  1  0  0  0
 16 17  2  0  0  0
 16 21  1  0  0  0
 16 31  1  0  0  0
 17 18  1  0  0  0
 17 97  1  0  0  0
 18 19  2  0  0  0
 18 98  1  0  0  0
 19 20  1  0  0  0
 19 24  1  0  0  0
 20 21  2  0  0  0
 20 99  1  0  0  0
 21 23  1  0  0  0
 22 28  1  0  0  0
 22 32  2  0  0  0
 26 27  1  0  0  0
 28100  1  0  0  0
 28101  1  0  0  0
 29102  1  0  0  0
 29103  1  0  0  0
 33 34  1  0  0  0
 33 66  1  0  0  0
 33 70  2  0  0  0
 34 36  1  0  0  0
 34 59  1  0  0  0
 34104  1  0  0  0
 35 44  2  0  0  0
 35 45  1  0  0  0
 35 68  1  0  0  0
 36 56  1  0  0  0
 36105  1  0  0  0
 37 39  1  0  0  0
 37 47  1  0  0  0
 37 66  1  0  0  0
 37106  1  0  0  0
 38 43  2  0  0  0
 38 46  1  0  0  0
 38 47  1  0  0  0
 39 64  1  0  0  0
 39 67  2  0  0  0
 40 52  1  0  0  0
 40 53  2  0  0  0
 40 58  1  0  0  0
 41107  1  0  0  0
 41108  1  0  0  0
 41109  1  0  0  0
 41 48  1  0  0  0
 42 43  1  0  0  0
 42 66  1  0  0  0
 42110  1  0  0  0
 42111  1  0  0  0
 43 44  1  0  0  0
 44112  1  0  0  0
 45 46  2  0  0  0
 45113  1  0  0  0
 46114  1  0  0  0
 47115  1  0  0  0
 47116  1  0  0  0
 48 56  1  0  0  0
 48 65  1  0  0  0
 48117  1  0  0  0
 49 50  1  0  0  0
 49 53  1  0  0  0
 49 64  1  0  0  0
 49118  1  0  0  0
 50 51  1  0  0  0
 50119  1  0  0  0
 50120  1  0  0  0
 51 52  1  0  0  0
 51121  1  0  0  0
 51122  1  0  0  0
 52123  1  0  0  0
 52124  1  0  0  0
 53 54  1  0  0  0
 54 55  2  0  0  0
 54125  1  0  0  0
 55 57  1  0  0  0
 55126  1  0  0  0
 56 69  2  0  0  0
 57 58  2  0  0  0
 57127  1  0  0  0
 58128  1  0  0  0
 59 60  1  0  0  0
 59 61  1  0  0  0
 59 62  1  0  0  0
 60129  1  0  0  0
 60130  1  0  0  0
 60131  1  0  0  0
 61132  1  0  0  0
 61133  1  0  0  0
 61134  1  0  0  0
 62135  1  0  0  0
 62136  1  0  0  0
 62137  1  0  0  0
 63 65  1  0  0  0
 63138  1  0  0  0
 63139  1  0  0  0
 63140  1  0  0  0
 64141  1  0  0  0
 65142  1  0  0  0
 68 80  1  0  0  0
 71 72  2  0  0  0
 71 74  1  0  0  0
 71143  1  0  0  0
 72 75  1  0  0  0
 72144  1  0  0  0
 73 74  2  0  0  0
 73 76  1  0  0  0
 73145  1  0  0  0
 74 82  1  0  0  0
 75 76  2  0  0  0
 75 81  1  0  0  0
 76 83  1  0  0  0
 77 82  1  0  0  0
 77146  1  0  0  0
 77147  1  0  0  0
 77148  1  0  0  0
 78 79  1  0  0  0
 78 80  1  0  0  0
 78149  1  0  0  0
 78150  1  0  0  0
 79 81  1  0  0  0
 79151  1  0  0  0
 79152  1  0  0  0
 80153  1  0  0  0
 80154  1  0  0  0
 81155  1  0  0  0
M  ISO  4   1 100  68 101  80 101  82 100
M  END
> <chiral flag>
0

> <version>
0

> <s_m_source_file>
/data/baiqing/PycharmProjects/Reinvent-master-3.2/result/LINK_invent/BTK/process_docking_weight1_custom_product_contain_oxygen_bond_distance_aromatic_linkinvent_7_9_3/rearranged_h_0101.sdf

> <i_m_source_file_index>
27

> <r_mmod_Potential_Energy-OPLS-2005>
242.228363037109

> <r_mmod_Stretch_Energy-OPLS-2005>
88.7529220581055

> <r_mmod_Bend_Energy-OPLS-2005>
152.581359863281

> <r_mmod_Torsional_Energy-OPLS-2005>
274.758666992188

> <r_mmod_Improper_Torsional_Energy-OPLS-2005>
2.68701982498169

> <r_mmod_Van_der_Waal_Energy-OPLS-2005>
150.607131958008

> <r_mmod_Electrostatic_Energy-OPLS-2005>
-275.484802246094

> <r_mmod_Solvation_Energy-OPLS-2005>
-194.868286132812

> <b_mmod_Minimization_Converged-OPLS-2005>
0

> <r_mmod_RMS_Derivative-OPLS-2005>
0.0855522155761719

$$$$
27
                    3D
 Structure written by MMmdl.
150158  0  0  1  0            999 V2000
  -30.6068  -14.6767   20.4859 C   0  0  0  0  0  0
  -30.4403  -12.4122   19.4593 C   0  0  0  0  0  0
  -29.5106  -12.5080   18.2285 C   0  0  0  0  0  0
  -28.0338  -12.3410   18.6395 C   0  0  0  0  0  0
  -27.6511  -13.2185   19.8608 C   0  0  2  0  0  0
  -28.6960  -13.0917   20.9924 C   0  0  0  0  0  0
  -25.2554  -13.8173   20.5683 C   0  0  0  0  0  0
  -24.1826  -13.0438   20.9196 C   0  0  0  0  0  0
  -24.6396  -11.6908   20.8743 C   0  0  0  0  0  0
  -23.9064  -10.4291   21.0407 C   0  0  0  0  0  0
  -24.3616   -9.4207   21.9184 C   0  0  0  0  0  0
  -23.6290   -8.2243   22.0754 C   0  0  0  0  0  0
  -22.4273   -8.0281   21.3543 C   0  0  0  0  0  0
  -21.9908   -9.0256   20.4647 C   0  0  0  0  0  0
  -22.7236  -10.2135   20.3057 C   0  0  0  0  0  0
  -21.6854   -6.0735   22.5278 C   0  0  0  0  0  0
  -21.4016   -6.5639   23.8211 C   0  0  0  0  0  0
  -21.3659   -5.6791   24.9173 C   0  0  0  0  0  0
  -21.6043   -4.3054   24.7224 C   0  0  0  0  0  0
  -21.8819   -3.8146   23.4345 C   0  0  0  0  0  0
  -21.9193   -4.6962   22.3401 C   0  0  0  0  0  0
  -22.7848  -13.5230   21.1856 C   0  0  0  0  0  0
  -22.1661   -4.2148   21.0978 F   0  0  0  0  0  0
  -21.5628   -3.4538   25.7737 F   0  0  0  0  0  0
  -30.0074  -13.4426   20.4260 N   0  0  0  0  0  0
  -26.2979  -12.9355   20.3306 N   0  0  0  0  0  0
  -25.9324  -11.6510   20.5756 N   0  0  0  0  0  0
  -22.0488  -12.8225   22.0413 N   0  0  0  0  0  0
  -25.4263  -15.1897   20.4085 N   0  0  0  0  0  0
  -31.7770  -14.8269   20.1216 O   0  0  0  0  0  0
  -21.6639   -6.8878   21.4240 O   0  0  0  0  0  0
  -22.3534  -14.5535   20.6701 O   0  0  0  0  0  0
  -24.6279  -31.8583   23.2013 C   0  0  0  0  0  0
  -25.9118  -32.4771   23.8346 C   0  0  1  0  0  0
  -27.2233  -27.3013   20.1185 C   0  0  0  0  0  0
  -25.5926  -33.8572   24.2272 N   0  0  0  0  0  0
  -23.4224  -30.4821   21.5443 C   0  0  2  0  0  0
  -24.8689  -28.9355   20.1105 C   0  0  0  0  0  0
  -22.7483  -29.4617   22.4927 C   0  0  0  0  0  0
  -18.0288  -28.1385   22.8486 C   0  0  0  0  0  0
  -24.1489  -36.7292   23.2639 C   0  0  0  0  0  0
  -25.9655  -30.7838   21.3751 C   0  0  0  0  0  0
  -26.0393  -29.4103   20.7158 C   0  0  0  0  0  0
  -27.2195  -28.6055   20.7085 C   0  0  0  0  0  0
  -26.0280  -26.8849   19.4874 C   0  0  0  0  0  0
  -24.8664  -27.6793   19.4868 C   0  0  0  0  0  0
  -23.6379  -29.8177   20.1596 C   0  0  0  0  0  0
  -25.4114  -36.3079   24.0328 C   0  0  1  0  0  0
  -20.5890  -28.3691   23.1278 C   0  0  2  0  0  0
  -20.6776  -26.9412   22.5409 C   0  0  0  0  0  0
  -19.5751  -26.6383   21.5212 C   0  0  0  0  0  0
  -18.1932  -26.7927   22.1626 C   0  0  0  0  0  0
  -19.1541  -28.8855   23.2878 C   0  0  0  0  0  0
  -18.9463  -30.1457   23.8895 C   0  0  0  0  0  0
  -17.6462  -30.6587   24.0563 C   0  0  0  0  0  0
  -25.9052  -34.9448   23.5101 C   0  0  0  0  0  0
  -16.5354  -29.9085   23.6329 C   0  0  0  0  0  0
  -16.7275  -28.6503   23.0351 C   0  0  0  0  0  0
  -26.4495  -31.6587   25.0724 C   0  0  0  0  0  0
  -25.3724  -31.3732   26.1449 C   0  0  0  0  0  0
  -27.0341  -30.3007   24.6192 C   0  0  0  0  0  0
  -27.6050  -32.4327   25.7497 C   0  0  0  0  0  0
  -27.5579  -37.1801   24.8464 C   0  0  0  0  0  0
  -21.4195  -29.3044   22.3670 N   0  0  0  0  0  0
  -26.4291  -37.3774   23.9407 N   0  0  0  0  0  0
  -24.6909  -31.0582   22.0970 N   0  0  0  0  0  0
  -23.4200  -28.8155   23.3011 O   0  0  0  0  0  0
  -28.3346  -26.4386   20.1737 O   0  0  0  0  0  0
  -26.5622  -34.8918   22.4669 O   0  0  0  0  0  0
  -23.5438  -32.1387   23.7332 O   0  0  0  0  0  0
  -31.0735  -19.3280   20.1619 C   0  0  0  0  0  0
  -28.8199  -19.4610   20.9662 C   0  0  0  0  0  0
  -31.0390  -17.9004   20.2188 C   0  0  0  0  0  0
  -28.7843  -18.0277   21.0253 C   0  0  0  0  0  0
  -29.9793  -20.1639   20.5416 C   0  0  0  0  0  0
  -29.8924  -17.1981   20.6727 C   0  0  0  0  0  0
  -30.1830  -21.7020   20.6515 C   0  0  0  0  0  0
  -29.3055  -24.0265   20.4400 C   0  0  0  0  0  0
  -28.1051  -24.9690   20.0188 C   0  0  0  0  0  0
  -29.7812  -15.7336   20.8002 N   0  0  0  0  0  0
  -29.2078  -22.6402   20.3729 N   0  0  0  0  0  0
  -31.3264  -22.0403   20.9800 O   0  0  0  0  0  0
  -30.3264  -24.6080   20.8290 O   0  0  0  0  0  0
  -31.4808  -12.5424   19.1569 H   0  0  0  0  0  0
  -30.3822  -11.4208   19.9114 H   0  0  0  0  0  0
  -29.7809  -11.7508   17.4914 H   0  0  0  0  0  0
  -29.6475  -13.4737   17.7388 H   0  0  0  0  0  0
  -27.8758  -11.2886   18.8782 H   0  0  0  0  0  0
  -27.3792  -12.5619   17.7955 H   0  0  0  0  0  0
  -27.6629  -14.2502   19.5094 H   0  0  0  0  0  0
  -28.7157  -12.0742   21.3857 H   0  0  0  0  0  0
  -28.4372  -13.7320   21.8371 H   0  0  0  0  0  0
  -25.2763   -9.5681   22.4757 H   0  0  0  0  0  0
  -23.9999   -7.4635   22.7474 H   0  0  0  0  0  0
  -21.0838   -8.8777   19.8954 H   0  0  0  0  0  0
  -22.3696  -10.9675   19.6166 H   0  0  0  0  0  0
  -21.2011   -7.6147   23.9714 H   0  0  0  0  0  0
  -21.1480   -6.0522   25.9076 H   0  0  0  0  0  0
  -22.0599   -2.7608   23.2847 H   0  0  0  0  0  0
  -22.4103  -11.9889   22.4805 H   0  0  0  0  0  0
  -21.1107  -13.1257   22.2617 H   0  0  0  0  0  0
  -24.6543  -15.8401   20.5078 H   0  0  0  0  0  0
  -26.2636  -15.6250   20.0439 H   0  0  0  0  0  0
  -26.7186  -32.5435   23.1093 H   0  0  0  0  0  0
  -25.0067  -33.9712   25.0412 H   0  0  0  0  0  0
  -22.7170  -31.3033   21.4009 H   0  0  0  0  0  0
  -23.3749  -35.9627   23.3302 H   0  0  0  0  0  0
  -24.3580  -36.8914   22.2054 H   0  0  0  0  0  0
  -23.7245  -37.6495   23.6662 H   0  0  0  0  0  0
  -26.1000  -31.5474   20.6076 H   0  0  0  0  0  0
  -26.8447  -30.8314   22.0061 H   0  0  0  0  0  0
  -28.1166  -28.9648   21.1932 H   0  0  0  0  0  0
  -25.9595  -25.9267   18.9951 H   0  0  0  0  0  0
  -23.9699  -27.3109   19.0072 H   0  0  0  0  0  0
  -23.7587  -30.5946   19.4038 H   0  0  0  0  0  0
  -22.7572  -29.2488   19.8561 H   0  0  0  0  0  0
  -25.1295  -36.1930   25.0820 H   0  0  0  0  0  0
  -20.9983  -28.3268   24.1398 H   0  0  0  0  0  0
  -20.5678  -26.2301   23.3610 H   0  0  0  0  0  0
  -21.6645  -26.7440   22.1202 H   0  0  0  0  0  0
  -19.6912  -25.6294   21.1242 H   0  0  0  0  0  0
  -19.6687  -27.3192   20.6742 H   0  0  0  0  0  0
  -17.4199  -26.6671   21.4032 H   0  0  0  0  0  0
  -18.0336  -26.0071   22.9026 H   0  0  0  0  0  0
  -19.7938  -30.7274   24.2263 H   0  0  0  0  0  0
  -17.5016  -31.6266   24.5165 H   0  0  0  0  0  0
  -15.5354  -30.2987   23.7653 H   0  0  0  0  0  0
  -15.8676  -28.0821   22.7067 H   0  0  0  0  0  0
  -24.5895  -30.7087   25.7777 H   0  0  0  0  0  0
  -24.8923  -32.2903   26.4872 H   0  0  0  0  0  0
  -25.8044  -30.8908   27.0225 H   0  0  0  0  0  0
  -26.2921  -29.6756   24.1209 H   0  0  0  0  0  0
  -27.4025  -29.7265   25.4703 H   0  0  0  0  0  0
  -27.8796  -30.4288   23.9429 H   0  0  0  0  0  0
  -27.2653  -33.3625   26.2072 H   0  0  0  0  0  0
  -28.3860  -32.6892   25.0327 H   0  0  0  0  0  0
  -28.0717  -31.8456   26.5416 H   0  0  0  0  0  0
  -28.2594  -38.0101   24.7513 H   0  0  0  0  0  0
  -28.1079  -36.2632   24.6286 H   0  0  0  0  0  0
  -27.2298  -37.1445   25.8867 H   0  0  0  0  0  0
  -20.9373  -29.8771   21.6884 H   0  0  0  0  0  0
  -26.0172  -38.2849   24.1409 H   0  0  0  0  0  0
  -31.9968  -19.7957   19.8482 H   0  0  0  0  0  0
  -27.9556  -20.0182   21.2998 H   0  0  0  0  0  0
  -31.9261  -17.3565   19.9275 H   0  0  0  0  0  0
  -27.8748  -17.5622   21.3794 H   0  0  0  0  0  0
  -27.2398  -24.6693   20.6114 H   0  0  0  0  0  0
  -27.8774  -24.7506   18.9752 H   0  0  0  0  0  0
  -28.8733  -15.4168   21.1032 H   0  0  0  0  0  0
  -28.3231  -22.2684   20.0655 H   0  0  0  0  0  0
  1 25  1  0  0  0
  1 30  2  0  0  0
  1 80  1  0  0  0
  2  3  1  0  0  0
  2 25  1  0  0  0
  2 84  1  0  0  0
  2 85  1  0  0  0
  3  4  1  0  0  0
  3 86  1  0  0  0
  3 87  1  0  0  0
  4  5  1  0  0  0
  4 88  1  0  0  0
  4 89  1  0  0  0
  5  6  1  0  0  0
  5 26  1  0  0  0
  5 90  1  0  0  0
  6 25  1  0  0  0
  6 91  1  0  0  0
  6 92  1  0  0  0
  7  8  2  0  0  0
  7 26  1  0  0  0
  7 29  1  0  0  0
  8  9  1  0  0  0
  8 22  1  0  0  0
  9 10  1  0  0  0
  9 27  2  0  0  0
 10 11  2  0  0  0
 10 15  1  0  0  0
 11 12  1  0  0  0
 11 93  1  0  0  0
 12 13  2  0  0  0
 12 94  1  0  0  0
 13 14  1  0  0  0
 13 31  1  0  0  0
 14 15  2  0  0  0
 14 95  1  0  0  0
 15 96  1  0  0  0
 16 17  2  0  0  0
 16 21  1  0  0  0
 16 31  1  0  0  0
 17 18  1  0  0  0
 17 97  1  0  0  0
 18 19  2  0  0  0
 18 98  1  0  0  0
 19 20  1  0  0  0
 19 24  1  0  0  0
 20 21  2  0  0  0
 20 99  1  0  0  0
 21 23  1  0  0  0
 22 28  1  0  0  0
 22 32  2  0  0  0
 26 27  1  0  0  0
 28100  1  0  0  0
 28101  1  0  0  0
 29102  1  0  0  0
 29103  1  0  0  0
 33 34  1  0  0  0
 33 66  1  0  0  0
 33 70  2  0  0  0
 34 36  1  0  0  0
 34 59  1  0  0  0
 34104  1  0  0  0
 35 44  2  0  0  0
 35 45  1  0  0  0
 35 68  1  0  0  0
 36 56  1  0  0  0
 36105  1  0  0  0
 37 39  1  0  0  0
 37 47  1  0  0  0
 37 66  1  0  0  0
 37106  1  0  0  0
 38 43  2  0  0  0
 38 46  1  0  0  0
 38 47  1  0  0  0
 39 64  1  0  0  0
 39 67  2  0  0  0
 40 52  1  0  0  0
 40 53  2  0  0  0
 40 58  1  0  0  0
 41107  1  0  0  0
 41108  1  0  0  0
 41109  1  0  0  0
 41 48  1  0  0  0
 42 43  1  0  0  0
 42 66  1  0  0  0
 42110  1  0  0  0
 42111  1  0  0  0
 43 44  1  0  0  0
 44112  1  0  0  0
 45 46  2  0  0  0
 45113  1  0  0  0
 46114  1  0  0  0
 47115  1  0  0  0
 47116  1  0  0  0
 48 56  1  0  0  0
 48 65  1  0  0  0
 48117  1  0  0  0
 49 50  1  0  0  0
 49 53  1  0  0  0
 49 64  1  0  0  0
 49118  1  0  0  0
 50 51  1  0  0  0
 50119  1  0  0  0
 50120  1  0  0  0
 51 52  1  0  0  0
 51121  1  0  0  0
 51122  1  0  0  0
 52123  1  0  0  0
 52124  1  0  0  0
 53 54  1  0  0  0
 54 55  2  0  0  0
 54125  1  0  0  0
 55 57  1  0  0  0
 55126  1  0  0  0
 56 69  2  0  0  0
 57 58  2  0  0  0
 57127  1  0  0  0
 58128  1  0  0  0
 59 60  1  0  0  0
 59 61  1  0  0  0
 59 62  1  0  0  0
 60129  1  0  0  0
 60130  1  0  0  0
 60131  1  0  0  0
 61132  1  0  0  0
 61133  1  0  0  0
 61134  1  0  0  0
 62135  1  0  0  0
 62136  1  0  0  0
 62137  1  0  0  0
 63 65  1  0  0  0
 63138  1  0  0  0
 63139  1  0  0  0
 63140  1  0  0  0
 64141  1  0  0  0
 65142  1  0  0  0
 68 79  1  0  0  0
 71 73  2  0  0  0
 71 75  1  0  0  0
 71143  1  0  0  0
 72 74  1  0  0  0
 72 75  2  0  0  0
 72144  1  0  0  0
 73 76  1  0  0  0
 73145  1  0  0  0
 74 76  2  0  0  0
 74146  1  0  0  0
 75 77  1  0  0  0
 76 80  1  0  0  0
 77 81  1  0  0  0
 77 82  2  0  0  0
 78 79  1  0  0  0
 78 81  1  0  0  0
 78 83  2  0  0  0
 79147  1  0  0  0
 79148  1  0  0  0
 80149  1  0  0  0
 81150  1  0  0  0
M  ISO  4   1 100  68 101  79 101  80 100
M  END
> <chiral flag>
0

> <version>
0

> <s_m_source_file>
/data/baiqing/PycharmProjects/Reinvent-master-3.2/result/LINK_invent/BTK/process_docking_weight1_custom_product_contain_oxygen_bond_distance_aromatic_linkinvent_7_9_3/rearranged_h_0101.sdf

> <i_m_source_file_index>
28

> <r_mmod_Potential_Energy-OPLS-2005>
-55.1184234619141

> <r_mmod_Stretch_Energy-OPLS-2005>
92.2701950073242

> <r_mmod_Bend_Energy-OPLS-2005>
148.72624206543

> <r_mmod_Torsional_Energy-OPLS-2005>
220.304656982422

> <r_mmod_Improper_Torsional_Energy-OPLS-2005>
5.15767621994019

> <r_mmod_Van_der_Waal_Energy-OPLS-2005>
152.321136474609

> <r_mmod_Electrostatic_Energy-OPLS-2005>
-438.132751464844

> <r_mmod_Solvation_Energy-OPLS-2005>
-295.065979003906

> <b_mmod_Minimization_Converged-OPLS-2005>
0

> <r_mmod_RMS_Derivative-OPLS-2005>
0.221084013581276

$$$$
28
                    3D
 Structure written by MMmdl.
166175  0  0  1  0            999 V2000
  -30.7218  -14.4887   20.4539 C   0  0  0  0  0  0
  -30.4187  -12.2780   19.4448 C   0  0  0  0  0  0
  -29.4947  -12.3996   18.2157 C   0  0  0  0  0  0
  -28.0118  -12.3302   18.6249 C   0  0  0  0  0  0
  -27.6576  -13.2106   19.8552 C   0  0  2  0  0  0
  -28.7048  -13.0635   20.9827 C   0  0  0  0  0  0
  -25.2599  -13.8186   20.5675 C   0  0  0  0  0  0
  -24.1849  -13.0453   20.9169 C   0  0  0  0  0  0
  -24.6398  -11.6911   20.8730 C   0  0  0  0  0  0
  -23.9067  -10.4294   21.0403 C   0  0  0  0  0  0
  -24.3623   -9.4211   21.9184 C   0  0  0  0  0  0
  -23.6306   -8.2248   22.0753 C   0  0  0  0  0  0
  -22.4293   -8.0286   21.3534 C   0  0  0  0  0  0
  -21.9921   -9.0257   20.4643 C   0  0  0  0  0  0
  -22.7242  -10.2137   20.3051 C   0  0  0  0  0  0
  -21.6857   -6.0739   22.5268 C   0  0  0  0  0  0
  -21.4010   -6.5642   23.8202 C   0  0  0  0  0  0
  -21.3653   -5.6793   24.9163 C   0  0  0  0  0  0
  -21.6053   -4.3058   24.7212 C   0  0  0  0  0  0
  -21.8815   -3.8148   23.4339 C   0  0  0  0  0  0
  -21.9195   -4.6970   22.3392 C   0  0  0  0  0  0
  -22.7870  -13.5239   21.1834 C   0  0  0  0  0  0
  -22.1660   -4.2155   21.0974 F   0  0  0  0  0  0
  -21.5644   -3.4542   25.7730 F   0  0  0  0  0  0
  -30.0284  -13.3218   20.4035 N   0  0  0  0  0  0
  -26.3020  -12.9355   20.3306 N   0  0  0  0  0  0
  -25.9327  -11.6520   20.5784 N   0  0  0  0  0  0
  -22.0502  -12.8222   22.0386 N   0  0  0  0  0  0
  -25.4366  -15.1902   20.4085 N   0  0  0  0  0  0
  -31.9256  -14.5552   20.1994 O   0  0  0  0  0  0
  -21.6650   -6.8886   21.4234 O   0  0  0  0  0  0
  -22.3559  -14.5551   20.6698 O   0  0  0  0  0  0
  -24.6169  -31.8701   23.2132 C   0  0  0  0  0  0
  -25.9071  -32.4838   23.8414 C   0  0  1  0  0  0
  -27.2262  -27.4333   20.0869 C   0  0  0  0  0  0
  -25.5940  -33.8631   24.2355 N   0  0  0  0  0  0
  -23.4020  -30.4981   21.5548 C   0  0  2  0  0  0
  -24.8439  -28.9735   20.1117 C   0  0  0  0  0  0
  -22.7428  -29.4675   22.4999 C   0  0  0  0  0  0
  -18.0271  -28.1381   22.8494 C   0  0  0  0  0  0
  -24.1486  -36.7303   23.2631 C   0  0  0  0  0  0
  -25.9315  -30.8374   21.3645 C   0  0  0  0  0  0
  -26.0058  -29.4712   20.7137 C   0  0  0  0  0  0
  -27.1962  -28.7050   20.7065 C   0  0  0  0  0  0
  -26.0401  -26.9687   19.4604 C   0  0  0  0  0  0
  -24.8570  -27.7221   19.4818 C   0  0  0  0  0  0
  -23.6076  -29.8393   20.1657 C   0  0  0  0  0  0
  -25.4098  -36.3109   24.0349 C   0  0  1  0  0  0
  -20.5865  -28.3669   23.1325 C   0  0  2  0  0  0
  -20.6761  -26.9410   22.5411 C   0  0  0  0  0  0
  -19.5741  -26.6393   21.5206 C   0  0  0  0  0  0
  -18.1919  -26.7928   22.1616 C   0  0  0  0  0  0
  -19.1518  -28.8839   23.2906 C   0  0  0  0  0  0
  -18.9439  -30.1446   23.8910 C   0  0  0  0  0  0
  -17.6441  -30.6588   24.0557 C   0  0  0  0  0  0
  -25.9044  -34.9486   23.5135 C   0  0  0  0  0  0
  -16.5335  -29.9086   23.6324 C   0  0  0  0  0  0
  -16.7257  -28.6504   23.0344 C   0  0  0  0  0  0
  -26.4500  -31.6595   25.0721 C   0  0  0  0  0  0
  -25.3789  -31.3683   26.1489 C   0  0  0  0  0  0
  -27.0316  -30.3050   24.6053 C   0  0  0  0  0  0
  -27.6091  -32.4294   25.7483 C   0  0  0  0  0  0
  -27.5580  -37.1793   24.8456 C   0  0  0  0  0  0
  -21.4155  -29.3044   22.3753 N   0  0  0  0  0  0
  -26.4269  -37.3805   23.9437 N   0  0  0  0  0  0
  -24.6682  -31.0817   22.1032 N   0  0  0  0  0  0
  -23.4210  -28.8217   23.3028 O   0  0  0  0  0  0
  -28.3937  -26.6847   20.1200 O   0  0  0  0  0  0
  -26.5581  -34.8934   22.4683 O   0  0  0  0  0  0
  -23.5366  -32.1440   23.7544 O   0  0  0  0  0  0
  -31.6044  -19.2234   18.9204 C   0  0  0  0  0  0
  -31.3807  -18.1335   18.0719 C   0  0  0  0  0  0
  -30.5398  -18.0218   20.7537 C   0  0  0  0  0  0
  -31.1055  -19.2195   20.2393 C   0  0  0  0  0  0
  -30.7600  -16.9713   18.5588 C   0  0  0  0  0  0
  -30.4249  -16.8646   19.9389 C   0  0  0  0  0  0
  -29.4353  -23.8878   21.3910 C   0  0  0  0  0  0
  -29.3894  -23.1841   18.9997 C   0  0  0  0  0  0
  -30.4689  -22.7690   21.6630 C   0  0  0  0  0  0
  -30.4015  -22.0737   19.3218 C   0  0  0  0  0  0
  -29.4815  -24.4036   19.9360 C   0  0  1  0  0  0
  -30.4642  -15.8719   17.5600 C   0  0  0  0  0  0
  -31.2462  -20.4896   21.0906 C   0  0  0  0  0  0
  -28.3076  -25.3489   19.6050 C   0  0  0  0  0  0
  -29.9842  -15.6204   20.5018 N   0  0  0  0  0  0
  -30.3175  -21.6114   20.7360 N   0  3  1  0  0  0
  -31.4648  -12.3497   19.1395 H   0  0  0  0  0  0
  -30.3146  -11.2951   19.9057 H   0  0  0  0  0  0
  -29.7156  -11.5973   17.5107 H   0  0  0  0  0  0
  -29.6917  -13.3180   17.6738 H   0  0  0  0  0  0
  -27.7940  -11.2850   18.8470 H   0  0  0  0  0  0
  -27.3751  -12.5939   17.7790 H   0  0  0  0  0  0
  -27.6835  -14.2434   19.5074 H   0  0  0  0  0  0
  -28.6772  -12.0583   21.4073 H   0  0  0  0  0  0
  -28.4933  -13.7477   21.8055 H   0  0  0  0  0  0
  -25.2763   -9.5703   22.4756 H   0  0  0  0  0  0
  -24.0016   -7.4639   22.7473 H   0  0  0  0  0  0
  -21.0846   -8.8771   19.8951 H   0  0  0  0  0  0
  -22.3695  -10.9676   19.6164 H   0  0  0  0  0  0
  -21.1993   -7.6147   23.9704 H   0  0  0  0  0  0
  -21.1486   -6.0524   25.9067 H   0  0  0  0  0  0
  -22.0604   -2.7616   23.2825 H   0  0  0  0  0  0
  -22.4094  -11.9845   22.4723 H   0  0  0  0  0  0
  -21.1135  -13.1278   22.2617 H   0  0  0  0  0  0
  -24.6778  -15.8540   20.5170 H   0  0  0  0  0  0
  -26.2967  -15.6207   20.0942 H   0  0  0  0  0  0
  -26.7147  -32.5557   23.1177 H   0  0  0  0  0  0
  -25.0196  -33.9792   25.0576 H   0  0  0  0  0  0
  -22.6891  -31.3141   21.4217 H   0  0  0  0  0  0
  -23.3757  -35.9623   23.3261 H   0  0  0  0  0  0
  -24.3607  -36.8941   22.2053 H   0  0  0  0  0  0
  -23.7218  -37.6498   23.6647 H   0  0  0  0  0  0
  -26.0355  -31.6020   20.5932 H   0  0  0  0  0  0
  -26.8235  -30.8950   21.9766 H   0  0  0  0  0  0
  -28.0897  -29.0837   21.1831 H   0  0  0  0  0  0
  -25.9841  -26.0245   18.9397 H   0  0  0  0  0  0
  -23.9671  -27.3414   18.9988 H   0  0  0  0  0  0
  -23.7177  -30.6166   19.4086 H   0  0  0  0  0  0
  -22.7303  -29.2610   19.8688 H   0  0  0  0  0  0
  -25.1261  -36.1958   25.0838 H   0  0  0  0  0  0
  -20.9938  -28.3204   24.1451 H   0  0  0  0  0  0
  -20.5669  -26.2272   23.3590 H   0  0  0  0  0  0
  -21.6634  -26.7467   22.1199 H   0  0  0  0  0  0
  -19.6914  -25.6306   21.1231 H   0  0  0  0  0  0
  -19.6686  -27.3199   20.6732 H   0  0  0  0  0  0
  -17.4200  -26.6684   21.4006 H   0  0  0  0  0  0
  -18.0314  -26.0054   22.8998 H   0  0  0  0  0  0
  -19.7917  -30.7251   24.2288 H   0  0  0  0  0  0
  -17.5003  -31.6263   24.5168 H   0  0  0  0  0  0
  -15.5335  -30.2985   23.7656 H   0  0  0  0  0  0
  -15.8657  -28.0830   22.7050 H   0  0  0  0  0  0
  -24.5991  -30.6986   25.7845 H   0  0  0  0  0  0
  -24.8944  -32.2824   26.4925 H   0  0  0  0  0  0
  -25.8183  -30.8891   27.0248 H   0  0  0  0  0  0
  -26.2825  -29.6820   24.1152 H   0  0  0  0  0  0
  -27.4164  -29.7280   25.4468 H   0  0  0  0  0  0
  -27.8633  -30.4386   23.9131 H   0  0  0  0  0  0
  -27.2731  -33.3589   26.2086 H   0  0  0  0  0  0
  -28.3893  -32.6852   25.0300 H   0  0  0  0  0  0
  -28.0769  -31.8400   26.5377 H   0  0  0  0  0  0
  -28.2563  -38.0125   24.7562 H   0  0  0  0  0  0
  -28.1105  -36.2662   24.6174 H   0  0  0  0  0  0
  -27.2330  -37.1329   25.8867 H   0  0  0  0  0  0
  -20.9321  -29.8798   21.7000 H   0  0  0  0  0  0
  -26.0151  -38.2882   24.1455 H   0  0  0  0  0  0
  -32.1083  -20.0924   18.5210 H   0  0  0  0  0  0
  -31.6837  -18.1996   17.0359 H   0  0  0  0  0  0
  -30.2269  -17.9775   21.7878 H   0  0  0  0  0  0
  -29.6014  -24.7172   22.0791 H   0  0  0  0  0  0
  -28.4385  -23.5066   21.6178 H   0  0  0  0  0  0
  -28.3833  -22.7644   19.0457 H   0  0  0  0  0  0
  -29.5290  -23.5020   17.9655 H   0  0  0  0  0  0
  -30.3651  -22.4300   22.6944 H   0  0  0  0  0  0
  -31.4788  -23.1735   21.5700 H   0  0  0  0  0  0
  -31.4160  -22.4071   19.0948 H   0  0  0  0  0  0
  -30.1641  -21.2605   18.6399 H   0  0  0  0  0  0
  -30.4254  -24.9218   19.7567 H   0  0  0  0  0  0
  -30.4858  -16.2454   16.5353 H   0  0  0  0  0  0
  -29.4642  -15.4811   17.7390 H   0  0  0  0  0  0
  -31.1963  -15.0693   17.6356 H   0  0  0  0  0  0
  -32.2788  -20.8385   21.0277 H   0  0  0  0  0  0
  -31.0855  -20.2195   22.1353 H   0  0  0  0  0  0
  -27.4118  -24.8528   19.9820 H   0  0  0  0  0  0
  -28.2060  -25.4269   18.5205 H   0  0  0  0  0  0
  -29.0142  -15.5428   20.7663 H   0  0  0  0  0  0
  -29.3883  -21.2418   20.8698 H   0  0  0  0  0  0
  1 25  1  0  0  0
  1 30  2  0  0  0
  1 85  1  0  0  0
  2  3  1  0  0  0
  2 25  1  0  0  0
  2 87  1  0  0  0
  2 88  1  0  0  0
  3  4  1  0  0  0
  3 89  1  0  0  0
  3 90  1  0  0  0
  4  5  1  0  0  0
  4 91  1  0  0  0
  4 92  1  0  0  0
  5  6  1  0  0  0
  5 26  1  0  0  0
  5 93  1  0  0  0
  6 25  1  0  0  0
  6 94  1  0  0  0
  6 95  1  0  0  0
  7  8  2  0  0  0
  7 26  1  0  0  0
  7 29  1  0  0  0
  8  9  1  0  0  0
  8 22  1  0  0  0
  9 10  1  0  0  0
  9 27  2  0  0  0
 10 11  2  0  0  0
 10 15  1  0  0  0
 11 12  1  0  0  0
 11 96  1  0  0  0
 12 13  2  0  0  0
 12 97  1  0  0  0
 13 14  1  0  0  0
 13 31  1  0  0  0
 14 15  2  0  0  0
 14 98  1  0  0  0
 15 99  1  0  0  0
 16 17  2  0  0  0
 16 21  1  0  0  0
 16 31  1  0  0  0
 17 18  1  0  0  0
 17100  1  0  0  0
 18 19  2  0  0  0
 18101  1  0  0  0
 19 20  1  0  0  0
 19 24  1  0  0  0
 20 21  2  0  0  0
 20102  1  0  0  0
 21 23  1  0  0  0
 22 28  1  0  0  0
 22 32  2  0  0  0
 26 27  1  0  0  0
 28103  1  0  0  0
 28104  1  0  0  0
 29105  1  0  0  0
 29106  1  0  0  0
 33 34  1  0  0  0
 33 66  1  0  0  0
 33 70  2  0  0  0
 34 36  1  0  0  0
 34 59  1  0  0  0
 34107  1  0  0  0
 35 44  2  0  0  0
 35 45  1  0  0  0
 35 68  1  0  0  0
 36 56  1  0  0  0
 36108  1  0  0  0
 37 39  1  0  0  0
 37 47  1  0  0  0
 37 66  1  0  0  0
 37109  1  0  0  0
 38 43  2  0  0  0
 38 46  1  0  0  0
 38 47  1  0  0  0
 39 64  1  0  0  0
 39 67  2  0  0  0
 40 52  1  0  0  0
 40 53  2  0  0  0
 40 58  1  0  0  0
 41110  1  0  0  0
 41111  1  0  0  0
 41112  1  0  0  0
 41 48  1  0  0  0
 42 43  1  0  0  0
 42 66  1  0  0  0
 42113  1  0  0  0
 42114  1  0  0  0
 43 44  1  0  0  0
 44115  1  0  0  0
 45 46  2  0  0  0
 45116  1  0  0  0
 46117  1  0  0  0
 47118  1  0  0  0
 47119  1  0  0  0
 48 56  1  0  0  0
 48 65  1  0  0  0
 48120  1  0  0  0
 49 50  1  0  0  0
 49 53  1  0  0  0
 49 64  1  0  0  0
 49121  1  0  0  0
 50 51  1  0  0  0
 50122  1  0  0  0
 50123  1  0  0  0
 51 52  1  0  0  0
 51124  1  0  0  0
 51125  1  0  0  0
 52126  1  0  0  0
 52127  1  0  0  0
 53 54  1  0  0  0
 54 55  2  0  0  0
 54128  1  0  0  0
 55 57  1  0  0  0
 55129  1  0  0  0
 56 69  2  0  0  0
 57 58  2  0  0  0
 57130  1  0  0  0
 58131  1  0  0  0
 59 60  1  0  0  0
 59 61  1  0  0  0
 59 62  1  0  0  0
 60132  1  0  0  0
 60133  1  0  0  0
 60134  1  0  0  0
 61135  1  0  0  0
 61136  1  0  0  0
 61137  1  0  0  0
 62138  1  0  0  0
 62139  1  0  0  0
 62140  1  0  0  0
 63 65  1  0  0  0
 63141  1  0  0  0
 63142  1  0  0  0
 63143  1  0  0  0
 64144  1  0  0  0
 65145  1  0  0  0
 68 84  1  0  0  0
 71 72  2  0  0  0
 71 74  1  0  0  0
 71146  1  0  0  0
 72 75  1  0  0  0
 72147  1  0  0  0
 73 74  2  0  0  0
 73 76  1  0  0  0
 73148  1  0  0  0
 74 83  1  0  0  0
 75 76  2  0  0  0
 75 82  1  0  0  0
 76 85  1  0  0  0
 77 79  1  0  0  0
 77 81  1  0  0  0
 77149  1  0  0  0
 77150  1  0  0  0
 78 80  1  0  0  0
 78 81  1  0  0  0
 78151  1  0  0  0
 78152  1  0  0  0
 79 86  1  0  0  0
 79153  1  0  0  0
 79154  1  0  0  0
 80 86  1  0  0  0
 80155  1  0  0  0
 80156  1  0  0  0
 81 84  1  0  0  0
 81157  1  0  0  0
 82158  1  0  0  0
 82159  1  0  0  0
 82160  1  0  0  0
 83161  1  0  0  0
 83162  1  0  0  0
 83 86  1  0  0  0
 84163  1  0  0  0
 84164  1  0  0  0
 85165  1  0  0  0
 86166  1  0  0  0
M  CHG  1  86   1
M  ISO  4   1 100  68 101  84 101  85 100
M  END
> <chiral flag>
0

> <version>
0

> <s_m_source_file>
/data/baiqing/PycharmProjects/Reinvent-master-3.2/result/LINK_invent/BTK/process_docking_weight1_custom_product_contain_oxygen_bond_distance_aromatic_linkinvent_7_9_3/rearranged_h_0101.sdf

> <i_m_source_file_index>
29

> <r_mmod_Potential_Energy-OPLS-2005>
-110.746437072754

> <r_mmod_Stretch_Energy-OPLS-2005>
39.9860458374023

> <r_mmod_Bend_Energy-OPLS-2005>
103.003807067871

> <r_mmod_Torsional_Energy-OPLS-2005>
271.62158203125

> <r_mmod_Improper_Torsional_Energy-OPLS-2005>
7.41835451126099

> <r_mmod_Van_der_Waal_Energy-OPLS-2005>
173.0859375

> <r_mmod_Electrostatic_Energy-OPLS-2005>
-285.242095947266

> <r_mmod_Solvation_Energy-OPLS-2005>
-447.203155517578

> <b_mmod_Minimization_Converged-OPLS-2005>
0

> <r_mmod_RMS_Derivative-OPLS-2005>
2.26148891448975

$$$$
29
                    3D
 Structure written by MMmdl.
158167  0  0  1  0            999 V2000
  -30.6172  -14.6319   20.5064 C   0  0  0  0  0  0
  -30.4367  -12.3852   19.4507 C   0  0  0  0  0  0
  -29.5073  -12.5332   18.2261 C   0  0  0  0  0  0
  -28.0298  -12.3682   18.6378 C   0  0  0  0  0  0
  -27.6565  -13.2189   19.8815 C   0  0  2  0  0  0
  -28.7026  -13.0535   21.0069 C   0  0  0  0  0  0
  -25.2543  -13.8188   20.5725 C   0  0  0  0  0  0
  -24.1804  -13.0436   20.9185 C   0  0  0  0  0  0
  -24.6392  -11.6916   20.8738 C   0  0  0  0  0  0
  -23.9076  -10.4296   21.0395 C   0  0  0  0  0  0
  -24.3615   -9.4210   21.9177 C   0  0  0  0  0  0
  -23.6280   -8.2246   22.0764 C   0  0  0  0  0  0
  -22.4249   -8.0298   21.3560 C   0  0  0  0  0  0
  -21.9899   -9.0259   20.4652 C   0  0  0  0  0  0
  -22.7248  -10.2127   20.3056 C   0  0  0  0  0  0
  -21.6851   -6.0738   22.5281 C   0  0  0  0  0  0
  -21.4017   -6.5648   23.8216 C   0  0  0  0  0  0
  -21.3677   -5.6801   24.9171 C   0  0  0  0  0  0
  -21.6040   -4.3056   24.7227 C   0  0  0  0  0  0
  -21.8820   -3.8151   23.4345 C   0  0  0  0  0  0
  -21.9188   -4.6966   22.3387 C   0  0  0  0  0  0
  -22.7825  -13.5229   21.1882 C   0  0  0  0  0  0
  -22.1652   -4.2162   21.0958 F   0  0  0  0  0  0
  -21.5643   -3.4536   25.7738 F   0  0  0  0  0  0
  -30.0214  -13.3993   20.4439 N   0  0  0  0  0  0
  -26.2989  -12.9371   20.3396 N   0  0  0  0  0  0
  -25.9327  -11.6520   20.5807 N   0  0  0  0  0  0
  -22.0473  -12.8184   22.0426 N   0  0  0  0  0  0
  -25.4229  -15.1940   20.4258 N   0  0  0  0  0  0
  -31.7445  -14.8320   20.0432 O   0  0  0  0  0  0
  -21.6637   -6.8874   21.4243 O   0  0  0  0  0  0
  -22.3496  -14.5530   20.6768 O   0  0  0  0  0  0
  -24.6277  -31.8633   23.2031 C   0  0  0  0  0  0
  -25.9124  -32.4802   23.8373 C   0  0  1  0  0  0
  -27.2162  -27.2993   20.1069 C   0  0  0  0  0  0
  -25.5932  -33.8606   24.2268 N   0  0  0  0  0  0
  -23.4206  -30.4870   21.5445 C   0  0  2  0  0  0
  -24.8691  -28.9414   20.1050 C   0  0  0  0  0  0
  -22.7447  -29.4666   22.4920 C   0  0  0  0  0  0
  -18.0280  -28.1432   22.8513 C   0  0  0  0  0  0
  -24.1488  -36.7315   23.2642 C   0  0  0  0  0  0
  -25.9639  -30.7774   21.3843 C   0  0  0  0  0  0
  -26.0344  -29.4030   20.7300 C   0  0  0  0  0  0
  -27.2040  -28.5836   20.7415 C   0  0  0  0  0  0
  -26.0432  -26.9192   19.4256 C   0  0  0  0  0  0
  -24.8756  -27.7026   19.4484 C   0  0  0  0  0  0
  -23.6348  -29.8212   20.1603 C   0  0  0  0  0  0
  -25.4116  -36.3091   24.0320 C   0  0  1  0  0  0
  -20.5885  -28.3756   23.1298 C   0  0  2  0  0  0
  -20.6792  -26.9475   22.5435 C   0  0  0  0  0  0
  -19.5748  -26.6414   21.5258 C   0  0  0  0  0  0
  -18.1916  -26.7971   22.1647 C   0  0  0  0  0  0
  -19.1535  -28.8894   23.2911 C   0  0  0  0  0  0
  -18.9448  -30.1497   23.8944 C   0  0  0  0  0  0
  -17.6445  -30.6630   24.0592 C   0  0  0  0  0  0
  -25.9051  -34.9462   23.5086 C   0  0  0  0  0  0
  -16.5348  -29.9132   23.6353 C   0  0  0  0  0  0
  -16.7264  -28.6549   23.0387 C   0  0  0  0  0  0
  -26.4478  -31.6625   25.0781 C   0  0  0  0  0  0
  -25.3676  -31.3774   26.1492 C   0  0  0  0  0  0
  -27.0334  -30.3040   24.6294 C   0  0  0  0  0  0
  -27.6031  -32.4381   25.7558 C   0  0  0  0  0  0
  -27.5577  -37.1807   24.8448 C   0  0  0  0  0  0
  -21.4158  -29.3105   22.3653 N   0  0  0  0  0  0
  -26.4288  -37.3792   23.9416 N   0  0  0  0  0  0
  -24.6890  -31.0608   22.0987 N   0  0  0  0  0  0
  -23.4158  -28.8211   23.3004 O   0  0  0  0  0  0
  -28.3156  -26.4267   20.2037 O   0  0  0  0  0  0
  -26.5597  -34.8923   22.4644 O   0  0  0  0  0  0
  -23.5444  -32.1456   23.7368 O   0  0  0  0  0  0
  -29.4741  -19.2204   19.6586 C   0  0  0  0  0  0
  -29.8462  -17.8320   19.7043 C   0  0  0  0  0  0
  -29.5467  -17.8436   22.0852 C   0  0  0  0  0  0
  -29.0813  -19.9462   20.8232 C   0  0  0  0  0  0
  -29.8231  -17.0904   20.9221 C   0  0  0  0  0  0
  -29.2238  -19.2289   22.0503 C   0  0  0  0  0  0
  -26.5854  -23.4593   20.3363 C   0  0  0  0  0  0
  -26.4582  -22.6360   21.6070 C   0  0  0  0  0  0
  -27.1100  -21.2462   21.4628 C   0  0  0  0  0  0
  -29.0240  -22.5654   20.3976 C   0  0  0  0  0  0
  -28.0066  -23.6580   19.7980 C   0  0  2  0  0  0
  -28.4350  -25.1755   19.4088 C   0  0  0  0  0  0
  -28.4182  -21.2372   20.7752 N   0  0  0  0  0  0
  -29.8551  -15.6295   21.0444 N   0  0  0  0  0  0
  -25.5806  -23.8476   19.7356 O   0  0  0  0  0  0
  -29.0109  -19.8530   23.2349 F   0  0  0  0  0  0
  -31.4820  -12.5008   19.1524 H   0  0  0  0  0  0
  -30.3491  -11.3819   19.8714 H   0  0  0  0  0  0
  -29.7656  -11.8076   17.4548 H   0  0  0  0  0  0
  -29.6558  -13.5168   17.7785 H   0  0  0  0  0  0
  -27.8601  -11.3123   18.8517 H   0  0  0  0  0  0
  -27.3747  -12.6191   17.8036 H   0  0  0  0  0  0
  -27.6816  -14.2606   19.5663 H   0  0  0  0  0  0
  -28.7083  -12.0279   21.3784 H   0  0  0  0  0  0
  -28.4481  -13.6688   21.8703 H   0  0  0  0  0  0
  -25.2770   -9.5680   22.4738 H   0  0  0  0  0  0
  -24.0005   -7.4622   22.7471 H   0  0  0  0  0  0
  -21.0847   -8.8758   19.8940 H   0  0  0  0  0  0
  -22.3710  -10.9642   19.6150 H   0  0  0  0  0  0
  -21.1998   -7.6153   23.9732 H   0  0  0  0  0  0
  -21.1518   -6.0521   25.9079 H   0  0  0  0  0  0
  -22.0582   -2.7620   23.2849 H   0  0  0  0  0  0
  -22.4066  -11.9802   22.4739 H   0  0  0  0  0  0
  -21.1141  -13.1255   22.2735 H   0  0  0  0  0  0
  -24.6594  -15.8519   20.5521 H   0  0  0  0  0  0
  -26.2901  -15.6440   20.1621 H   0  0  0  0  0  0
  -26.7183  -32.5435   23.1113 H   0  0  0  0  0  0
  -25.0037  -33.9766   25.0386 H   0  0  0  0  0  0
  -22.7164  -31.3105   21.3999 H   0  0  0  0  0  0
  -23.3764  -35.9639   23.3283 H   0  0  0  0  0  0
  -24.3541  -36.8961   22.2050 H   0  0  0  0  0  0
  -23.7239  -37.6506   23.6689 H   0  0  0  0  0  0
  -26.0967  -31.5306   20.6051 H   0  0  0  0  0  0
  -26.8413  -30.8372   22.0123 H   0  0  0  0  0  0
  -28.0879  -28.9198   21.2652 H   0  0  0  0  0  0
  -25.9931  -26.0014   18.8705 H   0  0  0  0  0  0
  -23.9901  -27.3462   18.9412 H   0  0  0  0  0  0
  -23.7500  -30.5974   19.4031 H   0  0  0  0  0  0
  -22.7546  -29.2502   19.8583 H   0  0  0  0  0  0
  -25.1299  -36.1941   25.0810 H   0  0  0  0  0  0
  -20.9993  -28.3394   24.1412 H   0  0  0  0  0  0
  -20.5793  -26.2360   23.3659 H   0  0  0  0  0  0
  -21.6644  -26.7553   22.1172 H   0  0  0  0  0  0
  -19.6932  -25.6326   21.1273 H   0  0  0  0  0  0
  -19.6704  -27.3244   20.6805 H   0  0  0  0  0  0
  -17.4207  -26.6780   21.4010 H   0  0  0  0  0  0
  -18.0279  -26.0134   22.9049 H   0  0  0  0  0  0
  -19.7924  -30.7321   24.2323 H   0  0  0  0  0  0
  -17.5014  -31.6296   24.5213 H   0  0  0  0  0  0
  -15.5358  -30.3065   23.7657 H   0  0  0  0  0  0
  -15.8655  -28.0871   22.7106 H   0  0  0  0  0  0
  -24.5942  -30.7016   25.7830 H   0  0  0  0  0  0
  -24.8760  -32.2928   26.4797 H   0  0  0  0  0  0
  -25.7989  -30.9072   27.0343 H   0  0  0  0  0  0
  -26.2924  -29.6808   24.1281 H   0  0  0  0  0  0
  -27.3941  -29.7310   25.4845 H   0  0  0  0  0  0
  -27.8831  -30.4298   23.9586 H   0  0  0  0  0  0
  -27.2634  -33.3720   26.2066 H   0  0  0  0  0  0
  -28.3869  -32.6896   25.0393 H   0  0  0  0  0  0
  -28.0687  -31.8575   26.5528 H   0  0  0  0  0  0
  -28.2560  -38.0137   24.7514 H   0  0  0  0  0  0
  -28.1087  -36.2649   24.6228 H   0  0  0  0  0  0
  -27.2278  -37.1401   25.8847 H   0  0  0  0  0  0
  -20.9365  -29.8803   21.6822 H   0  0  0  0  0  0
  -26.0156  -38.2861   24.1467 H   0  0  0  0  0  0
  -29.4163  -19.7059   18.6950 H   0  0  0  0  0  0
  -30.0664  -17.3260   18.7767 H   0  0  0  0  0  0
  -29.5396  -17.3428   23.0436 H   0  0  0  0  0  0
  -25.4028  -22.5285   21.8612 H   0  0  0  0  0  0
  -26.9266  -23.1889   22.4198 H   0  0  0  0  0  0
  -26.4286  -20.5947   20.9113 H   0  0  0  0  0  0
  -27.1670  -20.8164   22.4620 H   0  0  0  0  0  0
  -29.5227  -22.9802   21.2748 H   0  0  0  0  0  0
  -29.8067  -22.3769   19.6617 H   0  0  0  0  0  0
  -27.8785  -23.2402   18.7986 H   0  0  0  0  0  0
  -28.0379  -25.3835   18.4167 H   0  0  0  0  0  0
  -29.5058  -25.1121   19.2190 H   0  0  0  0  0  0
  -29.0803  -15.2484   21.5654 H   0  0  0  0  0  0
  1 25  1  0  0  0
  1 30  2  0  0  0
  1 84  1  0  0  0
  2  3  1  0  0  0
  2 25  1  0  0  0
  2 87  1  0  0  0
  2 88  1  0  0  0
  3  4  1  0  0  0
  3 89  1  0  0  0
  3 90  1  0  0  0
  4  5  1  0  0  0
  4 91  1  0  0  0
  4 92  1  0  0  0
  5  6  1  0  0  0
  5 26  1  0  0  0
  5 93  1  0  0  0
  6 25  1  0  0  0
  6 94  1  0  0  0
  6 95  1  0  0  0
  7  8  2  0  0  0
  7 26  1  0  0  0
  7 29  1  0  0  0
  8  9  1  0  0  0
  8 22  1  0  0  0
  9 10  1  0  0  0
  9 27  2  0  0  0
 10 11  2  0  0  0
 10 15  1  0  0  0
 11 12  1  0  0  0
 11 96  1  0  0  0
 12 13  2  0  0  0
 12 97  1  0  0  0
 13 14  1  0  0  0
 13 31  1  0  0  0
 14 15  2  0  0  0
 14 98  1  0  0  0
 15 99  1  0  0  0
 16 17  2  0  0  0
 16 21  1  0  0  0
 16 31  1  0  0  0
 17 18  1  0  0  0
 17100  1  0  0  0
 18 19  2  0  0  0
 18101  1  0  0  0
 19 20  1  0  0  0
 19 24  1  0  0  0
 20 21  2  0  0  0
 20102  1  0  0  0
 21 23  1  0  0  0
 22 28  1  0  0  0
 22 32  2  0  0  0
 26 27  1  0  0  0
 28103  1  0  0  0
 28104  1  0  0  0
 29105  1  0  0  0
 29106  1  0  0  0
 33 34  1  0  0  0
 33 66  1  0  0  0
 33 70  2  0  0  0
 34 36  1  0  0  0
 34 59  1  0  0  0
 34107  1  0  0  0
 35 44  2  0  0  0
 35 45  1  0  0  0
 35 68  1  0  0  0
 36 56  1  0  0  0
 36108  1  0  0  0
 37 39  1  0  0  0
 37 47  1  0  0  0
 37 66  1  0  0  0
 37109  1  0  0  0
 38 43  2  0  0  0
 38 46  1  0  0  0
 38 47  1  0  0  0
 39 64  1  0  0  0
 39 67  2  0  0  0
 40 52  1  0  0  0
 40 53  2  0  0  0
 40 58  1  0  0  0
 41110  1  0  0  0
 41111  1  0  0  0
 41112  1  0  0  0
 41 48  1  0  0  0
 42 43  1  0  0  0
 42 66  1  0  0  0
 42113  1  0  0  0
 42114  1  0  0  0
 43 44  1  0  0  0
 44115  1  0  0  0
 45 46  2  0  0  0
 45116  1  0  0  0
 46117  1  0  0  0
 47118  1  0  0  0
 47119  1  0  0  0
 48 56  1  0  0  0
 48 65  1  0  0  0
 48120  1  0  0  0
 49 50  1  0  0  0
 49 53  1  0  0  0
 49 64  1  0  0  0
 49121  1  0  0  0
 50 51  1  0  0  0
 50122  1  0  0  0
 50123  1  0  0  0
 51 52  1  0  0  0
 51124  1  0  0  0
 51125  1  0  0  0
 52126  1  0  0  0
 52127  1  0  0  0
 53 54  1  0  0  0
 54 55  2  0  0  0
 54128  1  0  0  0
 55 57  1  0  0  0
 55129  1  0  0  0
 56 69  2  0  0  0
 57 58  2  0  0  0
 57130  1  0  0  0
 58131  1  0  0  0
 59 60  1  0  0  0
 59 61  1  0  0  0
 59 62  1  0  0  0
 60132  1  0  0  0
 60133  1  0  0  0
 60134  1  0  0  0
 61135  1  0  0  0
 61136  1  0  0  0
 61137  1  0  0  0
 62138  1  0  0  0
 62139  1  0  0  0
 62140  1  0  0  0
 63 65  1  0  0  0
 63141  1  0  0  0
 63142  1  0  0  0
 63143  1  0  0  0
 64144  1  0  0  0
 65145  1  0  0  0
 68 82  1  0  0  0
 71 72  2  0  0  0
 71 74  1  0  0  0
 71146  1  0  0  0
 72 75  1  0  0  0
 72147  1  0  0  0
 73 75  2  0  0  0
 73 76  1  0  0  0
 73148  1  0  0  0
 74 76  2  0  0  0
 74 83  1  0  0  0
 75 84  1  0  0  0
 76 86  1  0  0  0
 77 78  1  0  0  0
 77 81  1  0  0  0
 77 85  2  0  0  0
 78 79  1  0  0  0
 78149  1  0  0  0
 78150  1  0  0  0
 79 83  1  0  0  0
 79151  1  0  0  0
 79152  1  0  0  0
 80 81  1  0  0  0
 80 83  1  0  0  0
 80153  1  0  0  0
 80154  1  0  0  0
 81 82  1  0  0  0
 81155  1  0  0  0
 82156  1  0  0  0
 82157  1  0  0  0
 84158  1  0  0  0
M  ISO  4   1 100  68 101  82 101  84 100
M  END
> <chiral flag>
0

> <version>
0

> <s_m_source_file>
/data/baiqing/PycharmProjects/Reinvent-master-3.2/result/LINK_invent/BTK/process_docking_weight1_custom_product_contain_oxygen_bond_distance_aromatic_linkinvent_7_9_3/rearranged_h_0101.sdf

> <i_m_source_file_index>
30

> <r_mmod_Potential_Energy-OPLS-2005>
202.784713745117

> <r_mmod_Stretch_Energy-OPLS-2005>
95.3648986816406

> <r_mmod_Bend_Energy-OPLS-2005>
212.331481933594

> <r_mmod_Torsional_Energy-OPLS-2005>
251.202835083008

> <r_mmod_Improper_Torsional_Energy-OPLS-2005>
5.77939081192017

> <r_mmod_Van_der_Waal_Energy-OPLS-2005>
151.830535888672

> <r_mmod_Electrostatic_Energy-OPLS-2005>
-341.539794921875

> <r_mmod_Solvation_Energy-OPLS-2005>
-227.146362304688

> <b_mmod_Minimization_Converged-OPLS-2005>
0

> <r_mmod_RMS_Derivative-OPLS-2005>
4.44240283966064

$$$$
30
                    3D
 Structure written by MMmdl.
159168  0  0  1  0            999 V2000
  -30.7197  -14.4499   20.6035 C   0  0  0  0  0  0
  -30.4186  -12.3092   19.4067 C   0  0  0  0  0  0
  -29.4882  -12.5153   18.1957 C   0  0  0  0  0  0
  -28.0103  -12.3730   18.6109 C   0  0  0  0  0  0
  -27.6594  -13.2080   19.8721 C   0  0  2  0  0  0
  -28.7026  -12.9793   20.9882 C   0  0  0  0  0  0
  -25.2572  -13.8163   20.5674 C   0  0  0  0  0  0
  -24.1828  -13.0437   20.9174 C   0  0  0  0  0  0
  -24.6390  -11.6907   20.8733 C   0  0  0  0  0  0
  -23.9058  -10.4291   21.0405 C   0  0  0  0  0  0
  -24.3612   -9.4204   21.9178 C   0  0  0  0  0  0
  -23.6288   -8.2234   22.0751 C   0  0  0  0  0  0
  -22.4270   -8.0275   21.3548 C   0  0  0  0  0  0
  -21.9907   -9.0245   20.4645 C   0  0  0  0  0  0
  -22.7231  -10.2120   20.3050 C   0  0  0  0  0  0
  -21.6850   -6.0728   22.5281 C   0  0  0  0  0  0
  -21.4004   -6.5636   23.8213 C   0  0  0  0  0  0
  -21.3657   -5.6787   24.9175 C   0  0  0  0  0  0
  -21.6050   -4.3048   24.7225 C   0  0  0  0  0  0
  -21.8824   -3.8136   23.4349 C   0  0  0  0  0  0
  -21.9192   -4.6957   22.3406 C   0  0  0  0  0  0
  -22.7849  -13.5235   21.1841 C   0  0  0  0  0  0
  -22.1665   -4.2142   21.0981 F   0  0  0  0  0  0
  -21.5629   -3.4529   25.7735 F   0  0  0  0  0  0
  -30.0331  -13.2881   20.4349 N   0  0  0  0  0  0
  -26.3010  -12.9335   20.3354 N   0  0  0  0  0  0
  -25.9313  -11.6496   20.5756 N   0  0  0  0  0  0
  -22.0491  -12.8224   22.0396 N   0  0  0  0  0  0
  -25.4291  -15.1879   20.4082 N   0  0  0  0  0  0
  -31.8277  -14.6537   20.0994 O   0  0  0  0  0  0
  -21.6639   -6.8867   21.4239 O   0  0  0  0  0  0
  -22.3534  -14.5543   20.6698 O   0  0  0  0  0  0
  -24.6156  -31.8678   23.2100 C   0  0  0  0  0  0
  -25.9055  -32.4810   23.8397 C   0  0  1  0  0  0
  -27.2310  -27.4343   20.0916 C   0  0  0  0  0  0
  -25.5935  -33.8605   24.2347 N   0  0  0  0  0  0
  -23.4028  -30.4923   21.5509 C   0  0  2  0  0  0
  -24.8475  -28.9571   20.1152 C   0  0  0  0  0  0
  -22.7414  -29.4661   22.4993 C   0  0  0  0  0  0
  -18.0269  -28.1375   22.8488 C   0  0  0  0  0  0
  -24.1490  -36.7285   23.2638 C   0  0  0  0  0  0
  -25.9322  -30.8339   21.3613 C   0  0  0  0  0  0
  -26.0098  -29.4694   20.7052 C   0  0  0  0  0  0
  -27.2080  -28.7178   20.6847 C   0  0  0  0  0  0
  -26.0509  -26.9364   19.4977 C   0  0  0  0  0  0
  -24.8627  -27.6898   19.5075 C   0  0  0  0  0  0
  -23.6097  -29.8233   20.1657 C   0  0  0  0  0  0
  -25.4109  -36.3094   24.0351 C   0  0  1  0  0  0
  -20.5860  -28.3656   23.1318 C   0  0  2  0  0  0
  -20.6755  -26.9391   22.5417 C   0  0  0  0  0  0
  -19.5743  -26.6378   21.5205 C   0  0  0  0  0  0
  -18.1918  -26.7929   22.1606 C   0  0  0  0  0  0
  -19.1517  -28.8830   23.2899 C   0  0  0  0  0  0
  -18.9443  -30.1439   23.8904 C   0  0  0  0  0  0
  -17.6451  -30.6586   24.0558 C   0  0  0  0  0  0
  -25.9040  -34.9462   23.5137 C   0  0  0  0  0  0
  -16.5338  -29.9081   23.6331 C   0  0  0  0  0  0
  -16.7257  -28.6501   23.0352 C   0  0  0  0  0  0
  -26.4490  -31.6577   25.0713 C   0  0  0  0  0  0
  -25.3773  -31.3690   26.1483 C   0  0  0  0  0  0
  -27.0280  -30.3009   24.6066 C   0  0  0  0  0  0
  -27.6096  -32.4264   25.7461 C   0  0  0  0  0  0
  -27.5579  -37.1805   24.8471 C   0  0  0  0  0  0
  -21.4141  -29.3026   22.3730 N   0  0  0  0  0  0
  -26.4293  -37.3779   23.9415 N   0  0  0  0  0  0
  -24.6687  -31.0788   22.0992 N   0  0  0  0  0  0
  -23.4193  -28.8203   23.3028 O   0  0  0  0  0  0
  -28.3876  -26.6826   20.0858 O   0  0  0  0  0  0
  -26.5569  -34.8919   22.4676 O   0  0  0  0  0  0
  -23.5352  -32.1418   23.7508 O   0  0  0  0  0  0
  -30.5492  -18.2898   19.8010 C   0  0  0  0  0  0
  -30.2012  -19.5392   19.2396 C   0  0  0  0  0  0
  -29.0041  -20.1216   21.2588 C   0  0  0  0  0  0
  -30.1495  -17.9527   21.1098 C   0  0  0  0  0  0
  -29.4386  -20.4957   19.9634 C   0  0  0  0  0  0
  -29.3542  -18.8761   21.8263 C   0  0  0  0  0  0
  -28.8571  -22.9324   20.1828 C   0  0  0  0  0  0
  -28.5469  -24.1627   19.6989 C   0  0  0  0  0  0
  -28.4314  -24.3130   18.2274 C   0  0  0  0  0  0
  -28.2766  -23.0238   17.4210 C   0  0  0  0  0  0
  -29.1626  -21.8865   17.9624 C   0  0  0  0  0  0
  -30.6662  -16.6709   21.7758 C   0  0  0  0  0  0
  -28.2638  -25.3535   20.6341 C   0  0  0  0  0  0
  -29.1215  -21.7780   19.4274 N   0  0  0  0  0  0
  -30.0868  -15.4045   21.3063 N   0  0  0  0  0  0
  -28.4363  -25.3881   17.6216 O   0  0  0  0  0  0
  -28.9391  -18.5837   23.0827 F   0  0  0  0  0  0
  -31.4631  -12.4066   19.1042 H   0  0  0  0  0  0
  -30.3158  -11.2959   19.7983 H   0  0  0  0  0  0
  -29.7280  -11.7986   17.4090 H   0  0  0  0  0  0
  -29.6552  -13.5045   17.7670 H   0  0  0  0  0  0
  -27.8190  -11.3167   18.8006 H   0  0  0  0  0  0
  -27.3580  -12.6515   17.7827 H   0  0  0  0  0  0
  -27.7055  -14.2581   19.5821 H   0  0  0  0  0  0
  -28.6804  -11.9398   21.3181 H   0  0  0  0  0  0
  -28.4605  -13.5670   21.8745 H   0  0  0  0  0  0
  -25.2762   -9.5680   22.4739 H   0  0  0  0  0  0
  -24.0010   -7.4626   22.7464 H   0  0  0  0  0  0
  -21.0838   -8.8750   19.8948 H   0  0  0  0  0  0
  -22.3693  -10.9648   19.6143 H   0  0  0  0  0  0
  -21.1985   -7.6144   23.9715 H   0  0  0  0  0  0
  -21.1475   -6.0511   25.9077 H   0  0  0  0  0  0
  -22.0599   -2.7600   23.2842 H   0  0  0  0  0  0
  -22.4101  -11.9881   22.4778 H   0  0  0  0  0  0
  -21.1104  -13.1249   22.2599 H   0  0  0  0  0  0
  -24.6626  -15.8439   20.5130 H   0  0  0  0  0  0
  -26.2880  -15.6272   20.1011 H   0  0  0  0  0  0
  -26.7117  -32.5522   23.1157 H   0  0  0  0  0  0
  -25.0188  -33.9768   25.0566 H   0  0  0  0  0  0
  -22.6924  -31.3103   21.4123 H   0  0  0  0  0  0
  -23.3754  -35.9616   23.3330 H   0  0  0  0  0  0
  -24.3577  -36.8848   22.2042 H   0  0  0  0  0  0
  -23.7243  -37.6508   23.6613 H   0  0  0  0  0  0
  -26.0467  -31.6025   20.5959 H   0  0  0  0  0  0
  -26.8196  -30.8837   21.9804 H   0  0  0  0  0  0
  -28.1078  -29.1112   21.1366 H   0  0  0  0  0  0
  -26.0469  -25.9666   19.0216 H   0  0  0  0  0  0
  -23.9696  -27.2902   19.0473 H   0  0  0  0  0  0
  -23.7172  -30.5962   19.4036 H   0  0  0  0  0  0
  -22.7341  -29.2412   19.8722 H   0  0  0  0  0  0
  -25.1282  -36.1964   25.0846 H   0  0  0  0  0  0
  -20.9955  -28.3203   24.1440 H   0  0  0  0  0  0
  -20.5636  -26.2260   23.3597 H   0  0  0  0  0  0
  -21.6628  -26.7429   22.1223 H   0  0  0  0  0  0
  -19.6903  -25.6290   21.1230 H   0  0  0  0  0  0
  -19.6708  -27.3187   20.6737 H   0  0  0  0  0  0
  -17.4203  -26.6696   21.3988 H   0  0  0  0  0  0
  -18.0303  -26.0060   22.8986 H   0  0  0  0  0  0
  -19.7921  -30.7243   24.2282 H   0  0  0  0  0  0
  -17.5012  -31.6271   24.5148 H   0  0  0  0  0  0
  -15.5342  -30.2984   23.7666 H   0  0  0  0  0  0
  -15.8654  -28.0826   22.7062 H   0  0  0  0  0  0
  -24.5953  -30.7017   25.7848 H   0  0  0  0  0  0
  -24.8957  -32.2838   26.4940 H   0  0  0  0  0  0
  -25.8152  -30.8874   27.0235 H   0  0  0  0  0  0
  -26.2779  -29.6787   24.1162 H   0  0  0  0  0  0
  -27.4086  -29.7236   25.4505 H   0  0  0  0  0  0
  -27.8624  -30.4307   23.9166 H   0  0  0  0  0  0
  -27.2764  -33.3588   26.2034 H   0  0  0  0  0  0
  -28.3917  -32.6763   25.0277 H   0  0  0  0  0  0
  -28.0747  -31.8365   26.5372 H   0  0  0  0  0  0
  -28.2627  -38.0073   24.7477 H   0  0  0  0  0  0
  -28.1041  -36.2601   24.6342 H   0  0  0  0  0  0
  -27.2298  -37.1503   25.8877 H   0  0  0  0  0  0
  -20.9296  -29.8751   21.6959 H   0  0  0  0  0  0
  -26.0186  -38.2862   24.1397 H   0  0  0  0  0  0
  -31.1675  -17.6065   19.2354 H   0  0  0  0  0  0
  -30.5749  -19.7572   18.2496 H   0  0  0  0  0  0
  -28.3945  -20.7891   21.8481 H   0  0  0  0  0  0
  -28.9463  -22.7950   21.2508 H   0  0  0  0  0  0
  -28.4959  -23.2074   16.3696 H   0  0  0  0  0  0
  -27.2290  -22.7287   17.4789 H   0  0  0  0  0  0
  -30.1948  -22.0475   17.6460 H   0  0  0  0  0  0
  -28.8266  -20.9572   17.4996 H   0  0  0  0  0  0
  -30.4978  -16.7293   22.8514 H   0  0  0  0  0  0
  -31.7519  -16.6584   21.6654 H   0  0  0  0  0  0
  -28.9698  -25.2923   21.4626 H   0  0  0  0  0  0
  -27.2842  -25.1909   21.0876 H   0  0  0  0  0  0
  -29.1665  -15.1725   21.6478 H   0  0  0  0  0  0
  1 25  1  0  0  0
  1 30  2  0  0  0
  1 85  1  0  0  0
  2  3  1  0  0  0
  2 25  1  0  0  0
  2 88  1  0  0  0
  2 89  1  0  0  0
  3  4  1  0  0  0
  3 90  1  0  0  0
  3 91  1  0  0  0
  4  5  1  0  0  0
  4 92  1  0  0  0
  4 93  1  0  0  0
  5  6  1  0  0  0
  5 26  1  0  0  0
  5 94  1  0  0  0
  6 25  1  0  0  0
  6 95  1  0  0  0
  6 96  1  0  0  0
  7  8  2  0  0  0
  7 26  1  0  0  0
  7 29  1  0  0  0
  8  9  1  0  0  0
  8 22  1  0  0  0
  9 10  1  0  0  0
  9 27  2  0  0  0
 10 11  2  0  0  0
 10 15  1  0  0  0
 11 12  1  0  0  0
 11 97  1  0  0  0
 12 13  2  0  0  0
 12 98  1  0  0  0
 13 14  1  0  0  0
 13 31  1  0  0  0
 14 15  2  0  0  0
 14 99  1  0  0  0
 15100  1  0  0  0
 16 17  2  0  0  0
 16 21  1  0  0  0
 16 31  1  0  0  0
 17 18  1  0  0  0
 17101  1  0  0  0
 18 19  2  0  0  0
 18102  1  0  0  0
 19 20  1  0  0  0
 19 24  1  0  0  0
 20 21  2  0  0  0
 20103  1  0  0  0
 21 23  1  0  0  0
 22 28  1  0  0  0
 22 32  2  0  0  0
 26 27  1  0  0  0
 28104  1  0  0  0
 28105  1  0  0  0
 29106  1  0  0  0
 29107  1  0  0  0
 33 34  1  0  0  0
 33 66  1  0  0  0
 33 70  2  0  0  0
 34 36  1  0  0  0
 34 59  1  0  0  0
 34108  1  0  0  0
 35 44  2  0  0  0
 35 45  1  0  0  0
 35 68  1  0  0  0
 36 56  1  0  0  0
 36109  1  0  0  0
 37 39  1  0  0  0
 37 47  1  0  0  0
 37 66  1  0  0  0
 37110  1  0  0  0
 38 43  2  0  0  0
 38 46  1  0  0  0
 38 47  1  0  0  0
 39 64  1  0  0  0
 39 67  2  0  0  0
 40 52  1  0  0  0
 40 53  2  0  0  0
 40 58  1  0  0  0
 41111  1  0  0  0
 41112  1  0  0  0
 41113  1  0  0  0
 41 48  1  0  0  0
 42 43  1  0  0  0
 42 66  1  0  0  0
 42114  1  0  0  0
 42115  1  0  0  0
 43 44  1  0  0  0
 44116  1  0  0  0
 45 46  2  0  0  0
 45117  1  0  0  0
 46118  1  0  0  0
 47119  1  0  0  0
 47120  1  0  0  0
 48 56  1  0  0  0
 48 65  1  0  0  0
 48121  1  0  0  0
 49 50  1  0  0  0
 49 53  1  0  0  0
 49 64  1  0  0  0
 49122  1  0  0  0
 50 51  1  0  0  0
 50123  1  0  0  0
 50124  1  0  0  0
 51 52  1  0  0  0
 51125  1  0  0  0
 51126  1  0  0  0
 52127  1  0  0  0
 52128  1  0  0  0
 53 54  1  0  0  0
 54 55  2  0  0  0
 54129  1  0  0  0
 55 57  1  0  0  0
 55130  1  0  0  0
 56 69  2  0  0  0
 57 58  2  0  0  0
 57131  1  0  0  0
 58132  1  0  0  0
 59 60  1  0  0  0
 59 61  1  0  0  0
 59 62  1  0  0  0
 60133  1  0  0  0
 60134  1  0  0  0
 60135  1  0  0  0
 61136  1  0  0  0
 61137  1  0  0  0
 61138  1  0  0  0
 62139  1  0  0  0
 62140  1  0  0  0
 62141  1  0  0  0
 63 65  1  0  0  0
 63142  1  0  0  0
 63143  1  0  0  0
 63144  1  0  0  0
 64145  1  0  0  0
 65146  1  0  0  0
 68 83  1  0  0  0
 71 72  2  0  0  0
 71 74  1  0  0  0
 71147  1  0  0  0
 72 75  1  0  0  0
 72148  1  0  0  0
 73 75  2  0  0  0
 73 76  1  0  0  0
 73149  1  0  0  0
 74 76  2  0  0  0
 74 82  1  0  0  0
 75 84  1  0  0  0
 76 87  1  0  0  0
 77 78  2  0  0  0
 77 84  1  0  0  0
 77150  1  0  0  0
 78 79  1  0  0  0
 78 83  1  0  0  0
 79 80  1  0  0  0
 79 86  2  0  0  0
 80 81  1  0  0  0
 80151  1  0  0  0
 80152  1  0  0  0
 81 84  1  0  0  0
 81153  1  0  0  0
 81154  1  0  0  0
 82 85  1  0  0  0
 82155  1  0  0  0
 82156  1  0  0  0
 83157  1  0  0  0
 83158  1  0  0  0
 85159  1  0  0  0
M  ISO  4   1 100  68 101  83 101  85 100
M  END
> <chiral flag>
0

> <version>
0

> <s_m_source_file>
/data/baiqing/PycharmProjects/Reinvent-master-3.2/result/LINK_invent/BTK/process_docking_weight1_custom_product_contain_oxygen_bond_distance_aromatic_linkinvent_7_9_3/rearranged_h_0101.sdf

> <i_m_source_file_index>
31

> <r_mmod_Potential_Energy-OPLS-2005>
-75.4455337524414

> <r_mmod_Stretch_Energy-OPLS-2005>
42.2686157226562

> <r_mmod_Bend_Energy-OPLS-2005>
101.354988098145

> <r_mmod_Torsional_Energy-OPLS-2005>
195.363128662109

> <r_mmod_Improper_Torsional_Energy-OPLS-2005>
2.5560450553894

> <r_mmod_Van_der_Waal_Energy-OPLS-2005>
172.114944458008

> <r_mmod_Electrostatic_Energy-OPLS-2005>
-378.936218261719

> <r_mmod_Solvation_Energy-OPLS-2005>
-221.284866333008

> <b_mmod_Minimization_Converged-OPLS-2005>
0

> <r_mmod_RMS_Derivative-OPLS-2005>
1.24959981441498

$$$$
31
                    3D
 Structure written by MMmdl.
157166  0  0  1  0            999 V2000
  -30.7029  -14.5254   20.5261 C   0  0  0  0  0  0
  -30.4151  -12.3304   19.4308 C   0  0  0  0  0  0
  -29.4900  -12.4869   18.2075 C   0  0  0  0  0  0
  -28.0131  -12.3433   18.6246 C   0  0  0  0  0  0
  -27.6494  -13.2114   19.8595 C   0  0  2  0  0  0
  -28.6969  -13.0604   20.9850 C   0  0  0  0  0  0
  -25.2548  -13.8153   20.5691 C   0  0  0  0  0  0
  -24.1816  -13.0428   20.9188 C   0  0  0  0  0  0
  -24.6381  -11.6899   20.8740 C   0  0  0  0  0  0
  -23.9053  -10.4289   21.0408 C   0  0  0  0  0  0
  -24.3620   -9.4209   21.9183 C   0  0  0  0  0  0
  -23.6295   -8.2247   22.0754 C   0  0  0  0  0  0
  -22.4275   -8.0288   21.3548 C   0  0  0  0  0  0
  -21.9908   -9.0254   20.4645 C   0  0  0  0  0  0
  -22.7229  -10.2134   20.3049 C   0  0  0  0  0  0
  -21.6858   -6.0737   22.5280 C   0  0  0  0  0  0
  -21.4018   -6.5644   23.8211 C   0  0  0  0  0  0
  -21.3653   -5.6795   24.9175 C   0  0  0  0  0  0
  -21.6040   -4.3058   24.7225 C   0  0  0  0  0  0
  -21.8822   -3.8150   23.4348 C   0  0  0  0  0  0
  -21.9197   -4.6966   22.3404 C   0  0  0  0  0  0
  -22.7837  -13.5232   21.1843 C   0  0  0  0  0  0
  -22.1669   -4.2148   21.0982 F   0  0  0  0  0  0
  -21.5615   -3.4544   25.7740 F   0  0  0  0  0  0
  -30.0150  -13.3553   20.4082 N   0  0  0  0  0  0
  -26.2969  -12.9334   20.3320 N   0  0  0  0  0  0
  -25.9306  -11.6491   20.5763 N   0  0  0  0  0  0
  -22.0485  -12.8226   22.0410 N   0  0  0  0  0  0
  -25.4245  -15.1875   20.4147 N   0  0  0  0  0  0
  -31.8850  -14.6035   20.1806 O   0  0  0  0  0  0
  -21.6645   -6.8882   21.4243 O   0  0  0  0  0  0
  -22.3535  -14.5543   20.6695 O   0  0  0  0  0  0
  -24.6176  -31.8662   23.2079 C   0  0  0  0  0  0
  -25.9061  -32.4808   23.8384 C   0  0  1  0  0  0
  -27.2300  -27.4056   20.0957 C   0  0  0  0  0  0
  -25.5905  -33.8606   24.2315 N   0  0  0  0  0  0
  -23.4053  -30.4905   21.5489 C   0  0  2  0  0  0
  -24.8485  -28.9509   20.1152 C   0  0  0  0  0  0
  -22.7421  -29.4661   22.4989 C   0  0  0  0  0  0
  -18.0298  -28.1360   22.8513 C   0  0  0  0  0  0
  -24.1488  -36.7313   23.2641 C   0  0  0  0  0  0
  -25.9369  -30.8227   21.3643 C   0  0  0  0  0  0
  -26.0103  -29.4546   20.7116 C   0  0  0  0  0  0
  -27.2005  -28.6886   20.6980 C   0  0  0  0  0  0
  -26.0418  -26.9181   19.5029 C   0  0  0  0  0  0
  -24.8606  -27.6833   19.5093 C   0  0  0  0  0  0
  -23.6135  -29.8223   20.1640 C   0  0  0  0  0  0
  -25.4108  -36.3101   24.0337 C   0  0  1  0  0  0
  -20.5882  -28.3672   23.1332 C   0  0  2  0  0  0
  -20.6799  -26.9405   22.5437 C   0  0  0  0  0  0
  -19.5775  -26.6389   21.5239 C   0  0  0  0  0  0
  -18.1963  -26.7902   22.1663 C   0  0  0  0  0  0
  -19.1541  -28.8829   23.2919 C   0  0  0  0  0  0
  -18.9461  -30.1441   23.8914 C   0  0  0  0  0  0
  -17.6461  -30.6586   24.0534 C   0  0  0  0  0  0
  -25.9036  -34.9468   23.5126 C   0  0  0  0  0  0
  -16.5358  -29.9085   23.6284 C   0  0  0  0  0  0
  -16.7289  -28.6485   23.0345 C   0  0  0  0  0  0
  -26.4477  -31.6591   25.0721 C   0  0  0  0  0  0
  -25.3739  -31.3705   26.1469 C   0  0  0  0  0  0
  -27.0315  -30.3028   24.6116 C   0  0  0  0  0  0
  -27.6051  -32.4312   25.7484 C   0  0  0  0  0  0
  -27.5578  -37.1813   24.8466 C   0  0  0  0  0  0
  -21.4144  -29.3050   22.3735 N   0  0  0  0  0  0
  -26.4293  -37.3786   23.9408 N   0  0  0  0  0  0
  -24.6716  -31.0754   22.0980 N   0  0  0  0  0  0
  -23.4182  -28.8204   23.3041 O   0  0  0  0  0  0
  -28.4145  -26.6867   20.1151 O   0  0  0  0  0  0
  -26.5606  -34.8925   22.4691 O   0  0  0  0  0  0
  -23.5364  -32.1419   23.7469 O   0  0  0  0  0  0
  -28.1679  -19.6944   19.6670 C   0  0  0  0  0  0
  -28.5929  -18.3207   19.6858 C   0  0  0  0  0  0
  -29.5373  -18.0639   20.6602 C   0  0  0  0  0  0
  -28.7823  -20.5238   20.5807 C   0  0  0  0  0  0
  -28.1024  -22.7888   19.9154 C   0  0  0  0  0  0
  -30.4211  -16.8898   20.9883 C   0  0  0  0  0  0
  -28.9200  -24.0523   21.7658 C   0  0  0  0  0  0
  -29.0492  -22.5390   22.0092 C   0  0  0  0  0  0
  -28.0453  -24.2063   20.5170 C   0  0  1  0  0  0
  -28.0642  -17.3400   18.6779 C   0  0  0  0  0  0
  -28.4936  -25.3543   19.5585 C   0  0  0  0  0  0
  -28.6257  -21.8795   20.7744 N   0  0  0  0  0  0
  -29.9564  -15.6306   20.7889 N   0  0  0  0  0  0
  -27.7020  -22.5546   18.7717 O   0  0  0  0  0  0
  -31.5513  -17.1196   21.4348 O   0  0  0  0  0  0
  -29.8886  -19.5487   21.5387 S   0  0  0  0  0  0
  -31.4586  -12.4188   19.1240 H   0  0  0  0  0  0
  -30.3165  -11.3347   19.8659 H   0  0  0  0  0  0
  -29.7373  -11.7403   17.4524 H   0  0  0  0  0  0
  -29.6500  -13.4598   17.7398 H   0  0  0  0  0  0
  -27.8358  -11.2902   18.8485 H   0  0  0  0  0  0
  -27.3589  -12.5878   17.7866 H   0  0  0  0  0  0
  -27.6705  -14.2462   19.5211 H   0  0  0  0  0  0
  -28.6868  -12.0452   21.3845 H   0  0  0  0  0  0
  -28.4679  -13.7185   21.8256 H   0  0  0  0  0  0
  -25.2769   -9.5684   22.4756 H   0  0  0  0  0  0
  -24.0000   -7.4640   22.7474 H   0  0  0  0  0  0
  -21.0836   -8.8774   19.8953 H   0  0  0  0  0  0
  -22.3690  -10.9677   19.6158 H   0  0  0  0  0  0
  -21.2023   -7.6154   23.9715 H   0  0  0  0  0  0
  -21.1464   -6.0528   25.9074 H   0  0  0  0  0  0
  -22.0609   -2.7612   23.2849 H   0  0  0  0  0  0
  -22.4104  -11.9877   22.4772 H   0  0  0  0  0  0
  -21.1103  -13.1233   22.2630 H   0  0  0  0  0  0
  -24.6544  -15.8360   20.5380 H   0  0  0  0  0  0
  -26.2736  -15.6361   20.1028 H   0  0  0  0  0  0
  -26.7131  -32.5501   23.1145 H   0  0  0  0  0  0
  -25.0040  -33.9761   25.0450 H   0  0  0  0  0  0
  -22.6949  -31.3080   21.4096 H   0  0  0  0  0  0
  -23.3738  -35.9657   23.3310 H   0  0  0  0  0  0
  -24.3582  -36.8923   22.2054 H   0  0  0  0  0  0
  -23.7252  -37.6527   23.6650 H   0  0  0  0  0  0
  -26.0552  -31.5871   20.5951 H   0  0  0  0  0  0
  -26.8228  -30.8732   21.9859 H   0  0  0  0  0  0
  -28.0994  -29.0768   21.1577 H   0  0  0  0  0  0
  -25.9960  -25.9461   19.0368 H   0  0  0  0  0  0
  -23.9651  -27.2877   19.0503 H   0  0  0  0  0  0
  -23.7252  -30.5962   19.4038 H   0  0  0  0  0  0
  -22.7357  -29.2453   19.8683 H   0  0  0  0  0  0
  -25.1285  -36.1967   25.0829 H   0  0  0  0  0  0
  -20.9977  -28.3256   24.1449 H   0  0  0  0  0  0
  -21.6668  -26.7475   22.1214 H   0  0  0  0  0  0
  -20.5724  -26.2273   23.3626 H   0  0  0  0  0  0
  -19.6958  -25.6312   21.1244 H   0  0  0  0  0  0
  -19.6686  -27.3228   20.6794 H   0  0  0  0  0  0
  -17.4238  -26.6629   21.4066 H   0  0  0  0  0  0
  -18.0401  -26.0054   22.9078 H   0  0  0  0  0  0
  -19.7933  -30.7248   24.2305 H   0  0  0  0  0  0
  -17.5007  -31.6278   24.5117 H   0  0  0  0  0  0
  -15.5362  -30.3000   23.7560 H   0  0  0  0  0  0
  -15.8692  -28.0801   22.7053 H   0  0  0  0  0  0
  -24.5906  -30.7061   25.7804 H   0  0  0  0  0  0
  -24.8940  -32.2865   26.4923 H   0  0  0  0  0  0
  -25.8087  -30.8865   27.0223 H   0  0  0  0  0  0
  -26.2869  -29.6788   24.1159 H   0  0  0  0  0  0
  -27.4068  -29.7267   25.4586 H   0  0  0  0  0  0
  -27.8710  -30.4341   23.9281 H   0  0  0  0  0  0
  -27.2665  -33.3598   26.2091 H   0  0  0  0  0  0
  -28.3842  -32.6896   25.0299 H   0  0  0  0  0  0
  -28.0741  -31.8420   26.5376 H   0  0  0  0  0  0
  -28.2609  -38.0098   24.7497 H   0  0  0  0  0  0
  -28.1061  -36.2631   24.6306 H   0  0  0  0  0  0
  -27.2299  -37.1483   25.8872 H   0  0  0  0  0  0
  -20.9301  -29.8783   21.6971 H   0  0  0  0  0  0
  -26.0182  -38.2870   24.1383 H   0  0  0  0  0  0
  -27.4318  -20.0292   18.9495 H   0  0  0  0  0  0
  -29.9076  -24.4842   21.5964 H   0  0  0  0  0  0
  -28.4891  -24.5632   22.6277 H   0  0  0  0  0  0
  -28.3930  -22.2239   22.8225 H   0  0  0  0  0  0
  -30.0725  -22.2822   22.2859 H   0  0  0  0  0  0
  -27.0102  -24.3694   20.8185 H   0  0  0  0  0  0
  -27.0101  -17.1264   18.8523 H   0  0  0  0  0  0
  -28.6020  -16.3942   18.6743 H   0  0  0  0  0  0
  -28.1428  -17.7423   17.6674 H   0  0  0  0  0  0
  -27.9810  -25.2974   18.5985 H   0  0  0  0  0  0
  -29.5424  -25.1933   19.3074 H   0  0  0  0  0  0
  -28.9596  -15.5223   20.7393 H   0  0  0  0  0  0
  1 25  1  0  0  0
  1 30  2  0  0  0
  1 83  1  0  0  0
  2  3  1  0  0  0
  2 25  1  0  0  0
  2 87  1  0  0  0
  2 88  1  0  0  0
  3  4  1  0  0  0
  3 89  1  0  0  0
  3 90  1  0  0  0
  4  5  1  0  0  0
  4 91  1  0  0  0
  4 92  1  0  0  0
  5  6  1  0  0  0
  5 26  1  0  0  0
  5 93  1  0  0  0
  6 25  1  0  0  0
  6 94  1  0  0  0
  6 95  1  0  0  0
  7  8  2  0  0  0
  7 26  1  0  0  0
  7 29  1  0  0  0
  8  9  1  0  0  0
  8 22  1  0  0  0
  9 10  1  0  0  0
  9 27  2  0  0  0
 10 11  2  0  0  0
 10 15  1  0  0  0
 11 12  1  0  0  0
 11 96  1  0  0  0
 12 13  2  0  0  0
 12 97  1  0  0  0
 13 14  1  0  0  0
 13 31  1  0  0  0
 14 15  2  0  0  0
 14 98  1  0  0  0
 15 99  1  0  0  0
 16 17  2  0  0  0
 16 21  1  0  0  0
 16 31  1  0  0  0
 17 18  1  0  0  0
 17100  1  0  0  0
 18 19  2  0  0  0
 18101  1  0  0  0
 19 20  1  0  0  0
 19 24  1  0  0  0
 20 21  2  0  0  0
 20102  1  0  0  0
 21 23  1  0  0  0
 22 28  1  0  0  0
 22 32  2  0  0  0
 26 27  1  0  0  0
 28103  1  0  0  0
 28104  1  0  0  0
 29105  1  0  0  0
 29106  1  0  0  0
 33 34  1  0  0  0
 33 66  1  0  0  0
 33 70  2  0  0  0
 34 36  1  0  0  0
 34 59  1  0  0  0
 34107  1  0  0  0
 35 44  2  0  0  0
 35 45  1  0  0  0
 35 68  1  0  0  0
 36 56  1  0  0  0
 36108  1  0  0  0
 37 39  1  0  0  0
 37 47  1  0  0  0
 37 66  1  0  0  0
 37109  1  0  0  0
 38 43  2  0  0  0
 38 46  1  0  0  0
 38 47  1  0  0  0
 39 64  1  0  0  0
 39 67  2  0  0  0
 40 52  1  0  0  0
 40 53  2  0  0  0
 40 58  1  0  0  0
 41110  1  0  0  0
 41111  1  0  0  0
 41112  1  0  0  0
 41 48  1  0  0  0
 42 43  1  0  0  0
 42 66  1  0  0  0
 42113  1  0  0  0
 42114  1  0  0  0
 43 44  1  0  0  0
 44115  1  0  0  0
 45 46  2  0  0  0
 45116  1  0  0  0
 46117  1  0  0  0
 47118  1  0  0  0
 47119  1  0  0  0
 48 56  1  0  0  0
 48 65  1  0  0  0
 48120  1  0  0  0
 49 50  1  0  0  0
 49 53  1  0  0  0
 49 64  1  0  0  0
 49121  1  0  0  0
 50 51  1  0  0  0
 50122  1  0  0  0
 50123  1  0  0  0
 51 52  1  0  0  0
 51124  1  0  0  0
 51125  1  0  0  0
 52126  1  0  0  0
 52127  1  0  0  0
 53 54  1  0  0  0
 54 55  2  0  0  0
 54128  1  0  0  0
 55 57  1  0  0  0
 55129  1  0  0  0
 56 69  2  0  0  0
 57 58  2  0  0  0
 57130  1  0  0  0
 58131  1  0  0  0
 59 60  1  0  0  0
 59 61  1  0  0  0
 59 62  1  0  0  0
 60132  1  0  0  0
 60133  1  0  0  0
 60134  1  0  0  0
 61135  1  0  0  0
 61136  1  0  0  0
 61137  1  0  0  0
 62138  1  0  0  0
 62139  1  0  0  0
 62140  1  0  0  0
 63 65  1  0  0  0
 63141  1  0  0  0
 63142  1  0  0  0
 63143  1  0  0  0
 64144  1  0  0  0
 65145  1  0  0  0
 68 81  1  0  0  0
 71 72  1  0  0  0
 71 74  2  0  0  0
 71146  1  0  0  0
 72 73  2  0  0  0
 72 80  1  0  0  0
 73 76  1  0  0  0
 73 86  1  0  0  0
 74 82  1  0  0  0
 74 86  1  0  0  0
 75 79  1  0  0  0
 75 82  1  0  0  0
 75 84  2  0  0  0
 76 83  1  0  0  0
 76 85  2  0  0  0
 77 78  1  0  0  0
 77 79  1  0  0  0
 77147  1  0  0  0
 77148  1  0  0  0
 78 82  1  0  0  0
 78149  1  0  0  0
 78150  1  0  0  0
 79 81  1  0  0  0
 79151  1  0  0  0
 80152  1  0  0  0
 80153  1  0  0  0
 80154  1  0  0  0
 81155  1  0  0  0
 81156  1  0  0  0
 83157  1  0  0  0
M  ISO  4   1 100  68 101  81 101  83 100
M  END
> <chiral flag>
0

> <version>
0

> <s_m_source_file>
/data/baiqing/PycharmProjects/Reinvent-master-3.2/result/LINK_invent/BTK/process_docking_weight1_custom_product_contain_oxygen_bond_distance_aromatic_linkinvent_7_9_3/rearranged_h_0101.sdf

> <i_m_source_file_index>
32

> <r_mmod_Potential_Energy-OPLS-2005>
-30.6826667785645

> <r_mmod_Stretch_Energy-OPLS-2005>
43.1117935180664

> <r_mmod_Bend_Energy-OPLS-2005>
138.816375732422

> <r_mmod_Torsional_Energy-OPLS-2005>
265.742950439453

> <r_mmod_Improper_Torsional_Energy-OPLS-2005>
6.48566150665283

> <r_mmod_Van_der_Waal_Energy-OPLS-2005>
132.179443359375

> <r_mmod_Electrostatic_Energy-OPLS-2005>
-412.201416015625

> <r_mmod_Solvation_Energy-OPLS-2005>
-227.976287841797

> <b_mmod_Minimization_Converged-OPLS-2005>
0

> <r_mmod_RMS_Derivative-OPLS-2005>
1.28087830543518

$$$$
32
                    3D
 Structure written by MMmdl.
149157  0  0  1  0            999 V2000
  -30.6036  -14.6838   20.4791 C   0  0  0  0  0  0
  -30.4427  -12.4165   19.4572 C   0  0  0  0  0  0
  -29.5102  -12.5082   18.2278 C   0  0  0  0  0  0
  -28.0333  -12.3419   18.6405 C   0  0  0  0  0  0
  -27.6503  -13.2209   19.8610 C   0  0  2  0  0  0
  -28.6978  -13.0949   20.9905 C   0  0  0  0  0  0
  -25.2533  -13.8165   20.5693 C   0  0  0  0  0  0
  -24.1808  -13.0417   20.9169 C   0  0  0  0  0  0
  -24.6395  -11.6897   20.8726 C   0  0  0  0  0  0
  -23.9067  -10.4282   21.0397 C   0  0  0  0  0  0
  -24.3618   -9.4201   21.9180 C   0  0  0  0  0  0
  -23.6289   -8.2240   22.0753 C   0  0  0  0  0  0
  -22.4272   -8.0278   21.3543 C   0  0  0  0  0  0
  -21.9905   -9.0251   20.4645 C   0  0  0  0  0  0
  -22.7236  -10.2128   20.3050 C   0  0  0  0  0  0
  -21.6853   -6.0734   22.5279 C   0  0  0  0  0  0
  -21.4015   -6.5638   23.8212 C   0  0  0  0  0  0
  -21.3658   -5.6791   24.9174 C   0  0  0  0  0  0
  -21.6044   -4.3054   24.7224 C   0  0  0  0  0  0
  -21.8820   -3.8144   23.4346 C   0  0  0  0  0  0
  -21.9192   -4.6961   22.3402 C   0  0  0  0  0  0
  -22.7831  -13.5210   21.1844 C   0  0  0  0  0  0
  -22.1660   -4.2146   21.0979 F   0  0  0  0  0  0
  -21.5628   -3.4538   25.7737 F   0  0  0  0  0  0
  -30.0086  -13.4472   20.4221 N   0  0  0  0  0  0
  -26.2979  -12.9365   20.3329 N   0  0  0  0  0  0
  -25.9330  -11.6512   20.5761 N   0  0  0  0  0  0
  -22.0485  -12.8207   22.0415 N   0  0  0  0  0  0
  -25.4168  -15.1893   20.4186 N   0  0  0  0  0  0
  -31.7770  -14.8416   20.1293 O   0  0  0  0  0  0
  -21.6637   -6.8875   21.4240 O   0  0  0  0  0  0
  -22.3506  -14.5516   20.6702 O   0  0  0  0  0  0
  -24.6277  -31.8580   23.2007 C   0  0  0  0  0  0
  -25.9115  -32.4770   23.8348 C   0  0  1  0  0  0
  -27.2255  -27.3010   20.1270 C   0  0  0  0  0  0
  -25.5921  -33.8571   24.2272 N   0  0  0  0  0  0
  -23.4233  -30.4800   21.5435 C   0  0  2  0  0  0
  -24.8719  -28.9307   20.1127 C   0  0  0  0  0  0
  -22.7486  -29.4612   22.4929 C   0  0  0  0  0  0
  -18.0289  -28.1385   22.8486 C   0  0  0  0  0  0
  -24.1490  -36.7293   23.2642 C   0  0  0  0  0  0
  -25.9658  -30.7831   21.3751 C   0  0  0  0  0  0
  -26.0415  -29.4080   20.7192 C   0  0  0  0  0  0
  -27.2238  -28.6059   20.7141 C   0  0  0  0  0  0
  -26.0379  -26.8839   19.4880 C   0  0  0  0  0  0
  -24.8728  -27.6745   19.4868 C   0  0  0  0  0  0
  -23.6401  -29.8127   20.1599 C   0  0  0  0  0  0
  -25.4116  -36.3079   24.0328 C   0  0  1  0  0  0
  -20.5890  -28.3693   23.1279 C   0  0  2  0  0  0
  -20.6777  -26.9414   22.5408 C   0  0  0  0  0  0
  -19.5751  -26.6383   21.5212 C   0  0  0  0  0  0
  -18.1933  -26.7926   22.1629 C   0  0  0  0  0  0
  -19.1542  -28.8856   23.2877 C   0  0  0  0  0  0
  -18.9464  -30.1457   23.8894 C   0  0  0  0  0  0
  -17.6463  -30.6586   24.0563 C   0  0  0  0  0  0
  -25.9050  -34.9446   23.5102 C   0  0  0  0  0  0
  -16.5354  -29.9085   23.6329 C   0  0  0  0  0  0
  -16.7276  -28.6503   23.0351 C   0  0  0  0  0  0
  -26.4494  -31.6586   25.0724 C   0  0  0  0  0  0
  -25.3725  -31.3728   26.1451 C   0  0  0  0  0  0
  -27.0341  -30.3008   24.6190 C   0  0  0  0  0  0
  -27.6050  -32.4326   25.7495 C   0  0  0  0  0  0
  -27.5572  -37.1813   24.8474 C   0  0  0  0  0  0
  -21.4197  -29.3042   22.3671 N   0  0  0  0  0  0
  -26.4300  -37.3767   23.9394 N   0  0  0  0  0  0
  -24.6911  -31.0574   22.0966 N   0  0  0  0  0  0
  -23.4199  -28.8155   23.3020 O   0  0  0  0  0  0
  -28.3290  -26.4301   20.1460 O   0  0  0  0  0  0
  -26.5623  -34.8915   22.4671 O   0  0  0  0  0  0
  -23.5434  -32.1388   23.7320 O   0  0  0  0  0  0
  -30.9687  -19.3938   20.2929 C   0  0  0  0  0  0
  -31.0211  -17.9741   20.4792 C   0  0  0  0  0  0
  -28.5702  -19.3370   20.2740 C   0  0  0  0  0  0
  -29.7471  -20.1239   20.1712 C   0  0  0  0  0  0
  -29.8389  -17.1910   20.5600 C   0  0  0  0  0  0
  -28.6194  -17.9201   20.4678 C   0  0  0  0  0  0
  -28.9655  -23.8451   20.0539 C   0  0  0  0  0  0
  -29.7444  -21.6235   19.7701 C   0  0  0  0  0  0
  -28.0957  -25.0365   20.6306 C   0  0  0  0  0  0
  -28.9065  -22.5787   20.4162 N   0  0  0  0  0  0
  -29.7654  -15.7353   20.7612 N   0  0  0  0  0  0
  -30.5574  -21.9152   18.8886 O   0  0  0  0  0  0
  -27.4567  -17.2295   20.5396 F   0  0  0  0  0  0
  -31.4819  -12.5514   19.1525 H   0  0  0  0  0  0
  -30.3893  -11.4256   19.9111 H   0  0  0  0  0  0
  -29.7796  -11.7480   17.4930 H   0  0  0  0  0  0
  -29.6461  -13.4717   17.7343 H   0  0  0  0  0  0
  -27.8758  -11.2898   18.8806 H   0  0  0  0  0  0
  -27.3782  -12.5614   17.7968 H   0  0  0  0  0  0
  -27.6578  -14.2524   19.5085 H   0  0  0  0  0  0
  -28.7188  -12.0773   21.3835 H   0  0  0  0  0  0
  -28.4403  -13.7356   21.8354 H   0  0  0  0  0  0
  -25.2764   -9.5677   22.4752 H   0  0  0  0  0  0
  -23.9996   -7.4633   22.7475 H   0  0  0  0  0  0
  -21.0834   -8.8772   19.8954 H   0  0  0  0  0  0
  -22.3695  -10.9667   19.6159 H   0  0  0  0  0  0
  -21.2010   -7.6147   23.9715 H   0  0  0  0  0  0
  -21.1478   -6.0521   25.9077 H   0  0  0  0  0  0
  -22.0601   -2.7606   23.2849 H   0  0  0  0  0  0
  -22.4107  -11.9871   22.4802 H   0  0  0  0  0  0
  -21.1108  -13.1240   22.2634 H   0  0  0  0  0  0
  -24.6492  -15.8342   20.5656 H   0  0  0  0  0  0
  -26.2837  -15.6683   20.1993 H   0  0  0  0  0  0
  -26.7185  -32.5436   23.1098 H   0  0  0  0  0  0
  -25.0061  -33.9713   25.0412 H   0  0  0  0  0  0
  -22.7181  -31.3007   21.3981 H   0  0  0  0  0  0
  -23.3734  -35.9648   23.3344 H   0  0  0  0  0  0
  -24.3569  -36.8871   22.2048 H   0  0  0  0  0  0
  -23.7272  -37.6519   23.6639 H   0  0  0  0  0  0
  -26.0992  -31.5448   20.6056 H   0  0  0  0  0  0
  -26.8452  -30.8332   22.0056 H   0  0  0  0  0  0
  -28.1218  -28.9674   21.1954 H   0  0  0  0  0  0
  -25.9993  -25.9267   18.9880 H   0  0  0  0  0  0
  -23.9796  -27.3057   19.0015 H   0  0  0  0  0  0
  -23.7610  -30.5884   19.4029 H   0  0  0  0  0  0
  -22.7601  -29.2426   19.8567 H   0  0  0  0  0  0
  -25.1302  -36.1939   25.0823 H   0  0  0  0  0  0
  -20.9982  -28.3268   24.1400 H   0  0  0  0  0  0
  -20.5678  -26.2302   23.3609 H   0  0  0  0  0  0
  -21.6644  -26.7440   22.1202 H   0  0  0  0  0  0
  -19.6911  -25.6293   21.1243 H   0  0  0  0  0  0
  -19.6685  -27.3192   20.6741 H   0  0  0  0  0  0
  -17.4198  -26.6669   21.4037 H   0  0  0  0  0  0
  -18.0340  -26.0072   22.9030 H   0  0  0  0  0  0
  -19.7939  -30.7275   24.2262 H   0  0  0  0  0  0
  -17.5017  -31.6265   24.5167 H   0  0  0  0  0  0
  -15.5355  -30.2987   23.7651 H   0  0  0  0  0  0
  -15.8678  -28.0820   22.7069 H   0  0  0  0  0  0
  -24.5896  -30.7083   25.7778 H   0  0  0  0  0  0
  -24.8923  -32.2897   26.4880 H   0  0  0  0  0  0
  -25.8047  -30.8901   27.0225 H   0  0  0  0  0  0
  -26.2923  -29.6756   24.1208 H   0  0  0  0  0  0
  -27.4028  -29.7266   25.4701 H   0  0  0  0  0  0
  -27.8795  -30.4291   23.9427 H   0  0  0  0  0  0
  -27.2655  -33.3623   26.2074 H   0  0  0  0  0  0
  -28.3858  -32.6893   25.0324 H   0  0  0  0  0  0
  -28.0722  -31.8454   26.5412 H   0  0  0  0  0  0
  -28.2628  -38.0070   24.7456 H   0  0  0  0  0  0
  -28.1028  -36.2598   24.6387 H   0  0  0  0  0  0
  -27.2277  -37.1566   25.8876 H   0  0  0  0  0  0
  -20.9380  -29.8766   21.6878 H   0  0  0  0  0  0
  -26.0183  -38.2852   24.1351 H   0  0  0  0  0  0
  -31.9043  -19.9293   20.2035 H   0  0  0  0  0  0
  -31.9865  -17.4936   20.5515 H   0  0  0  0  0  0
  -27.6069  -19.8145   20.1681 H   0  0  0  0  0  0
  -29.6536  -24.1922   19.2773 H   0  0  0  0  0  0
  -28.2632  -25.0596   21.7075 H   0  0  0  0  0  0
  -27.0529  -24.7426   20.5227 H   0  0  0  0  0  0
  -28.8342  -15.4248   20.9928 H   0  0  0  0  0  0
  1 25  1  0  0  0
  1 30  2  0  0  0
  1 81  1  0  0  0
  2  3  1  0  0  0
  2 25  1  0  0  0
  2 84  1  0  0  0
  2 85  1  0  0  0
  3  4  1  0  0  0
  3 86  1  0  0  0
  3 87  1  0  0  0
  4  5  1  0  0  0
  4 88  1  0  0  0
  4 89  1  0  0  0
  5  6  1  0  0  0
  5 26  1  0  0  0
  5 90  1  0  0  0
  6 25  1  0  0  0
  6 91  1  0  0  0
  6 92  1  0  0  0
  7  8  2  0  0  0
  7 26  1  0  0  0
  7 29  1  0  0  0
  8  9  1  0  0  0
  8 22  1  0  0  0
  9 10  1  0  0  0
  9 27  2  0  0  0
 10 11  2  0  0  0
 10 15  1  0  0  0
 11 12  1  0  0  0
 11 93  1  0  0  0
 12 13  2  0  0  0
 12 94  1  0  0  0
 13 14  1  0  0  0
 13 31  1  0  0  0
 14 15  2  0  0  0
 14 95  1  0  0  0
 15 96  1  0  0  0
 16 17  2  0  0  0
 16 21  1  0  0  0
 16 31  1  0  0  0
 17 18  1  0  0  0
 17 97  1  0  0  0
 18 19  2  0  0  0
 18 98  1  0  0  0
 19 20  1  0  0  0
 19 24  1  0  0  0
 20 21  2  0  0  0
 20 99  1  0  0  0
 21 23  1  0  0  0
 22 28  1  0  0  0
 22 32  2  0  0  0
 26 27  1  0  0  0
 28100  1  0  0  0
 28101  1  0  0  0
 29102  1  0  0  0
 29103  1  0  0  0
 33 34  1  0  0  0
 33 66  1  0  0  0
 33 70  2  0  0  0
 34 36  1  0  0  0
 34 59  1  0  0  0
 34104  1  0  0  0
 35 44  2  0  0  0
 35 45  1  0  0  0
 35 68  1  0  0  0
 36 56  1  0  0  0
 36105  1  0  0  0
 37 39  1  0  0  0
 37 47  1  0  0  0
 37 66  1  0  0  0
 37106  1  0  0  0
 38 43  2  0  0  0
 38 46  1  0  0  0
 38 47  1  0  0  0
 39 64  1  0  0  0
 39 67  2  0  0  0
 40 52  1  0  0  0
 40 53  2  0  0  0
 40 58  1  0  0  0
 41107  1  0  0  0
 41108  1  0  0  0
 41109  1  0  0  0
 41 48  1  0  0  0
 42 43  1  0  0  0
 42 66  1  0  0  0
 42110  1  0  0  0
 42111  1  0  0  0
 43 44  1  0  0  0
 44112  1  0  0  0
 45 46  2  0  0  0
 45113  1  0  0  0
 46114  1  0  0  0
 47115  1  0  0  0
 47116  1  0  0  0
 48 56  1  0  0  0
 48 65  1  0  0  0
 48117  1  0  0  0
 49 50  1  0  0  0
 49 53  1  0  0  0
 49 64  1  0  0  0
 49118  1  0  0  0
 50 51  1  0  0  0
 50119  1  0  0  0
 50120  1  0  0  0
 51 52  1  0  0  0
 51121  1  0  0  0
 51122  1  0  0  0
 52123  1  0  0  0
 52124  1  0  0  0
 53 54  1  0  0  0
 54 55  2  0  0  0
 54125  1  0  0  0
 55 57  1  0  0  0
 55126  1  0  0  0
 56 69  2  0  0  0
 57 58  2  0  0  0
 57127  1  0  0  0
 58128  1  0  0  0
 59 60  1  0  0  0
 59 61  1  0  0  0
 59 62  1  0  0  0
 60129  1  0  0  0
 60130  1  0  0  0
 60131  1  0  0  0
 61132  1  0  0  0
 61133  1  0  0  0
 61134  1  0  0  0
 62135  1  0  0  0
 62136  1  0  0  0
 62137  1  0  0  0
 63 65  1  0  0  0
 63138  1  0  0  0
 63139  1  0  0  0
 63140  1  0  0  0
 64141  1  0  0  0
 65142  1  0  0  0
 68 79  1  0  0  0
 71 72  2  0  0  0
 71 74  1  0  0  0
 71143  1  0  0  0
 72 75  1  0  0  0
 72144  1  0  0  0
 73 74  2  0  0  0
 73 76  1  0  0  0
 73145  1  0  0  0
 74 78  1  0  0  0
 75 76  2  0  0  0
 75 81  1  0  0  0
 76 83  1  0  0  0
 77 79  1  0  0  0
 77 80  2  0  0  0
 77146  1  0  0  0
 78 80  1  0  0  0
 78 82  2  0  0  0
 79147  1  0  0  0
 79148  1  0  0  0
 81149  1  0  0  0
M  ISO  4   1 100  68 101  79 101  81 100
M  END
> <chiral flag>
0

> <version>
0

> <s_m_source_file>
/data/baiqing/PycharmProjects/Reinvent-master-3.2/result/LINK_invent/BTK/process_docking_weight1_custom_product_contain_oxygen_bond_distance_aromatic_linkinvent_7_9_3/rearranged_h_0101.sdf

> <i_m_source_file_index>
33

> <r_mmod_Potential_Energy-OPLS-2005>
36.1921653747559

> <r_mmod_Stretch_Energy-OPLS-2005>
92.0756759643555

> <r_mmod_Bend_Energy-OPLS-2005>
144.19580078125

> <r_mmod_Torsional_Energy-OPLS-2005>
229.915496826172

> <r_mmod_Improper_Torsional_Energy-OPLS-2005>
5.46865367889404

> <r_mmod_Van_der_Waal_Energy-OPLS-2005>
148.327819824219

> <r_mmod_Electrostatic_Energy-OPLS-2005>
-447.751495361328

> <r_mmod_Solvation_Energy-OPLS-2005>
-196.921340942383

> <b_mmod_Minimization_Converged-OPLS-2005>
0

> <r_mmod_RMS_Derivative-OPLS-2005>
0.346518635749817

$$$$
33
                    3D
 Structure written by MMmdl.
154162  0  0  1  0            999 V2000
  -30.7858  -14.4751   20.5329 C   0  0  0  0  0  0
  -30.3726  -12.3012   19.4486 C   0  0  0  0  0  0
  -29.4862  -12.5369   18.2130 C   0  0  0  0  0  0
  -28.0044  -12.4156   18.6067 C   0  0  0  0  0  0
  -27.6493  -13.2482   19.8705 C   0  0  2  0  0  0
  -28.6982  -13.1061   21.0004 C   0  0  0  0  0  0
  -25.2482  -13.8242   20.5748 C   0  0  0  0  0  0
  -24.1792  -13.0451   20.9199 C   0  0  0  0  0  0
  -24.6410  -11.6936   20.8713 C   0  0  0  0  0  0
  -23.9093  -10.4292   21.0363 C   0  0  0  0  0  0
  -24.3617   -9.4215   21.9155 C   0  0  0  0  0  0
  -23.6304   -8.2252   22.0728 C   0  0  0  0  0  0
  -22.4285   -8.0287   21.3538 C   0  0  0  0  0  0
  -21.9929   -9.0248   20.4625 C   0  0  0  0  0  0
  -22.7253  -10.2123   20.3039 C   0  0  0  0  0  0
  -21.6886   -6.0742   22.5280 C   0  0  0  0  0  0
  -21.4027   -6.5644   23.8202 C   0  0  0  0  0  0
  -21.3656   -5.6798   24.9165 C   0  0  0  0  0  0
  -21.6046   -4.3064   24.7229 C   0  0  0  0  0  0
  -21.8806   -3.8155   23.4352 C   0  0  0  0  0  0
  -21.9188   -4.6971   22.3406 C   0  0  0  0  0  0
  -22.7790  -13.5179   21.1880 C   0  0  0  0  0  0
  -22.1660   -4.2147   21.0994 F   0  0  0  0  0  0
  -21.5618   -3.4555   25.7750 F   0  0  0  0  0  0
  -30.0276  -13.3464   20.4247 N   0  0  0  0  0  0
  -26.2980  -12.9512   20.3422 N   0  0  0  0  0  0
  -25.9348  -11.6623   20.5738 N   0  0  0  0  0  0
  -22.0474  -12.8146   22.0439 N   0  0  0  0  0  0
  -25.4077  -15.1976   20.4220 N   0  0  0  0  0  0
  -31.9367  -14.5035   20.0979 O   0  0  0  0  0  0
  -21.6659   -6.8881   21.4239 O   0  0  0  0  0  0
  -22.3445  -14.5497   20.6761 O   0  0  0  0  0  0
  -24.6128  -31.8647   23.2031 C   0  0  0  0  0  0
  -25.9011  -32.4782   23.8351 C   0  0  1  0  0  0
  -27.2526  -27.4412   20.0870 C   0  0  0  0  0  0
  -25.5861  -33.8601   24.2275 N   0  0  0  0  0  0
  -23.4017  -30.4896   21.5421 C   0  0  2  0  0  0
  -24.8518  -28.9390   20.1152 C   0  0  0  0  0  0
  -22.7389  -29.4674   22.4945 C   0  0  0  0  0  0
  -18.0276  -28.1365   22.8505 C   0  0  0  0  0  0
  -24.1488  -36.7365   23.2606 C   0  0  0  0  0  0
  -25.9232  -30.8342   21.3492 C   0  0  0  0  0  0
  -26.0071  -29.4589   20.7159 C   0  0  0  0  0  0
  -27.2017  -28.7084   20.7098 C   0  0  0  0  0  0
  -26.0882  -26.9434   19.4559 C   0  0  0  0  0  0
  -24.8865  -27.6812   19.4843 C   0  0  0  0  0  0
  -23.6106  -29.8053   20.1607 C   0  0  0  0  0  0
  -25.4099  -36.3088   24.0291 C   0  0  1  0  0  0
  -20.5869  -28.3664   23.1292 C   0  0  2  0  0  0
  -20.6791  -26.9395   22.5371 C   0  0  0  0  0  0
  -19.5749  -26.6408   21.5176 C   0  0  0  0  0  0
  -18.1936  -26.7940   22.1600 C   0  0  0  0  0  0
  -19.1522  -28.8835   23.2918 C   0  0  0  0  0  0
  -18.9455  -30.1448   23.8910 C   0  0  0  0  0  0
  -17.6450  -30.6569   24.0587 C   0  0  0  0  0  0
  -25.9031  -34.9465   23.5105 C   0  0  0  0  0  0
  -16.5356  -29.9072   23.6317 C   0  0  0  0  0  0
  -16.7291  -28.6502   23.0329 C   0  0  0  0  0  0
  -26.4490  -31.6524   25.0661 C   0  0  0  0  0  0
  -25.3790  -31.3600   26.1411 C   0  0  0  0  0  0
  -27.0300  -30.2991   24.5951 C   0  0  0  0  0  0
  -27.6073  -32.4237   25.7430 C   0  0  0  0  0  0
  -27.5582  -37.1789   24.8438 C   0  0  0  0  0  0
  -21.4116  -29.3049   22.3731 N   0  0  0  0  0  0
  -26.4279  -37.3762   23.9391 N   0  0  0  0  0  0
  -24.6641  -31.0770   22.0926 N   0  0  0  0  0  0
  -23.4179  -28.8202   23.2981 O   0  0  0  0  0  0
  -28.4564  -26.7681   20.1315 O   0  0  0  0  0  0
  -26.5565  -34.8901   22.4655 O   0  0  0  0  0  0
  -23.5323  -32.1419   23.7426 O   0  0  0  0  0  0
  -30.2217  -19.1936   21.7873 C   0  0  0  0  0  0
  -29.5308  -20.4135   21.6150 C   0  0  0  0  0  0
  -28.8448  -18.1649   20.0692 C   0  0  0  0  0  0
  -29.8877  -18.0534   21.0184 C   0  0  0  0  0  0
  -28.5133  -20.5395   20.6423 C   0  0  0  0  0  0
  -28.1669  -19.3933   19.8880 C   0  0  0  0  0  0
  -30.7533  -16.8162   21.0975 C   0  0  0  0  0  0
  -28.0059  -24.3011   20.4657 C   0  0  0  0  0  0
  -28.7237  -22.9488   20.2021 C   0  0  0  0  0  0
  -28.6260  -25.4407   19.6176 C   0  0  0  0  0  0
  -27.8652  -21.7698   20.3935 N   0  0  0  0  0  0
  -30.1614  -15.6071   20.9388 N   0  0  0  0  0  0
  -31.9594  -16.9825   21.3175 O   0  0  0  0  0  0
  -27.1936  -19.4878   18.9484 F   0  0  0  0  0  0
  -31.4285  -12.2914   19.1803 H   0  0  0  0  0  0
  -30.1676  -11.3177   19.8722 H   0  0  0  0  0  0
  -29.7279  -11.8266   17.4235 H   0  0  0  0  0  0
  -29.6759  -13.5274   17.7986 H   0  0  0  0  0  0
  -27.7892  -11.3592   18.7714 H   0  0  0  0  0  0
  -27.3708  -12.7249   17.7765 H   0  0  0  0  0  0
  -27.6653  -14.2922   19.5544 H   0  0  0  0  0  0
  -28.6603  -12.1102   21.4412 H   0  0  0  0  0  0
  -28.4825  -13.8067   21.8104 H   0  0  0  0  0  0
  -25.2757   -9.5715   22.4729 H   0  0  0  0  0  0
  -24.0023   -7.4652   22.7444 H   0  0  0  0  0  0
  -21.0867   -8.8744   19.8926 H   0  0  0  0  0  0
  -22.3689  -10.9648   19.6135 H   0  0  0  0  0  0
  -21.2031   -7.6146   23.9718 H   0  0  0  0  0  0
  -21.1492   -6.0531   25.9066 H   0  0  0  0  0  0
  -22.0586   -2.7618   23.2866 H   0  0  0  0  0  0
  -22.4175  -11.9803   22.4766 H   0  0  0  0  0  0
  -21.1053  -13.1037   22.2667 H   0  0  0  0  0  0
  -24.6228  -15.8305   20.5153 H   0  0  0  0  0  0
  -26.2541  -15.6594   20.1169 H   0  0  0  0  0  0
  -26.7060  -32.5550   23.1114 H   0  0  0  0  0  0
  -25.0042  -33.9814   25.0438 H   0  0  0  0  0  0
  -22.6959  -31.3088   21.3927 H   0  0  0  0  0  0
  -23.3720  -35.9737   23.3274 H   0  0  0  0  0  0
  -24.3584  -36.9006   22.2022 H   0  0  0  0  0  0
  -23.7301  -37.6567   23.6695 H   0  0  0  0  0  0
  -25.9954  -31.5793   20.5555 H   0  0  0  0  0  0
  -26.8232  -30.9313   21.9422 H   0  0  0  0  0  0
  -28.1011  -29.0910   21.1727 H   0  0  0  0  0  0
  -26.1039  -26.0028   18.9280 H   0  0  0  0  0  0
  -24.0019  -27.2902   19.0010 H   0  0  0  0  0  0
  -23.7123  -30.5687   19.3886 H   0  0  0  0  0  0
  -22.7380  -29.2150   19.8726 H   0  0  0  0  0  0
  -25.1256  -36.1946   25.0780 H   0  0  0  0  0  0
  -21.0006  -28.3271   24.1390 H   0  0  0  0  0  0
  -20.5631  -26.2308   23.3581 H   0  0  0  0  0  0
  -21.6693  -26.7424   22.1178 H   0  0  0  0  0  0
  -19.6914  -25.6307   21.1218 H   0  0  0  0  0  0
  -19.6687  -27.3250   20.6734 H   0  0  0  0  0  0
  -17.4193  -26.6678   21.4005 H   0  0  0  0  0  0
  -18.0342  -26.0025   22.8955 H   0  0  0  0  0  0
  -19.7920  -30.7284   24.2262 H   0  0  0  0  0  0
  -17.4991  -31.6229   24.5201 H   0  0  0  0  0  0
  -15.5327  -30.2973   23.7630 H   0  0  0  0  0  0
  -15.8700  -28.0849   22.6962 H   0  0  0  0  0  0
  -24.6012  -30.6867   25.7822 H   0  0  0  0  0  0
  -24.8910  -32.2709   26.4852 H   0  0  0  0  0  0
  -25.8134  -30.8825   27.0198 H   0  0  0  0  0  0
  -26.2795  -29.6733   24.1088 H   0  0  0  0  0  0
  -27.4187  -29.7193   25.4321 H   0  0  0  0  0  0
  -27.8590  -30.4267   23.8988 H   0  0  0  0  0  0
  -27.2695  -33.3538   26.2011 H   0  0  0  0  0  0
  -28.3924  -32.6743   25.0308 H   0  0  0  0  0  0
  -28.0716  -31.8344   26.5333 H   0  0  0  0  0  0
  -28.2505  -38.0152   24.7528 H   0  0  0  0  0  0
  -28.1106  -36.2657   24.6209 H   0  0  0  0  0  0
  -27.2296  -37.1462   25.8823 H   0  0  0  0  0  0
  -20.9260  -29.8822   21.7001 H   0  0  0  0  0  0
  -26.0159  -38.2836   24.1429 H   0  0  0  0  0  0
  -31.0429  -19.1543   22.4937 H   0  0  0  0  0  0
  -29.8089  -21.2570   22.2275 H   0  0  0  0  0  0
  -28.6014  -17.3304   19.4279 H   0  0  0  0  0  0
  -28.0961  -24.5459   21.5265 H   0  0  0  0  0  0
  -26.9355  -24.2390   20.2683 H   0  0  0  0  0  0
  -29.6174  -22.9132   20.8298 H   0  0  0  0  0  0
  -29.0927  -22.9219   19.1725 H   0  0  0  0  0  0
  -28.3362  -25.3686   18.5673 H   0  0  0  0  0  0
  -29.7081  -25.2952   19.6258 H   0  0  0  0  0  0
  -27.1693  -21.6624   19.6550 H   0  0  0  0  0  0
  -29.1645  -15.5645   21.0383 H   0  0  0  0  0  0
  1 25  1  0  0  0
  1 30  2  0  0  0
  1 82  1  0  0  0
  2  3  1  0  0  0
  2 25  1  0  0  0
  2 85  1  0  0  0
  2 86  1  0  0  0
  3  4  1  0  0  0
  3 87  1  0  0  0
  3 88  1  0  0  0
  4  5  1  0  0  0
  4 89  1  0  0  0
  4 90  1  0  0  0
  5  6  1  0  0  0
  5 26  1  0  0  0
  5 91  1  0  0  0
  6 25  1  0  0  0
  6 92  1  0  0  0
  6 93  1  0  0  0
  7  8  2  0  0  0
  7 26  1  0  0  0
  7 29  1  0  0  0
  8  9  1  0  0  0
  8 22  1  0  0  0
  9 10  1  0  0  0
  9 27  2  0  0  0
 10 11  2  0  0  0
 10 15  1  0  0  0
 11 12  1  0  0  0
 11 94  1  0  0  0
 12 13  2  0  0  0
 12 95  1  0  0  0
 13 14  1  0  0  0
 13 31  1  0  0  0
 14 15  2  0  0  0
 14 96  1  0  0  0
 15 97  1  0  0  0
 16 17  2  0  0  0
 16 21  1  0  0  0
 16 31  1  0  0  0
 17 18  1  0  0  0
 17 98  1  0  0  0
 18 19  2  0  0  0
 18 99  1  0  0  0
 19 20  1  0  0  0
 19 24  1  0  0  0
 20 21  2  0  0  0
 20100  1  0  0  0
 21 23  1  0  0  0
 22 28  1  0  0  0
 22 32  2  0  0  0
 26 27  1  0  0  0
 28101  1  0  0  0
 28102  1  0  0  0
 29103  1  0  0  0
 29104  1  0  0  0
 33 34  1  0  0  0
 33 66  1  0  0  0
 33 70  2  0  0  0
 34 36  1  0  0  0
 34 59  1  0  0  0
 34105  1  0  0  0
 35 44  2  0  0  0
 35 45  1  0  0  0
 35 68  1  0  0  0
 36 56  1  0  0  0
 36106  1  0  0  0
 37 39  1  0  0  0
 37 47  1  0  0  0
 37 66  1  0  0  0
 37107  1  0  0  0
 38 43  2  0  0  0
 38 46  1  0  0  0
 38 47  1  0  0  0
 39 64  1  0  0  0
 39 67  2  0  0  0
 40 52  1  0  0  0
 40 53  2  0  0  0
 40 58  1  0  0  0
 41108  1  0  0  0
 41109  1  0  0  0
 41110  1  0  0  0
 41 48  1  0  0  0
 42 43  1  0  0  0
 42 66  1  0  0  0
 42111  1  0  0  0
 42112  1  0  0  0
 43 44  1  0  0  0
 44113  1  0  0  0
 45 46  2  0  0  0
 45114  1  0  0  0
 46115  1  0  0  0
 47116  1  0  0  0
 47117  1  0  0  0
 48 56  1  0  0  0
 48 65  1  0  0  0
 48118  1  0  0  0
 49 50  1  0  0  0
 49 53  1  0  0  0
 49 64  1  0  0  0
 49119  1  0  0  0
 50 51  1  0  0  0
 50120  1  0  0  0
 50121  1  0  0  0
 51 52  1  0  0  0
 51122  1  0  0  0
 51123  1  0  0  0
 52124  1  0  0  0
 52125  1  0  0  0
 53 54  1  0  0  0
 54 55  2  0  0  0
 54126  1  0  0  0
 55 57  1  0  0  0
 55127  1  0  0  0
 56 69  2  0  0  0
 57 58  2  0  0  0
 57128  1  0  0  0
 58129  1  0  0  0
 59 60  1  0  0  0
 59 61  1  0  0  0
 59 62  1  0  0  0
 60130  1  0  0  0
 60131  1  0  0  0
 60132  1  0  0  0
 61133  1  0  0  0
 61134  1  0  0  0
 61135  1  0  0  0
 62136  1  0  0  0
 62137  1  0  0  0
 62138  1  0  0  0
 63 65  1  0  0  0
 63139  1  0  0  0
 63140  1  0  0  0
 63141  1  0  0  0
 64142  1  0  0  0
 65143  1  0  0  0
 68 80  1  0  0  0
 71 72  2  0  0  0
 71 74  1  0  0  0
 71144  1  0  0  0
 72 75  1  0  0  0
 72145  1  0  0  0
 73 74  2  0  0  0
 73 76  1  0  0  0
 73146  1  0  0  0
 74 77  1  0  0  0
 75 76  2  0  0  0
 75 81  1  0  0  0
 76 84  1  0  0  0
 77 82  1  0  0  0
 77 83  2  0  0  0
 78 79  1  0  0  0
 78 80  1  0  0  0
 78147  1  0  0  0
 78148  1  0  0  0
 79 81  1  0  0  0
 79149  1  0  0  0
 79150  1  0  0  0
 80151  1  0  0  0
 80152  1  0  0  0
 81153  1  0  0  0
 82154  1  0  0  0
M  ISO  4   1 100  68 101  80 101  82 100
M  END
> <chiral flag>
0

> <version>
0

> <s_m_source_file>
/data/baiqing/PycharmProjects/Reinvent-master-3.2/result/LINK_invent/BTK/process_docking_weight1_custom_product_contain_oxygen_bond_distance_aromatic_linkinvent_7_9_3/rearranged_h_0101.sdf

> <i_m_source_file_index>
34

> <r_mmod_Potential_Energy-OPLS-2005>
-84.4992752075195

> <r_mmod_Stretch_Energy-OPLS-2005>
38.7238655090332

> <r_mmod_Bend_Energy-OPLS-2005>
115.969734191895

> <r_mmod_Torsional_Energy-OPLS-2005>
224.540008544922

> <r_mmod_Improper_Torsional_Energy-OPLS-2005>
10.1482696533203

> <r_mmod_Van_der_Waal_Energy-OPLS-2005>
160.57421875

> <r_mmod_Electrostatic_Energy-OPLS-2005>
-428.435363769531

> <r_mmod_Solvation_Energy-OPLS-2005>
-229.084045410156

> <b_mmod_Minimization_Converged-OPLS-2005>
0

> <r_mmod_RMS_Derivative-OPLS-2005>
7.34371566772461

$$$$
34
                    3D
 Structure written by MMmdl.
166175  0  0  1  0            999 V2000
  -30.6988  -14.5319   20.5646 C   0  0  0  0  0  0
  -30.4222  -12.3469   19.4318 C   0  0  0  0  0  0
  -29.4955  -12.5126   18.2094 C   0  0  0  0  0  0
  -28.0187  -12.3648   18.6248 C   0  0  0  0  0  0
  -27.6569  -13.2157   19.8710 C   0  0  2  0  0  0
  -28.7000  -13.0387   20.9960 C   0  0  0  0  0  0
  -25.2556  -13.8171   20.5720 C   0  0  0  0  0  0
  -24.1816  -13.0421   20.9181 C   0  0  0  0  0  0
  -24.6391  -11.6896   20.8726 C   0  0  0  0  0  0
  -23.9061  -10.4270   21.0376 C   0  0  0  0  0  0
  -24.3602   -9.4191   21.9174 C   0  0  0  0  0  0
  -23.6280   -8.2228   22.0740 C   0  0  0  0  0  0
  -22.4267   -8.0262   21.3525 C   0  0  0  0  0  0
  -21.9906   -9.0231   20.4620 C   0  0  0  0  0  0
  -22.7236  -10.2112   20.3026 C   0  0  0  0  0  0
  -21.6838   -6.0741   22.5287 C   0  0  0  0  0  0
  -21.4023   -6.5644   23.8219 C   0  0  0  0  0  0
  -21.3644   -5.6791   24.9175 C   0  0  0  0  0  0
  -21.6039   -4.3055   24.7224 C   0  0  0  0  0  0
  -21.8819   -3.8155   23.4349 C   0  0  0  0  0  0
  -21.9187   -4.6976   22.3407 C   0  0  0  0  0  0
  -22.7842  -13.5211   21.1860 C   0  0  0  0  0  0
  -22.1670   -4.2164   21.0986 F   0  0  0  0  0  0
  -21.5613   -3.4533   25.7727 F   0  0  0  0  0  0
  -30.0247  -13.3516   20.4339 N   0  0  0  0  0  0
  -26.3001  -12.9357   20.3362 N   0  0  0  0  0  0
  -25.9318  -11.6499   20.5769 N   0  0  0  0  0  0
  -22.0464  -12.8142   22.0366 N   0  0  0  0  0  0
  -25.4296  -15.1886   20.4205 N   0  0  0  0  0  0
  -31.8320  -14.6906   20.1037 O   0  0  0  0  0  0
  -21.6623   -6.8874   21.4237 O   0  0  0  0  0  0
  -22.3543  -14.5544   20.6746 O   0  0  0  0  0  0
  -24.6179  -31.8668   23.2092 C   0  0  0  0  0  0
  -25.9068  -32.4821   23.8385 C   0  0  1  0  0  0
  -27.2356  -27.3929   20.1002 C   0  0  0  0  0  0
  -25.5930  -33.8620   24.2328 N   0  0  0  0  0  0
  -23.4069  -30.4886   21.5513 C   0  0  2  0  0  0
  -24.8529  -28.9512   20.1129 C   0  0  0  0  0  0
  -22.7422  -29.4640   22.4994 C   0  0  0  0  0  0
  -18.0265  -28.1381   22.8493 C   0  0  0  0  0  0
  -24.1483  -36.7309   23.2634 C   0  0  0  0  0  0
  -25.9385  -30.8191   21.3667 C   0  0  0  0  0  0
  -26.0153  -29.4497   20.7133 C   0  0  0  0  0  0
  -27.2048  -28.6774   20.7046 C   0  0  0  0  0  0
  -26.0518  -26.9288   19.4769 C   0  0  0  0  0  0
  -24.8690  -27.6915   19.4912 C   0  0  0  0  0  0
  -23.6176  -29.8223   20.1654 C   0  0  0  0  0  0
  -25.4104  -36.3114   24.0340 C   0  0  1  0  0  0
  -20.5857  -28.3671   23.1319 C   0  0  2  0  0  0
  -20.6750  -26.9409   22.5414 C   0  0  0  0  0  0
  -19.5736  -26.6393   21.5204 C   0  0  0  0  0  0
  -18.1915  -26.7927   22.1620 C   0  0  0  0  0  0
  -19.1514  -28.8842   23.2903 C   0  0  0  0  0  0
  -18.9446  -30.1444   23.8918 C   0  0  0  0  0  0
  -17.6451  -30.6593   24.0566 C   0  0  0  0  0  0
  -25.9034  -34.9480   23.5121 C   0  0  0  0  0  0
  -16.5340  -29.9097   23.6320 C   0  0  0  0  0  0
  -16.7255  -28.6507   23.0351 C   0  0  0  0  0  0
  -26.4474  -31.6594   25.0713 C   0  0  0  0  0  0
  -25.3738  -31.3709   26.1462 C   0  0  0  0  0  0
  -27.0283  -30.3029   24.6082 C   0  0  0  0  0  0
  -27.6052  -32.4295   25.7495 C   0  0  0  0  0  0
  -27.5577  -37.1808   24.8468 C   0  0  0  0  0  0
  -21.4145  -29.3040   22.3731 N   0  0  0  0  0  0
  -26.4292  -37.3798   23.9413 N   0  0  0  0  0  0
  -24.6732  -31.0720   22.1017 N   0  0  0  0  0  0
  -23.4166  -28.8181   23.3052 O   0  0  0  0  0  0
  -28.4016  -26.6359   20.1508 O   0  0  0  0  0  0
  -26.5586  -34.8941   22.4675 O   0  0  0  0  0  0
  -23.5367  -32.1464   23.7463 O   0  0  0  0  0  0
  -28.7615  -17.8704   19.7376 C   0  0  0  0  0  0
  -29.7582  -18.1319   20.7007 C   0  0  0  0  0  0
  -30.0334  -19.4990   21.0490 C   0  0  0  0  0  0
  -29.2979  -20.5849   20.4604 C   0  0  0  0  0  0
  -28.0086  -18.9188   19.1832 C   0  0  0  0  0  0
  -28.2504  -20.2574   19.5551 C   0  0  0  0  0  0
  -29.1319  -23.9893   21.9354 C   0  0  0  0  0  0
  -28.7522  -22.5041   21.8784 C   0  0  0  0  0  0
  -29.8087  -23.0068   19.8214 C   0  0  0  0  0  0
  -29.4788  -24.3808   20.4880 C   0  0  1  0  0  0
  -31.1170  -19.7899   22.0850 C   0  0  0  0  0  0
  -30.5240  -16.9463   21.3480 C   0  0  0  0  0  0
  -28.3621  -25.2274   19.7965 C   0  0  0  0  0  0
  -29.5633  -21.9435   20.8125 N   0  0  0  0  0  0
  -26.9758  -18.6464   18.2859 N   0  0  0  0  0  0
  -27.4056  -21.2402   19.0311 N   0  0  0  0  0  0
  -30.0199  -15.5671   21.1129 N   0  0  0  0  0  0
  -31.4672  -12.4458   19.1335 H   0  0  0  0  0  0
  -30.3259  -11.3438   19.8483 H   0  0  0  0  0  0
  -29.7443  -11.7720   17.4474 H   0  0  0  0  0  0
  -29.6578  -13.4900   17.7511 H   0  0  0  0  0  0
  -27.8407  -11.3110   18.8403 H   0  0  0  0  0  0
  -27.3653  -12.6221   17.7899 H   0  0  0  0  0  0
  -27.6901  -14.2583   19.5536 H   0  0  0  0  0  0
  -28.6911  -12.0146   21.3703 H   0  0  0  0  0  0
  -28.4574  -13.6668   21.8539 H   0  0  0  0  0  0
  -25.2731   -9.5674   22.4769 H   0  0  0  0  0  0
  -23.9957   -7.4632   22.7487 H   0  0  0  0  0  0
  -21.0825   -8.8762   19.8952 H   0  0  0  0  0  0
  -22.3692  -10.9643   19.6140 H   0  0  0  0  0  0
  -21.2044   -7.6154   23.9739 H   0  0  0  0  0  0
  -21.1455   -6.0516   25.9081 H   0  0  0  0  0  0
  -22.0612   -2.7624   23.2844 H   0  0  0  0  0  0
  -22.4023  -11.9726   22.4647 H   0  0  0  0  0  0
  -21.1080  -13.1161   22.2567 H   0  0  0  0  0  0
  -24.6708  -15.8503   20.5421 H   0  0  0  0  0  0
  -26.2974  -15.6273   20.1434 H   0  0  0  0  0  0
  -26.7134  -32.5524   23.1142 H   0  0  0  0  0  0
  -25.0105  -33.9778   25.0489 H   0  0  0  0  0  0
  -22.6967  -31.3065   21.4119 H   0  0  0  0  0  0
  -23.3751  -35.9635   23.3309 H   0  0  0  0  0  0
  -24.3570  -36.8905   22.2042 H   0  0  0  0  0  0
  -23.7232  -37.6517   23.6633 H   0  0  0  0  0  0
  -26.0450  -31.5831   20.5958 H   0  0  0  0  0  0
  -26.8277  -30.8809   21.9819 H   0  0  0  0  0  0
  -28.0999  -29.0548   21.1793 H   0  0  0  0  0  0
  -26.0136  -25.9749   18.9717 H   0  0  0  0  0  0
  -23.9772  -27.3028   19.0192 H   0  0  0  0  0  0
  -23.7300  -30.5988   19.4090 H   0  0  0  0  0  0
  -22.7389  -29.2476   19.8645 H   0  0  0  0  0  0
  -25.1276  -36.1978   25.0835 H   0  0  0  0  0  0
  -20.9947  -28.3238   24.1443 H   0  0  0  0  0  0
  -20.5643  -26.2288   23.3607 H   0  0  0  0  0  0
  -21.6626  -26.7448   22.1219 H   0  0  0  0  0  0
  -19.6911  -25.6308   21.1229 H   0  0  0  0  0  0
  -19.6675  -27.3201   20.6735 H   0  0  0  0  0  0
  -17.4184  -26.6671   21.4025 H   0  0  0  0  0  0
  -18.0334  -26.0049   22.9004 H   0  0  0  0  0  0
  -19.7919  -30.7243   24.2313 H   0  0  0  0  0  0
  -17.5009  -31.6273   24.5163 H   0  0  0  0  0  0
  -15.5346  -30.3020   23.7630 H   0  0  0  0  0  0
  -15.8645  -28.0838   22.7073 H   0  0  0  0  0  0
  -24.5929  -30.7027   25.7811 H   0  0  0  0  0  0
  -24.8909  -32.2861   26.4895 H   0  0  0  0  0  0
  -25.8108  -30.8904   27.0227 H   0  0  0  0  0  0
  -26.2830  -29.6836   24.1079 H   0  0  0  0  0  0
  -27.3977  -29.7220   25.4543 H   0  0  0  0  0  0
  -27.8700  -30.4325   23.9277 H   0  0  0  0  0  0
  -27.2678  -33.3591   26.2099 H   0  0  0  0  0  0
  -28.3874  -32.6863   25.0334 H   0  0  0  0  0  0
  -28.0708  -31.8391   26.5400 H   0  0  0  0  0  0
  -28.2607  -38.0096   24.7511 H   0  0  0  0  0  0
  -28.1068  -36.2629   24.6303 H   0  0  0  0  0  0
  -27.2296  -37.1471   25.8873 H   0  0  0  0  0  0
  -20.9326  -29.8787   21.6955 H   0  0  0  0  0  0
  -26.0183  -38.2876   24.1426 H   0  0  0  0  0  0
  -28.5531  -16.8557   19.4312 H   0  0  0  0  0  0
  -30.0186  -24.1070   22.5609 H   0  0  0  0  0  0
  -28.3452  -24.6053   22.3741 H   0  0  0  0  0  0
  -27.6933  -22.3831   21.6442 H   0  0  0  0  0  0
  -28.9484  -22.0033   22.8276 H   0  0  0  0  0  0
  -30.8692  -22.9829   19.5669 H   0  0  0  0  0  0
  -29.2785  -22.8713   18.8800 H   0  0  0  0  0  0
  -30.3861  -24.9867   20.4827 H   0  0  0  0  0  0
  -30.7550  -19.5373   23.0824 H   0  0  0  0  0  0
  -31.4218  -20.8357   22.1052 H   0  0  0  0  0  0
  -32.0173  -19.2080   21.8923 H   0  0  0  0  0  0
  -30.5103  -17.0929   22.4292 H   0  0  0  0  0  0
  -31.5724  -17.0233   21.0543 H   0  0  0  0  0  0
  -27.4086  -24.7655   20.0553 H   0  0  0  0  0  0
  -28.4659  -25.1565   18.7129 H   0  0  0  0  0  0
  -26.5249  -17.7449   18.3871 H   0  0  0  0  0  0
  -26.2981  -19.4015   18.2666 H   0  0  0  0  0  0
  -27.7447  -22.1677   19.2450 H   0  0  0  0  0  0
  -27.2105  -21.1185   18.0452 H   0  0  0  0  0  0
  -29.0935  -15.3666   21.4580 H   0  0  0  0  0  0
  1 25  1  0  0  0
  1 30  2  0  0  0
  1 87  1  0  0  0
  2  3  1  0  0  0
  2 25  1  0  0  0
  2 88  1  0  0  0
  2 89  1  0  0  0
  3  4  1  0  0  0
  3 90  1  0  0  0
  3 91  1  0  0  0
  4  5  1  0  0  0
  4 92  1  0  0  0
  4 93  1  0  0  0
  5  6  1  0  0  0
  5 26  1  0  0  0
  5 94  1  0  0  0
  6 25  1  0  0  0
  6 95  1  0  0  0
  6 96  1  0  0  0
  7  8  2  0  0  0
  7 26  1  0  0  0
  7 29  1  0  0  0
  8  9  1  0  0  0
  8 22  1  0  0  0
  9 10  1  0  0  0
  9 27  2  0  0  0
 10 11  2  0  0  0
 10 15  1  0  0  0
 11 12  1  0  0  0
 11 97  1  0  0  0
 12 13  2  0  0  0
 12 98  1  0  0  0
 13 14  1  0  0  0
 13 31  1  0  0  0
 14 15  2  0  0  0
 14 99  1  0  0  0
 15100  1  0  0  0
 16 17  2  0  0  0
 16 21  1  0  0  0
 16 31  1  0  0  0
 17 18  1  0  0  0
 17101  1  0  0  0
 18 19  2  0  0  0
 18102  1  0  0  0
 19 20  1  0  0  0
 19 24  1  0  0  0
 20 21  2  0  0  0
 20103  1  0  0  0
 21 23  1  0  0  0
 22 28  1  0  0  0
 22 32  2  0  0  0
 26 27  1  0  0  0
 28104  1  0  0  0
 28105  1  0  0  0
 29106  1  0  0  0
 29107  1  0  0  0
 33 34  1  0  0  0
 33 66  1  0  0  0
 33 70  2  0  0  0
 34 36  1  0  0  0
 34 59  1  0  0  0
 34108  1  0  0  0
 35 44  2  0  0  0
 35 45  1  0  0  0
 35 68  1  0  0  0
 36 56  1  0  0  0
 36109  1  0  0  0
 37 39  1  0  0  0
 37 47  1  0  0  0
 37 66  1  0  0  0
 37110  1  0  0  0
 38 43  2  0  0  0
 38 46  1  0  0  0
 38 47  1  0  0  0
 39 64  1  0  0  0
 39 67  2  0  0  0
 40 52  1  0  0  0
 40 53  2  0  0  0
 40 58  1  0  0  0
 41111  1  0  0  0
 41112  1  0  0  0
 41113  1  0  0  0
 41 48  1  0  0  0
 42 43  1  0  0  0
 42 66  1  0  0  0
 42114  1  0  0  0
 42115  1  0  0  0
 43 44  1  0  0  0
 44116  1  0  0  0
 45 46  2  0  0  0
 45117  1  0  0  0
 46118  1  0  0  0
 47119  1  0  0  0
 47120  1  0  0  0
 48 56  1  0  0  0
 48 65  1  0  0  0
 48121  1  0  0  0
 49 50  1  0  0  0
 49 53  1  0  0  0
 49 64  1  0  0  0
 49122  1  0  0  0
 50 51  1  0  0  0
 50123  1  0  0  0
 50124  1  0  0  0
 51 52  1  0  0  0
 51125  1  0  0  0
 51126  1  0  0  0
 52127  1  0  0  0
 52128  1  0  0  0
 53 54  1  0  0  0
 54 55  2  0  0  0
 54129  1  0  0  0
 55 57  1  0  0  0
 55130  1  0  0  0
 56 69  2  0  0  0
 57 58  2  0  0  0
 57131  1  0  0  0
 58132  1  0  0  0
 59 60  1  0  0  0
 59 61  1  0  0  0
 59 62  1  0  0  0
 60133  1  0  0  0
 60134  1  0  0  0
 60135  1  0  0  0
 61136  1  0  0  0
 61137  1  0  0  0
 61138  1  0  0  0
 62139  1  0  0  0
 62140  1  0  0  0
 62141  1  0  0  0
 63 65  1  0  0  0
 63142  1  0  0  0
 63143  1  0  0  0
 63144  1  0  0  0
 64145  1  0  0  0
 65146  1  0  0  0
 68 83  1  0  0  0
 71 72  2  0  0  0
 71 75  1  0  0  0
 71147  1  0  0  0
 72 73  1  0  0  0
 72 82  1  0  0  0
 73 74  2  0  0  0
 73 81  1  0  0  0
 74 76  1  0  0  0
 74 84  1  0  0  0
 75 76  2  0  0  0
 75 85  1  0  0  0
 76 86  1  0  0  0
 77 78  1  0  0  0
 77 80  1  0  0  0
 77148  1  0  0  0
 77149  1  0  0  0
 78 84  1  0  0  0
 78150  1  0  0  0
 78151  1  0  0  0
 79 80  1  0  0  0
 79 84  1  0  0  0
 79152  1  0  0  0
 79153  1  0  0  0
 80 83  1  0  0  0
 80154  1  0  0  0
 81155  1  0  0  0
 81156  1  0  0  0
 81157  1  0  0  0
 82 87  1  0  0  0
 82158  1  0  0  0
 82159  1  0  0  0
 83160  1  0  0  0
 83161  1  0  0  0
 85162  1  0  0  0
 85163  1  0  0  0
 86164  1  0  0  0
 86165  1  0  0  0
 87166  1  0  0  0
M  ISO  4   1 100  68 101  83 101  87 100
M  END
> <chiral flag>
0

> <version>
0

> <s_m_source_file>
/data/baiqing/PycharmProjects/Reinvent-master-3.2/result/LINK_invent/BTK/process_docking_weight1_custom_product_contain_oxygen_bond_distance_aromatic_linkinvent_7_9_3/rearranged_h_0101.sdf

> <i_m_source_file_index>
35

> <r_mmod_Potential_Energy-OPLS-2005>
-95.0732803344727

> <r_mmod_Stretch_Energy-OPLS-2005>
53.8569297790527

> <r_mmod_Bend_Energy-OPLS-2005>
139.327163696289

> <r_mmod_Torsional_Energy-OPLS-2005>
297.351928710938

> <r_mmod_Improper_Torsional_Energy-OPLS-2005>
16.8448600769043

> <r_mmod_Van_der_Waal_Energy-OPLS-2005>
162.184631347656

> <r_mmod_Electrostatic_Energy-OPLS-2005>
-559.235961914062

> <r_mmod_Solvation_Energy-OPLS-2005>
-226.533706665039

> <b_mmod_Minimization_Converged-OPLS-2005>
0

> <r_mmod_RMS_Derivative-OPLS-2005>
2.32571887969971

$$$$
35
                    3D
 Structure written by MMmdl.
161170  0  0  1  0            999 V2000
  -30.6287  -14.6796   20.3668 C   0  0  0  0  0  0
  -30.4354  -12.3750   19.4675 C   0  0  0  0  0  0
  -29.5038  -12.3710   18.2330 C   0  0  0  0  0  0
  -28.0225  -12.2835   18.6522 C   0  0  0  0  0  0
  -27.6408  -13.2140   19.8376 C   0  0  2  0  0  0
  -28.6946  -13.1614   20.9642 C   0  0  0  0  0  0
  -25.2549  -13.8177   20.5700 C   0  0  0  0  0  0
  -24.1811  -13.0456   20.9204 C   0  0  0  0  0  0
  -24.6354  -11.6924   20.8757 C   0  0  0  0  0  0
  -23.9023  -10.4312   21.0435 C   0  0  0  0  0  0
  -24.3582   -9.4232   21.9206 C   0  0  0  0  0  0
  -23.6273   -8.2261   22.0770 C   0  0  0  0  0  0
  -22.4258   -8.0284   21.3558 C   0  0  0  0  0  0
  -21.9885   -9.0254   20.4665 C   0  0  0  0  0  0
  -22.7199  -10.2142   20.3091 C   0  0  0  0  0  0
  -21.6854   -6.0727   22.5280 C   0  0  0  0  0  0
  -21.4009   -6.5637   23.8209 C   0  0  0  0  0  0
  -21.3665   -5.6789   24.9172 C   0  0  0  0  0  0
  -21.6058   -4.3053   24.7223 C   0  0  0  0  0  0
  -21.8815   -3.8143   23.4341 C   0  0  0  0  0  0
  -21.9193   -4.6958   22.3397 C   0  0  0  0  0  0
  -22.7837  -13.5260   21.1851 C   0  0  0  0  0  0
  -22.1668   -4.2150   21.0969 F   0  0  0  0  0  0
  -21.5635   -3.4537   25.7734 F   0  0  0  0  0  0
  -29.9934  -13.4647   20.3569 N   0  0  0  0  0  0
  -26.2945  -12.9341   20.3277 N   0  0  0  0  0  0
  -25.9285  -11.6505   20.5792 N   0  0  0  0  0  0
  -22.0473  -12.8276   22.0419 N   0  0  0  0  0  0
  -25.4293  -15.1896   20.4127 N   0  0  0  0  0  0
  -31.8602  -14.7358   20.3064 O   0  0  0  0  0  0
  -21.6647   -6.8863   21.4239 O   0  0  0  0  0  0
  -22.3534  -14.5550   20.6665 O   0  0  0  0  0  0
  -24.6251  -31.8629   23.2059 C   0  0  0  0  0  0
  -25.9110  -32.4789   23.8393 C   0  0  1  0  0  0
  -27.2086  -27.3284   20.1209 C   0  0  0  0  0  0
  -25.5931  -33.8591   24.2316 N   0  0  0  0  0  0
  -23.4178  -30.4865   21.5472 C   0  0  2  0  0  0
  -24.8614  -28.9471   20.1107 C   0  0  0  0  0  0
  -22.7461  -29.4635   22.4936 C   0  0  0  0  0  0
  -18.0281  -28.1391   22.8479 C   0  0  0  0  0  0
  -24.1481  -36.7292   23.2642 C   0  0  0  0  0  0
  -25.9580  -30.7953   21.3768 C   0  0  0  0  0  0
  -26.0293  -29.4237   20.7203 C   0  0  0  0  0  0
  -27.2095  -28.6260   20.7151 C   0  0  0  0  0  0
  -26.0269  -26.9090   19.4711 C   0  0  0  0  0  0
  -24.8621  -27.6968   19.4749 C   0  0  0  0  0  0
  -23.6315  -29.8275   20.1605 C   0  0  0  0  0  0
  -25.4103  -36.3085   24.0331 C   0  0  1  0  0  0
  -20.5881  -28.3692   23.1270 C   0  0  2  0  0  0
  -20.6763  -26.9409   22.5401 C   0  0  0  0  0  0
  -19.5748  -26.6390   21.5199 C   0  0  0  0  0  0
  -18.1929  -26.7932   22.1616 C   0  0  0  0  0  0
  -19.1534  -28.8853   23.2877 C   0  0  0  0  0  0
  -18.9459  -30.1453   23.8904 C   0  0  0  0  0  0
  -17.6459  -30.6593   24.0555 C   0  0  0  0  0  0
  -25.9050  -34.9453   23.5120 C   0  0  0  0  0  0
  -16.5350  -29.9091   23.6332 C   0  0  0  0  0  0
  -16.7268  -28.6509   23.0358 C   0  0  0  0  0  0
  -26.4516  -31.6588   25.0752 C   0  0  0  0  0  0
  -25.3750  -31.3706   26.1473 C   0  0  0  0  0  0
  -27.0373  -30.3023   24.6192 C   0  0  0  0  0  0
  -27.6100  -32.4310   25.7496 C   0  0  0  0  0  0
  -27.5569  -37.1791   24.8468 C   0  0  0  0  0  0
  -21.4176  -29.3061   22.3679 N   0  0  0  0  0  0
  -26.4288  -37.3766   23.9405 N   0  0  0  0  0  0
  -24.6855  -31.0645   22.1008 N   0  0  0  0  0  0
  -23.4177  -28.8159   23.3014 O   0  0  0  0  0  0
  -28.3163  -26.4769   20.1551 O   0  0  0  0  0  0
  -26.5611  -34.8897   22.4684 O   0  0  0  0  0  0
  -23.5415  -32.1427   23.7382 O   0  0  0  0  0  0
  -30.8070  -19.2198   21.0732 C   0  0  0  0  0  0
  -28.6992  -19.3554   19.9479 C   0  0  0  0  0  0
  -30.8108  -17.7981   20.9397 C   0  0  0  0  0  0
  -28.6795  -17.9324   19.8602 C   0  0  0  0  0  0
  -29.8053  -20.0609   20.4894 C   0  0  0  0  0  0
  -29.7798  -17.1096   20.2495 C   0  0  0  0  0  0
  -31.2267  -21.9938   20.0159 C   0  0  0  0  0  0
  -28.9525  -22.4671   20.5048 C   0  0  0  0  0  0
  -29.0349  -15.9972   17.4689 C   0  0  0  0  0  0
  -29.9763  -15.6441   18.3645 C   0  0  0  0  0  0
  -31.6313  -23.4759   20.1500 C   0  0  0  0  0  0
  -30.5429  -24.3999   20.6969 C   0  0  0  0  0  0
  -29.1816  -23.9993   20.1398 C   0  0  2  0  0  0
  -28.0795  -25.0654   20.5472 C   0  0  0  0  0  0
  -29.9783  -21.5392   20.3607 N   0  0  0  0  0  0
  -29.9133  -15.7140   19.7782 N   0  0  0  0  0  0
  -32.1002  -21.2590   19.5367 O   0  0  0  0  0  0
  -27.8371  -22.1404   20.9254 O   0  0  0  0  0  0
  -31.4749  -12.4945   19.1558 H   0  0  0  0  0  0
  -30.3838  -11.4187   19.9920 H   0  0  0  0  0  0
  -29.7462  -11.5180   17.5980 H   0  0  0  0  0  0
  -29.6693  -13.2406   17.6040 H   0  0  0  0  0  0
  -27.8454  -11.2465   18.9391 H   0  0  0  0  0  0
  -27.3720  -12.4720   17.7972 H   0  0  0  0  0  0
  -27.6288  -14.2271   19.4379 H   0  0  0  0  0  0
  -28.7169  -12.1789   21.4394 H   0  0  0  0  0  0
  -28.4613  -13.8870   21.7446 H   0  0  0  0  0  0
  -25.2739   -9.5713   22.4762 H   0  0  0  0  0  0
  -24.0010   -7.4648   22.7477 H   0  0  0  0  0  0
  -21.0830   -8.8750   19.8954 H   0  0  0  0  0  0
  -22.3662  -10.9668   19.6196 H   0  0  0  0  0  0
  -21.1997   -7.6147   23.9704 H   0  0  0  0  0  0
  -21.1498   -6.0525   25.9067 H   0  0  0  0  0  0
  -22.0587   -2.7609   23.2837 H   0  0  0  0  0  0
  -22.4068  -11.9942   22.4823 H   0  0  0  0  0  0
  -21.1090  -13.1306   22.2592 H   0  0  0  0  0  0
  -24.6689  -15.8484   20.5401 H   0  0  0  0  0  0
  -26.2962  -15.6289   20.1315 H   0  0  0  0  0  0
  -26.7160  -32.5458   23.1125 H   0  0  0  0  0  0
  -25.0076  -33.9772   25.0453 H   0  0  0  0  0  0
  -22.7107  -31.3068   21.4060 H   0  0  0  0  0  0
  -23.3745  -35.9625   23.3319 H   0  0  0  0  0  0
  -24.3591  -36.8908   22.2060 H   0  0  0  0  0  0
  -23.7229  -37.6491   23.6662 H   0  0  0  0  0  0
  -26.0907  -31.5573   20.6070 H   0  0  0  0  0  0
  -26.8390  -30.8433   22.0053 H   0  0  0  0  0  0
  -28.1096  -28.9855   21.1948 H   0  0  0  0  0  0
  -25.9859  -25.9637   18.9493 H   0  0  0  0  0  0
  -23.9691  -27.3340   18.9847 H   0  0  0  0  0  0
  -23.7488  -30.6090   19.4082 H   0  0  0  0  0  0
  -22.7506  -29.2581   19.8568 H   0  0  0  0  0  0
  -25.1266  -36.1965   25.0820 H   0  0  0  0  0  0
  -20.9967  -28.3268   24.1393 H   0  0  0  0  0  0
  -20.5659  -26.2295   23.3605 H   0  0  0  0  0  0
  -21.6626  -26.7443   22.1190 H   0  0  0  0  0  0
  -19.6915  -25.6304   21.1238 H   0  0  0  0  0  0
  -19.6696  -27.3184   20.6720 H   0  0  0  0  0  0
  -17.4187  -26.6674   21.4030 H   0  0  0  0  0  0
  -18.0337  -26.0083   22.9022 H   0  0  0  0  0  0
  -19.7939  -30.7258   24.2280 H   0  0  0  0  0  0
  -17.5025  -31.6271   24.5155 H   0  0  0  0  0  0
  -15.5355  -30.2997   23.7667 H   0  0  0  0  0  0
  -15.8666  -28.0826   22.7091 H   0  0  0  0  0  0
  -24.5920  -30.7070   25.7780 H   0  0  0  0  0  0
  -24.8936  -32.2859   26.4918 H   0  0  0  0  0  0
  -25.8065  -30.8853   27.0234 H   0  0  0  0  0  0
  -26.2950  -29.6746   24.1244 H   0  0  0  0  0  0
  -27.4124  -29.7301   25.4688 H   0  0  0  0  0  0
  -27.8782  -30.4325   23.9376 H   0  0  0  0  0  0
  -27.2752  -33.3610   26.2079 H   0  0  0  0  0  0
  -28.3887  -32.6872   25.0306 H   0  0  0  0  0  0
  -28.0788  -31.8436   26.5392 H   0  0  0  0  0  0
  -28.2581  -38.0090   24.7502 H   0  0  0  0  0  0
  -28.1069  -36.2626   24.6299 H   0  0  0  0  0  0
  -27.2299  -37.1422   25.8874 H   0  0  0  0  0  0
  -20.9353  -29.8794   21.6895 H   0  0  0  0  0  0
  -26.0188  -38.2841   24.1422 H   0  0  0  0  0  0
  -31.6630  -19.6688   21.5568 H   0  0  0  0  0  0
  -27.8696  -19.8997   19.5177 H   0  0  0  0  0  0
  -31.6788  -17.2612   21.2944 H   0  0  0  0  0  0
  -27.8107  -17.4895   19.4011 H   0  0  0  0  0  0
  -29.2468  -15.9046   16.4118 H   0  0  0  0  0  0
  -28.0560  -16.3641   17.7283 H   0  0  0  0  0  0
  -30.9259  -15.2725   17.9954 H   0  0  0  0  0  0
  -31.9326  -23.8230   19.1611 H   0  0  0  0  0  0
  -32.5176  -23.5421   20.7802 H   0  0  0  0  0  0
  -30.7792  -25.4283   20.4215 H   0  0  0  0  0  0
  -30.5257  -24.3676   21.7872 H   0  0  0  0  0  0
  -29.2395  -24.0309   19.0512 H   0  0  0  0  0  0
  -27.1298  -24.6910   20.1696 H   0  0  0  0  0  0
  -27.9679  -25.0536   21.6314 H   0  0  0  0  0  0
  1 25  1  0  0  0
  1 30  2  0  0  0
  1 86  1  0  0  0
  2  3  1  0  0  0
  2 25  1  0  0  0
  2 89  1  0  0  0
  2 90  1  0  0  0
  3  4  1  0  0  0
  3 91  1  0  0  0
  3 92  1  0  0  0
  4  5  1  0  0  0
  4 93  1  0  0  0
  4 94  1  0  0  0
  5  6  1  0  0  0
  5 26  1  0  0  0
  5 95  1  0  0  0
  6 25  1  0  0  0
  6 96  1  0  0  0
  6 97  1  0  0  0
  7  8  2  0  0  0
  7 26  1  0  0  0
  7 29  1  0  0  0
  8  9  1  0  0  0
  8 22  1  0  0  0
  9 10  1  0  0  0
  9 27  2  0  0  0
 10 11  2  0  0  0
 10 15  1  0  0  0
 11 12  1  0  0  0
 11 98  1  0  0  0
 12 13  2  0  0  0
 12 99  1  0  0  0
 13 14  1  0  0  0
 13 31  1  0  0  0
 14 15  2  0  0  0
 14100  1  0  0  0
 15101  1  0  0  0
 16 17  2  0  0  0
 16 21  1  0  0  0
 16 31  1  0  0  0
 17 18  1  0  0  0
 17102  1  0  0  0
 18 19  2  0  0  0
 18103  1  0  0  0
 19 20  1  0  0  0
 19 24  1  0  0  0
 20 21  2  0  0  0
 20104  1  0  0  0
 21 23  1  0  0  0
 22 28  1  0  0  0
 22 32  2  0  0  0
 26 27  1  0  0  0
 28105  1  0  0  0
 28106  1  0  0  0
 29107  1  0  0  0
 29108  1  0  0  0
 33 34  1  0  0  0
 33 66  1  0  0  0
 33 70  2  0  0  0
 34 36  1  0  0  0
 34 59  1  0  0  0
 34109  1  0  0  0
 35 44  2  0  0  0
 35 45  1  0  0  0
 35 68  1  0  0  0
 36 56  1  0  0  0
 36110  1  0  0  0
 37 39  1  0  0  0
 37 47  1  0  0  0
 37 66  1  0  0  0
 37111  1  0  0  0
 38 43  2  0  0  0
 38 46  1  0  0  0
 38 47  1  0  0  0
 39 64  1  0  0  0
 39 67  2  0  0  0
 40 52  1  0  0  0
 40 53  2  0  0  0
 40 58  1  0  0  0
 41112  1  0  0  0
 41113  1  0  0  0
 41114  1  0  0  0
 41 48  1  0  0  0
 42 43  1  0  0  0
 42 66  1  0  0  0
 42115  1  0  0  0
 42116  1  0  0  0
 43 44  1  0  0  0
 44117  1  0  0  0
 45 46  2  0  0  0
 45118  1  0  0  0
 46119  1  0  0  0
 47120  1  0  0  0
 47121  1  0  0  0
 48 56  1  0  0  0
 48 65  1  0  0  0
 48122  1  0  0  0
 49 50  1  0  0  0
 49 53  1  0  0  0
 49 64  1  0  0  0
 49123  1  0  0  0
 50 51  1  0  0  0
 50124  1  0  0  0
 50125  1  0  0  0
 51 52  1  0  0  0
 51126  1  0  0  0
 51127  1  0  0  0
 52128  1  0  0  0
 52129  1  0  0  0
 53 54  1  0  0  0
 54 55  2  0  0  0
 54130  1  0  0  0
 55 57  1  0  0  0
 55131  1  0  0  0
 56 69  2  0  0  0
 57 58  2  0  0  0
 57132  1  0  0  0
 58133  1  0  0  0
 59 60  1  0  0  0
 59 61  1  0  0  0
 59 62  1  0  0  0
 60134  1  0  0  0
 60135  1  0  0  0
 60136  1  0  0  0
 61137  1  0  0  0
 61138  1  0  0  0
 61139  1  0  0  0
 62140  1  0  0  0
 62141  1  0  0  0
 62142  1  0  0  0
 63 65  1  0  0  0
 63143  1  0  0  0
 63144  1  0  0  0
 63145  1  0  0  0
 64146  1  0  0  0
 65147  1  0  0  0
 68 84  1  0  0  0
 71 73  2  0  0  0
 71 75  1  0  0  0
 71148  1  0  0  0
 72 74  1  0  0  0
 72 75  2  0  0  0
 72149  1  0  0  0
 73 76  1  0  0  0
 73150  1  0  0  0
 74 76  2  0  0  0
 74151  1  0  0  0
 75 85  1  0  0  0
 76 86  1  0  0  0
 77 81  1  0  0  0
 77 85  1  0  0  0
 77 87  2  0  0  0
 78 83  1  0  0  0
 78 85  1  0  0  0
 78 88  2  0  0  0
 79 80  2  0  0  0
 79152  1  0  0  0
 79153  1  0  0  0
 80 86  1  0  0  0
 80154  1  0  0  0
 81 82  1  0  0  0
 81155  1  0  0  0
 81156  1  0  0  0
 82 83  1  0  0  0
 82157  1  0  0  0
 82158  1  0  0  0
 83 84  1  0  0  0
 83159  1  0  0  0
 84160  1  0  0  0
 84161  1  0  0  0
M  ISO  4   1 100  68 101  84 101  86 100
M  END
> <chiral flag>
0

> <version>
0

> <s_m_source_file>
/data/baiqing/PycharmProjects/Reinvent-master-3.2/result/LINK_invent/BTK/process_docking_weight1_custom_product_contain_oxygen_bond_distance_aromatic_linkinvent_7_9_3/rearranged_h_0101.sdf

> <i_m_source_file_index>
36

> <r_mmod_Potential_Energy-OPLS-2005>
447.447021484375

> <r_mmod_Stretch_Energy-OPLS-2005>
99.275993347168

> <r_mmod_Bend_Energy-OPLS-2005>
152.487197875977

> <r_mmod_Torsional_Energy-OPLS-2005>
418.903533935547

> <r_mmod_Improper_Torsional_Energy-OPLS-2005>
29.1242847442627

> <r_mmod_Van_der_Waal_Energy-OPLS-2005>
181.857025146484

> <r_mmod_Electrostatic_Energy-OPLS-2005>
-286.135192871094

> <r_mmod_Solvation_Energy-OPLS-2005>
-219.509460449219

> <b_mmod_Minimization_Converged-OPLS-2005>
0

> <r_mmod_RMS_Derivative-OPLS-2005>
2.51386499404907

$$$$
36
                    3D
 Structure written by MMmdl.
159168  0  0  1  0            999 V2000
  -30.4851  -15.0601   20.3973 C   0  0  0  0  0  0
  -30.4523  -12.6700   19.4833 C   0  0  0  0  0  0
  -29.5292  -12.5361   18.2492 C   0  0  0  0  0  0
  -28.0630  -12.3062   18.6715 C   0  0  0  0  0  0
  -27.6203  -13.2518   19.8190 C   0  0  2  0  0  0
  -28.6671  -13.3355   20.9471 C   0  0  0  0  0  0
  -25.2442  -13.8216   20.5710 C   0  0  0  0  0  0
  -24.1767  -13.0426   20.9217 C   0  0  0  0  0  0
  -24.6393  -11.6912   20.8727 C   0  0  0  0  0  0
  -23.9079  -10.4282   21.0393 C   0  0  0  0  0  0
  -24.3625   -9.4203   21.9181 C   0  0  0  0  0  0
  -23.6295   -8.2241   22.0753 C   0  0  0  0  0  0
  -22.4272   -8.0284   21.3542 C   0  0  0  0  0  0
  -21.9906   -9.0257   20.4641 C   0  0  0  0  0  0
  -22.7241  -10.2140   20.3046 C   0  0  0  0  0  0
  -21.6848   -6.0734   22.5271 C   0  0  0  0  0  0
  -21.4028   -6.5632   23.8210 C   0  0  0  0  0  0
  -21.3662   -5.6778   24.9167 C   0  0  0  0  0  0
  -21.6041   -4.3039   24.7212 C   0  0  0  0  0  0
  -21.8822   -3.8137   23.4333 C   0  0  0  0  0  0
  -21.9196   -4.6962   22.3393 C   0  0  0  0  0  0
  -22.7784  -13.5197   21.1863 C   0  0  0  0  0  0
  -22.1651   -4.2144   21.0967 F   0  0  0  0  0  0
  -21.5631   -3.4522   25.7730 F   0  0  0  0  0  0
  -29.9161  -13.7833   20.3181 N   0  0  0  0  0  0
  -26.2854  -12.9440   20.3172 N   0  0  0  0  0  0
  -25.9319  -11.6566   20.5686 N   0  0  0  0  0  0
  -22.0416  -12.8218   22.0429 N   0  0  0  0  0  0
  -25.4061  -15.1968   20.4207 N   0  0  0  0  0  0
  -31.7155  -15.1136   20.2889 O   0  0  0  0  0  0
  -21.6637   -6.8883   21.4234 O   0  0  0  0  0  0
  -22.3463  -14.5487   20.6687 O   0  0  0  0  0  0
  -24.6489  -31.8374   23.1809 C   0  0  0  0  0  0
  -25.9233  -32.4661   23.8224 C   0  0  1  0  0  0
  -27.2214  -27.0811   20.1678 C   0  0  0  0  0  0
  -25.5948  -33.8467   24.2140 N   0  0  0  0  0  0
  -23.4546  -30.4548   21.5276 C   0  0  2  0  0  0
  -24.9033  -28.8576   20.1216 C   0  0  0  0  0  0
  -22.7579  -29.4541   22.4836 C   0  0  0  0  0  0
  -18.0309  -28.1412   22.8481 C   0  0  0  0  0  0
  -24.1483  -36.7243   23.2643 C   0  0  0  0  0  0
  -26.0125  -30.6975   21.3812 C   0  0  0  0  0  0
  -26.0845  -29.2983   20.7326 C   0  0  0  0  0  0
  -27.2460  -28.4303   20.7259 C   0  0  0  0  0  0
  -26.0095  -26.7398   19.5370 C   0  0  0  0  0  0
  -24.8795  -27.5922   19.5096 C   0  0  0  0  0  0
  -23.6848  -29.7701   20.1531 C   0  0  0  0  0  0
  -25.4114  -36.3012   24.0307 C   0  0  1  0  0  0
  -20.5922  -28.3754   23.1219 C   0  0  2  0  0  0
  -20.6799  -26.9451   22.5408 C   0  0  0  0  0  0
  -19.5774  -26.6397   21.5218 C   0  0  0  0  0  0
  -18.1954  -26.7951   22.1630 C   0  0  0  0  0  0
  -19.1565  -28.8898   23.2848 C   0  0  0  0  0  0
  -18.9481  -30.1483   23.8894 C   0  0  0  0  0  0
  -17.6478  -30.6613   24.0562 C   0  0  0  0  0  0
  -25.9071  -34.9391   23.5034 C   0  0  0  0  0  0
  -16.5370  -29.9107   23.6333 C   0  0  0  0  0  0
  -16.7293  -28.6518   23.0369 C   0  0  0  0  0  0
  -26.4534  -31.6551   25.0691 C   0  0  0  0  0  0
  -25.3699  -31.3766   26.1373 C   0  0  0  0  0  0
  -27.0388  -30.2935   24.6301 C   0  0  0  0  0  0
  -27.6053  -32.4326   25.7499 C   0  0  0  0  0  0
  -27.5562  -37.1775   24.8461 C   0  0  0  0  0  0
  -21.4266  -29.3067   22.3577 N   0  0  0  0  0  0
  -26.4272  -37.3732   23.9409 N   0  0  0  0  0  0
  -24.7267  -31.0191   22.0860 N   0  0  0  0  0  0
  -23.4185  -28.8100   23.3031 O   0  0  0  0  0  0
  -28.3071  -26.1195   20.1181 O   0  0  0  0  0  0
  -26.5683  -34.8905   22.4629 O   0  0  0  0  0  0
  -23.5603  -32.1272   23.7006 O   0  0  0  0  0  0
  -28.7201  -19.0379   22.6177 C   0  0  0  0  0  0
  -29.1503  -17.8131   22.0502 C   0  0  0  0  0  0
  -29.4961  -19.0270   19.9940 C   0  0  0  0  0  0
  -28.6548  -20.2712   21.9171 C   0  0  0  0  0  0
  -29.0876  -20.3721   20.5636 C   0  0  0  0  0  0
  -29.5413  -17.6969   20.7026 C   0  0  0  0  0  0
  -30.2879  -22.0035   19.1155 C   0  0  0  0  0  0
  -28.1562  -21.4637   22.6797 C   0  0  0  0  0  0
  -30.1039  -23.1777   18.1708 C   0  0  0  0  0  0
  -28.6190  -23.4868   18.2920 C   0  0  0  0  0  0
  -28.2863  -23.1086   19.7393 C   0  0  2  0  0  0
  -28.3086  -24.6049   20.5859 C   0  0  0  0  0  0
  -29.2256  -21.7989   19.9222 N   0  0  0  0  0  0
  -26.9491  -21.8920   22.3414 N   0  0  0  0  0  0
  -29.6697  -16.2316   20.1861 N   0  0  0  0  0  0
  -31.3326  -21.3439   19.1090 O   0  0  0  0  0  0
  -28.8179  -21.9823   23.5771 O   0  0  0  0  0  0
  -31.4759  -12.8694   19.1615 H   0  0  0  0  0  0
  -30.4879  -11.7407   20.0541 H   0  0  0  0  0  0
  -29.8694  -11.7218   17.6082 H   0  0  0  0  0  0
  -29.5929  -13.4455   17.6491 H   0  0  0  0  0  0
  -27.9710  -11.2689   18.9954 H   0  0  0  0  0  0
  -27.4028  -12.4182   17.8093 H   0  0  0  0  0  0
  -27.5599  -14.2411   19.3649 H   0  0  0  0  0  0
  -28.7923  -12.3759   21.4503 H   0  0  0  0  0  0
  -28.3528  -14.0508   21.7097 H   0  0  0  0  0  0
  -25.2773   -9.5685   22.4754 H   0  0  0  0  0  0
  -23.9991   -7.4639   22.7485 H   0  0  0  0  0  0
  -21.0827   -8.8798   19.8959 H   0  0  0  0  0  0
  -22.3697  -10.9689   19.6162 H   0  0  0  0  0  0
  -21.2029   -7.6137   23.9716 H   0  0  0  0  0  0
  -21.1475   -6.0500   25.9074 H   0  0  0  0  0  0
  -22.0602   -2.7595   23.2823 H   0  0  0  0  0  0
  -22.3991  -11.9904   22.4890 H   0  0  0  0  0  0
  -21.1043  -13.1289   22.2602 H   0  0  0  0  0  0
  -24.6352  -15.8423   20.5536 H   0  0  0  0  0  0
  -26.2586  -15.6566   20.1305 H   0  0  0  0  0  0
  -26.7301  -32.5266   23.0953 H   0  0  0  0  0  0
  -25.0029  -33.9563   25.0244 H   0  0  0  0  0  0
  -22.7618  -31.2827   21.3628 H   0  0  0  0  0  0
  -23.3752  -35.9566   23.3286 H   0  0  0  0  0  0
  -24.3572  -36.8906   22.2065 H   0  0  0  0  0  0
  -23.7235  -37.6427   23.6707 H   0  0  0  0  0  0
  -26.1623  -31.4440   20.6000 H   0  0  0  0  0  0
  -26.8855  -30.7611   22.0196 H   0  0  0  0  0  0
  -28.1577  -28.7760   21.1940 H   0  0  0  0  0  0
  -25.9305  -25.7716   19.0635 H   0  0  0  0  0  0
  -23.9762  -27.2473   19.0257 H   0  0  0  0  0  0
  -23.8295  -30.5369   19.3909 H   0  0  0  0  0  0
  -22.7979  -29.2143   19.8445 H   0  0  0  0  0  0
  -25.1303  -36.1825   25.0800 H   0  0  0  0  0  0
  -21.0021  -28.3376   24.1335 H   0  0  0  0  0  0
  -20.5703  -26.2371   23.3638 H   0  0  0  0  0  0
  -21.6663  -26.7465   22.1195 H   0  0  0  0  0  0
  -19.6936  -25.6295   21.1285 H   0  0  0  0  0  0
  -19.6713  -27.3178   20.6724 H   0  0  0  0  0  0
  -17.4217  -26.6693   21.4042 H   0  0  0  0  0  0
  -18.0357  -26.0101   22.9036 H   0  0  0  0  0  0
  -19.7954  -30.7298   24.2275 H   0  0  0  0  0  0
  -17.5034  -31.6296   24.5162 H   0  0  0  0  0  0
  -15.5373  -30.3020   23.7648 H   0  0  0  0  0  0
  -15.8690  -28.0832   22.7103 H   0  0  0  0  0  0
  -24.5878  -30.7116   25.7690 H   0  0  0  0  0  0
  -24.8886  -32.2958   26.4728 H   0  0  0  0  0  0
  -25.7959  -30.8980   27.0201 H   0  0  0  0  0  0
  -26.3001  -29.6667   24.1290 H   0  0  0  0  0  0
  -27.3958  -29.7241   25.4898 H   0  0  0  0  0  0
  -27.8933  -30.4155   23.9636 H   0  0  0  0  0  0
  -27.2631  -33.3652   26.2002 H   0  0  0  0  0  0
  -28.3915  -32.6845   25.0366 H   0  0  0  0  0  0
  -28.0658  -31.8492   26.5487 H   0  0  0  0  0  0
  -28.2561  -38.0087   24.7500 H   0  0  0  0  0  0
  -28.1072  -36.2614   24.6286 H   0  0  0  0  0  0
  -27.2282  -37.1420   25.8864 H   0  0  0  0  0  0
  -20.9488  -29.8734   21.6707 H   0  0  0  0  0  0
  -26.0129  -38.2791   24.1433 H   0  0  0  0  0  0
  -28.4069  -19.0239   23.6526 H   0  0  0  0  0  0
  -29.1106  -16.9266   22.6680 H   0  0  0  0  0  0
  -29.7885  -19.0161   18.9534 H   0  0  0  0  0  0
  -30.3940  -22.9262   17.1506 H   0  0  0  0  0  0
  -30.7141  -24.0132   18.5138 H   0  0  0  0  0  0
  -28.0555  -22.8539   17.6035 H   0  0  0  0  0  0
  -28.3867  -24.5224   18.0424 H   0  0  0  0  0  0
  -27.2525  -22.7620   19.7431 H   0  0  0  0  0  0
  -29.2147  -24.5531   21.1895 H   0  0  0  0  0  0
  -27.5113  -24.5411   21.3264 H   0  0  0  0  0  0
  -26.4214  -21.4050   21.6318 H   0  0  0  0  0  0
  -26.5314  -22.6763   22.8179 H   0  0  0  0  0  0
  -28.7857  -15.9164   19.8182 H   0  0  0  0  0  0
  1 25  1  0  0  0
  1 30  2  0  0  0
  1 85  1  0  0  0
  2  3  1  0  0  0
  2 25  1  0  0  0
  2 88  1  0  0  0
  2 89  1  0  0  0
  3  4  1  0  0  0
  3 90  1  0  0  0
  3 91  1  0  0  0
  4  5  1  0  0  0
  4 92  1  0  0  0
  4 93  1  0  0  0
  5  6  1  0  0  0
  5 26  1  0  0  0
  5 94  1  0  0  0
  6 25  1  0  0  0
  6 95  1  0  0  0
  6 96  1  0  0  0
  7  8  2  0  0  0
  7 26  1  0  0  0
  7 29  1  0  0  0
  8  9  1  0  0  0
  8 22  1  0  0  0
  9 10  1  0  0  0
  9 27  2  0  0  0
 10 11  2  0  0  0
 10 15  1  0  0  0
 11 12  1  0  0  0
 11 97  1  0  0  0
 12 13  2  0  0  0
 12 98  1  0  0  0
 13 14  1  0  0  0
 13 31  1  0  0  0
 14 15  2  0  0  0
 14 99  1  0  0  0
 15100  1  0  0  0
 16 17  2  0  0  0
 16 21  1  0  0  0
 16 31  1  0  0  0
 17 18  1  0  0  0
 17101  1  0  0  0
 18 19  2  0  0  0
 18102  1  0  0  0
 19 20  1  0  0  0
 19 24  1  0  0  0
 20 21  2  0  0  0
 20103  1  0  0  0
 21 23  1  0  0  0
 22 28  1  0  0  0
 22 32  2  0  0  0
 26 27  1  0  0  0
 28104  1  0  0  0
 28105  1  0  0  0
 29106  1  0  0  0
 29107  1  0  0  0
 33 34  1  0  0  0
 33 66  1  0  0  0
 33 70  2  0  0  0
 34 36  1  0  0  0
 34 59  1  0  0  0
 34108  1  0  0  0
 35 44  2  0  0  0
 35 45  1  0  0  0
 35 68  1  0  0  0
 36 56  1  0  0  0
 36109  1  0  0  0
 37 39  1  0  0  0
 37 47  1  0  0  0
 37 66  1  0  0  0
 37110  1  0  0  0
 38 43  2  0  0  0
 38 46  1  0  0  0
 38 47  1  0  0  0
 39 64  1  0  0  0
 39 67  2  0  0  0
 40 52  1  0  0  0
 40 53  2  0  0  0
 40 58  1  0  0  0
 41111  1  0  0  0
 41112  1  0  0  0
 41113  1  0  0  0
 41 48  1  0  0  0
 42 43  1  0  0  0
 42 66  1  0  0  0
 42114  1  0  0  0
 42115  1  0  0  0
 43 44  1  0  0  0
 44116  1  0  0  0
 45 46  2  0  0  0
 45117  1  0  0  0
 46118  1  0  0  0
 47119  1  0  0  0
 47120  1  0  0  0
 48 56  1  0  0  0
 48 65  1  0  0  0
 48121  1  0  0  0
 49 50  1  0  0  0
 49 53  1  0  0  0
 49 64  1  0  0  0
 49122  1  0  0  0
 50 51  1  0  0  0
 50123  1  0  0  0
 50124  1  0  0  0
 51 52  1  0  0  0
 51125  1  0  0  0
 51126  1  0  0  0
 52127  1  0  0  0
 52128  1  0  0  0
 53 54  1  0  0  0
 54 55  2  0  0  0
 54129  1  0  0  0
 55 57  1  0  0  0
 55130  1  0  0  0
 56 69  2  0  0  0
 57 58  2  0  0  0
 57131  1  0  0  0
 58132  1  0  0  0
 59 60  1  0  0  0
 59 61  1  0  0  0
 59 62  1  0  0  0
 60133  1  0  0  0
 60134  1  0  0  0
 60135  1  0  0  0
 61136  1  0  0  0
 61137  1  0  0  0
 61138  1  0  0  0
 62139  1  0  0  0
 62140  1  0  0  0
 62141  1  0  0  0
 63 65  1  0  0  0
 63142  1  0  0  0
 63143  1  0  0  0
 63144  1  0  0  0
 64145  1  0  0  0
 65146  1  0  0  0
 68 82  1  0  0  0
 71 72  2  0  0  0
 71 74  1  0  0  0
 71147  1  0  0  0
 72 76  1  0  0  0
 72148  1  0  0  0
 73 75  1  0  0  0
 73 76  2  0  0  0
 73149  1  0  0  0
 74 75  2  0  0  0
 74 78  1  0  0  0
 75 83  1  0  0  0
 76 85  1  0  0  0
 77 79  1  0  0  0
 77 83  1  0  0  0
 77 86  2  0  0  0
 78 84  1  0  0  0
 78 87  2  0  0  0
 79 80  1  0  0  0
 79150  1  0  0  0
 79151  1  0  0  0
 80 81  1  0  0  0
 80152  1  0  0  0
 80153  1  0  0  0
 81 82  1  0  0  0
 81 83  1  0  0  0
 81154  1  0  0  0
 82155  1  0  0  0
 82156  1  0  0  0
 84157  1  0  0  0
 84158  1  0  0  0
 85159  1  0  0  0
M  ISO  4   1 100  68 101  82 101  85 100
M  END
> <chiral flag>
0

> <version>
0

> <s_m_source_file>
/data/baiqing/PycharmProjects/Reinvent-master-3.2/result/LINK_invent/BTK/process_docking_weight1_custom_product_contain_oxygen_bond_distance_aromatic_linkinvent_7_9_3/rearranged_h_0101.sdf

> <i_m_source_file_index>
37

> <r_mmod_Potential_Energy-OPLS-2005>
778.793151855469

> <r_mmod_Stretch_Energy-OPLS-2005>
348.438934326172

> <r_mmod_Bend_Energy-OPLS-2005>
370.216491699219

> <r_mmod_Torsional_Energy-OPLS-2005>
388.262939453125

> <r_mmod_Improper_Torsional_Energy-OPLS-2005>
15.6930227279663

> <r_mmod_Van_der_Waal_Energy-OPLS-2005>
116.712074279785

> <r_mmod_Electrostatic_Energy-OPLS-2005>
-446.97998046875

> <r_mmod_Solvation_Energy-OPLS-2005>
-274.354827880859

> <b_mmod_Minimization_Converged-OPLS-2005>
0

> <r_mmod_RMS_Derivative-OPLS-2005>
2.31140327453613

$$$$
37
                    3D
 Structure written by MMmdl.
163172  0  0  1  0            999 V2000
  -30.6372  -14.6304   20.5156 C   0  0  0  0  0  0
  -30.4480  -12.3803   19.4765 C   0  0  0  0  0  0
  -29.5284  -12.4819   18.2400 C   0  0  0  0  0  0
  -28.0488  -12.3275   18.6430 C   0  0  0  0  0  0
  -27.6613  -13.2121   19.8588 C   0  0  2  0  0  0
  -28.6958  -13.0755   20.9991 C   0  0  0  0  0  0
  -25.2638  -13.8160   20.5681 C   0  0  0  0  0  0
  -24.1853  -13.0448   20.9124 C   0  0  0  0  0  0
  -24.6385  -11.6903   20.8646 C   0  0  0  0  0  0
  -23.9058  -10.4281   21.0355 C   0  0  0  0  0  0
  -24.3603   -9.4214   21.9153 C   0  0  0  0  0  0
  -23.6282   -8.2240   22.0737 C   0  0  0  0  0  0
  -22.4275   -8.0268   21.3525 C   0  0  0  0  0  0
  -21.9876   -9.0240   20.4648 C   0  0  0  0  0  0
  -22.7203  -10.2119   20.3055 C   0  0  0  0  0  0
  -21.6854   -6.0712   22.5272 C   0  0  0  0  0  0
  -21.4027   -6.5620   23.8195 C   0  0  0  0  0  0
  -21.3651   -5.6771   24.9153 C   0  0  0  0  0  0
  -21.6056   -4.3054   24.7211 C   0  0  0  0  0  0
  -21.8824   -3.8127   23.4342 C   0  0  0  0  0  0
  -21.9189   -4.6942   22.3398 C   0  0  0  0  0  0
  -22.7880  -13.5276   21.1806 C   0  0  0  0  0  0
  -22.1668   -4.2133   21.0982 F   0  0  0  0  0  0
  -21.5621   -3.4526   25.7716 F   0  0  0  0  0  0
  -30.0214  -13.4068   20.4480 N   0  0  0  0  0  0
  -26.3033  -12.9310   20.3247 N   0  0  0  0  0  0
  -25.9320  -11.6482   20.5656 N   0  0  0  0  0  0
  -22.0519  -12.8282   22.0366 N   0  0  0  0  0  0
  -25.4486  -15.1871   20.4264 N   0  0  0  0  0  0
  -31.7790  -14.7984   20.0758 O   0  0  0  0  0  0
  -21.6649   -6.8851   21.4226 O   0  0  0  0  0  0
  -22.3580  -14.5575   20.6620 O   0  0  0  0  0  0
  -24.6264  -31.8597   23.2014 C   0  0  0  0  0  0
  -25.9111  -32.4779   23.8327 C   0  0  1  0  0  0
  -27.2218  -27.3144   20.0965 C   0  0  0  0  0  0
  -25.5925  -33.8580   24.2253 N   0  0  0  0  0  0
  -23.4193  -30.4847   21.5476 C   0  0  2  0  0  0
  -24.8629  -28.9424   20.1115 C   0  0  0  0  0  0
  -22.7469  -29.4625   22.4949 C   0  0  0  0  0  0
  -18.0284  -28.1392   22.8484 C   0  0  0  0  0  0
  -24.1494  -36.7283   23.2633 C   0  0  0  0  0  0
  -25.9641  -30.7888   21.3743 C   0  0  0  0  0  0
  -26.0370  -29.4165   20.7113 C   0  0  0  0  0  0
  -27.2186  -28.6142   20.6933 C   0  0  0  0  0  0
  -26.0154  -26.8936   19.4889 C   0  0  0  0  0  0
  -24.8542  -27.6847   19.4939 C   0  0  0  0  0  0
  -23.6316  -29.8215   20.1622 C   0  0  0  0  0  0
  -25.4110  -36.3068   24.0323 C   0  0  1  0  0  0
  -20.5881  -28.3679   23.1292 C   0  0  2  0  0  0
  -20.6776  -26.9403   22.5413 C   0  0  0  0  0  0
  -19.5754  -26.6389   21.5210 C   0  0  0  0  0  0
  -18.1929  -26.7935   22.1619 C   0  0  0  0  0  0
  -19.1537  -28.8852   23.2887 C   0  0  0  0  0  0
  -18.9462  -30.1456   23.8904 C   0  0  0  0  0  0
  -17.6461  -30.6591   24.0569 C   0  0  0  0  0  0
  -25.9052  -34.9453   23.5091 C   0  0  0  0  0  0
  -16.5350  -29.9093   23.6340 C   0  0  0  0  0  0
  -16.7271  -28.6512   23.0359 C   0  0  0  0  0  0
  -26.4496  -31.6602   25.0710 C   0  0  0  0  0  0
  -25.3727  -31.3812   26.1451 C   0  0  0  0  0  0
  -27.0301  -30.2995   24.6198 C   0  0  0  0  0  0
  -27.6075  -32.4334   25.7450 C   0  0  0  0  0  0
  -27.5586  -37.1773   24.8450 C   0  0  0  0  0  0
  -21.4181  -29.3035   22.3680 N   0  0  0  0  0  0
  -26.4278  -37.3767   23.9422 N   0  0  0  0  0  0
  -24.6895  -31.0587   22.0986 N   0  0  0  0  0  0
  -23.4183  -28.8158   23.3025 O   0  0  0  0  0  0
  -28.3476  -26.4673   20.1141 O   0  0  0  0  0  0
  -26.5620  -34.8921   22.4658 O   0  0  0  0  0  0
  -23.5424  -32.1405   23.7331 O   0  0  0  0  0  0
  -29.8886  -19.4452   21.6422 C   0  0  0  0  0  0
  -30.0274  -17.6723   19.4698 C   0  0  0  0  0  0
  -29.9177  -18.0290   21.8604 C   0  0  0  0  0  0
  -29.9300  -20.0078   20.3419 C   0  0  0  0  0  0
  -29.9946  -17.1087   20.7742 C   0  0  0  0  0  0
  -29.9999  -19.0836   19.2612 C   0  0  0  0  0  0
  -30.2971  -24.0256   18.8581 C   0  0  0  0  0  0
  -31.4367  -22.9959   18.8069 C   0  0  0  0  0  0
  -31.3693  -21.9576   19.9482 C   0  0  0  0  0  0
  -28.9223  -22.4251   20.2951 C   0  0  0  0  0  0
  -29.3320  -23.9599   20.0618 C   0  0  2  0  0  0
  -29.8931  -17.5079   23.2886 C   0  0  0  0  0  0
  -28.1310  -25.0068   19.9397 C   0  0  0  0  0  0
  -30.0174  -21.4235   20.1015 N   0  0  0  0  0  0
  -30.0243  -19.5900   17.9617 N   0  0  0  0  0  0
  -29.8909  -15.6668   20.9989 N   0  0  0  0  0  0
  -30.1687  -24.8542   17.9509 O   0  0  0  0  0  0
  -31.4934  -12.4950   19.1840 H   0  0  0  0  0  0
  -30.3784  -11.3903   19.9295 H   0  0  0  0  0  0
  -29.7937  -11.7112   17.5141 H   0  0  0  0  0  0
  -29.6809  -13.4388   17.7408 H   0  0  0  0  0  0
  -27.8913  -11.2764   18.8870 H   0  0  0  0  0  0
  -27.4066  -12.5404   17.7890 H   0  0  0  0  0  0
  -27.6844  -14.2431   19.5080 H   0  0  0  0  0  0
  -28.6955  -12.0602   21.3979 H   0  0  0  0  0  0
  -28.4265  -13.7196   21.8402 H   0  0  0  0  0  0
  -25.2742   -9.5686   22.4736 H   0  0  0  0  0  0
  -23.9981   -7.4637   22.7453 H   0  0  0  0  0  0
  -21.0794   -8.8769   19.8970 H   0  0  0  0  0  0
  -22.3645  -10.9655   19.6186 H   0  0  0  0  0  0
  -21.2036   -7.6126   23.9693 H   0  0  0  0  0  0
  -21.1486   -6.0508   25.9054 H   0  0  0  0  0  0
  -22.0613   -2.7589   23.2851 H   0  0  0  0  0  0
  -22.4138  -11.9998   22.4888 H   0  0  0  0  0  0
  -21.1139  -13.1354   22.2523 H   0  0  0  0  0  0
  -24.7056  -15.8594   20.5896 H   0  0  0  0  0  0
  -26.3343  -15.6241   20.2063 H   0  0  0  0  0  0
  -26.7185  -32.5444   23.1076 H   0  0  0  0  0  0
  -25.0053  -33.9717   25.0389 H   0  0  0  0  0  0
  -22.7131  -31.3055   21.4059 H   0  0  0  0  0  0
  -23.3758  -35.9615   23.3272 H   0  0  0  0  0  0
  -24.3590  -36.8927   22.2053 H   0  0  0  0  0  0
  -23.7242  -37.6476   23.6672 H   0  0  0  0  0  0
  -26.0955  -31.5569   20.6100 H   0  0  0  0  0  0
  -26.8429  -30.8338   22.0067 H   0  0  0  0  0  0
  -28.1212  -28.9744   21.1679 H   0  0  0  0  0  0
  -25.9254  -25.9363   19.0037 H   0  0  0  0  0  0
  -23.9524  -27.3135   19.0257 H   0  0  0  0  0  0
  -23.7430  -30.5991   19.4052 H   0  0  0  0  0  0
  -22.7503  -29.2486   19.8633 H   0  0  0  0  0  0
  -25.1289  -36.1910   25.0811 H   0  0  0  0  0  0
  -20.9966  -28.3263   24.1414 H   0  0  0  0  0  0
  -20.5675  -26.2285   23.3603 H   0  0  0  0  0  0
  -21.6654  -26.7435   22.1218 H   0  0  0  0  0  0
  -19.6916  -25.6298   21.1246 H   0  0  0  0  0  0
  -19.6707  -27.3203   20.6741 H   0  0  0  0  0  0
  -17.4192  -26.6668   21.4031 H   0  0  0  0  0  0
  -18.0338  -26.0086   22.9022 H   0  0  0  0  0  0
  -19.7939  -30.7275   24.2277 H   0  0  0  0  0  0
  -17.5016  -31.6277   24.5163 H   0  0  0  0  0  0
  -15.5355  -30.2995   23.7659 H   0  0  0  0  0  0
  -15.8668  -28.0830   22.7075 H   0  0  0  0  0  0
  -24.5829  -30.7243   25.7791 H   0  0  0  0  0  0
  -24.9021  -32.3034   26.4873 H   0  0  0  0  0  0
  -25.8028  -30.8961   27.0222 H   0  0  0  0  0  0
  -26.2868  -29.6759   24.1215 H   0  0  0  0  0  0
  -27.3951  -29.7250   25.4721 H   0  0  0  0  0  0
  -27.8773  -30.4227   23.9443 H   0  0  0  0  0  0
  -27.2685  -33.3608   26.2075 H   0  0  0  0  0  0
  -28.3835  -32.6938   25.0241 H   0  0  0  0  0  0
  -28.0803  -31.8440   26.5318 H   0  0  0  0  0  0
  -28.2586  -38.0087   24.7519 H   0  0  0  0  0  0
  -28.1099  -36.2622   24.6233 H   0  0  0  0  0  0
  -27.2321  -37.1375   25.8857 H   0  0  0  0  0  0
  -20.9334  -29.8743   21.6892 H   0  0  0  0  0  0
  -26.0161  -38.2833   24.1471 H   0  0  0  0  0  0
  -29.8588  -20.1080   22.4942 H   0  0  0  0  0  0
  -30.0567  -17.0149   18.6136 H   0  0  0  0  0  0
  -32.4005  -23.5103   18.8216 H   0  0  0  0  0  0
  -31.3795  -22.4766   17.8484 H   0  0  0  0  0  0
  -31.6782  -22.4175   20.8899 H   0  0  0  0  0  0
  -32.0864  -21.1553   19.7587 H   0  0  0  0  0  0
  -28.1208  -22.1712   19.5987 H   0  0  0  0  0  0
  -28.5025  -22.3146   21.2952 H   0  0  0  0  0  0
  -29.9197  -24.2543   20.9303 H   0  0  0  0  0  0
  -29.8998  -18.3226   24.0130 H   0  0  0  0  0  0
  -30.7696  -16.8833   23.4724 H   0  0  0  0  0  0
  -28.9997  -16.9091   23.4683 H   0  0  0  0  0  0
  -27.3718  -24.7080   20.6618 H   0  0  0  0  0  0
  -27.6881  -24.8301   18.9591 H   0  0  0  0  0  0
  -29.4469  -19.1043   17.2868 H   0  0  0  0  0  0
  -29.8271  -20.5880   17.9651 H   0  0  0  0  0  0
  -29.0506  -15.3728   21.4746 H   0  0  0  0  0  0
  1 25  1  0  0  0
  1 30  2  0  0  0
  1 86  1  0  0  0
  2  3  1  0  0  0
  2 25  1  0  0  0
  2 88  1  0  0  0
  2 89  1  0  0  0
  3  4  1  0  0  0
  3 90  1  0  0  0
  3 91  1  0  0  0
  4  5  1  0  0  0
  4 92  1  0  0  0
  4 93  1  0  0  0
  5  6  1  0  0  0
  5 26  1  0  0  0
  5 94  1  0  0  0
  6 25  1  0  0  0
  6 95  1  0  0  0
  6 96  1  0  0  0
  7  8  2  0  0  0
  7 26  1  0  0  0
  7 29  1  0  0  0
  8  9  1  0  0  0
  8 22  1  0  0  0
  9 10  1  0  0  0
  9 27  2  0  0  0
 10 11  2  0  0  0
 10 15  1  0  0  0
 11 12  1  0  0  0
 11 97  1  0  0  0
 12 13  2  0  0  0
 12 98  1  0  0  0
 13 14  1  0  0  0
 13 31  1  0  0  0
 14 15  2  0  0  0
 14 99  1  0  0  0
 15100  1  0  0  0
 16 17  2  0  0  0
 16 21  1  0  0  0
 16 31  1  0  0  0
 17 18  1  0  0  0
 17101  1  0  0  0
 18 19  2  0  0  0
 18102  1  0  0  0
 19 20  1  0  0  0
 19 24  1  0  0  0
 20 21  2  0  0  0
 20103  1  0  0  0
 21 23  1  0  0  0
 22 28  1  0  0  0
 22 32  2  0  0  0
 26 27  1  0  0  0
 28104  1  0  0  0
 28105  1  0  0  0
 29106  1  0  0  0
 29107  1  0  0  0
 33 34  1  0  0  0
 33 66  1  0  0  0
 33 70  2  0  0  0
 34 36  1  0  0  0
 34 59  1  0  0  0
 34108  1  0  0  0
 35 44  2  0  0  0
 35 45  1  0  0  0
 35 68  1  0  0  0
 36 56  1  0  0  0
 36109  1  0  0  0
 37 39  1  0  0  0
 37 47  1  0  0  0
 37 66  1  0  0  0
 37110  1  0  0  0
 38 43  2  0  0  0
 38 46  1  0  0  0
 38 47  1  0  0  0
 39 64  1  0  0  0
 39 67  2  0  0  0
 40 52  1  0  0  0
 40 53  2  0  0  0
 40 58  1  0  0  0
 41111  1  0  0  0
 41112  1  0  0  0
 41113  1  0  0  0
 41 48  1  0  0  0
 42 43  1  0  0  0
 42 66  1  0  0  0
 42114  1  0  0  0
 42115  1  0  0  0
 43 44  1  0  0  0
 44116  1  0  0  0
 45 46  2  0  0  0
 45117  1  0  0  0
 46118  1  0  0  0
 47119  1  0  0  0
 47120  1  0  0  0
 48 56  1  0  0  0
 48 65  1  0  0  0
 48121  1  0  0  0
 49 50  1  0  0  0
 49 53  1  0  0  0
 49 64  1  0  0  0
 49122  1  0  0  0
 50 51  1  0  0  0
 50123  1  0  0  0
 50124  1  0  0  0
 51 52  1  0  0  0
 51125  1  0  0  0
 51126  1  0  0  0
 52127  1  0  0  0
 52128  1  0  0  0
 53 54  1  0  0  0
 54 55  2  0  0  0
 54129  1  0  0  0
 55 57  1  0  0  0
 55130  1  0  0  0
 56 69  2  0  0  0
 57 58  2  0  0  0
 57131  1  0  0  0
 58132  1  0  0  0
 59 60  1  0  0  0
 59 61  1  0  0  0
 59 62  1  0  0  0
 60133  1  0  0  0
 60134  1  0  0  0
 60135  1  0  0  0
 61136  1  0  0  0
 61137  1  0  0  0
 61138  1  0  0  0
 62139  1  0  0  0
 62140  1  0  0  0
 62141  1  0  0  0
 63 65  1  0  0  0
 63142  1  0  0  0
 63143  1  0  0  0
 63144  1  0  0  0
 64145  1  0  0  0
 65146  1  0  0  0
 68 83  1  0  0  0
 71 73  2  0  0  0
 71 74  1  0  0  0
 71147  1  0  0  0
 72 75  2  0  0  0
 72 76  1  0  0  0
 72148  1  0  0  0
 73 75  1  0  0  0
 73 82  1  0  0  0
 74 76  2  0  0  0
 74 84  1  0  0  0
 75 86  1  0  0  0
 76 85  1  0  0  0
 77 78  1  0  0  0
 77 81  1  0  0  0
 77 87  2  0  0  0
 78 79  1  0  0  0
 78149  1  0  0  0
 78150  1  0  0  0
 79 84  1  0  0  0
 79151  1  0  0  0
 79152  1  0  0  0
 80 81  1  0  0  0
 80 84  1  0  0  0
 80153  1  0  0  0
 80154  1  0  0  0
 81 83  1  0  0  0
 81155  1  0  0  0
 82156  1  0  0  0
 82157  1  0  0  0
 82158  1  0  0  0
 83159  1  0  0  0
 83160  1  0  0  0
 85161  1  0  0  0
 85162  1  0  0  0
 86163  1  0  0  0
M  ISO  4   1 100  68 101  83 101  86 100
M  END
> <chiral flag>
0

> <version>
0

> <s_m_source_file>
/data/baiqing/PycharmProjects/Reinvent-master-3.2/result/LINK_invent/BTK/process_docking_weight1_custom_product_contain_oxygen_bond_distance_aromatic_linkinvent_7_9_3/rearranged_h_0101.sdf

> <i_m_source_file_index>
38

> <r_mmod_Potential_Energy-OPLS-2005>
23.3705654144287

> <r_mmod_Stretch_Energy-OPLS-2005>
83.1511459350586

> <r_mmod_Bend_Energy-OPLS-2005>
141.633911132812

> <r_mmod_Torsional_Energy-OPLS-2005>
248.753356933594

> <r_mmod_Improper_Torsional_Energy-OPLS-2005>
9.35627269744873

> <r_mmod_Van_der_Waal_Energy-OPLS-2005>
155.824020385742

> <r_mmod_Electrostatic_Energy-OPLS-2005>
-420.255249023438

> <r_mmod_Solvation_Energy-OPLS-2005>
-242.591354370117

> <b_mmod_Minimization_Converged-OPLS-2005>
0

> <r_mmod_RMS_Derivative-OPLS-2005>
4.32061290740967

$$$$
38
                    3D
 Structure written by MMmdl.
151159  0  0  1  0            999 V2000
  -30.6240  -14.7128   20.4559 C   0  0  0  0  0  0
  -30.4260  -12.4287   19.4809 C   0  0  0  0  0  0
  -29.5114  -12.5211   18.2394 C   0  0  0  0  0  0
  -28.0342  -12.3558   18.6424 C   0  0  0  0  0  0
  -27.6473  -13.2367   19.8603 C   0  0  2  0  0  0
  -28.6895  -13.1460   20.9987 C   0  0  0  0  0  0
  -25.2522  -13.8215   20.5686 C   0  0  0  0  0  0
  -24.1813  -13.0453   20.9196 C   0  0  0  0  0  0
  -24.6407  -11.6933   20.8734 C   0  0  0  0  0  0
  -23.9079  -10.4307   21.0389 C   0  0  0  0  0  0
  -24.3630   -9.4223   21.9169 C   0  0  0  0  0  0
  -23.6304   -8.2260   22.0746 C   0  0  0  0  0  0
  -22.4283   -8.0295   21.3542 C   0  0  0  0  0  0
  -21.9919   -9.0266   20.4639 C   0  0  0  0  0  0
  -22.7248  -10.2144   20.3044 C   0  0  0  0  0  0
  -21.6862   -6.0743   22.5271 C   0  0  0  0  0  0
  -21.4023   -6.5641   23.8207 C   0  0  0  0  0  0
  -21.3662   -5.6790   24.9168 C   0  0  0  0  0  0
  -21.6044   -4.3052   24.7212 C   0  0  0  0  0  0
  -21.8822   -3.8147   23.4331 C   0  0  0  0  0  0
  -21.9198   -4.6970   22.3394 C   0  0  0  0  0  0
  -22.7830  -13.5230   21.1851 C   0  0  0  0  0  0
  -22.1659   -4.2157   21.0969 F   0  0  0  0  0  0
  -21.5631   -3.4532   25.7720 F   0  0  0  0  0  0
  -30.0014  -13.4846   20.4312 N   0  0  0  0  0  0
  -26.2963  -12.9431   20.3308 N   0  0  0  0  0  0
  -25.9343  -11.6566   20.5756 N   0  0  0  0  0  0
  -22.0480  -12.8229   22.0416 N   0  0  0  0  0  0
  -25.4209  -15.1945   20.4101 N   0  0  0  0  0  0
  -31.7921  -14.8162   20.0689 O   0  0  0  0  0  0
  -21.6649   -6.8888   21.4236 O   0  0  0  0  0  0
  -22.3506  -14.5529   20.6690 O   0  0  0  0  0  0
  -24.6307  -31.8560   23.2001 C   0  0  0  0  0  0
  -25.9132  -32.4765   23.8337 C   0  0  1  0  0  0
  -27.2211  -27.2639   20.1238 C   0  0  0  0  0  0
  -25.5936  -33.8566   24.2266 N   0  0  0  0  0  0
  -23.4275  -30.4802   21.5432 C   0  0  2  0  0  0
  -24.8757  -28.9316   20.1076 C   0  0  0  0  0  0
  -22.7498  -29.4610   22.4907 C   0  0  0  0  0  0
  -18.0299  -28.1380   22.8484 C   0  0  0  0  0  0
  -24.1497  -36.7288   23.2634 C   0  0  0  0  0  0
  -25.9738  -30.7680   21.3829 C   0  0  0  0  0  0
  -26.0457  -29.3913   20.7242 C   0  0  0  0  0  0
  -27.2173  -28.5674   20.7279 C   0  0  0  0  0  0
  -26.0333  -26.8880   19.4534 C   0  0  0  0  0  0
  -24.8752  -27.6874   19.4616 C   0  0  0  0  0  0
  -23.6461  -29.8179   20.1579 C   0  0  0  0  0  0
  -25.4120  -36.3083   24.0330 C   0  0  1  0  0  0
  -20.5902  -28.3701   23.1266 C   0  0  2  0  0  0
  -20.6789  -26.9414   22.5410 C   0  0  0  0  0  0
  -19.5767  -26.6374   21.5215 C   0  0  0  0  0  0
  -18.1945  -26.7924   22.1620 C   0  0  0  0  0  0
  -19.1547  -28.8855   23.2876 C   0  0  0  0  0  0
  -18.9465  -30.1456   23.8894 C   0  0  0  0  0  0
  -17.6462  -30.6581   24.0562 C   0  0  0  0  0  0
  -25.9057  -34.9450   23.5103 C   0  0  0  0  0  0
  -16.5357  -29.9076   23.6325 C   0  0  0  0  0  0
  -16.7284  -28.6493   23.0350 C   0  0  0  0  0  0
  -26.4496  -31.6580   25.0718 C   0  0  0  0  0  0
  -25.3714  -31.3721   26.1433 C   0  0  0  0  0  0
  -27.0337  -30.2998   24.6193 C   0  0  0  0  0  0
  -27.6054  -32.4312   25.7488 C   0  0  0  0  0  0
  -27.5600  -37.1790   24.8451 C   0  0  0  0  0  0
  -21.4206  -29.3050   22.3650 N   0  0  0  0  0  0
  -26.4296  -37.3784   23.9420 N   0  0  0  0  0  0
  -24.6963  -31.0530   22.0981 N   0  0  0  0  0  0
  -23.4196  -28.8150   23.3008 O   0  0  0  0  0  0
  -28.3135  -26.3643   20.2130 O   0  0  0  0  0  0
  -26.5617  -34.8923   22.4665 O   0  0  0  0  0  0
  -23.5459  -32.1386   23.7296 O   0  0  0  0  0  0
  -29.9215  -18.4009   17.9838 C   0  0  0  0  0  0
  -30.0436  -17.2015   18.7101 C   0  0  0  0  0  0
  -29.6505  -19.6289   18.6192 C   0  0  0  0  0  0
  -29.6150  -18.4578   20.7475 C   0  0  0  0  0  0
  -29.8832  -17.1718   20.1126 C   0  0  0  0  0  0
  -29.5061  -19.7228   20.0242 C   0  0  0  0  0  0
  -28.9583  -23.7015   20.5590 C   0  0  0  0  0  0
  -28.1390  -24.9094   19.8603 C   0  0  0  0  0  0
  -28.9051  -22.2244   19.8922 C   0  0  0  0  0  0
  -29.8887  -15.8432   20.7781 N   0  0  0  0  0  0
  -29.2917  -20.9914   20.6527 O   0  0  0  0  0  0
  -31.4711  -12.5289   19.1850 H   0  0  0  0  0  0
  -30.3434  -11.4441   19.9445 H   0  0  0  0  0  0
  -29.7878  -11.7633   17.5056 H   0  0  0  0  0  0
  -29.6521  -13.4855   17.7487 H   0  0  0  0  0  0
  -27.8736  -11.3035   18.8783 H   0  0  0  0  0  0
  -27.3839  -12.5778   17.7944 H   0  0  0  0  0  0
  -27.6497  -14.2659   19.5014 H   0  0  0  0  0  0
  -28.7085  -12.1426   21.4259 H   0  0  0  0  0  0
  -28.4261  -13.8197   21.8158 H   0  0  0  0  0  0
  -25.2776   -9.5703   22.4741 H   0  0  0  0  0  0
  -24.0011   -7.4656   22.7465 H   0  0  0  0  0  0
  -21.0850   -8.8788   19.8956 H   0  0  0  0  0  0
  -22.3695  -10.9685   19.6157 H   0  0  0  0  0  0
  -21.2016   -7.6148   23.9717 H   0  0  0  0  0  0
  -21.1482   -6.0514   25.9073 H   0  0  0  0  0  0
  -22.0598   -2.7610   23.2826 H   0  0  0  0  0  0
  -22.4088  -11.9897   22.4822 H   0  0  0  0  0  0
  -21.1095  -13.1252   22.2608 H   0  0  0  0  0  0
  -24.6539  -15.8493   20.5182 H   0  0  0  0  0  0
  -26.2720  -15.6335   20.0812 H   0  0  0  0  0  0
  -26.7194  -32.5423   23.1073 H   0  0  0  0  0  0
  -25.0108  -33.9697   25.0431 H   0  0  0  0  0  0
  -22.7246  -31.3034   21.3992 H   0  0  0  0  0  0
  -23.3787  -35.9590   23.3251 H   0  0  0  0  0  0
  -24.3611  -36.8955   22.2062 H   0  0  0  0  0  0
  -23.7209  -37.6460   23.6678 H   0  0  0  0  0  0
  -26.1139  -31.5300   20.6151 H   0  0  0  0  0  0
  -26.8505  -30.8151   22.0170 H   0  0  0  0  0  0
  -28.1074  -28.9110   21.2363 H   0  0  0  0  0  0
  -25.9612  -25.9548   18.9169 H   0  0  0  0  0  0
  -23.9851  -27.3344   18.9594 H   0  0  0  0  0  0
  -23.7705  -30.5966   19.4044 H   0  0  0  0  0  0
  -22.7642  -29.2517   19.8525 H   0  0  0  0  0  0
  -25.1302  -36.1934   25.0823 H   0  0  0  0  0  0
  -21.0005  -28.3286   24.1384 H   0  0  0  0  0  0
  -20.5701  -26.2309   23.3617 H   0  0  0  0  0  0
  -21.6657  -26.7444   22.1198 H   0  0  0  0  0  0
  -19.6930  -25.6282   21.1255 H   0  0  0  0  0  0
  -19.6711  -27.3176   20.6741 H   0  0  0  0  0  0
  -17.4222  -26.6685   21.4013 H   0  0  0  0  0  0
  -18.0335  -26.0059   22.9007 H   0  0  0  0  0  0
  -19.7940  -30.7272   24.2264 H   0  0  0  0  0  0
  -17.5014  -31.6263   24.5158 H   0  0  0  0  0  0
  -15.5354  -30.2972   23.7645 H   0  0  0  0  0  0
  -15.8690  -28.0806   22.7061 H   0  0  0  0  0  0
  -24.5890  -30.7073   25.7749 H   0  0  0  0  0  0
  -24.8896  -32.2885   26.4853 H   0  0  0  0  0  0
  -25.8022  -30.8890   27.0213 H   0  0  0  0  0  0
  -26.2909  -29.6744   24.1224 H   0  0  0  0  0  0
  -27.4035  -29.7261   25.4703 H   0  0  0  0  0  0
  -27.8786  -30.4282   23.9422 H   0  0  0  0  0  0
  -27.2666  -33.3615   26.2063 H   0  0  0  0  0  0
  -28.3860  -32.6868   25.0307 H   0  0  0  0  0  0
  -28.0720  -31.8431   26.5404 H   0  0  0  0  0  0
  -28.2567  -38.0141   24.7588 H   0  0  0  0  0  0
  -28.1152  -36.2679   24.6168 H   0  0  0  0  0  0
  -27.2330  -37.1304   25.8852 H   0  0  0  0  0  0
  -20.9380  -29.8783   21.6870 H   0  0  0  0  0  0
  -26.0183  -38.2854   24.1457 H   0  0  0  0  0  0
  -30.0301  -18.3759   16.9078 H   0  0  0  0  0  0
  -30.2300  -16.2897   18.1602 H   0  0  0  0  0  0
  -29.5703  -20.4951   17.9815 H   0  0  0  0  0  0
  -29.4868  -18.4791   21.8197 H   0  0  0  0  0  0
  -28.6090  -23.6198   21.5884 H   0  0  0  0  0  0
  -30.0060  -23.9934   20.6347 H   0  0  0  0  0  0
  -27.1028  -24.6222   20.0292 H   0  0  0  0  0  0
  -28.2986  -24.8394   18.7838 H   0  0  0  0  0  0
  -29.5254  -22.3041   19.0017 H   0  0  0  0  0  0
  -27.8886  -22.0526   19.5364 H   0  0  0  0  0  0
  -29.0753  -15.6548   21.3447 H   0  0  0  0  0  0
  1 25  1  0  0  0
  1 30  2  0  0  0
  1 80  1  0  0  0
  2  3  1  0  0  0
  2 25  1  0  0  0
  2 82  1  0  0  0
  2 83  1  0  0  0
  3  4  1  0  0  0
  3 84  1  0  0  0
  3 85  1  0  0  0
  4  5  1  0  0  0
  4 86  1  0  0  0
  4 87  1  0  0  0
  5  6  1  0  0  0
  5 26  1  0  0  0
  5 88  1  0  0  0
  6 25  1  0  0  0
  6 89  1  0  0  0
  6 90  1  0  0  0
  7  8  2  0  0  0
  7 26  1  0  0  0
  7 29  1  0  0  0
  8  9  1  0  0  0
  8 22  1  0  0  0
  9 10  1  0  0  0
  9 27  2  0  0  0
 10 11  2  0  0  0
 10 15  1  0  0  0
 11 12  1  0  0  0
 11 91  1  0  0  0
 12 13  2  0  0  0
 12 92  1  0  0  0
 13 14  1  0  0  0
 13 31  1  0  0  0
 14 15  2  0  0  0
 14 93  1  0  0  0
 15 94  1  0  0  0
 16 17  2  0  0  0
 16 21  1  0  0  0
 16 31  1  0  0  0
 17 18  1  0  0  0
 17 95  1  0  0  0
 18 19  2  0  0  0
 18 96  1  0  0  0
 19 20  1  0  0  0
 19 24  1  0  0  0
 20 21  2  0  0  0
 20 97  1  0  0  0
 21 23  1  0  0  0
 22 28  1  0  0  0
 22 32  2  0  0  0
 26 27  1  0  0  0
 28 98  1  0  0  0
 28 99  1  0  0  0
 29100  1  0  0  0
 29101  1  0  0  0
 33 34  1  0  0  0
 33 66  1  0  0  0
 33 70  2  0  0  0
 34 36  1  0  0  0
 34 59  1  0  0  0
 34102  1  0  0  0
 35 44  2  0  0  0
 35 45  1  0  0  0
 35 68  1  0  0  0
 36 56  1  0  0  0
 36103  1  0  0  0
 37 39  1  0  0  0
 37 47  1  0  0  0
 37 66  1  0  0  0
 37104  1  0  0  0
 38 43  2  0  0  0
 38 46  1  0  0  0
 38 47  1  0  0  0
 39 64  1  0  0  0
 39 67  2  0  0  0
 40 52  1  0  0  0
 40 53  2  0  0  0
 40 58  1  0  0  0
 41105  1  0  0  0
 41106  1  0  0  0
 41107  1  0  0  0
 41 48  1  0  0  0
 42 43  1  0  0  0
 42 66  1  0  0  0
 42108  1  0  0  0
 42109  1  0  0  0
 43 44  1  0  0  0
 44110  1  0  0  0
 45 46  2  0  0  0
 45111  1  0  0  0
 46112  1  0  0  0
 47113  1  0  0  0
 47114  1  0  0  0
 48 56  1  0  0  0
 48 65  1  0  0  0
 48115  1  0  0  0
 49 50  1  0  0  0
 49 53  1  0  0  0
 49 64  1  0  0  0
 49116  1  0  0  0
 50 51  1  0  0  0
 50117  1  0  0  0
 50118  1  0  0  0
 51 52  1  0  0  0
 51119  1  0  0  0
 51120  1  0  0  0
 52121  1  0  0  0
 52122  1  0  0  0
 53 54  1  0  0  0
 54 55  2  0  0  0
 54123  1  0  0  0
 55 57  1  0  0  0
 55124  1  0  0  0
 56 69  2  0  0  0
 57 58  2  0  0  0
 57125  1  0  0  0
 58126  1  0  0  0
 59 60  1  0  0  0
 59 61  1  0  0  0
 59 62  1  0  0  0
 60127  1  0  0  0
 60128  1  0  0  0
 60129  1  0  0  0
 61130  1  0  0  0
 61131  1  0  0  0
 61132  1  0  0  0
 62133  1  0  0  0
 62134  1  0  0  0
 62135  1  0  0  0
 63 65  1  0  0  0
 63136  1  0  0  0
 63137  1  0  0  0
 63138  1  0  0  0
 64139  1  0  0  0
 65140  1  0  0  0
 68 78  1  0  0  0
 71 72  2  0  0  0
 71 73  1  0  0  0
 71141  1  0  0  0
 72 75  1  0  0  0
 72142  1  0  0  0
 73 76  2  0  0  0
 73143  1  0  0  0
 74 75  2  0  0  0
 74 76  1  0  0  0
 74144  1  0  0  0
 75 80  1  0  0  0
 76 81  1  0  0  0
 77 78  1  0  0  0
 77 79  1  0  0  0
 77145  1  0  0  0
 77146  1  0  0  0
 78147  1  0  0  0
 78148  1  0  0  0
 79 81  1  0  0  0
 79149  1  0  0  0
 79150  1  0  0  0
 80151  1  0  0  0
M  ISO  4   1 100  68 101  78 101  80 100
M  END
> <chiral flag>
0

> <version>
0

> <s_m_source_file>
/data/baiqing/PycharmProjects/Reinvent-master-3.2/result/LINK_invent/BTK/process_docking_weight1_custom_product_contain_oxygen_bond_distance_aromatic_linkinvent_7_9_3/rearranged_h_0101.sdf

> <i_m_source_file_index>
39

> <r_mmod_Potential_Energy-OPLS-2005>
185.519424438477

> <r_mmod_Stretch_Energy-OPLS-2005>
124.80167388916

> <r_mmod_Bend_Energy-OPLS-2005>
166.076385498047

> <r_mmod_Torsional_Energy-OPLS-2005>
237.988235473633

> <r_mmod_Improper_Torsional_Energy-OPLS-2005>
4.65315580368042

> <r_mmod_Van_der_Waal_Energy-OPLS-2005>
146.747375488281

> <r_mmod_Electrostatic_Energy-OPLS-2005>
-355.506103515625

> <r_mmod_Solvation_Energy-OPLS-2005>
-217.155700683594

> <b_mmod_Minimization_Converged-OPLS-2005>
0

> <r_mmod_RMS_Derivative-OPLS-2005>
1.40038752555847

$$$$
39
                    3D
 Structure written by MMmdl.
160169  0  0  1  0            999 V2000
  -30.7371  -14.4593   20.6487 C   0  0  0  0  0  0
  -30.4221  -12.3289   19.4197 C   0  0  0  0  0  0
  -29.4945  -12.5331   18.2070 C   0  0  0  0  0  0
  -28.0175  -12.3834   18.6194 C   0  0  0  0  0  0
  -27.6631  -13.2172   19.8803 C   0  0  2  0  0  0
  -28.7060  -12.9845   20.9966 C   0  0  0  0  0  0
  -25.2499  -13.8157   20.5578 C   0  0  0  0  0  0
  -24.1778  -13.0405   20.9070 C   0  0  0  0  0  0
  -24.6402  -11.6895   20.8695 C   0  0  0  0  0  0
  -23.9074  -10.4274   21.0373 C   0  0  0  0  0  0
  -24.3635   -9.4194   21.9139 C   0  0  0  0  0  0
  -23.6296   -8.2245   22.0746 C   0  0  0  0  0  0
  -22.4278   -8.0285   21.3533 C   0  0  0  0  0  0
  -21.9927   -9.0240   20.4613 C   0  0  0  0  0  0
  -22.7245  -10.2126   20.3028 C   0  0  0  0  0  0
  -21.6863   -6.0746   22.5281 C   0  0  0  0  0  0
  -21.4020   -6.5640   23.8212 C   0  0  0  0  0  0
  -21.3661   -5.6779   24.9166 C   0  0  0  0  0  0
  -21.6047   -4.3041   24.7193 C   0  0  0  0  0  0
  -21.8830   -3.8135   23.4312 C   0  0  0  0  0  0
  -21.9205   -4.6974   22.3386 C   0  0  0  0  0  0
  -22.7797  -13.5169   21.1795 C   0  0  0  0  0  0
  -22.1668   -4.2170   21.0959 F   0  0  0  0  0  0
  -21.5629   -3.4507   25.7695 F   0  0  0  0  0  0
  -30.0371  -13.3023   20.4577 N   0  0  0  0  0  0
  -26.3034  -12.9393   20.3428 N   0  0  0  0  0  0
  -25.9355  -11.6534   20.5808 N   0  0  0  0  0  0
  -22.0491  -12.8141   22.0386 N   0  0  0  0  0  0
  -25.4088  -15.1861   20.3929 N   0  0  0  0  0  0
  -31.7991  -14.6700   20.0532 O   0  0  0  0  0  0
  -21.6641   -6.8889   21.4245 O   0  0  0  0  0  0
  -22.3456  -14.5484   20.6686 O   0  0  0  0  0  0
  -24.6168  -31.8674   23.2080 C   0  0  0  0  0  0
  -25.9048  -32.4821   23.8392 C   0  0  1  0  0  0
  -27.2301  -27.4077   20.0941 C   0  0  0  0  0  0
  -25.5888  -33.8617   24.2326 N   0  0  0  0  0  0
  -23.4058  -30.4921   21.5491 C   0  0  2  0  0  0
  -24.8506  -28.9576   20.1140 C   0  0  0  0  0  0
  -22.7423  -29.4665   22.4969 C   0  0  0  0  0  0
  -18.0283  -28.1374   22.8493 C   0  0  0  0  0  0
  -24.1486  -36.7325   23.2640 C   0  0  0  0  0  0
  -25.9387  -30.8237   21.3664 C   0  0  0  0  0  0
  -26.0146  -29.4576   20.7111 C   0  0  0  0  0  0
  -27.2061  -28.6892   20.6992 C   0  0  0  0  0  0
  -26.0364  -26.9268   19.5021 C   0  0  0  0  0  0
  -24.8576  -27.6928   19.5073 C   0  0  0  0  0  0
  -23.6145  -29.8271   20.1635 C   0  0  0  0  0  0
  -25.4106  -36.3121   24.0339 C   0  0  1  0  0  0
  -20.5877  -28.3671   23.1297 C   0  0  2  0  0  0
  -20.6765  -26.9402   22.5407 C   0  0  0  0  0  0
  -19.5741  -26.6380   21.5207 C   0  0  0  0  0  0
  -18.1926  -26.7919   22.1625 C   0  0  0  0  0  0
  -19.1533  -28.8835   23.2895 C   0  0  0  0  0  0
  -18.9459  -30.1441   23.8911 C   0  0  0  0  0  0
  -17.6461  -30.6579   24.0565 C   0  0  0  0  0  0
  -25.9034  -34.9480   23.5136 C   0  0  0  0  0  0
  -16.5351  -29.9084   23.6323 C   0  0  0  0  0  0
  -16.7273  -28.6496   23.0352 C   0  0  0  0  0  0
  -26.4465  -31.6607   25.0730 C   0  0  0  0  0  0
  -25.3726  -31.3713   26.1476 C   0  0  0  0  0  0
  -27.0301  -30.3046   24.6125 C   0  0  0  0  0  0
  -27.6039  -32.4330   25.7491 C   0  0  0  0  0  0
  -27.5586  -37.1820   24.8467 C   0  0  0  0  0  0
  -21.4150  -29.3044   22.3708 N   0  0  0  0  0  0
  -26.4303  -37.3796   23.9405 N   0  0  0  0  0  0
  -24.6720  -31.0760   22.0994 N   0  0  0  0  0  0
  -23.4185  -28.8207   23.3014 O   0  0  0  0  0  0
  -28.3808  -26.6319   20.1372 O   0  0  0  0  0  0
  -26.5605  -34.8930   22.4705 O   0  0  0  0  0  0
  -23.5352  -32.1426   23.7464 O   0  0  0  0  0  0
  -29.3121  -18.9942   21.4204 C   0  0  0  0  0  0
  -27.5243  -19.6760   22.9316 C   0  0  0  0  0  0
  -28.6207  -20.0285   22.1159 C   0  0  0  0  0  0
  -27.7993  -17.3202   22.3592 C   0  0  0  0  0  0
  -28.9274  -17.6281   21.5553 C   0  0  0  0  0  0
  -27.1099  -18.3404   23.0417 C   0  0  0  0  0  0
  -28.7514  -24.2558   19.7162 C   0  0  0  0  0  0
  -28.4617  -25.5206   19.3239 C   0  0  0  0  0  0
  -29.0701  -21.4747   22.1422 C   0  0  0  0  0  0
  -28.7342  -23.0666   18.7916 C   0  0  0  0  0  0
  -29.0523  -23.7422   21.1095 C   0  0  0  0  0  0
  -28.5653  -21.8376   19.7005 C   0  0  0  0  0  0
  -30.2420  -15.5853   21.5969 C   0  0  0  0  0  0
  -28.9157  -22.2709   21.0531 N   0  0  0  0  0  0
  -27.3211  -16.0182   22.4990 N   0  0  0  0  0  0
  -29.4682  -21.9297   23.2184 O   0  0  0  0  0  0
  -29.6026  -16.6429   20.8483 O   0  0  0  0  0  0
  -26.0463  -18.0254   23.8232 F   0  0  0  0  0  0
  -31.4641  -12.4253   19.1135 H   0  0  0  0  0  0
  -30.3302  -11.3130   19.8057 H   0  0  0  0  0  0
  -29.7386  -11.8159   17.4237 H   0  0  0  0  0  0
  -29.6634  -13.5235   17.7798 H   0  0  0  0  0  0
  -27.8329  -11.3260   18.8103 H   0  0  0  0  0  0
  -27.3667  -12.6608   17.7906 H   0  0  0  0  0  0
  -27.7071  -14.2702   19.5969 H   0  0  0  0  0  0
  -28.6861  -11.9410   21.3144 H   0  0  0  0  0  0
  -28.4463  -13.5523   21.8851 H   0  0  0  0  0  0
  -25.2787   -9.5670   22.4691 H   0  0  0  0  0  0
  -24.0012   -7.4618   22.7442 H   0  0  0  0  0  0
  -21.0876   -8.8754   19.8898 H   0  0  0  0  0  0
  -22.3713  -10.9654   19.6124 H   0  0  0  0  0  0
  -21.2018   -7.6148   23.9713 H   0  0  0  0  0  0
  -21.1482   -6.0499   25.9076 H   0  0  0  0  0  0
  -22.0616   -2.7605   23.2790 H   0  0  0  0  0  0
  -21.1050  -13.1028   22.2509 H   0  0  0  0  0  0
  -22.4202  -11.9879   22.4842 H   0  0  0  0  0  0
  -24.6173  -15.7408   20.6968 H   0  0  0  0  0  0
  -26.2653  -15.5443   20.8213 H   0  0  0  0  0  0
  -26.7122  -32.5524   23.1158 H   0  0  0  0  0  0
  -25.0022  -33.9780   25.0459 H   0  0  0  0  0  0
  -22.6959  -31.3101   21.4097 H   0  0  0  0  0  0
  -23.3746  -35.9664   23.3314 H   0  0  0  0  0  0
  -24.3580  -36.8925   22.2054 H   0  0  0  0  0  0
  -23.7243  -37.6534   23.6645 H   0  0  0  0  0  0
  -26.0587  -31.5895   20.5991 H   0  0  0  0  0  0
  -26.8236  -30.8742   21.9883 H   0  0  0  0  0  0
  -28.1022  -29.0675   21.1708 H   0  0  0  0  0  0
  -25.9901  -25.9485   19.0463 H   0  0  0  0  0  0
  -23.9608  -27.2961   19.0509 H   0  0  0  0  0  0
  -23.7246  -30.6014   19.4029 H   0  0  0  0  0  0
  -22.7376  -29.2478   19.8677 H   0  0  0  0  0  0
  -25.1285  -36.1997   25.0833 H   0  0  0  0  0  0
  -20.9978  -28.3243   24.1412 H   0  0  0  0  0  0
  -20.5652  -26.2289   23.3605 H   0  0  0  0  0  0
  -21.6637  -26.7432   22.1209 H   0  0  0  0  0  0
  -19.6903  -25.6293   21.1234 H   0  0  0  0  0  0
  -19.6670  -27.3190   20.6736 H   0  0  0  0  0  0
  -17.4191  -26.6668   21.4033 H   0  0  0  0  0  0
  -18.0336  -26.0056   22.9016 H   0  0  0  0  0  0
  -19.7935  -30.7251   24.2286 H   0  0  0  0  0  0
  -17.5018  -31.6261   24.5165 H   0  0  0  0  0  0
  -15.5353  -30.2992   23.7629 H   0  0  0  0  0  0
  -15.8674  -28.0815   22.7065 H   0  0  0  0  0  0
  -24.5892  -30.7070   25.7809 H   0  0  0  0  0  0
  -24.8925  -32.2868   26.4944 H   0  0  0  0  0  0
  -25.8071  -30.8863   27.0227 H   0  0  0  0  0  0
  -26.2848  -29.6802   24.1179 H   0  0  0  0  0  0
  -27.4063  -29.7289   25.4594 H   0  0  0  0  0  0
  -27.8691  -30.4362   23.9287 H   0  0  0  0  0  0
  -27.2653  -33.3614   26.2104 H   0  0  0  0  0  0
  -28.3824  -32.6917   25.0302 H   0  0  0  0  0  0
  -28.0738  -31.8437   26.5376 H   0  0  0  0  0  0
  -28.2618  -38.0103   24.7500 H   0  0  0  0  0  0
  -28.1066  -36.2636   24.6312 H   0  0  0  0  0  0
  -27.2304  -37.1495   25.8869 H   0  0  0  0  0  0
  -20.9313  -29.8788   21.6947 H   0  0  0  0  0  0
  -26.0202  -38.2885   24.1373 H   0  0  0  0  0  0
  -30.1673  -19.2429   20.8105 H   0  0  0  0  0  0
  -26.9966  -20.4367   23.4895 H   0  0  0  0  0  0
  -28.2366  -25.7644   18.2936 H   0  0  0  0  0  0
  -29.6914  -23.0210   18.2707 H   0  0  0  0  0  0
  -27.9447  -23.1424   18.0429 H   0  0  0  0  0  0
  -28.3599  -24.1766   21.8330 H   0  0  0  0  0  0
  -30.0684  -24.0151   21.3970 H   0  0  0  0  0  0
  -29.1915  -21.0103   19.3652 H   0  0  0  0  0  0
  -27.5283  -21.4967   19.6954 H   0  0  0  0  0  0
  -31.1226  -16.0184   22.0727 H   0  0  0  0  0  0
  -29.6643  -15.1853   22.4219 H   0  0  0  0  0  0
  -26.6226  -15.9376   23.2310 H   0  0  0  0  0  0
  -28.0306  -15.3093   22.6009 H   0  0  0  0  0  0
  1 25  1  0  0  0
  1 30  2  0  0  0
  1 83  1  0  0  0
  2  3  1  0  0  0
  2 25  1  0  0  0
  2 89  1  0  0  0
  2 90  1  0  0  0
  3  4  1  0  0  0
  3 91  1  0  0  0
  3 92  1  0  0  0
  4  5  1  0  0  0
  4 93  1  0  0  0
  4 94  1  0  0  0
  5  6  1  0  0  0
  5 26  1  0  0  0
  5 95  1  0  0  0
  6 25  1  0  0  0
  6 96  1  0  0  0
  6 97  1  0  0  0
  7  8  2  0  0  0
  7 26  1  0  0  0
  7 29  1  0  0  0
  8  9  1  0  0  0
  8 22  1  0  0  0
  9 10  1  0  0  0
  9 27  2  0  0  0
 10 11  2  0  0  0
 10 15  1  0  0  0
 11 12  1  0  0  0
 11 98  1  0  0  0
 12 13  2  0  0  0
 12 99  1  0  0  0
 13 14  1  0  0  0
 13 31  1  0  0  0
 14 15  2  0  0  0
 14100  1  0  0  0
 15101  1  0  0  0
 16 17  2  0  0  0
 16 21  1  0  0  0
 16 31  1  0  0  0
 17 18  1  0  0  0
 17102  1  0  0  0
 18 19  2  0  0  0
 18103  1  0  0  0
 19 20  1  0  0  0
 19 24  1  0  0  0
 20 21  2  0  0  0
 20104  1  0  0  0
 21 23  1  0  0  0
 22 28  1  0  0  0
 22 32  2  0  0  0
 26 27  1  0  0  0
 28105  1  0  0  0
 28106  1  0  0  0
 29107  1  0  0  0
 29108  1  0  0  0
 33 34  1  0  0  0
 33 66  1  0  0  0
 33 70  2  0  0  0
 34 36  1  0  0  0
 34 59  1  0  0  0
 34109  1  0  0  0
 35 44  2  0  0  0
 35 45  1  0  0  0
 35 68  1  0  0  0
 36 56  1  0  0  0
 36110  1  0  0  0
 37 39  1  0  0  0
 37 47  1  0  0  0
 37 66  1  0  0  0
 37111  1  0  0  0
 38 43  2  0  0  0
 38 46  1  0  0  0
 38 47  1  0  0  0
 39 64  1  0  0  0
 39 67  2  0  0  0
 40 52  1  0  0  0
 40 53  2  0  0  0
 40 58  1  0  0  0
 41112  1  0  0  0
 41113  1  0  0  0
 41114  1  0  0  0
 41 48  1  0  0  0
 42 43  1  0  0  0
 42 66  1  0  0  0
 42115  1  0  0  0
 42116  1  0  0  0
 43 44  1  0  0  0
 44117  1  0  0  0
 45 46  2  0  0  0
 45118  1  0  0  0
 46119  1  0  0  0
 47120  1  0  0  0
 47121  1  0  0  0
 48 56  1  0  0  0
 48 65  1  0  0  0
 48122  1  0  0  0
 49 50  1  0  0  0
 49 53  1  0  0  0
 49 64  1  0  0  0
 49123  1  0  0  0
 50 51  1  0  0  0
 50124  1  0  0  0
 50125  1  0  0  0
 51 52  1  0  0  0
 51126  1  0  0  0
 51127  1  0  0  0
 52128  1  0  0  0
 52129  1  0  0  0
 53 54  1  0  0  0
 54 55  2  0  0  0
 54130  1  0  0  0
 55 57  1  0  0  0
 55131  1  0  0  0
 56 69  2  0  0  0
 57 58  2  0  0  0
 57132  1  0  0  0
 58133  1  0  0  0
 59 60  1  0  0  0
 59 61  1  0  0  0
 59 62  1  0  0  0
 60134  1  0  0  0
 60135  1  0  0  0
 60136  1  0  0  0
 61137  1  0  0  0
 61138  1  0  0  0
 61139  1  0  0  0
 62140  1  0  0  0
 62141  1  0  0  0
 62142  1  0  0  0
 63 65  1  0  0  0
 63143  1  0  0  0
 63144  1  0  0  0
 63145  1  0  0  0
 64146  1  0  0  0
 65147  1  0  0  0
 68 78  1  0  0  0
 71 73  2  0  0  0
 71 75  1  0  0  0
 71148  1  0  0  0
 72 73  1  0  0  0
 72 76  2  0  0  0
 72149  1  0  0  0
 73 79  1  0  0  0
 74 75  2  0  0  0
 74 76  1  0  0  0
 74 85  1  0  0  0
 75 87  1  0  0  0
 76 88  1  0  0  0
 77 78  2  0  0  0
 77 80  1  0  0  0
 77 81  1  0  0  0
 78150  1  0  0  0
 79 84  1  0  0  0
 79 86  2  0  0  0
 80 82  1  0  0  0
 80151  1  0  0  0
 80152  1  0  0  0
 81 84  1  0  0  0
 81153  1  0  0  0
 81154  1  0  0  0
 82 84  1  0  0  0
 82155  1  0  0  0
 82156  1  0  0  0
 83 87  1  0  0  0
 83157  1  0  0  0
 83158  1  0  0  0
 85159  1  0  0  0
 85160  1  0  0  0
M  ISO  4   1 100  68 101  78 101  83 100
M  END
> <chiral flag>
0

> <version>
0

> <s_m_source_file>
/data/baiqing/PycharmProjects/Reinvent-master-3.2/result/LINK_invent/BTK/process_docking_weight1_custom_product_contain_oxygen_bond_distance_aromatic_linkinvent_7_9_3/rearranged_h_0101.sdf

> <i_m_source_file_index>
40

> <r_mmod_Potential_Energy-OPLS-2005>
83.5631561279297

> <r_mmod_Stretch_Energy-OPLS-2005>
44.8433456420898

> <r_mmod_Bend_Energy-OPLS-2005>
124.640289306641

> <r_mmod_Torsional_Energy-OPLS-2005>
287.974090576172

> <r_mmod_Improper_Torsional_Energy-OPLS-2005>
13.9140949249268

> <r_mmod_Van_der_Waal_Energy-OPLS-2005>
149.622924804688

> <r_mmod_Electrostatic_Energy-OPLS-2005>
-333.694915771484

> <r_mmod_Solvation_Energy-OPLS-2005>
-217.957489013672

> <b_mmod_Minimization_Converged-OPLS-2005>
0

> <r_mmod_RMS_Derivative-OPLS-2005>
2.02060723304749

$$$$
40
                    3D
 Structure written by MMmdl.
157165  0  0  1  0            999 V2000
  -30.6500  -14.6831   20.3495 C   0  0  0  0  0  0
  -30.4356  -12.3773   19.4649 C   0  0  0  0  0  0
  -29.5001  -12.3481   18.2356 C   0  0  0  0  0  0
  -28.0210  -12.2673   18.6576 C   0  0  0  0  0  0
  -27.6421  -13.2057   19.8362 C   0  0  2  0  0  0
  -28.6989  -13.1817   20.9586 C   0  0  0  0  0  0
  -25.2562  -13.8151   20.5738 C   0  0  0  0  0  0
  -24.1815  -13.0426   20.9214 C   0  0  0  0  0  0
  -24.6378  -11.6899   20.8785 C   0  0  0  0  0  0
  -23.9047  -10.4282   21.0433 C   0  0  0  0  0  0
  -24.3596   -9.4190   21.9205 C   0  0  0  0  0  0
  -23.6275   -8.2228   22.0757 C   0  0  0  0  0  0
  -22.4262   -8.0271   21.3543 C   0  0  0  0  0  0
  -21.9901   -9.0247   20.4650 C   0  0  0  0  0  0
  -22.7225  -10.2132   20.3074 C   0  0  0  0  0  0
  -21.6847   -6.0730   22.5281 C   0  0  0  0  0  0
  -21.4010   -6.5636   23.8215 C   0  0  0  0  0  0
  -21.3660   -5.6792   24.9179 C   0  0  0  0  0  0
  -21.6046   -4.3055   24.7233 C   0  0  0  0  0  0
  -21.8814   -3.8143   23.4356 C   0  0  0  0  0  0
  -21.9188   -4.6958   22.3412 C   0  0  0  0  0  0
  -22.7841  -13.5238   21.1854 C   0  0  0  0  0  0
  -22.1657   -4.2140   21.0991 F   0  0  0  0  0  0
  -21.5628   -3.4543   25.7750 F   0  0  0  0  0  0
  -29.9939  -13.4790   20.3391 N   0  0  0  0  0  0
  -26.2964  -12.9313   20.3323 N   0  0  0  0  0  0
  -25.9305  -11.6489   20.5844 N   0  0  0  0  0  0
  -22.0467  -12.8238   22.0404 N   0  0  0  0  0  0
  -25.4287  -15.1868   20.4224 N   0  0  0  0  0  0
  -31.8816  -14.7098   20.2978 O   0  0  0  0  0  0
  -21.6624   -6.8871   21.4241 O   0  0  0  0  0  0
  -22.3550  -14.5552   20.6701 O   0  0  0  0  0  0
  -24.6249  -31.8605   23.2057 C   0  0  0  0  0  0
  -25.9106  -32.4789   23.8371 C   0  0  1  0  0  0
  -27.2219  -27.3388   20.1074 C   0  0  0  0  0  0
  -25.5928  -33.8590   24.2288 N   0  0  0  0  0  0
  -23.4178  -30.4863   21.5481 C   0  0  2  0  0  0
  -24.8633  -28.9503   20.1091 C   0  0  0  0  0  0
  -22.7472  -29.4625   22.4948 C   0  0  0  0  0  0
  -18.0304  -28.1384   22.8472 C   0  0  0  0  0  0
  -24.1492  -36.7302   23.2637 C   0  0  0  0  0  0
  -25.9580  -30.7983   21.3750 C   0  0  0  0  0  0
  -26.0319  -29.4291   20.7144 C   0  0  0  0  0  0
  -27.2142  -28.6341   20.7070 C   0  0  0  0  0  0
  -26.0306  -26.9172   19.4693 C   0  0  0  0  0  0
  -24.8631  -27.6987   19.4789 C   0  0  0  0  0  0
  -23.6306  -29.8261   20.1619 C   0  0  0  0  0  0
  -25.4114  -36.3091   24.0327 C   0  0  1  0  0  0
  -20.5896  -28.3687   23.1291 C   0  0  2  0  0  0
  -20.6788  -26.9408   22.5410 C   0  0  0  0  0  0
  -19.5783  -26.6378   21.5201 C   0  0  0  0  0  0
  -18.1960  -26.7928   22.1614 C   0  0  0  0  0  0
  -19.1549  -28.8856   23.2880 C   0  0  0  0  0  0
  -18.9454  -30.1454   23.8894 C   0  0  0  0  0  0
  -17.6451  -30.6582   24.0552 C   0  0  0  0  0  0
  -25.9044  -34.9461   23.5101 C   0  0  0  0  0  0
  -16.5350  -29.9067   23.6316 C   0  0  0  0  0  0
  -16.7284  -28.6486   23.0339 C   0  0  0  0  0  0
  -26.4496  -31.6605   25.0743 C   0  0  0  0  0  0
  -25.3734  -31.3737   26.1474 C   0  0  0  0  0  0
  -27.0335  -30.3032   24.6195 C   0  0  0  0  0  0
  -27.6062  -32.4334   25.7514 C   0  0  0  0  0  0
  -27.5578  -37.1808   24.8464 C   0  0  0  0  0  0
  -21.4188  -29.3041   22.3692 N   0  0  0  0  0  0
  -26.4294  -37.3783   23.9405 N   0  0  0  0  0  0
  -24.6859  -31.0638   22.0998 N   0  0  0  0  0  0
  -23.4196  -28.8154   23.3019 O   0  0  0  0  0  0
  -28.3392  -26.4927   20.1703 O   0  0  0  0  0  0
  -26.5607  -34.8922   22.4662 O   0  0  0  0  0  0
  -23.5416  -32.1386   23.7395 O   0  0  0  0  0  0
  -28.6320  -19.3064   19.7417 C   0  0  0  0  0  0
  -30.4851  -19.1994   21.2535 C   0  0  0  0  0  0
  -28.7076  -17.8988   19.5422 C   0  0  0  0  0  0
  -29.5417  -20.0103   20.5654 C   0  0  0  0  0  0
  -29.7294  -17.0937   20.1573 C   0  0  0  0  0  0
  -30.5811  -17.7865   21.0660 C   0  0  0  0  0  0
  -28.8435  -22.4699   20.1264 C   0  0  0  0  0  0
  -27.6613  -17.3196   18.6014 C   0  0  0  0  0  0
  -30.1843  -15.6648   18.2386 C   0  0  0  0  0  0
  -29.1689  -23.9795   20.4489 C   0  0  0  0  0  0
  -28.1104  -25.0498   19.9516 C   0  0  0  0  0  0
  -29.5643  -21.4690   20.7269 N   0  0  0  0  0  0
  -29.9764  -15.7088   19.7043 N   0  0  0  0  0  0
  -27.9372  -22.2326   19.3256 O   0  0  0  0  0  0
  -31.5525  -17.1203   21.7337 F   0  0  0  0  0  0
  -31.4716  -12.4965   19.1430 H   0  0  0  0  0  0
  -30.3946  -11.4311   20.0072 H   0  0  0  0  0  0
  -29.7438  -11.4795   17.6224 H   0  0  0  0  0  0
  -29.6608  -13.1996   17.5834 H   0  0  0  0  0  0
  -27.8416  -11.2324   18.9494 H   0  0  0  0  0  0
  -27.3718  -12.4499   17.8008 H   0  0  0  0  0  0
  -27.6283  -14.2085   19.4222 H   0  0  0  0  0  0
  -28.7258  -12.2114   21.4568 H   0  0  0  0  0  0
  -28.4602  -13.9246   21.7218 H   0  0  0  0  0  0
  -25.2736   -9.5662   22.4789 H   0  0  0  0  0  0
  -23.9982   -7.4614   22.7473 H   0  0  0  0  0  0
  -21.0838   -8.8771   19.8949 H   0  0  0  0  0  0
  -22.3686  -10.9679   19.6193 H   0  0  0  0  0  0
  -21.1997   -7.6143   23.9721 H   0  0  0  0  0  0
  -21.1490   -6.0522   25.9085 H   0  0  0  0  0  0
  -22.0591   -2.7604   23.2863 H   0  0  0  0  0  0
  -22.4071  -11.9901   22.4806 H   0  0  0  0  0  0
  -21.1094  -13.1281   22.2613 H   0  0  0  0  0  0
  -24.6675  -15.8447   20.5501 H   0  0  0  0  0  0
  -26.3032  -15.6324   20.1800 H   0  0  0  0  0  0
  -26.7169  -32.5469   23.1118 H   0  0  0  0  0  0
  -25.0117  -33.9748   25.0462 H   0  0  0  0  0  0
  -22.7107  -31.3064   21.4075 H   0  0  0  0  0  0
  -23.3753  -35.9639   23.3308 H   0  0  0  0  0  0
  -24.3587  -36.8909   22.2052 H   0  0  0  0  0  0
  -23.7247  -37.6508   23.6650 H   0  0  0  0  0  0
  -26.0872  -31.5649   20.6095 H   0  0  0  0  0  0
  -26.8399  -30.8448   22.0029 H   0  0  0  0  0  0
  -28.1098  -28.9951   21.1933 H   0  0  0  0  0  0
  -25.9642  -25.9671   18.9602 H   0  0  0  0  0  0
  -23.9683  -27.3293   18.9966 H   0  0  0  0  0  0
  -23.7468  -30.6033   19.4058 H   0  0  0  0  0  0
  -22.7509  -29.2540   19.8608 H   0  0  0  0  0  0
  -25.1293  -36.1946   25.0820 H   0  0  0  0  0  0
  -20.9982  -28.3266   24.1412 H   0  0  0  0  0  0
  -20.5696  -26.2287   23.3608 H   0  0  0  0  0  0
  -21.6658  -26.7430   22.1211 H   0  0  0  0  0  0
  -19.6943  -25.6281   21.1252 H   0  0  0  0  0  0
  -19.6726  -27.3171   20.6713 H   0  0  0  0  0  0
  -17.4233  -26.6658   21.4017 H   0  0  0  0  0  0
  -18.0364  -26.0087   22.9028 H   0  0  0  0  0  0
  -19.7924  -30.7281   24.2260 H   0  0  0  0  0  0
  -17.4990  -31.6265   24.5144 H   0  0  0  0  0  0
  -15.5343  -30.2952   23.7648 H   0  0  0  0  0  0
  -15.8691  -28.0797   22.7056 H   0  0  0  0  0  0
  -24.5909  -30.7081   25.7807 H   0  0  0  0  0  0
  -24.8933  -32.2904   26.4907 H   0  0  0  0  0  0
  -25.8072  -30.8912   27.0241 H   0  0  0  0  0  0
  -26.2904  -29.6790   24.1216 H   0  0  0  0  0  0
  -27.4023  -29.7285   25.4701 H   0  0  0  0  0  0
  -27.8782  -30.4324   23.9424 H   0  0  0  0  0  0
  -27.2673  -33.3623   26.2111 H   0  0  0  0  0  0
  -28.3872  -32.6901   25.0345 H   0  0  0  0  0  0
  -28.0736  -31.8447   26.5416 H   0  0  0  0  0  0
  -28.2598  -38.0099   24.7499 H   0  0  0  0  0  0
  -28.1061  -36.2629   24.6298 H   0  0  0  0  0  0
  -27.2295  -37.1472   25.8866 H   0  0  0  0  0  0
  -20.9354  -29.8756   21.6905 H   0  0  0  0  0  0
  -26.0175  -38.2858   24.1400 H   0  0  0  0  0  0
  -27.8590  -19.8455   19.2154 H   0  0  0  0  0  0
  -31.1915  -19.6660   21.9237 H   0  0  0  0  0  0
  -26.7152  -17.8548   18.6912 H   0  0  0  0  0  0
  -27.4533  -16.2751   18.8096 H   0  0  0  0  0  0
  -27.9931  -17.4098   17.5665 H   0  0  0  0  0  0
  -30.4617  -16.6415   17.8368 H   0  0  0  0  0  0
  -29.2751  -15.3492   17.7296 H   0  0  0  0  0  0
  -30.9828  -14.9926   17.9152 H   0  0  0  0  0  0
  -30.1357  -24.2073   20.0013 H   0  0  0  0  0  0
  -29.3000  -24.0798   21.5259 H   0  0  0  0  0  0
  -27.1704  -24.7723   20.4302 H   0  0  0  0  0  0
  -27.9679  -24.9075   18.8794 H   0  0  0  0  0  0
  -30.2709  -21.8096   21.3657 H   0  0  0  0  0  0
  1 25  1  0  0  0
  1 30  2  0  0  0
  1 83  1  0  0  0
  2  3  1  0  0  0
  2 25  1  0  0  0
  2 86  1  0  0  0
  2 87  1  0  0  0
  3  4  1  0  0  0
  3 88  1  0  0  0
  3 89  1  0  0  0
  4  5  1  0  0  0
  4 90  1  0  0  0
  4 91  1  0  0  0
  5  6  1  0  0  0
  5 26  1  0  0  0
  5 92  1  0  0  0
  6 25  1  0  0  0
  6 93  1  0  0  0
  6 94  1  0  0  0
  7  8  2  0  0  0
  7 26  1  0  0  0
  7 29  1  0  0  0
  8  9  1  0  0  0
  8 22  1  0  0  0
  9 10  1  0  0  0
  9 27  2  0  0  0
 10 11  2  0  0  0
 10 15  1  0  0  0
 11 12  1  0  0  0
 11 95  1  0  0  0
 12 13  2  0  0  0
 12 96  1  0  0  0
 13 14  1  0  0  0
 13 31  1  0  0  0
 14 15  2  0  0  0
 14 97  1  0  0  0
 15 98  1  0  0  0
 16 17  2  0  0  0
 16 21  1  0  0  0
 16 31  1  0  0  0
 17 18  1  0  0  0
 17 99  1  0  0  0
 18 19  2  0  0  0
 18100  1  0  0  0
 19 20  1  0  0  0
 19 24  1  0  0  0
 20 21  2  0  0  0
 20101  1  0  0  0
 21 23  1  0  0  0
 22 28  1  0  0  0
 22 32  2  0  0  0
 26 27  1  0  0  0
 28102  1  0  0  0
 28103  1  0  0  0
 29104  1  0  0  0
 29105  1  0  0  0
 33 34  1  0  0  0
 33 66  1  0  0  0
 33 70  2  0  0  0
 34 36  1  0  0  0
 34 59  1  0  0  0
 34106  1  0  0  0
 35 44  2  0  0  0
 35 45  1  0  0  0
 35 68  1  0  0  0
 36 56  1  0  0  0
 36107  1  0  0  0
 37 39  1  0  0  0
 37 47  1  0  0  0
 37 66  1  0  0  0
 37108  1  0  0  0
 38 43  2  0  0  0
 38 46  1  0  0  0
 38 47  1  0  0  0
 39 64  1  0  0  0
 39 67  2  0  0  0
 40 52  1  0  0  0
 40 53  2  0  0  0
 40 58  1  0  0  0
 41109  1  0  0  0
 41110  1  0  0  0
 41111  1  0  0  0
 41 48  1  0  0  0
 42 43  1  0  0  0
 42 66  1  0  0  0
 42112  1  0  0  0
 42113  1  0  0  0
 43 44  1  0  0  0
 44114  1  0  0  0
 45 46  2  0  0  0
 45115  1  0  0  0
 46116  1  0  0  0
 47117  1  0  0  0
 47118  1  0  0  0
 48 56  1  0  0  0
 48 65  1  0  0  0
 48119  1  0  0  0
 49 50  1  0  0  0
 49 53  1  0  0  0
 49 64  1  0  0  0
 49120  1  0  0  0
 50 51  1  0  0  0
 50121  1  0  0  0
 50122  1  0  0  0
 51 52  1  0  0  0
 51123  1  0  0  0
 51124  1  0  0  0
 52125  1  0  0  0
 52126  1  0  0  0
 53 54  1  0  0  0
 54 55  2  0  0  0
 54127  1  0  0  0
 55 57  1  0  0  0
 55128  1  0  0  0
 56 69  2  0  0  0
 57 58  2  0  0  0
 57129  1  0  0  0
 58130  1  0  0  0
 59 60  1  0  0  0
 59 61  1  0  0  0
 59 62  1  0  0  0
 60131  1  0  0  0
 60132  1  0  0  0
 60133  1  0  0  0
 61134  1  0  0  0
 61135  1  0  0  0
 61136  1  0  0  0
 62137  1  0  0  0
 62138  1  0  0  0
 62139  1  0  0  0
 63 65  1  0  0  0
 63140  1  0  0  0
 63141  1  0  0  0
 63142  1  0  0  0
 64143  1  0  0  0
 65144  1  0  0  0
 68 81  1  0  0  0
 71 73  2  0  0  0
 71 74  1  0  0  0
 71145  1  0  0  0
 72 74  2  0  0  0
 72 76  1  0  0  0
 72146  1  0  0  0
 73 75  1  0  0  0
 73 78  1  0  0  0
 74 82  1  0  0  0
 75 76  2  0  0  0
 75 83  1  0  0  0
 76 85  1  0  0  0
 77 80  1  0  0  0
 77 82  1  0  0  0
 77 84  2  0  0  0
 78147  1  0  0  0
 78148  1  0  0  0
 78149  1  0  0  0
 79 83  1  0  0  0
 79150  1  0  0  0
 79151  1  0  0  0
 79152  1  0  0  0
 80 81  1  0  0  0
 80153  1  0  0  0
 80154  1  0  0  0
 81155  1  0  0  0
 81156  1  0  0  0
 82157  1  0  0  0
M  ISO  4   1 100  68 101  81 101  83 100
M  END
> <chiral flag>
0

> <version>
0

> <s_m_source_file>
/data/baiqing/PycharmProjects/Reinvent-master-3.2/result/LINK_invent/BTK/process_docking_weight1_custom_product_contain_oxygen_bond_distance_aromatic_linkinvent_7_9_3/rearranged_h_0101.sdf

> <i_m_source_file_index>
41

> <r_mmod_Potential_Energy-OPLS-2005>
252.221954345703

> <r_mmod_Stretch_Energy-OPLS-2005>
81.9696655273438

> <r_mmod_Bend_Energy-OPLS-2005>
149.860809326172

> <r_mmod_Torsional_Energy-OPLS-2005>
319.756652832031

> <r_mmod_Improper_Torsional_Energy-OPLS-2005>
31.2188739776611

> <r_mmod_Van_der_Waal_Energy-OPLS-2005>
164.253845214844

> <r_mmod_Electrostatic_Energy-OPLS-2005>
-354.319061279297

> <r_mmod_Solvation_Energy-OPLS-2005>
-214.203521728516

> <b_mmod_Minimization_Converged-OPLS-2005>
0

> <r_mmod_RMS_Derivative-OPLS-2005>
1.51232981681824

$$$$
41
                    3D
 Structure written by MMmdl.
157166  0  0  1  0            999 V2000
  -30.7557  -14.4493   20.5644 C   0  0  0  0  0  0
  -30.3991  -12.2862   19.4406 C   0  0  0  0  0  0
  -29.4911  -12.4948   18.2149 C   0  0  0  0  0  0
  -28.0122  -12.3664   18.6195 C   0  0  0  0  0  0
  -27.6557  -13.2179   19.8676 C   0  0  2  0  0  0
  -28.6962  -13.0408   20.9959 C   0  0  0  0  0  0
  -25.2570  -13.8188   20.5693 C   0  0  0  0  0  0
  -24.1824  -13.0449   20.9174 C   0  0  0  0  0  0
  -24.6385  -11.6920   20.8726 C   0  0  0  0  0  0
  -23.9050  -10.4297   21.0396 C   0  0  0  0  0  0
  -24.3607   -9.4219   21.9181 C   0  0  0  0  0  0
  -23.6289   -8.2252   22.0756 C   0  0  0  0  0  0
  -22.4270   -8.0279   21.3546 C   0  0  0  0  0  0
  -21.9908   -9.0238   20.4639 C   0  0  0  0  0  0
  -22.7225  -10.2126   20.3045 C   0  0  0  0  0  0
  -21.6853   -6.0732   22.5273 C   0  0  0  0  0  0
  -21.4006   -6.5636   23.8206 C   0  0  0  0  0  0
  -21.3671   -5.6795   24.9177 C   0  0  0  0  0  0
  -21.6055   -4.3057   24.7225 C   0  0  0  0  0  0
  -21.8822   -3.8140   23.4345 C   0  0  0  0  0  0
  -21.9191   -4.6958   22.3399 C   0  0  0  0  0  0
  -22.7848  -13.5236   21.1843 C   0  0  0  0  0  0
  -22.1661   -4.2140   21.0977 F   0  0  0  0  0  0
  -21.5636   -3.4544   25.7739 F   0  0  0  0  0  0
  -30.0306  -13.3026   20.4389 N   0  0  0  0  0  0
  -26.3002  -12.9379   20.3348 N   0  0  0  0  0  0
  -25.9313  -11.6519   20.5747 N   0  0  0  0  0  0
  -22.0502  -12.8194   22.0397 N   0  0  0  0  0  0
  -25.4293  -15.1903   20.4111 N   0  0  0  0  0  0
  -31.8906  -14.5382   20.0916 O   0  0  0  0  0  0
  -21.6640   -6.8870   21.4230 O   0  0  0  0  0  0
  -22.3528  -14.5548   20.6711 O   0  0  0  0  0  0
  -24.6183  -31.8673   23.2139 C   0  0  0  0  0  0
  -25.9092  -32.4811   23.8426 C   0  0  1  0  0  0
  -27.2328  -27.4369   20.0620 C   0  0  0  0  0  0
  -25.5963  -33.8609   24.2358 N   0  0  0  0  0  0
  -23.4054  -30.4931   21.5538 C   0  0  2  0  0  0
  -24.8474  -28.9651   20.1132 C   0  0  0  0  0  0
  -22.7440  -29.4637   22.4987 C   0  0  0  0  0  0
  -18.0270  -28.1329   22.8498 C   0  0  0  0  0  0
  -24.1479  -36.7296   23.2630 C   0  0  0  0  0  0
  -25.9385  -30.8255   21.3749 C   0  0  0  0  0  0
  -26.0111  -29.4649   20.7120 C   0  0  0  0  0  0
  -27.2037  -28.7051   20.6891 C   0  0  0  0  0  0
  -26.0444  -26.9598   19.4542 C   0  0  0  0  0  0
  -24.8589  -27.7116   19.4852 C   0  0  0  0  0  0
  -23.6132  -29.8328   20.1656 C   0  0  0  0  0  0
  -25.4096  -36.3106   24.0331 C   0  0  1  0  0  0
  -20.5869  -28.3635   23.1297 C   0  0  2  0  0  0
  -20.6742  -26.9366   22.5394 C   0  0  0  0  0  0
  -19.5716  -26.6350   21.5183 C   0  0  0  0  0  0
  -18.1898  -26.7888   22.1602 C   0  0  0  0  0  0
  -19.1523  -28.8798   23.2897 C   0  0  0  0  0  0
  -18.9463  -30.1405   23.8903 C   0  0  0  0  0  0
  -17.6469  -30.6567   24.0533 C   0  0  0  0  0  0
  -25.9033  -34.9470   23.5131 C   0  0  0  0  0  0
  -16.5356  -29.9056   23.6323 C   0  0  0  0  0  0
  -16.7261  -28.6450   23.0382 C   0  0  0  0  0  0
  -26.4518  -31.6610   25.0769 C   0  0  0  0  0  0
  -25.3787  -31.3720   26.1530 C   0  0  0  0  0  0
  -27.0355  -30.3053   24.6164 C   0  0  0  0  0  0
  -27.6088  -32.4344   25.7538 C   0  0  0  0  0  0
  -27.5579  -37.1791   24.8458 C   0  0  0  0  0  0
  -21.4165  -29.3020   22.3740 N   0  0  0  0  0  0
  -26.4281  -37.3799   23.9411 N   0  0  0  0  0  0
  -24.6724  -31.0769   22.1050 N   0  0  0  0  0  0
  -23.4216  -28.8152   23.2996 O   0  0  0  0  0  0
  -28.4136  -26.7143   20.0604 O   0  0  0  0  0  0
  -26.5577  -34.8934   22.4683 O   0  0  0  0  0  0
  -23.5378  -32.1436   23.7525 O   0  0  0  0  0  0
  -29.5478  -18.7425   19.2062 C   0  0  0  0  0  0
  -29.9408  -18.5731   21.5887 C   0  0  0  0  0  0
  -29.5639  -20.1508   19.2962 C   0  0  0  0  0  0
  -29.9581  -19.9836   21.6818 C   0  0  0  0  0  0
  -29.7537  -17.9308   20.3440 C   0  0  0  0  0  0
  -29.7850  -20.7993   20.5349 C   0  0  0  0  0  0
  -29.8996  -16.4593   20.1629 C   0  0  0  0  0  0
  -29.6576  -24.3885   21.5436 C   0  0  0  0  0  0
  -29.5163  -22.8943   21.8513 C   0  0  0  0  0  0
  -29.4711  -23.0635   19.5070 C   0  0  0  0  0  0
  -29.5649  -24.5204   20.0132 C   0  0  1  0  0  0
  -28.3695  -25.3735   19.5505 C   0  0  0  0  0  0
  -30.1099  -15.5737   21.0691 N   0  0  0  0  0  0
  -29.8795  -22.2103   20.6196 N   0  0  0  0  0  0
  -31.4480  -12.3324   19.1462 H   0  0  0  0  0  0
  -30.2538  -11.2863   19.8539 H   0  0  0  0  0  0
  -29.7296  -11.7638   17.4415 H   0  0  0  0  0  0
  -29.6728  -13.4777   17.7784 H   0  0  0  0  0  0
  -27.8168  -11.3122   18.8226 H   0  0  0  0  0  0
  -27.3670  -12.6361   17.7821 H   0  0  0  0  0  0
  -27.6912  -14.2600   19.5531 H   0  0  0  0  0  0
  -28.6563  -12.0277   21.3972 H   0  0  0  0  0  0
  -28.4723  -13.7032   21.8332 H   0  0  0  0  0  0
  -25.2745   -9.5714   22.4762 H   0  0  0  0  0  0
  -24.0001   -7.4658   22.7485 H   0  0  0  0  0  0
  -21.0849   -8.8750   19.8934 H   0  0  0  0  0  0
  -22.3674  -10.9666   19.6158 H   0  0  0  0  0  0
  -21.1983   -7.6143   23.9700 H   0  0  0  0  0  0
  -21.1497   -6.0529   25.9078 H   0  0  0  0  0  0
  -22.0585   -2.7597   23.2850 H   0  0  0  0  0  0
  -22.4125  -11.9845   22.4752 H   0  0  0  0  0  0
  -21.1125  -13.1205   22.2616 H   0  0  0  0  0  0
  -24.6706  -15.8537   20.5255 H   0  0  0  0  0  0
  -26.2987  -15.6242   20.1285 H   0  0  0  0  0  0
  -26.7160  -32.5516   23.1175 H   0  0  0  0  0  0
  -25.0226  -33.9760   25.0587 H   0  0  0  0  0  0
  -22.6956  -31.3106   21.4150 H   0  0  0  0  0  0
  -23.3773  -35.9598   23.3263 H   0  0  0  0  0  0
  -24.3591  -36.8944   22.2055 H   0  0  0  0  0  0
  -23.7208  -37.6468   23.6684 H   0  0  0  0  0  0
  -26.0718  -31.6008   20.6173 H   0  0  0  0  0  0
  -26.8188  -30.8630   22.0053 H   0  0  0  0  0  0
  -28.1057  -29.0860   21.1500 H   0  0  0  0  0  0
  -25.9979  -26.0167   18.9300 H   0  0  0  0  0  0
  -23.9661  -27.3294   19.0099 H   0  0  0  0  0  0
  -23.7296  -30.6101   19.4096 H   0  0  0  0  0  0
  -22.7365  -29.2539   19.8686 H   0  0  0  0  0  0
  -25.1265  -36.1950   25.0819 H   0  0  0  0  0  0
  -20.9942  -28.3190   24.1422 H   0  0  0  0  0  0
  -20.5593  -26.2244   23.3588 H   0  0  0  0  0  0
  -21.6617  -26.7368   22.1203 H   0  0  0  0  0  0
  -19.6875  -25.6259   21.1215 H   0  0  0  0  0  0
  -19.6651  -27.3145   20.6698 H   0  0  0  0  0  0
  -17.4158  -26.6655   21.4009 H   0  0  0  0  0  0
  -18.0290  -26.0005   22.8962 H   0  0  0  0  0  0
  -19.7950  -30.7187   24.2302 H   0  0  0  0  0  0
  -17.5036  -31.6254   24.5121 H   0  0  0  0  0  0
  -15.5357  -30.2950   23.7652 H   0  0  0  0  0  0
  -15.8653  -28.0747   22.7136 H   0  0  0  0  0  0
  -24.5947  -30.7076   25.7889 H   0  0  0  0  0  0
  -24.9002  -32.2875   26.5027 H   0  0  0  0  0  0
  -25.8155  -30.8878   27.0275 H   0  0  0  0  0  0
  -26.2889  -29.6790   24.1278 H   0  0  0  0  0  0
  -27.4175  -29.7333   25.4630 H   0  0  0  0  0  0
  -27.8720  -30.4356   23.9291 H   0  0  0  0  0  0
  -27.2717  -33.3673   26.2081 H   0  0  0  0  0  0
  -28.3942  -32.6857   25.0393 H   0  0  0  0  0  0
  -28.0715  -31.8490   26.5493 H   0  0  0  0  0  0
  -28.2565  -38.0129   24.7594 H   0  0  0  0  0  0
  -28.1120  -36.2672   24.6180 H   0  0  0  0  0  0
  -27.2322  -37.1302   25.8868 H   0  0  0  0  0  0
  -20.9328  -29.8835   21.7047 H   0  0  0  0  0  0
  -26.0169  -38.2860   24.1481 H   0  0  0  0  0  0
  -29.4210  -18.2850   18.2337 H   0  0  0  0  0  0
  -30.1266  -17.9851   22.4762 H   0  0  0  0  0  0
  -29.4327  -20.7153   18.3838 H   0  0  0  0  0  0
  -30.1485  -20.4245   22.6488 H   0  0  0  0  0  0
  -29.8855  -16.1629   19.1062 H   0  0  0  0  0  0
  -30.6304  -24.7503   21.8795 H   0  0  0  0  0  0
  -28.9052  -24.9799   22.0697 H   0  0  0  0  0  0
  -28.4817  -22.6541   22.1046 H   0  0  0  0  0  0
  -30.1484  -22.6152   22.6948 H   0  0  0  0  0  0
  -30.1058  -22.9143   18.6322 H   0  0  0  0  0  0
  -28.4476  -22.8155   19.2180 H   0  0  0  0  0  0
  -30.4876  -24.9671   19.6395 H   0  0  0  0  0  0
  -27.4783  -24.8521   19.9019 H   0  0  0  0  0  0
  -28.3331  -25.4089   18.4609 H   0  0  0  0  0  0
  1 25  1  0  0  0
  1 30  2  0  0  0
  1 83  1  0  0  0
  2  3  1  0  0  0
  2 25  1  0  0  0
  2 85  1  0  0  0
  2 86  1  0  0  0
  3  4  1  0  0  0
  3 87  1  0  0  0
  3 88  1  0  0  0
  4  5  1  0  0  0
  4 89  1  0  0  0
  4 90  1  0  0  0
  5  6  1  0  0  0
  5 26  1  0  0  0
  5 91  1  0  0  0
  6 25  1  0  0  0
  6 92  1  0  0  0
  6 93  1  0  0  0
  7  8  2  0  0  0
  7 26  1  0  0  0
  7 29  1  0  0  0
  8  9  1  0  0  0
  8 22  1  0  0  0
  9 10  1  0  0  0
  9 27  2  0  0  0
 10 11  2  0  0  0
 10 15  1  0  0  0
 11 12  1  0  0  0
 11 94  1  0  0  0
 12 13  2  0  0  0
 12 95  1  0  0  0
 13 14  1  0  0  0
 13 31  1  0  0  0
 14 15  2  0  0  0
 14 96  1  0  0  0
 15 97  1  0  0  0
 16 17  2  0  0  0
 16 21  1  0  0  0
 16 31  1  0  0  0
 17 18  1  0  0  0
 17 98  1  0  0  0
 18 19  2  0  0  0
 18 99  1  0  0  0
 19 20  1  0  0  0
 19 24  1  0  0  0
 20 21  2  0  0  0
 20100  1  0  0  0
 21 23  1  0  0  0
 22 28  1  0  0  0
 22 32  2  0  0  0
 26 27  1  0  0  0
 28101  1  0  0  0
 28102  1  0  0  0
 29103  1  0  0  0
 29104  1  0  0  0
 33 34  1  0  0  0
 33 66  1  0  0  0
 33 70  2  0  0  0
 34 36  1  0  0  0
 34 59  1  0  0  0
 34105  1  0  0  0
 35 44  2  0  0  0
 35 45  1  0  0  0
 35 68  1  0  0  0
 36 56  1  0  0  0
 36106  1  0  0  0
 37 39  1  0  0  0
 37 47  1  0  0  0
 37 66  1  0  0  0
 37107  1  0  0  0
 38 43  2  0  0  0
 38 46  1  0  0  0
 38 47  1  0  0  0
 39 64  1  0  0  0
 39 67  2  0  0  0
 40 52  1  0  0  0
 40 53  2  0  0  0
 40 58  1  0  0  0
 41108  1  0  0  0
 41109  1  0  0  0
 41110  1  0  0  0
 41 48  1  0  0  0
 42 43  1  0  0  0
 42 66  1  0  0  0
 42111  1  0  0  0
 42112  1  0  0  0
 43 44  1  0  0  0
 44113  1  0  0  0
 45 46  2  0  0  0
 45114  1  0  0  0
 46115  1  0  0  0
 47116  1  0  0  0
 47117  1  0  0  0
 48 56  1  0  0  0
 48 65  1  0  0  0
 48118  1  0  0  0
 49 50  1  0  0  0
 49 53  1  0  0  0
 49 64  1  0  0  0
 49119  1  0  0  0
 50 51  1  0  0  0
 50120  1  0  0  0
 50121  1  0  0  0
 51 52  1  0  0  0
 51122  1  0  0  0
 51123  1  0  0  0
 52124  1  0  0  0
 52125  1  0  0  0
 53 54  1  0  0  0
 54 55  2  0  0  0
 54126  1  0  0  0
 55 57  1  0  0  0
 55127  1  0  0  0
 56 69  2  0  0  0
 57 58  2  0  0  0
 57128  1  0  0  0
 58129  1  0  0  0
 59 60  1  0  0  0
 59 61  1  0  0  0
 59 62  1  0  0  0
 60130  1  0  0  0
 60131  1  0  0  0
 60132  1  0  0  0
 61133  1  0  0  0
 61134  1  0  0  0
 61135  1  0  0  0
 62136  1  0  0  0
 62137  1  0  0  0
 62138  1  0  0  0
 63 65  1  0  0  0
 63139  1  0  0  0
 63140  1  0  0  0
 63141  1  0  0  0
 64142  1  0  0  0
 65143  1  0  0  0
 68 82  1  0  0  0
 71 73  2  0  0  0
 71 75  1  0  0  0
 71144  1  0  0  0
 72 74  1  0  0  0
 72 75  2  0  0  0
 72145  1  0  0  0
 73 76  1  0  0  0
 73146  1  0  0  0
 74 76  2  0  0  0
 74147  1  0  0  0
 75 77  1  0  0  0
 76 84  1  0  0  0
 77 83  2  0  0  0
 77148  1  0  0  0
 78 79  1  0  0  0
 78 81  1  0  0  0
 78149  1  0  0  0
 78150  1  0  0  0
 79 84  1  0  0  0
 79151  1  0  0  0
 79152  1  0  0  0
 80 81  1  0  0  0
 80 84  1  0  0  0
 80153  1  0  0  0
 80154  1  0  0  0
 81 82  1  0  0  0
 81155  1  0  0  0
 82156  1  0  0  0
 82157  1  0  0  0
M  ISO  4   1 100  68 101  82 101  83 100
M  END
> <chiral flag>
0

> <version>
0

> <s_m_source_file>
/data/baiqing/PycharmProjects/Reinvent-master-3.2/result/LINK_invent/BTK/process_docking_weight1_custom_product_contain_oxygen_bond_distance_aromatic_linkinvent_7_9_3/rearranged_h_0101.sdf

> <i_m_source_file_index>
42

> <r_mmod_Potential_Energy-OPLS-2005>
54.6621437072754

> <r_mmod_Stretch_Energy-OPLS-2005>
38.388973236084

> <r_mmod_Bend_Energy-OPLS-2005>
128.087036132812

> <r_mmod_Torsional_Energy-OPLS-2005>
243.100540161133

> <r_mmod_Improper_Torsional_Energy-OPLS-2005>
8.32203197479248

> <r_mmod_Van_der_Waal_Energy-OPLS-2005>
170.596588134766

> <r_mmod_Electrostatic_Energy-OPLS-2005>
-341.903656005859

> <r_mmod_Solvation_Energy-OPLS-2005>
-207.924331665039

> <b_mmod_Minimization_Converged-OPLS-2005>
0

> <r_mmod_RMS_Derivative-OPLS-2005>
2.67197847366333

$$$$
42
                    3D
 Structure written by MMmdl.
163172  0  0  1  0            999 V2000
  -30.6452  -14.7325   20.3685 C   0  0  0  0  0  0
  -30.4285  -12.4309   19.4461 C   0  0  0  0  0  0
  -29.4865  -12.4129   18.2206 C   0  0  0  0  0  0
  -28.0171  -12.2864   18.6569 C   0  0  0  0  0  0
  -27.6357  -13.2283   19.8316 C   0  0  2  0  0  0
  -28.6954  -13.2113   20.9519 C   0  0  0  0  0  0
  -25.2533  -13.8208   20.5735 C   0  0  0  0  0  0
  -24.1814  -13.0456   20.9232 C   0  0  0  0  0  0
  -24.6393  -11.6930   20.8785 C   0  0  0  0  0  0
  -23.9070  -10.4304   21.0428 C   0  0  0  0  0  0
  -24.3624   -9.4213   21.9198 C   0  0  0  0  0  0
  -23.6297   -8.2248   22.0762 C   0  0  0  0  0  0
  -22.4283   -8.0287   21.3545 C   0  0  0  0  0  0
  -21.9917   -9.0266   20.4653 C   0  0  0  0  0  0
  -22.7246  -10.2146   20.3068 C   0  0  0  0  0  0
  -21.6855   -6.0745   22.5281 C   0  0  0  0  0  0
  -21.4015   -6.5648   23.8216 C   0  0  0  0  0  0
  -21.3657   -5.6797   24.9176 C   0  0  0  0  0  0
  -21.6045   -4.3061   24.7227 C   0  0  0  0  0  0
  -21.8814   -3.8157   23.4346 C   0  0  0  0  0  0
  -21.9193   -4.6973   22.3404 C   0  0  0  0  0  0
  -22.7834  -13.5240   21.1874 C   0  0  0  0  0  0
  -22.1660   -4.2155   21.0983 F   0  0  0  0  0  0
  -21.5625   -3.4543   25.7740 F   0  0  0  0  0  0
  -29.9822  -13.5294   20.3254 N   0  0  0  0  0  0
  -26.2944  -12.9410   20.3307 N   0  0  0  0  0  0
  -25.9324  -11.6559   20.5818 N   0  0  0  0  0  0
  -22.0475  -12.8223   22.0420 N   0  0  0  0  0  0
  -25.4251  -15.1923   20.4153 N   0  0  0  0  0  0
  -31.8788  -14.7314   20.3844 O   0  0  0  0  0  0
  -21.6643   -6.8887   21.4241 O   0  0  0  0  0  0
  -22.3515  -14.5543   20.6714 O   0  0  0  0  0  0
  -24.6278  -31.8589   23.2017 C   0  0  0  0  0  0
  -25.9120  -32.4774   23.8349 C   0  0  1  0  0  0
  -27.2127  -27.2857   20.1433 C   0  0  0  0  0  0
  -25.5932  -33.8575   24.2277 N   0  0  0  0  0  0
  -23.4227  -30.4803   21.5450 C   0  0  2  0  0  0
  -24.8699  -28.9237   20.1222 C   0  0  0  0  0  0
  -22.7481  -29.4612   22.4941 C   0  0  0  0  0  0
  -18.0288  -28.1383   22.8482 C   0  0  0  0  0  0
  -24.1487  -36.7289   23.2638 C   0  0  0  0  0  0
  -25.9656  -30.7753   21.3810 C   0  0  0  0  0  0
  -26.0374  -29.3944   20.7381 C   0  0  0  0  0  0
  -27.2153  -28.5848   20.7440 C   0  0  0  0  0  0
  -26.0350  -26.8799   19.4891 C   0  0  0  0  0  0
  -24.8700  -27.6704   19.4899 C   0  0  0  0  0  0
  -23.6409  -29.8103   20.1629 C   0  0  0  0  0  0
  -25.4115  -36.3082   24.0328 C   0  0  1  0  0  0
  -20.5885  -28.3687   23.1283 C   0  0  2  0  0  0
  -20.6780  -26.9408   22.5412 C   0  0  0  0  0  0
  -19.5757  -26.6380   21.5214 C   0  0  0  0  0  0
  -18.1932  -26.7926   22.1622 C   0  0  0  0  0  0
  -19.1539  -28.8852   23.2875 C   0  0  0  0  0  0
  -18.9463  -30.1453   23.8889 C   0  0  0  0  0  0
  -17.6464  -30.6585   24.0556 C   0  0  0  0  0  0
  -25.9058  -34.9452   23.5104 C   0  0  0  0  0  0
  -16.5353  -29.9080   23.6333 C   0  0  0  0  0  0
  -16.7276  -28.6499   23.0352 C   0  0  0  0  0  0
  -26.4502  -31.6588   25.0726 C   0  0  0  0  0  0
  -25.3727  -31.3727   26.1447 C   0  0  0  0  0  0
  -27.0349  -30.3007   24.6192 C   0  0  0  0  0  0
  -27.6060  -32.4327   25.7492 C   0  0  0  0  0  0
  -27.5577  -37.1799   24.8466 C   0  0  0  0  0  0
  -21.4194  -29.3039   22.3679 N   0  0  0  0  0  0
  -26.4292  -37.3778   23.9408 N   0  0  0  0  0  0
  -24.6905  -31.0571   22.0987 N   0  0  0  0  0  0
  -23.4194  -28.8153   23.3034 O   0  0  0  0  0  0
  -28.3188  -26.4302   20.0532 O   0  0  0  0  0  0
  -26.5618  -34.8916   22.4665 O   0  0  0  0  0  0
  -23.5436  -32.1405   23.7329 O   0  0  0  0  0  0
  -28.2727  -19.1547   19.3974 C   0  0  0  0  0  0
  -28.6643  -17.8024   19.1959 C   0  0  0  0  0  0
  -29.5276  -19.1969   21.4365 C   0  0  0  0  0  0
  -28.6844  -19.9132   20.5253 C   0  0  0  0  0  0
  -29.5374  -17.0906   20.0716 C   0  0  0  0  0  0
  -29.9438  -17.8320   21.2216 C   0  0  0  0  0  0
  -26.7332  -21.1917   21.1240 C   0  0  0  0  0  0
  -28.6882  -22.4883   20.6496 C   0  0  0  0  0  0
  -25.8479  -22.4510   21.2119 C   0  0  0  0  0  0
  -26.4633  -23.7234   20.6169 C   0  0  0  0  0  0
  -27.9194  -23.8360   21.0468 C   0  0  2  0  0  0
  -31.5057  -16.9101   17.8958 C   0  0  0  0  0  0
  -28.5409  -25.3351   21.0304 C   0  0  0  0  0  0
  -30.5128  -15.7721   18.2239 C   0  0  0  0  0  0
  -28.0622  -21.2456   20.7899 N   0  0  0  0  0  0
  -30.0487  -15.7608   19.6412 N   0  0  0  0  0  0
  -26.1656  -20.1268   21.4017 O   0  0  0  0  0  0
  -29.8535  -22.5764   20.2459 O   0  0  0  0  0  0
  -30.7636  -17.2479   22.1281 F   0  0  0  0  0  0
  -31.4629  -12.5599   19.1222 H   0  0  0  0  0  0
  -30.3921  -11.4791   19.9783 H   0  0  0  0  0  0
  -29.7479  -11.5796   17.5669 H   0  0  0  0  0  0
  -29.5957  -13.3063   17.6122 H   0  0  0  0  0  0
  -27.8657  -11.2482   18.9539 H   0  0  0  0  0  0
  -27.3550  -12.4543   17.8065 H   0  0  0  0  0  0
  -27.6162  -14.2360   19.4161 H   0  0  0  0  0  0
  -28.7341  -12.2386   21.4433 H   0  0  0  0  0  0
  -28.4529  -13.9468   21.7207 H   0  0  0  0  0  0
  -25.2764   -9.5689   22.4776 H   0  0  0  0  0  0
  -24.0006   -7.4637   22.7478 H   0  0  0  0  0  0
  -21.0847   -8.8788   19.8955 H   0  0  0  0  0  0
  -22.3704  -10.9691   19.6182 H   0  0  0  0  0  0
  -21.2004   -7.6153   23.9720 H   0  0  0  0  0  0
  -21.1481   -6.0530   25.9078 H   0  0  0  0  0  0
  -22.0592   -2.7616   23.2849 H   0  0  0  0  0  0
  -22.4083  -11.9878   22.4801 H   0  0  0  0  0  0
  -21.1093  -13.1247   22.2623 H   0  0  0  0  0  0
  -24.6649  -15.8517   20.5392 H   0  0  0  0  0  0
  -26.2875  -15.6337   20.1221 H   0  0  0  0  0  0
  -26.7175  -32.5439   23.1084 H   0  0  0  0  0  0
  -25.0103  -33.9721   25.0436 H   0  0  0  0  0  0
  -22.7179  -31.3013   21.3979 H   0  0  0  0  0  0
  -23.3754  -35.9617   23.3308 H   0  0  0  0  0  0
  -24.3574  -36.8908   22.2051 H   0  0  0  0  0  0
  -23.7239  -37.6490   23.6660 H   0  0  0  0  0  0
  -26.0998  -31.5282   20.6036 H   0  0  0  0  0  0
  -26.8466  -30.8311   22.0088 H   0  0  0  0  0  0
  -28.1181  -28.9454   21.2164 H   0  0  0  0  0  0
  -26.0150  -25.9343   18.9689 H   0  0  0  0  0  0
  -23.9806  -27.3101   18.9923 H   0  0  0  0  0  0
  -23.7659  -30.5840   19.4047 H   0  0  0  0  0  0
  -22.7597  -29.2428   19.8587 H   0  0  0  0  0  0
  -25.1293  -36.1935   25.0820 H   0  0  0  0  0  0
  -20.9974  -28.3261   24.1407 H   0  0  0  0  0  0
  -20.5696  -26.2289   23.3609 H   0  0  0  0  0  0
  -21.6644  -26.7446   22.1191 H   0  0  0  0  0  0
  -19.6924  -25.6294   21.1241 H   0  0  0  0  0  0
  -19.6699  -27.3191   20.6743 H   0  0  0  0  0  0
  -17.4203  -26.6674   21.4019 H   0  0  0  0  0  0
  -18.0327  -26.0064   22.9016 H   0  0  0  0  0  0
  -19.7937  -30.7269   24.2252 H   0  0  0  0  0  0
  -17.5018  -31.6267   24.5158 H   0  0  0  0  0  0
  -15.5353  -30.2979   23.7670 H   0  0  0  0  0  0
  -15.8673  -28.0819   22.7077 H   0  0  0  0  0  0
  -24.5909  -30.7069   25.7772 H   0  0  0  0  0  0
  -24.8906  -32.2891   26.4863 H   0  0  0  0  0  0
  -25.8046  -30.8912   27.0230 H   0  0  0  0  0  0
  -26.2927  -29.6750   24.1221 H   0  0  0  0  0  0
  -27.4049  -29.7273   25.4703 H   0  0  0  0  0  0
  -27.8796  -30.4291   23.9418 H   0  0  0  0  0  0
  -27.2678  -33.3638   26.2048 H   0  0  0  0  0  0
  -28.3878  -32.6870   25.0323 H   0  0  0  0  0  0
  -28.0715  -31.8464   26.5426 H   0  0  0  0  0  0
  -28.2598  -38.0092   24.7512 H   0  0  0  0  0  0
  -28.1071  -36.2627   24.6297 H   0  0  0  0  0  0
  -27.2292  -37.1446   25.8867 H   0  0  0  0  0  0
  -20.9385  -29.8752   21.6871 H   0  0  0  0  0  0
  -26.0177  -38.2855   24.1408 H   0  0  0  0  0  0
  -27.5991  -19.5997   18.6773 H   0  0  0  0  0  0
  -28.2886  -17.3167   18.3085 H   0  0  0  0  0  0
  -29.8499  -19.6858   22.3443 H   0  0  0  0  0  0
  -25.6307  -22.6144   22.2680 H   0  0  0  0  0  0
  -24.8892  -22.2472   20.7344 H   0  0  0  0  0  0
  -25.8968  -24.5822   20.9758 H   0  0  0  0  0  0
  -26.3879  -23.7156   19.5290 H   0  0  0  0  0  0
  -27.8919  -23.6792   22.1269 H   0  0  0  0  0  0
  -31.8948  -16.7968   16.8832 H   0  0  0  0  0  0
  -32.3611  -16.8984   18.5725 H   0  0  0  0  0  0
  -31.0521  -17.8996   17.9489 H   0  0  0  0  0  0
  -29.6241  -25.2165   21.0654 H   0  0  0  0  0  0
  -28.3015  -25.7816   21.9970 H   0  0  0  0  0  0
  -31.0328  -14.8522   17.9520 H   0  0  0  0  0  0
  -29.6580  -15.8073   17.5494 H   0  0  0  0  0  0
  1 25  1  0  0  0
  1 30  2  0  0  0
  1 86  1  0  0  0
  2  3  1  0  0  0
  2 25  1  0  0  0
  2 90  1  0  0  0
  2 91  1  0  0  0
  3  4  1  0  0  0
  3 92  1  0  0  0
  3 93  1  0  0  0
  4  5  1  0  0  0
  4 94  1  0  0  0
  4 95  1  0  0  0
  5  6  1  0  0  0
  5 26  1  0  0  0
  5 96  1  0  0  0
  6 25  1  0  0  0
  6 97  1  0  0  0
  6 98  1  0  0  0
  7  8  2  0  0  0
  7 26  1  0  0  0
  7 29  1  0  0  0
  8  9  1  0  0  0
  8 22  1  0  0  0
  9 10  1  0  0  0
  9 27  2  0  0  0
 10 11  2  0  0  0
 10 15  1  0  0  0
 11 12  1  0  0  0
 11 99  1  0  0  0
 12 13  2  0  0  0
 12100  1  0  0  0
 13 14  1  0  0  0
 13 31  1  0  0  0
 14 15  2  0  0  0
 14101  1  0  0  0
 15102  1  0  0  0
 16 17  2  0  0  0
 16 21  1  0  0  0
 16 31  1  0  0  0
 17 18  1  0  0  0
 17103  1  0  0  0
 18 19  2  0  0  0
 18104  1  0  0  0
 19 20  1  0  0  0
 19 24  1  0  0  0
 20 21  2  0  0  0
 20105  1  0  0  0
 21 23  1  0  0  0
 22 28  1  0  0  0
 22 32  2  0  0  0
 26 27  1  0  0  0
 28106  1  0  0  0
 28107  1  0  0  0
 29108  1  0  0  0
 29109  1  0  0  0
 33 34  1  0  0  0
 33 66  1  0  0  0
 33 70  2  0  0  0
 34 36  1  0  0  0
 34 59  1  0  0  0
 34110  1  0  0  0
 35 44  2  0  0  0
 35 45  1  0  0  0
 35 68  1  0  0  0
 36 56  1  0  0  0
 36111  1  0  0  0
 37 39  1  0  0  0
 37 47  1  0  0  0
 37 66  1  0  0  0
 37112  1  0  0  0
 38 43  2  0  0  0
 38 46  1  0  0  0
 38 47  1  0  0  0
 39 64  1  0  0  0
 39 67  2  0  0  0
 40 52  1  0  0  0
 40 53  2  0  0  0
 40 58  1  0  0  0
 41113  1  0  0  0
 41114  1  0  0  0
 41115  1  0  0  0
 41 48  1  0  0  0
 42 43  1  0  0  0
 42 66  1  0  0  0
 42116  1  0  0  0
 42117  1  0  0  0
 43 44  1  0  0  0
 44118  1  0  0  0
 45 46  2  0  0  0
 45119  1  0  0  0
 46120  1  0  0  0
 47121  1  0  0  0
 47122  1  0  0  0
 48 56  1  0  0  0
 48 65  1  0  0  0
 48123  1  0  0  0
 49 50  1  0  0  0
 49 53  1  0  0  0
 49 64  1  0  0  0
 49124  1  0  0  0
 50 51  1  0  0  0
 50125  1  0  0  0
 50126  1  0  0  0
 51 52  1  0  0  0
 51127  1  0  0  0
 51128  1  0  0  0
 52129  1  0  0  0
 52130  1  0  0  0
 53 54  1  0  0  0
 54 55  2  0  0  0
 54131  1  0  0  0
 55 57  1  0  0  0
 55132  1  0  0  0
 56 69  2  0  0  0
 57 58  2  0  0  0
 57133  1  0  0  0
 58134  1  0  0  0
 59 60  1  0  0  0
 59 61  1  0  0  0
 59 62  1  0  0  0
 60135  1  0  0  0
 60136  1  0  0  0
 60137  1  0  0  0
 61138  1  0  0  0
 61139  1  0  0  0
 61140  1  0  0  0
 62141  1  0  0  0
 62142  1  0  0  0
 62143  1  0  0  0
 63 65  1  0  0  0
 63144  1  0  0  0
 63145  1  0  0  0
 63146  1  0  0  0
 64147  1  0  0  0
 65148  1  0  0  0
 68 83  1  0  0  0
 71 72  2  0  0  0
 71 74  1  0  0  0
 71149  1  0  0  0
 72 75  1  0  0  0
 72150  1  0  0  0
 73 74  2  0  0  0
 73 76  1  0  0  0
 73151  1  0  0  0
 74 85  1  0  0  0
 75 76  2  0  0  0
 75 86  1  0  0  0
 76 89  1  0  0  0
 77 79  1  0  0  0
 77 85  1  0  0  0
 77 87  2  0  0  0
 78 81  1  0  0  0
 78 85  1  0  0  0
 78 88  2  0  0  0
 79 80  1  0  0  0
 79152  1  0  0  0
 79153  1  0  0  0
 80 81  1  0  0  0
 80154  1  0  0  0
 80155  1  0  0  0
 81 83  1  0  0  0
 81156  1  0  0  0
 82 84  1  0  0  0
 82157  1  0  0  0
 82158  1  0  0  0
 82159  1  0  0  0
 83160  1  0  0  0
 83161  1  0  0  0
 84 86  1  0  0  0
 84162  1  0  0  0
 84163  1  0  0  0
M  ISO  4   1 100  68 101  83 101  86 100
M  END
> <chiral flag>
0

> <version>
0

> <s_m_source_file>
/data/baiqing/PycharmProjects/Reinvent-master-3.2/result/LINK_invent/BTK/process_docking_weight1_custom_product_contain_oxygen_bond_distance_aromatic_linkinvent_7_9_3/rearranged_h_0101.sdf

> <i_m_source_file_index>
43

> <r_mmod_Potential_Energy-OPLS-2005>
518.894592285156

> <r_mmod_Stretch_Energy-OPLS-2005>
118.45499420166

> <r_mmod_Bend_Energy-OPLS-2005>
223.438247680664

> <r_mmod_Torsional_Energy-OPLS-2005>
385.004791259766

> <r_mmod_Improper_Torsional_Energy-OPLS-2005>
34.8831443786621

> <r_mmod_Van_der_Waal_Energy-OPLS-2005>
158.573837280273

> <r_mmod_Electrostatic_Energy-OPLS-2005>
-272.592498779297

> <r_mmod_Solvation_Energy-OPLS-2005>
-220.789184570312

> <b_mmod_Minimization_Converged-OPLS-2005>
0

> <r_mmod_RMS_Derivative-OPLS-2005>
0.933625519275665

$$$$
43
                    3D
 Structure written by MMmdl.
160169  0  0  1  0            999 V2000
  -30.5762  -14.7462   20.4687 C   0  0  0  0  0  0
  -30.4491  -12.4613   19.4589 C   0  0  0  0  0  0
  -29.5100  -12.4889   18.2324 C   0  0  0  0  0  0
  -28.0355  -12.3072   18.6528 C   0  0  0  0  0  0
  -27.6382  -13.2152   19.8475 C   0  0  2  0  0  0
  -28.6877  -13.1440   20.9784 C   0  0  0  0  0  0
  -25.2512  -13.8152   20.5737 C   0  0  0  0  0  0
  -24.1782  -13.0408   20.9211 C   0  0  0  0  0  0
  -24.6343  -11.6888   20.8754 C   0  0  0  0  0  0
  -23.9012  -10.4280   21.0404 C   0  0  0  0  0  0
  -24.3599   -9.4212   21.9168 C   0  0  0  0  0  0
  -23.6289   -8.2236   22.0735 C   0  0  0  0  0  0
  -22.4275   -8.0263   21.3541 C   0  0  0  0  0  0
  -21.9896   -9.0217   20.4613 C   0  0  0  0  0  0
  -22.7197  -10.2106   20.3025 C   0  0  0  0  0  0
  -21.6840   -6.0722   22.5270 C   0  0  0  0  0  0
  -21.4007   -6.5624   23.8206 C   0  0  0  0  0  0
  -21.3656   -5.6785   24.9158 C   0  0  0  0  0  0
  -21.6073   -4.3047   24.7216 C   0  0  0  0  0  0
  -21.8817   -3.8127   23.4334 C   0  0  0  0  0  0
  -21.9189   -4.6956   22.3392 C   0  0  0  0  0  0
  -22.7815  -13.5220   21.1890 C   0  0  0  0  0  0
  -22.1658   -4.2146   21.0976 F   0  0  0  0  0  0
  -21.5641   -3.4533   25.7725 F   0  0  0  0  0  0
  -29.9841  -13.5081   20.3890 N   0  0  0  0  0  0
  -26.2897  -12.9313   20.3271 N   0  0  0  0  0  0
  -25.9264  -11.6470   20.5744 N   0  0  0  0  0  0
  -22.0453  -12.8206   22.0423 N   0  0  0  0  0  0
  -25.4210  -15.1880   20.4229 N   0  0  0  0  0  0
  -31.7783  -14.8835   20.2197 O   0  0  0  0  0  0
  -21.6652   -6.8860   21.4232 O   0  0  0  0  0  0
  -22.3482  -14.5520   20.6704 O   0  0  0  0  0  0
  -24.6278  -31.8551   23.1934 C   0  0  0  0  0  0
  -25.9131  -32.4732   23.8259 C   0  0  1  0  0  0
  -27.2347  -27.2576   20.1516 C   0  0  0  0  0  0
  -25.5999  -33.8531   24.2198 N   0  0  0  0  0  0
  -23.4263  -30.4781   21.5334 C   0  0  2  0  0  0
  -24.8830  -28.9260   20.1079 C   0  0  0  0  0  0
  -22.7473  -29.4635   22.4893 C   0  0  0  0  0  0
  -18.0297  -28.1308   22.8562 C   0  0  0  0  0  0
  -24.1528  -36.7270   23.2664 C   0  0  0  0  0  0
  -25.9726  -30.7657   21.3814 C   0  0  0  0  0  0
  -26.0478  -29.3876   20.7303 C   0  0  0  0  0  0
  -27.2194  -28.5649   20.7479 C   0  0  0  0  0  0
  -26.0537  -26.8770   19.4724 C   0  0  0  0  0  0
  -24.8958  -27.6785   19.4623 C   0  0  0  0  0  0
  -23.6476  -29.8035   20.1522 C   0  0  0  0  0  0
  -25.4145  -36.3050   24.0333 C   0  0  1  0  0  0
  -20.5914  -28.3661   23.1291 C   0  0  2  0  0  0
  -20.6806  -26.9382   22.5426 C   0  0  0  0  0  0
  -19.5782  -26.6340   21.5248 C   0  0  0  0  0  0
  -18.1944  -26.7886   22.1632 C   0  0  0  0  0  0
  -19.1557  -28.8800   23.2953 C   0  0  0  0  0  0
  -18.9478  -30.1406   23.8971 C   0  0  0  0  0  0
  -17.6476  -30.6564   24.0559 C   0  0  0  0  0  0
  -25.9093  -34.9436   23.5063 C   0  0  0  0  0  0
  -16.5359  -29.9053   23.6350 C   0  0  0  0  0  0
  -16.7277  -28.6427   23.0443 C   0  0  0  0  0  0
  -26.4501  -31.6566   25.0646 C   0  0  0  0  0  0
  -25.3720  -31.3708   26.1365 C   0  0  0  0  0  0
  -27.0334  -30.2982   24.6101 C   0  0  0  0  0  0
  -27.6057  -32.4326   25.7387 C   0  0  0  0  0  0
  -27.5604  -37.1779   24.8485 C   0  0  0  0  0  0
  -21.4196  -29.3043   22.3658 N   0  0  0  0  0  0
  -26.4317  -37.3751   23.9422 N   0  0  0  0  0  0
  -24.6933  -31.0515   22.0896 N   0  0  0  0  0  0
  -23.4204  -28.8222   23.3006 O   0  0  0  0  0  0
  -28.3471  -26.3805   20.2610 O   0  0  0  0  0  0
  -26.5655  -34.8934   22.4622 O   0  0  0  0  0  0
  -23.5438  -32.1379   23.7241 O   0  0  0  0  0  0
  -29.6965  -18.4461   20.3648 C   0  0  0  0  0  0
  -29.4905  -19.7164   22.4269 C   0  0  0  0  0  0
  -29.5375  -19.7447   21.0126 C   0  0  0  0  0  0
  -29.7959  -17.1819   21.0846 C   0  0  0  0  0  0
  -29.7005  -17.2609   22.4928 C   0  0  0  0  0  0
  -29.5440  -18.5044   23.1449 C   0  0  0  0  0  0
  -27.2975  -21.9871   21.2074 C   0  0  0  0  0  0
  -26.7990  -23.0568   22.1604 C   0  0  0  0  0  0
  -28.0207  -23.9627   22.3099 C   0  0  0  0  0  0
  -28.8052  -23.7709   21.0021 C   0  0  2  0  0  0
  -29.4548  -21.1637   20.2612 C   0  0  0  0  0  0
  -28.2784  -24.9005   19.9561 C   0  0  0  0  0  0
  -28.5140  -22.2861   20.7235 N   0  0  0  0  0  0
  -29.6994  -16.1052   23.2811 N   0  0  0  0  0  0
  -29.7170  -15.8292   20.4881 N   0  0  0  0  0  0
  -26.6717  -20.9422   21.0162 O   0  0  0  0  0  0
  -29.4142  -18.5132   24.4968 F   0  0  0  0  0  0
  -31.4787  -12.6304   19.1416 H   0  0  0  0  0  0
  -30.4387  -11.4815   19.9417 H   0  0  0  0  0  0
  -29.7950  -11.7079   17.5263 H   0  0  0  0  0  0
  -29.6276  -13.4354   17.7032 H   0  0  0  0  0  0
  -27.9017  -11.2582   18.9218 H   0  0  0  0  0  0
  -27.3727  -12.4813   17.8052 H   0  0  0  0  0  0
  -27.6322  -14.2356   19.4616 H   0  0  0  0  0  0
  -28.7289  -12.1398   21.4046 H   0  0  0  0  0  0
  -28.4222  -13.8145   21.7985 H   0  0  0  0  0  0
  -25.2737   -9.5720   22.4749 H   0  0  0  0  0  0
  -24.0004   -7.4633   22.7436 H   0  0  0  0  0  0
  -21.0830   -8.8658   19.8936 H   0  0  0  0  0  0
  -22.3584  -10.9623   19.6134 H   0  0  0  0  0  0
  -21.1987   -7.6129   23.9715 H   0  0  0  0  0  0
  -21.1498   -6.0504   25.9073 H   0  0  0  0  0  0
  -22.0612   -2.7592   23.2820 H   0  0  0  0  0  0
  -22.4075  -11.9887   22.4845 H   0  0  0  0  0  0
  -21.1045  -13.1155   22.2605 H   0  0  0  0  0  0
  -24.6684  -15.8444   20.5939 H   0  0  0  0  0  0
  -26.2836  -15.6451   20.1616 H   0  0  0  0  0  0
  -26.7168  -32.5385   23.0972 H   0  0  0  0  0  0
  -25.0245  -33.9638   25.0408 H   0  0  0  0  0  0
  -22.7273  -31.3029   21.3763 H   0  0  0  0  0  0
  -23.3822  -35.9584   23.3301 H   0  0  0  0  0  0
  -24.3650  -36.8869   22.2092 H   0  0  0  0  0  0
  -23.7217  -37.6432   23.6685 H   0  0  0  0  0  0
  -26.1248  -31.5222   20.6097 H   0  0  0  0  0  0
  -26.8423  -30.8120   22.0238 H   0  0  0  0  0  0
  -28.1017  -28.9132   21.2687 H   0  0  0  0  0  0
  -25.9810  -25.9448   18.9347 H   0  0  0  0  0  0
  -24.0115  -27.3201   18.9538 H   0  0  0  0  0  0
  -23.7571  -30.5703   19.3850 H   0  0  0  0  0  0
  -22.7707  -29.2210   19.8571 H   0  0  0  0  0  0
  -25.1295  -36.1906   25.0815 H   0  0  0  0  0  0
  -21.0052  -28.3223   24.1391 H   0  0  0  0  0  0
  -20.5795  -26.2231   23.3610 H   0  0  0  0  0  0
  -21.6643  -26.7441   22.1133 H   0  0  0  0  0  0
  -19.6976  -25.6263   21.1240 H   0  0  0  0  0  0
  -19.6727  -27.3197   20.6823 H   0  0  0  0  0  0
  -17.4238  -26.6751   21.3994 H   0  0  0  0  0  0
  -18.0312  -25.9914   22.8905 H   0  0  0  0  0  0
  -19.7945  -30.7213   24.2394 H   0  0  0  0  0  0
  -17.5013  -31.6298   24.5061 H   0  0  0  0  0  0
  -15.5375  -30.2988   23.7607 H   0  0  0  0  0  0
  -15.8658  -28.0713   22.7239 H   0  0  0  0  0  0
  -24.5985  -30.6945   25.7708 H   0  0  0  0  0  0
  -24.8837  -32.2871   26.4693 H   0  0  0  0  0  0
  -25.8046  -30.8981   27.0184 H   0  0  0  0  0  0
  -26.2851  -29.6728   24.1197 H   0  0  0  0  0  0
  -27.4147  -29.7214   25.4538 H   0  0  0  0  0  0
  -27.8687  -30.4273   23.9207 H   0  0  0  0  0  0
  -27.2667  -33.3705   26.1778 H   0  0  0  0  0  0
  -28.3896  -32.6728   25.0199 H   0  0  0  0  0  0
  -28.0662  -31.8563   26.5400 H   0  0  0  0  0  0
  -28.2565  -38.0143   24.7535 H   0  0  0  0  0  0
  -28.1109  -36.2633   24.6225 H   0  0  0  0  0  0
  -27.2328  -37.1278   25.8895 H   0  0  0  0  0  0
  -20.9382  -29.8718   21.6816 H   0  0  0  0  0  0
  -26.0202  -38.2828   24.1390 H   0  0  0  0  0  0
  -29.7157  -18.4255   19.2820 H   0  0  0  0  0  0
  -29.3917  -20.6373   22.9851 H   0  0  0  0  0  0
  -26.4864  -22.6165   23.1087 H   0  0  0  0  0  0
  -25.9536  -23.5919   21.7292 H   0  0  0  0  0  0
  -28.6300  -23.6291   23.1516 H   0  0  0  0  0  0
  -27.7326  -24.9976   22.5042 H   0  0  0  0  0  0
  -29.8672  -23.9237   21.1898 H   0  0  0  0  0  0
  -29.2221  -20.9642   19.2136 H   0  0  0  0  0  0
  -30.4648  -21.5758   20.2543 H   0  0  0  0  0  0
  -27.2717  -24.5985   19.6896 H   0  0  0  0  0  0
  -28.8534  -24.7680   19.0386 H   0  0  0  0  0  0
  -30.3918  -15.4091   23.0389 H   0  0  0  0  0  0
  -29.7338  -16.3119   24.2740 H   0  0  0  0  0  0
  -28.7632  -15.5087   20.4305 H   0  0  0  0  0  0
  1 25  1  0  0  0
  1 30  2  0  0  0
  1 85  1  0  0  0
  2  3  1  0  0  0
  2 25  1  0  0  0
  2 88  1  0  0  0
  2 89  1  0  0  0
  3  4  1  0  0  0
  3 90  1  0  0  0
  3 91  1  0  0  0
  4  5  1  0  0  0
  4 92  1  0  0  0
  4 93  1  0  0  0
  5  6  1  0  0  0
  5 26  1  0  0  0
  5 94  1  0  0  0
  6 25  1  0  0  0
  6 95  1  0  0  0
  6 96  1  0  0  0
  7  8  2  0  0  0
  7 26  1  0  0  0
  7 29  1  0  0  0
  8  9  1  0  0  0
  8 22  1  0  0  0
  9 10  1  0  0  0
  9 27  2  0  0  0
 10 11  2  0  0  0
 10 15  1  0  0  0
 11 12  1  0  0  0
 11 97  1  0  0  0
 12 13  2  0  0  0
 12 98  1  0  0  0
 13 14  1  0  0  0
 13 31  1  0  0  0
 14 15  2  0  0  0
 14 99  1  0  0  0
 15100  1  0  0  0
 16 17  2  0  0  0
 16 21  1  0  0  0
 16 31  1  0  0  0
 17 18  1  0  0  0
 17101  1  0  0  0
 18 19  2  0  0  0
 18102  1  0  0  0
 19 20  1  0  0  0
 19 24  1  0  0  0
 20 21  2  0  0  0
 20103  1  0  0  0
 21 23  1  0  0  0
 22 28  1  0  0  0
 22 32  2  0  0  0
 26 27  1  0  0  0
 28104  1  0  0  0
 28105  1  0  0  0
 29106  1  0  0  0
 29107  1  0  0  0
 33 34  1  0  0  0
 33 66  1  0  0  0
 33 70  2  0  0  0
 34 36  1  0  0  0
 34 59  1  0  0  0
 34108  1  0  0  0
 35 44  2  0  0  0
 35 45  1  0  0  0
 35 68  1  0  0  0
 36 56  1  0  0  0
 36109  1  0  0  0
 37 39  1  0  0  0
 37 47  1  0  0  0
 37 66  1  0  0  0
 37110  1  0  0  0
 38 43  2  0  0  0
 38 46  1  0  0  0
 38 47  1  0  0  0
 39 64  1  0  0  0
 39 67  2  0  0  0
 40 52  1  0  0  0
 40 53  2  0  0  0
 40 58  1  0  0  0
 41111  1  0  0  0
 41112  1  0  0  0
 41113  1  0  0  0
 41 48  1  0  0  0
 42 43  1  0  0  0
 42 66  1  0  0  0
 42114  1  0  0  0
 42115  1  0  0  0
 43 44  1  0  0  0
 44116  1  0  0  0
 45 46  2  0  0  0
 45117  1  0  0  0
 46118  1  0  0  0
 47119  1  0  0  0
 47120  1  0  0  0
 48 56  1  0  0  0
 48 65  1  0  0  0
 48121  1  0  0  0
 49 50  1  0  0  0
 49 53  1  0  0  0
 49 64  1  0  0  0
 49122  1  0  0  0
 50 51  1  0  0  0
 50123  1  0  0  0
 50124  1  0  0  0
 51 52  1  0  0  0
 51125  1  0  0  0
 51126  1  0  0  0
 52127  1  0  0  0
 52128  1  0  0  0
 53 54  1  0  0  0
 54 55  2  0  0  0
 54129  1  0  0  0
 55 57  1  0  0  0
 55130  1  0  0  0
 56 69  2  0  0  0
 57 58  2  0  0  0
 57131  1  0  0  0
 58132  1  0  0  0
 59 60  1  0  0  0
 59 61  1  0  0  0
 59 62  1  0  0  0
 60133  1  0  0  0
 60134  1  0  0  0
 60135  1  0  0  0
 61136  1  0  0  0
 61137  1  0  0  0
 61138  1  0  0  0
 62139  1  0  0  0
 62140  1  0  0  0
 62141  1  0  0  0
 63 65  1  0  0  0
 63142  1  0  0  0
 63143  1  0  0  0
 63144  1  0  0  0
 64145  1  0  0  0
 65146  1  0  0  0
 68 82  1  0  0  0
 71 73  2  0  0  0
 71 74  1  0  0  0
 71147  1  0  0  0
 72 73  1  0  0  0
 72 76  2  0  0  0
 72148  1  0  0  0
 73 81  1  0  0  0
 74 75  2  0  0  0
 74 85  1  0  0  0
 75 76  1  0  0  0
 75 84  1  0  0  0
 76 87  1  0  0  0
 77 78  1  0  0  0
 77 83  1  0  0  0
 77 86  2  0  0  0
 78 79  1  0  0  0
 78149  1  0  0  0
 78150  1  0  0  0
 79 80  1  0  0  0
 79151  1  0  0  0
 79152  1  0  0  0
 80 82  1  0  0  0
 80 83  1  0  0  0
 80153  1  0  0  0
 81 83  1  0  0  0
 81154  1  0  0  0
 81155  1  0  0  0
 82156  1  0  0  0
 82157  1  0  0  0
 84158  1  0  0  0
 84159  1  0  0  0
 85160  1  0  0  0
M  ISO  4   1 100  68 101  82 101  85 100
M  END
> <chiral flag>
0

> <version>
0

> <s_m_source_file>
/data/baiqing/PycharmProjects/Reinvent-master-3.2/result/LINK_invent/BTK/process_docking_weight1_custom_product_contain_oxygen_bond_distance_aromatic_linkinvent_7_9_3/rearranged_h_0101.sdf

> <i_m_source_file_index>
44

> <r_mmod_Potential_Energy-OPLS-2005>
185.123153686523

> <r_mmod_Stretch_Energy-OPLS-2005>
131.754150390625

> <r_mmod_Bend_Energy-OPLS-2005>
210.802871704102

> <r_mmod_Torsional_Energy-OPLS-2005>
294.066986083984

> <r_mmod_Improper_Torsional_Energy-OPLS-2005>
18.5904312133789

> <r_mmod_Van_der_Waal_Energy-OPLS-2005>
135.794204711914

> <r_mmod_Electrostatic_Energy-OPLS-2005>
-469.2900390625

> <r_mmod_Solvation_Energy-OPLS-2005>
-228.021682739258

> <b_mmod_Minimization_Converged-OPLS-2005>
0

> <r_mmod_RMS_Derivative-OPLS-2005>
5.86450624465942

$$$$
44
                    3D
 Structure written by MMmdl.
156164  0  0  1  0            999 V2000
  -30.5926  -14.6614   20.4908 C   0  0  0  0  0  0
  -30.4447  -12.4035   19.4625 C   0  0  0  0  0  0
  -29.5143  -12.4952   18.2316 C   0  0  0  0  0  0
  -28.0354  -12.3252   18.6385 C   0  0  0  0  0  0
  -27.6462  -13.2082   19.8528 C   0  0  2  0  0  0
  -28.6867  -13.0818   20.9876 C   0  0  0  0  0  0
  -25.2512  -13.8136   20.5628 C   0  0  0  0  0  0
  -24.1791  -13.0423   20.9189 C   0  0  0  0  0  0
  -24.6346  -11.6889   20.8733 C   0  0  0  0  0  0
  -23.9020  -10.4286   21.0406 C   0  0  0  0  0  0
  -24.3582   -9.4210   21.9186 C   0  0  0  0  0  0
  -23.6268   -8.2236   22.0747 C   0  0  0  0  0  0
  -22.4257   -8.0264   21.3532 C   0  0  0  0  0  0
  -21.9878   -9.0236   20.4640 C   0  0  0  0  0  0
  -22.7189  -10.2120   20.3055 C   0  0  0  0  0  0
  -21.6850   -6.0726   22.5287 C   0  0  0  0  0  0
  -21.4015   -6.5634   23.8215 C   0  0  0  0  0  0
  -21.3657   -5.6784   24.9178 C   0  0  0  0  0  0
  -21.6038   -4.3048   24.7229 C   0  0  0  0  0  0
  -21.8818   -3.8139   23.4353 C   0  0  0  0  0  0
  -21.9191   -4.6953   22.3409 C   0  0  0  0  0  0
  -22.7821  -13.5224   21.1878 C   0  0  0  0  0  0
  -22.1661   -4.2140   21.0982 F   0  0  0  0  0  0
  -21.5628   -3.4534   25.7743 F   0  0  0  0  0  0
  -30.0028  -13.4276   20.4256 N   0  0  0  0  0  0
  -26.2929  -12.9309   20.3231 N   0  0  0  0  0  0
  -25.9267  -11.6479   20.5720 N   0  0  0  0  0  0
  -22.0447  -12.8239   22.0440 N   0  0  0  0  0  0
  -25.4179  -15.1862   20.3993 N   0  0  0  0  0  0
  -31.7744  -14.8320   20.1742 O   0  0  0  0  0  0
  -21.6627   -6.8860   21.4239 O   0  0  0  0  0  0
  -22.3511  -14.5523   20.6703 O   0  0  0  0  0  0
  -24.6278  -31.8614   23.2044 C   0  0  0  0  0  0
  -25.9129  -32.4787   23.8368 C   0  0  1  0  0  0
  -27.2204  -27.3218   20.1074 C   0  0  0  0  0  0
  -25.5952  -33.8588   24.2301 N   0  0  0  0  0  0
  -23.4192  -30.4879   21.5472 C   0  0  2  0  0  0
  -24.8623  -28.9457   20.1059 C   0  0  0  0  0  0
  -22.7480  -29.4646   22.4939 C   0  0  0  0  0  0
  -18.0301  -28.1407   22.8491 C   0  0  0  0  0  0
  -24.1493  -36.7278   23.2634 C   0  0  0  0  0  0
  -25.9606  -30.7894   21.3764 C   0  0  0  0  0  0
  -26.0304  -29.4192   20.7152 C   0  0  0  0  0  0
  -27.2104  -28.6183   20.7087 C   0  0  0  0  0  0
  -26.0314  -26.9100   19.4586 C   0  0  0  0  0  0
  -24.8648  -27.6967   19.4689 C   0  0  0  0  0  0
  -23.6318  -29.8271   20.1596 C   0  0  0  0  0  0
  -25.4117  -36.3084   24.0338 C   0  0  1  0  0  0
  -20.5902  -28.3724   23.1275 C   0  0  2  0  0  0
  -20.6804  -26.9453   22.5397 C   0  0  0  0  0  0
  -19.5768  -26.6419   21.5212 C   0  0  0  0  0  0
  -18.1948  -26.7948   22.1633 C   0  0  0  0  0  0
  -19.1555  -28.8881   23.2876 C   0  0  0  0  0  0
  -18.9469  -30.1482   23.8894 C   0  0  0  0  0  0
  -17.6471  -30.6605   24.0581 C   0  0  0  0  0  0
  -25.9053  -34.9460   23.5110 C   0  0  0  0  0  0
  -16.5364  -29.9108   23.6336 C   0  0  0  0  0  0
  -16.7286  -28.6528   23.0347 C   0  0  0  0  0  0
  -26.4506  -31.6593   25.0736 C   0  0  0  0  0  0
  -25.3740  -31.3728   26.1462 C   0  0  0  0  0  0
  -27.0334  -30.3017   24.6181 C   0  0  0  0  0  0
  -27.6078  -32.4319   25.7495 C   0  0  0  0  0  0
  -27.5576  -37.1807   24.8475 C   0  0  0  0  0  0
  -21.4199  -29.3070   22.3660 N   0  0  0  0  0  0
  -26.4296  -37.3781   23.9411 N   0  0  0  0  0  0
  -24.6878  -31.0634   22.0988 N   0  0  0  0  0  0
  -23.4201  -28.8181   23.3020 O   0  0  0  0  0  0
  -28.3390  -26.4734   20.1771 O   0  0  0  0  0  0
  -26.5609  -34.8927   22.4667 O   0  0  0  0  0  0
  -23.5449  -32.1418   23.7383 O   0  0  0  0  0  0
  -29.0885  -19.3683   19.7582 C   0  0  0  0  0  0
  -30.5241  -17.8789   21.6564 C   0  0  0  0  0  0
  -29.1343  -17.9365   19.6837 C   0  0  0  0  0  0
  -29.8557  -17.1548   20.6386 C   0  0  0  0  0  0
  -30.4602  -19.3016   21.7359 C   0  0  0  0  0  0
  -29.7438  -20.0914   20.7917 C   0  0  0  0  0  0
  -28.3910  -17.2439   18.5519 C   0  0  0  0  0  0
  -29.1632  -23.9716   20.5389 C   0  0  0  0  0  0
  -28.1520  -25.0265   19.9169 C   0  0  0  0  0  0
  -28.9139  -22.4266   20.2081 C   0  0  0  0  0  0
  -31.0900  -19.9531   22.7974 N   0  0  0  0  0  0
  -29.7211  -15.6996   20.6947 N   0  0  0  0  0  0
  -29.7559  -21.4963   20.9592 O   0  0  0  0  0  0
  -31.4850  -12.5469   19.1655 H   0  0  0  0  0  0
  -30.3962  -11.4137   19.9175 H   0  0  0  0  0  0
  -29.7925  -11.7415   17.4945 H   0  0  0  0  0  0
  -29.6486  -13.4619   17.7459 H   0  0  0  0  0  0
  -27.8790  -11.2744   18.8832 H   0  0  0  0  0  0
  -27.3834  -12.5379   17.7904 H   0  0  0  0  0  0
  -27.6554  -14.2352   19.4910 H   0  0  0  0  0  0
  -28.6994  -12.0670   21.3864 H   0  0  0  0  0  0
  -28.4224  -13.7280   21.8271 H   0  0  0  0  0  0
  -25.2725   -9.5704   22.4759 H   0  0  0  0  0  0
  -23.9993   -7.4625   22.7458 H   0  0  0  0  0  0
  -21.0816   -8.8732   19.8941 H   0  0  0  0  0  0
  -22.3636  -10.9652   19.6164 H   0  0  0  0  0  0
  -21.2010   -7.6142   23.9721 H   0  0  0  0  0  0
  -21.1481   -6.0516   25.9080 H   0  0  0  0  0  0
  -22.0600   -2.7605   23.2855 H   0  0  0  0  0  0
  -22.4042  -11.9903   22.4865 H   0  0  0  0  0  0
  -21.1059  -13.1273   22.2620 H   0  0  0  0  0  0
  -24.6352  -15.8262   20.4783 H   0  0  0  0  0  0
  -26.2490  -15.6262   20.0317 H   0  0  0  0  0  0
  -26.7179  -32.5438   23.1102 H   0  0  0  0  0  0
  -25.0157  -33.9738   25.0486 H   0  0  0  0  0  0
  -22.7148  -31.3107   21.4074 H   0  0  0  0  0  0
  -23.3761  -35.9601   23.3324 H   0  0  0  0  0  0
  -24.3559  -36.8864   22.2033 H   0  0  0  0  0  0
  -23.7254  -37.6499   23.6624 H   0  0  0  0  0  0
  -26.0982  -31.5545   20.6115 H   0  0  0  0  0  0
  -26.8386  -30.8295   22.0079 H   0  0  0  0  0  0
  -28.1045  -28.9764   21.1986 H   0  0  0  0  0  0
  -25.9706  -25.9656   18.9376 H   0  0  0  0  0  0
  -23.9730  -27.3366   18.9745 H   0  0  0  0  0  0
  -23.7498  -30.6070   19.4063 H   0  0  0  0  0  0
  -22.7495  -29.2607   19.8551 H   0  0  0  0  0  0
  -25.1296  -36.1929   25.0833 H   0  0  0  0  0  0
  -20.9995  -28.3295   24.1395 H   0  0  0  0  0  0
  -20.5736  -26.2328   23.3592 H   0  0  0  0  0  0
  -21.6665  -26.7504   22.1162 H   0  0  0  0  0  0
  -19.6935  -25.6329   21.1237 H   0  0  0  0  0  0
  -19.6698  -27.3235   20.6741 H   0  0  0  0  0  0
  -17.4219  -26.6703   21.4036 H   0  0  0  0  0  0
  -18.0355  -26.0089   22.9029 H   0  0  0  0  0  0
  -19.7942  -30.7311   24.2251 H   0  0  0  0  0  0
  -17.5023  -31.6271   24.5209 H   0  0  0  0  0  0
  -15.5364  -30.3018   23.7660 H   0  0  0  0  0  0
  -15.8682  -28.0853   22.7056 H   0  0  0  0  0  0
  -24.5936  -30.7046   25.7797 H   0  0  0  0  0  0
  -24.8900  -32.2884   26.4873 H   0  0  0  0  0  0
  -25.8075  -30.8928   27.0247 H   0  0  0  0  0  0
  -26.2886  -29.6785   24.1210 H   0  0  0  0  0  0
  -27.4036  -29.7263   25.4680 H   0  0  0  0  0  0
  -27.8771  -30.4315   23.9397 H   0  0  0  0  0  0
  -27.2717  -33.3648   26.2042 H   0  0  0  0  0  0
  -28.3902  -32.6837   25.0317 H   0  0  0  0  0  0
  -28.0726  -31.8452   26.5436 H   0  0  0  0  0  0
  -28.2626  -38.0075   24.7488 H   0  0  0  0  0  0
  -28.1048  -36.2608   24.6348 H   0  0  0  0  0  0
  -27.2276  -37.1497   25.8876 H   0  0  0  0  0  0
  -20.9385  -29.8759   21.6827 H   0  0  0  0  0  0
  -26.0181  -38.2863   24.1392 H   0  0  0  0  0  0
  -28.5298  -19.9108   19.0086 H   0  0  0  0  0  0
  -31.0580  -17.3294   22.4184 H   0  0  0  0  0  0
  -28.1000  -17.9515   17.7750 H   0  0  0  0  0  0
  -27.4878  -16.7529   18.9130 H   0  0  0  0  0  0
  -29.0258  -16.4903   18.0847 H   0  0  0  0  0  0
  -30.1766  -24.2354   20.2346 H   0  0  0  0  0  0
  -29.1434  -24.0933   21.6230 H   0  0  0  0  0  0
  -28.1326  -24.8887   18.8344 H   0  0  0  0  0  0
  -27.1720  -24.7212   20.2844 H   0  0  0  0  0  0
  -29.0608  -22.2625   19.1397 H   0  0  0  0  0  0
  -27.8724  -22.1851   20.4225 H   0  0  0  0  0  0
  -30.7491  -20.8926   22.9805 H   0  0  0  0  0  0
  -31.2293  -19.4270   23.6546 H   0  0  0  0  0  0
  -28.7711  -15.3802   20.8014 H   0  0  0  0  0  0
  1 25  1  0  0  0
  1 30  2  0  0  0
  1 82  1  0  0  0
  2  3  1  0  0  0
  2 25  1  0  0  0
  2 84  1  0  0  0
  2 85  1  0  0  0
  3  4  1  0  0  0
  3 86  1  0  0  0
  3 87  1  0  0  0
  4  5  1  0  0  0
  4 88  1  0  0  0
  4 89  1  0  0  0
  5  6  1  0  0  0
  5 26  1  0  0  0
  5 90  1  0  0  0
  6 25  1  0  0  0
  6 91  1  0  0  0
  6 92  1  0  0  0
  7  8  2  0  0  0
  7 26  1  0  0  0
  7 29  1  0  0  0
  8  9  1  0  0  0
  8 22  1  0  0  0
  9 10  1  0  0  0
  9 27  2  0  0  0
 10 11  2  0  0  0
 10 15  1  0  0  0
 11 12  1  0  0  0
 11 93  1  0  0  0
 12 13  2  0  0  0
 12 94  1  0  0  0
 13 14  1  0  0  0
 13 31  1  0  0  0
 14 15  2  0  0  0
 14 95  1  0  0  0
 15 96  1  0  0  0
 16 17  2  0  0  0
 16 21  1  0  0  0
 16 31  1  0  0  0
 17 18  1  0  0  0
 17 97  1  0  0  0
 18 19  2  0  0  0
 18 98  1  0  0  0
 19 20  1  0  0  0
 19 24  1  0  0  0
 20 21  2  0  0  0
 20 99  1  0  0  0
 21 23  1  0  0  0
 22 28  1  0  0  0
 22 32  2  0  0  0
 26 27  1  0  0  0
 28100  1  0  0  0
 28101  1  0  0  0
 29102  1  0  0  0
 29103  1  0  0  0
 33 34  1  0  0  0
 33 66  1  0  0  0
 33 70  2  0  0  0
 34 36  1  0  0  0
 34 59  1  0  0  0
 34104  1  0  0  0
 35 44  2  0  0  0
 35 45  1  0  0  0
 35 68  1  0  0  0
 36 56  1  0  0  0
 36105  1  0  0  0
 37 39  1  0  0  0
 37 47  1  0  0  0
 37 66  1  0  0  0
 37106  1  0  0  0
 38 43  2  0  0  0
 38 46  1  0  0  0
 38 47  1  0  0  0
 39 64  1  0  0  0
 39 67  2  0  0  0
 40 52  1  0  0  0
 40 53  2  0  0  0
 40 58  1  0  0  0
 41107  1  0  0  0
 41108  1  0  0  0
 41109  1  0  0  0
 41 48  1  0  0  0
 42 43  1  0  0  0
 42 66  1  0  0  0
 42110  1  0  0  0
 42111  1  0  0  0
 43 44  1  0  0  0
 44112  1  0  0  0
 45 46  2  0  0  0
 45113  1  0  0  0
 46114  1  0  0  0
 47115  1  0  0  0
 47116  1  0  0  0
 48 56  1  0  0  0
 48 65  1  0  0  0
 48117  1  0  0  0
 49 50  1  0  0  0
 49 53  1  0  0  0
 49 64  1  0  0  0
 49118  1  0  0  0
 50 51  1  0  0  0
 50119  1  0  0  0
 50120  1  0  0  0
 51 52  1  0  0  0
 51121  1  0  0  0
 51122  1  0  0  0
 52123  1  0  0  0
 52124  1  0  0  0
 53 54  1  0  0  0
 54 55  2  0  0  0
 54125  1  0  0  0
 55 57  1  0  0  0
 55126  1  0  0  0
 56 69  2  0  0  0
 57 58  2  0  0  0
 57127  1  0  0  0
 58128  1  0  0  0
 59 60  1  0  0  0
 59 61  1  0  0  0
 59 62  1  0  0  0
 60129  1  0  0  0
 60130  1  0  0  0
 60131  1  0  0  0
 61132  1  0  0  0
 61133  1  0  0  0
 61134  1  0  0  0
 62135  1  0  0  0
 62136  1  0  0  0
 62137  1  0  0  0
 63 65  1  0  0  0
 63138  1  0  0  0
 63139  1  0  0  0
 63140  1  0  0  0
 64141  1  0  0  0
 65142  1  0  0  0
 68 79  1  0  0  0
 71 73  2  0  0  0
 71 76  1  0  0  0
 71143  1  0  0  0
 72 74  2  0  0  0
 72 75  1  0  0  0
 72144  1  0  0  0
 73 74  1  0  0  0
 73 77  1  0  0  0
 74 82  1  0  0  0
 75 76  2  0  0  0
 75 81  1  0  0  0
 76 83  1  0  0  0
 77145  1  0  0  0
 77146  1  0  0  0
 77147  1  0  0  0
 78 79  1  0  0  0
 78 80  1  0  0  0
 78148  1  0  0  0
 78149  1  0  0  0
 79150  1  0  0  0
 79151  1  0  0  0
 80 83  1  0  0  0
 80152  1  0  0  0
 80153  1  0  0  0
 81154  1  0  0  0
 81155  1  0  0  0
 82156  1  0  0  0
M  ISO  4   1 100  68 101  79 101  82 100
M  END
> <chiral flag>
0

> <version>
0

> <s_m_source_file>
/data/baiqing/PycharmProjects/Reinvent-master-3.2/result/LINK_invent/BTK/process_docking_weight1_custom_product_contain_oxygen_bond_distance_aromatic_linkinvent_7_9_3/rearranged_h_0101.sdf

> <i_m_source_file_index>
45

> <r_mmod_Potential_Energy-OPLS-2005>
40.5813636779785

> <r_mmod_Stretch_Energy-OPLS-2005>
77.9691390991211

> <r_mmod_Bend_Energy-OPLS-2005>
141.757217407227

> <r_mmod_Torsional_Energy-OPLS-2005>
240.031539916992

> <r_mmod_Improper_Torsional_Energy-OPLS-2005>
11.209813117981

> <r_mmod_Van_der_Waal_Energy-OPLS-2005>
140.483016967773

> <r_mmod_Electrostatic_Energy-OPLS-2005>
-397.081329345703

> <r_mmod_Solvation_Energy-OPLS-2005>
-229.394943237305

> <b_mmod_Minimization_Converged-OPLS-2005>
0

> <r_mmod_RMS_Derivative-OPLS-2005>
2.329922914505

$$$$
45
                    3D
 Structure written by MMmdl.
161169  0  0  1  0            999 V2000
  -30.7541  -14.4302   20.5300 C   0  0  0  0  0  0
  -30.3991  -12.2683   19.4197 C   0  0  0  0  0  0
  -29.4810  -12.4844   18.2003 C   0  0  0  0  0  0
  -28.0043  -12.3556   18.6192 C   0  0  0  0  0  0
  -27.6547  -13.2116   19.8672 C   0  0  2  0  0  0
  -28.7041  -13.0281   20.9885 C   0  0  0  0  0  0
  -25.2561  -13.8177   20.5683 C   0  0  0  0  0  0
  -24.1827  -13.0439   20.9190 C   0  0  0  0  0  0
  -24.6394  -11.6912   20.8760 C   0  0  0  0  0  0
  -23.9065  -10.4286   21.0409 C   0  0  0  0  0  0
  -24.3616   -9.4199   21.9184 C   0  0  0  0  0  0
  -23.6282   -8.2241   22.0749 C   0  0  0  0  0  0
  -22.4264   -8.0280   21.3539 C   0  0  0  0  0  0
  -21.9908   -9.0263   20.4650 C   0  0  0  0  0  0
  -22.7246  -10.2131   20.3063 C   0  0  0  0  0  0
  -21.6850   -6.0734   22.5271 C   0  0  0  0  0  0
  -21.4025   -6.5637   23.8211 C   0  0  0  0  0  0
  -21.3657   -5.6790   24.9164 C   0  0  0  0  0  0
  -21.6051   -4.3058   24.7220 C   0  0  0  0  0  0
  -21.8819   -3.8139   23.4344 C   0  0  0  0  0  0
  -21.9196   -4.6955   22.3395 C   0  0  0  0  0  0
  -22.7842  -13.5213   21.1837 C   0  0  0  0  0  0
  -22.1658   -4.2142   21.0972 F   0  0  0  0  0  0
  -21.5624   -3.4536   25.7731 F   0  0  0  0  0  0
  -30.0308  -13.2872   20.4123 N   0  0  0  0  0  0
  -26.2997  -12.9360   20.3364 N   0  0  0  0  0  0
  -25.9323  -11.6520   20.5809 N   0  0  0  0  0  0
  -22.0512  -12.8216   22.0414 N   0  0  0  0  0  0
  -25.4276  -15.1900   20.4039 N   0  0  0  0  0  0
  -31.9462  -14.4652   20.2467 O   0  0  0  0  0  0
  -21.6640   -6.8873   21.4233 O   0  0  0  0  0  0
  -22.3530  -14.5525   20.6683 O   0  0  0  0  0  0
  -24.6132  -31.8718   23.2114 C   0  0  0  0  0  0
  -25.9040  -32.4853   23.8405 C   0  0  1  0  0  0
  -27.2369  -27.4591   20.0927 C   0  0  0  0  0  0
  -25.5889  -33.8644   24.2340 N   0  0  0  0  0  0
  -23.3986  -30.4954   21.5526 C   0  0  2  0  0  0
  -24.8437  -28.9669   20.1141 C   0  0  0  0  0  0
  -22.7400  -29.4677   22.5011 C   0  0  0  0  0  0
  -18.0271  -28.1378   22.8507 C   0  0  0  0  0  0
  -24.1490  -36.7316   23.2637 C   0  0  0  0  0  0
  -25.9249  -30.8481   21.3580 C   0  0  0  0  0  0
  -26.0025  -29.4853   20.7033 C   0  0  0  0  0  0
  -27.2004  -28.7403   20.6852 C   0  0  0  0  0  0
  -26.0528  -26.9494   19.5054 C   0  0  0  0  0  0
  -24.8627  -27.6989   19.5115 C   0  0  0  0  0  0
  -23.6044  -29.8298   20.1664 C   0  0  0  0  0  0
  -25.4110  -36.3128   24.0343 C   0  0  1  0  0  0
  -20.5859  -28.3658   23.1337 C   0  0  2  0  0  0
  -20.6764  -26.9405   22.5418 C   0  0  0  0  0  0
  -19.5730  -26.6395   21.5223 C   0  0  0  0  0  0
  -18.1912  -26.7927   22.1638 C   0  0  0  0  0  0
  -19.1521  -28.8826   23.2925 C   0  0  0  0  0  0
  -18.9445  -30.1438   23.8937 C   0  0  0  0  0  0
  -17.6448  -30.6586   24.0570 C   0  0  0  0  0  0
  -25.9034  -34.9493   23.5141 C   0  0  0  0  0  0
  -16.5340  -29.9084   23.6322 C   0  0  0  0  0  0
  -16.7260  -28.6492   23.0357 C   0  0  0  0  0  0
  -26.4466  -31.6607   25.0707 C   0  0  0  0  0  0
  -25.3722  -31.3719   26.1446 C   0  0  0  0  0  0
  -27.0290  -30.3050   24.6063 C   0  0  0  0  0  0
  -27.6061  -32.4301   25.7462 C   0  0  0  0  0  0
  -27.5589  -37.1814   24.8471 C   0  0  0  0  0  0
  -21.4132  -29.3020   22.3744 N   0  0  0  0  0  0
  -26.4301  -37.3798   23.9418 N   0  0  0  0  0  0
  -24.6643  -31.0845   22.0999 N   0  0  0  0  0  0
  -23.4191  -28.8223   23.3049 O   0  0  0  0  0  0
  -28.4334  -26.7737   20.1098 O   0  0  0  0  0  0
  -26.5590  -34.8933   22.4706 O   0  0  0  0  0  0
  -23.5327  -32.1449   23.7529 O   0  0  0  0  0  0
  -31.0711  -19.6262   21.5186 C   0  0  0  0  0  0
  -29.5695  -17.7162   21.6873 C   0  0  0  0  0  0
  -29.8350  -19.0841   21.9117 C   0  0  0  0  0  0
  -31.5913  -17.5585   20.3255 C   0  0  0  0  0  0
  -31.9494  -18.8674   20.7368 C   0  0  0  0  0  0
  -30.4491  -16.9165   20.9173 C   0  0  0  0  0  0
  -28.7948  -19.9928   22.4865 C   0  0  0  0  0  0
  -27.7472  -22.0878   21.7995 C   0  0  0  0  0  0
  -32.3948  -16.9616   19.1757 C   0  0  0  0  0  0
  -27.7560  -23.0448   20.5998 C   0  0  0  0  0  0
  -27.9001  -24.5295   20.9833 C   0  0  0  0  0  0
  -28.4516  -25.3776   19.8169 C   0  0  0  0  0  0
  -33.1438  -19.4627   20.3309 N   0  0  0  0  0  0
  -30.0346  -15.5473   20.7503 N   0  0  0  0  0  0
  -28.5749  -21.0429   21.6809 N   0  0  0  0  0  0
  -28.2134  -19.7301   23.5437 O   0  0  0  0  0  0
  -27.0150  -22.3172   22.7677 O   0  0  0  0  0  0
  -31.4482  -12.3178   19.1239 H   0  0  0  0  0  0
  -30.2545  -11.2688   19.8342 H   0  0  0  0  0  0
  -29.7087  -11.7598   17.4176 H   0  0  0  0  0  0
  -29.6623  -13.4706   17.7698 H   0  0  0  0  0  0
  -27.8133  -11.3011   18.8256 H   0  0  0  0  0  0
  -27.3496  -12.6231   17.7893 H   0  0  0  0  0  0
  -27.6883  -14.2528   19.5459 H   0  0  0  0  0  0
  -28.6697  -12.0102   21.3809 H   0  0  0  0  0  0
  -28.4947  -13.6806   21.8377 H   0  0  0  0  0  0
  -25.2768   -9.5665   22.4760 H   0  0  0  0  0  0
  -23.9995   -7.4630   22.7470 H   0  0  0  0  0  0
  -21.0840   -8.8791   19.8955 H   0  0  0  0  0  0
  -22.3717  -10.9670   19.6177 H   0  0  0  0  0  0
  -21.2033   -7.6151   23.9708 H   0  0  0  0  0  0
  -21.1475   -6.0521   25.9071 H   0  0  0  0  0  0
  -22.0605   -2.7601   23.2841 H   0  0  0  0  0  0
  -22.4117  -11.9865   22.4782 H   0  0  0  0  0  0
  -21.1142  -13.1231   22.2646 H   0  0  0  0  0  0
  -24.6589  -15.8438   20.5069 H   0  0  0  0  0  0
  -26.2733  -15.6267   20.0587 H   0  0  0  0  0  0
  -26.7113  -32.5578   23.1180 H   0  0  0  0  0  0
  -25.0050  -33.9793   25.0490 H   0  0  0  0  0  0
  -22.6863  -31.3111   21.4162 H   0  0  0  0  0  0
  -23.3749  -35.9649   23.3311 H   0  0  0  0  0  0
  -24.3588  -36.8910   22.2048 H   0  0  0  0  0  0
  -23.7232  -37.6526   23.6628 H   0  0  0  0  0  0
  -26.0299  -31.6168   20.5912 H   0  0  0  0  0  0
  -26.8156  -30.9037   21.9718 H   0  0  0  0  0  0
  -28.1002  -29.1454   21.1275 H   0  0  0  0  0  0
  -26.0208  -25.9780   19.0381 H   0  0  0  0  0  0
  -23.9708  -27.2944   19.0526 H   0  0  0  0  0  0
  -23.7100  -30.6045   19.4059 H   0  0  0  0  0  0
  -22.7307  -29.2439   19.8750 H   0  0  0  0  0  0
  -25.1285  -36.2009   25.0829 H   0  0  0  0  0  0
  -20.9954  -28.3213   24.1460 H   0  0  0  0  0  0
  -20.5679  -26.2270   23.3601 H   0  0  0  0  0  0
  -21.6637  -26.7461   22.1211 H   0  0  0  0  0  0
  -19.6900  -25.6312   21.1227 H   0  0  0  0  0  0
  -19.6667  -27.3230   20.6773 H   0  0  0  0  0  0
  -17.4196  -26.6697   21.4027 H   0  0  0  0  0  0
  -18.0307  -26.0052   22.9013 H   0  0  0  0  0  0
  -19.7919  -30.7245   24.2337 H   0  0  0  0  0  0
  -17.4998  -31.6273   24.5161 H   0  0  0  0  0  0
  -15.5339  -30.3007   23.7605 H   0  0  0  0  0  0
  -15.8667  -28.0819   22.7069 H   0  0  0  0  0  0
  -24.5908  -30.7051   25.7782 H   0  0  0  0  0  0
  -24.8883  -32.2872   26.4862 H   0  0  0  0  0  0
  -25.8050  -30.8911   27.0229 H   0  0  0  0  0  0
  -26.2830  -29.6816   24.1113 H   0  0  0  0  0  0
  -27.4080  -29.7280   25.4517 H   0  0  0  0  0  0
  -27.8658  -30.4388   23.9199 H   0  0  0  0  0  0
  -27.2716  -33.3606   26.2068 H   0  0  0  0  0  0
  -28.3854  -32.6855   25.0263 H   0  0  0  0  0  0
  -28.0748  -31.8395   26.5349 H   0  0  0  0  0  0
  -28.2625  -38.0095   24.7516 H   0  0  0  0  0  0
  -28.1064  -36.2630   24.6300 H   0  0  0  0  0  0
  -27.2305  -37.1476   25.8871 H   0  0  0  0  0  0
  -20.9300  -29.8740   21.6966 H   0  0  0  0  0  0
  -26.0204  -38.2887   24.1385 H   0  0  0  0  0  0
  -31.3136  -20.6542   21.7575 H   0  0  0  0  0  0
  -28.6418  -17.3003   22.0576 H   0  0  0  0  0  0
  -32.7101  -17.7325   18.4721 H   0  0  0  0  0  0
  -31.7934  -16.2699   18.5880 H   0  0  0  0  0  0
  -33.2882  -16.4611   19.5453 H   0  0  0  0  0  0
  -26.8395  -22.9021   20.0270 H   0  0  0  0  0  0
  -28.5750  -22.7665   19.9356 H   0  0  0  0  0  0
  -26.9266  -24.9044   21.3001 H   0  0  0  0  0  0
  -28.5563  -24.6405   21.8491 H   0  0  0  0  0  0
  -29.4936  -25.1050   19.6524 H   0  0  0  0  0  0
  -27.9543  -25.1552   18.8731 H   0  0  0  0  0  0
  -33.4639  -20.2757   20.8484 H   0  0  0  0  0  0
  -33.9090  -18.8438   20.0845 H   0  0  0  0  0  0
  -29.0659  -15.3598   20.9548 H   0  0  0  0  0  0
  -29.1212  -21.0184   20.8359 H   0  0  0  0  0  0
  1 25  1  0  0  0
  1 30  2  0  0  0
  1 84  1  0  0  0
  2  3  1  0  0  0
  2 25  1  0  0  0
  2 88  1  0  0  0
  2 89  1  0  0  0
  3  4  1  0  0  0
  3 90  1  0  0  0
  3 91  1  0  0  0
  4  5  1  0  0  0
  4 92  1  0  0  0
  4 93  1  0  0  0
  5  6  1  0  0  0
  5 26  1  0  0  0
  5 94  1  0  0  0
  6 25  1  0  0  0
  6 95  1  0  0  0
  6 96  1  0  0  0
  7  8  2  0  0  0
  7 26  1  0  0  0
  7 29  1  0  0  0
  8  9  1  0  0  0
  8 22  1  0  0  0
  9 10  1  0  0  0
  9 27  2  0  0  0
 10 11  2  0  0  0
 10 15  1  0  0  0
 11 12  1  0  0  0
 11 97  1  0  0  0
 12 13  2  0  0  0
 12 98  1  0  0  0
 13 14  1  0  0  0
 13 31  1  0  0  0
 14 15  2  0  0  0
 14 99  1  0  0  0
 15100  1  0  0  0
 16 17  2  0  0  0
 16 21  1  0  0  0
 16 31  1  0  0  0
 17 18  1  0  0  0
 17101  1  0  0  0
 18 19  2  0  0  0
 18102  1  0  0  0
 19 20  1  0  0  0
 19 24  1  0  0  0
 20 21  2  0  0  0
 20103  1  0  0  0
 21 23  1  0  0  0
 22 28  1  0  0  0
 22 32  2  0  0  0
 26 27  1  0  0  0
 28104  1  0  0  0
 28105  1  0  0  0
 29106  1  0  0  0
 29107  1  0  0  0
 33 34  1  0  0  0
 33 66  1  0  0  0
 33 70  2  0  0  0
 34 36  1  0  0  0
 34 59  1  0  0  0
 34108  1  0  0  0
 35 44  2  0  0  0
 35 45  1  0  0  0
 35 68  1  0  0  0
 36 56  1  0  0  0
 36109  1  0  0  0
 37 39  1  0  0  0
 37 47  1  0  0  0
 37 66  1  0  0  0
 37110  1  0  0  0
 38 43  2  0  0  0
 38 46  1  0  0  0
 38 47  1  0  0  0
 39 64  1  0  0  0
 39 67  2  0  0  0
 40 52  1  0  0  0
 40 53  2  0  0  0
 40 58  1  0  0  0
 41111  1  0  0  0
 41112  1  0  0  0
 41113  1  0  0  0
 41 48  1  0  0  0
 42 43  1  0  0  0
 42 66  1  0  0  0
 42114  1  0  0  0
 42115  1  0  0  0
 43 44  1  0  0  0
 44116  1  0  0  0
 45 46  2  0  0  0
 45117  1  0  0  0
 46118  1  0  0  0
 47119  1  0  0  0
 47120  1  0  0  0
 48 56  1  0  0  0
 48 65  1  0  0  0
 48121  1  0  0  0
 49 50  1  0  0  0
 49 53  1  0  0  0
 49 64  1  0  0  0
 49122  1  0  0  0
 50 51  1  0  0  0
 50123  1  0  0  0
 50124  1  0  0  0
 51 52  1  0  0  0
 51125  1  0  0  0
 51126  1  0  0  0
 52127  1  0  0  0
 52128  1  0  0  0
 53 54  1  0  0  0
 54 55  2  0  0  0
 54129  1  0  0  0
 55 57  1  0  0  0
 55130  1  0  0  0
 56 69  2  0  0  0
 57 58  2  0  0  0
 57131  1  0  0  0
 58132  1  0  0  0
 59 60  1  0  0  0
 59 61  1  0  0  0
 59 62  1  0  0  0
 60133  1  0  0  0
 60134  1  0  0  0
 60135  1  0  0  0
 61136  1  0  0  0
 61137  1  0  0  0
 61138  1  0  0  0
 62139  1  0  0  0
 62140  1  0  0  0
 62141  1  0  0  0
 63 65  1  0  0  0
 63142  1  0  0  0
 63143  1  0  0  0
 63144  1  0  0  0
 64145  1  0  0  0
 65146  1  0  0  0
 68 82  1  0  0  0
 71 73  2  0  0  0
 71 75  1  0  0  0
 71147  1  0  0  0
 72 73  1  0  0  0
 72 76  2  0  0  0
 72148  1  0  0  0
 73 77  1  0  0  0
 74 75  2  0  0  0
 74 76  1  0  0  0
 74 79  1  0  0  0
 75 83  1  0  0  0
 76 84  1  0  0  0
 77 85  1  0  0  0
 77 86  2  0  0  0
 78 80  1  0  0  0
 78 85  1  0  0  0
 78 87  2  0  0  0
 79149  1  0  0  0
 79150  1  0  0  0
 79151  1  0  0  0
 80 81  1  0  0  0
 80152  1  0  0  0
 80153  1  0  0  0
 81 82  1  0  0  0
 81154  1  0  0  0
 81155  1  0  0  0
 82156  1  0  0  0
 82157  1  0  0  0
 83158  1  0  0  0
 83159  1  0  0  0
 84160  1  0  0  0
 85161  1  0  0  0
M  ISO  4   1 100  68 101  82 101  84 100
M  END
> <chiral flag>
0

> <version>
0

> <s_m_source_file>
/data/baiqing/PycharmProjects/Reinvent-master-3.2/result/LINK_invent/BTK/process_docking_weight1_custom_product_contain_oxygen_bond_distance_aromatic_linkinvent_7_9_3/rearranged_h_0101.sdf

> <i_m_source_file_index>
46

> <r_mmod_Potential_Energy-OPLS-2005>
-237.168640136719

> <r_mmod_Stretch_Energy-OPLS-2005>
36.8187637329102

> <r_mmod_Bend_Energy-OPLS-2005>
127.157043457031

> <r_mmod_Torsional_Energy-OPLS-2005>
251.938110351562

> <r_mmod_Improper_Torsional_Energy-OPLS-2005>
9.97160530090332

> <r_mmod_Van_der_Waal_Energy-OPLS-2005>
174.00798034668

> <r_mmod_Electrostatic_Energy-OPLS-2005>
-587.476379394531

> <r_mmod_Solvation_Energy-OPLS-2005>
-272.052215576172

> <b_mmod_Minimization_Converged-OPLS-2005>
0

> <r_mmod_RMS_Derivative-OPLS-2005>
2.76429486274719

$$$$
46
                    3D
 Structure written by MMmdl.
157165  0  0  1  0            999 V2000
  -30.6611  -14.6327   20.6008 C   0  0  0  0  0  0
  -30.4328  -12.4188   19.4528 C   0  0  0  0  0  0
  -29.5049  -12.5291   18.2232 C   0  0  0  0  0  0
  -28.0297  -12.3518   18.6305 C   0  0  0  0  0  0
  -27.6508  -13.2189   19.8585 C   0  0  2  0  0  0
  -28.6867  -13.0605   20.9867 C   0  0  0  0  0  0
  -25.2545  -13.8183   20.5663 C   0  0  0  0  0  0
  -24.1814  -13.0441   20.9167 C   0  0  0  0  0  0
  -24.6388  -11.6916   20.8712 C   0  0  0  0  0  0
  -23.9061  -10.4298   21.0385 C   0  0  0  0  0  0
  -24.3612   -9.4221   21.9174 C   0  0  0  0  0  0
  -23.6290   -8.2254   22.0753 C   0  0  0  0  0  0
  -22.4276   -8.0285   21.3540 C   0  0  0  0  0  0
  -21.9915   -9.0247   20.4625 C   0  0  0  0  0  0
  -22.7239  -10.2128   20.3024 C   0  0  0  0  0  0
  -21.6858   -6.0739   22.5274 C   0  0  0  0  0  0
  -21.4018   -6.5648   23.8206 C   0  0  0  0  0  0
  -21.3668   -5.6804   24.9169 C   0  0  0  0  0  0
  -21.6047   -4.3063   24.7223 C   0  0  0  0  0  0
  -21.8821   -3.8149   23.4348 C   0  0  0  0  0  0
  -21.9190   -4.6964   22.3403 C   0  0  0  0  0  0
  -22.7838  -13.5236   21.1845 C   0  0  0  0  0  0
  -22.1653   -4.2146   21.0980 F   0  0  0  0  0  0
  -21.5637   -3.4548   25.7737 F   0  0  0  0  0  0
  -30.0068  -13.4288   20.4496 N   0  0  0  0  0  0
  -26.2965  -12.9364   20.3267 N   0  0  0  0  0  0
  -25.9314  -11.6515   20.5710 N   0  0  0  0  0  0
  -22.0497  -12.8233   22.0424 N   0  0  0  0  0  0
  -25.4269  -15.1910   20.4121 N   0  0  0  0  0  0
  -31.7498  -14.8196   20.0463 O   0  0  0  0  0  0
  -21.6642   -6.8881   21.4237 O   0  0  0  0  0  0
  -22.3515  -14.5542   20.6703 O   0  0  0  0  0  0
  -24.6266  -31.8590   23.2008 C   0  0  0  0  0  0
  -25.9110  -32.4779   23.8339 C   0  0  1  0  0  0
  -27.2242  -27.3142   20.1256 C   0  0  0  0  0  0
  -25.5926  -33.8578   24.2274 N   0  0  0  0  0  0
  -23.4206  -30.4811   21.5441 C   0  0  2  0  0  0
  -24.8680  -28.9303   20.1146 C   0  0  0  0  0  0
  -22.7479  -29.4618   22.4939 C   0  0  0  0  0  0
  -18.0288  -28.1386   22.8495 C   0  0  0  0  0  0
  -24.1487  -36.7288   23.2636 C   0  0  0  0  0  0
  -25.9612  -30.7893   21.3707 C   0  0  0  0  0  0
  -26.0370  -29.4145   20.7162 C   0  0  0  0  0  0
  -27.2219  -28.6198   20.7059 C   0  0  0  0  0  0
  -26.0367  -26.8799   19.5008 C   0  0  0  0  0  0
  -24.8697  -27.6689   19.4965 C   0  0  0  0  0  0
  -23.6360  -29.8120   20.1607 C   0  0  0  0  0  0
  -25.4113  -36.3084   24.0328 C   0  0  1  0  0  0
  -20.5890  -28.3688   23.1288 C   0  0  2  0  0  0
  -20.6774  -26.9412   22.5413 C   0  0  0  0  0  0
  -19.5746  -26.6388   21.5216 C   0  0  0  0  0  0
  -18.1931  -26.7932   22.1633 C   0  0  0  0  0  0
  -19.1541  -28.8853   23.2887 C   0  0  0  0  0  0
  -18.9458  -30.1459   23.8901 C   0  0  0  0  0  0
  -17.6456  -30.6585   24.0568 C   0  0  0  0  0  0
  -25.9047  -34.9454   23.5100 C   0  0  0  0  0  0
  -16.5349  -29.9085   23.6335 C   0  0  0  0  0  0
  -16.7276  -28.6505   23.0355 C   0  0  0  0  0  0
  -26.4496  -31.6585   25.0707 C   0  0  0  0  0  0
  -25.3727  -31.3725   26.1429 C   0  0  0  0  0  0
  -27.0336  -30.3013   24.6151 C   0  0  0  0  0  0
  -27.6059  -32.4312   25.7481 C   0  0  0  0  0  0
  -27.5580  -37.1801   24.8467 C   0  0  0  0  0  0
  -21.4192  -29.3036   22.3678 N   0  0  0  0  0  0
  -26.4293  -37.3777   23.9407 N   0  0  0  0  0  0
  -24.6886  -31.0594   22.0961 N   0  0  0  0  0  0
  -23.4197  -28.8173   23.3030 O   0  0  0  0  0  0
  -28.3392  -26.4655   20.1299 O   0  0  0  0  0  0
  -26.5617  -34.8923   22.4667 O   0  0  0  0  0  0
  -23.5428  -32.1392   23.7335 O   0  0  0  0  0  0
  -30.2611  -18.1329   21.8361 C   0  0  0  0  0  0
  -29.9963  -19.5017   21.5309 C   0  0  0  0  0  0
  -29.3219  -17.4505   19.7409 C   0  0  0  0  0  0
  -29.9180  -17.0485   20.9688 C   0  0  0  0  0  0
  -29.3754  -19.8912   20.3165 C   0  0  0  0  0  0
  -29.0643  -18.8244   19.4254 C   0  0  0  0  0  0
  -28.9616  -22.4443   20.6297 C   0  0  0  0  0  0
  -28.8522  -15.8031   23.5816 C   0  0  0  0  0  0
  -28.8288  -23.8410   19.8817 C   0  0  0  0  0  0
  -30.1261  -15.3529   22.8324 C   0  0  0  0  0  0
  -28.1672  -25.0812   20.6477 C   0  0  0  0  0  0
  -29.1170  -21.2826   19.9111 N   0  0  0  0  0  0
  -30.0879  -15.6293   21.3769 N   0  0  0  0  0  0
  -28.9237  -22.4311   21.8617 O   0  0  0  0  0  0
  -28.4896  -19.1233   18.2349 F   0  0  0  0  0  0
  -31.4730  -12.5469   19.1491 H   0  0  0  0  0  0
  -30.3766  -11.4189   19.8857 H   0  0  0  0  0  0
  -29.7776  -11.7841   17.4747 H   0  0  0  0  0  0
  -29.6399  -13.5028   17.7502 H   0  0  0  0  0  0
  -27.8725  -11.2971   18.8603 H   0  0  0  0  0  0
  -27.3742  -12.5809   17.7900 H   0  0  0  0  0  0
  -27.6765  -14.2580   19.5313 H   0  0  0  0  0  0
  -28.7054  -12.0329   21.3514 H   0  0  0  0  0  0
  -28.3872  -13.6630   21.8376 H   0  0  0  0  0  0
  -25.2757   -9.5705   22.4748 H   0  0  0  0  0  0
  -24.0000   -7.4649   22.7479 H   0  0  0  0  0  0
  -21.0854   -8.8757   19.8923 H   0  0  0  0  0  0
  -22.3699  -10.9657   19.6118 H   0  0  0  0  0  0
  -21.2011   -7.6156   23.9701 H   0  0  0  0  0  0
  -21.1494   -6.0540   25.9074 H   0  0  0  0  0  0
  -22.0601   -2.7611   23.2849 H   0  0  0  0  0  0
  -22.4114  -11.9888   22.4795 H   0  0  0  0  0  0
  -21.1135  -13.1277   22.2680 H   0  0  0  0  0  0
  -24.6652  -15.8495   20.5348 H   0  0  0  0  0  0
  -26.2894  -15.6332   20.1214 H   0  0  0  0  0  0
  -26.7185  -32.5456   23.1092 H   0  0  0  0  0  0
  -25.0083  -33.9720   25.0427 H   0  0  0  0  0  0
  -22.7147  -31.3013   21.3991 H   0  0  0  0  0  0
  -23.3752  -35.9617   23.3307 H   0  0  0  0  0  0
  -24.3579  -36.8900   22.2050 H   0  0  0  0  0  0
  -23.7241  -37.6494   23.6651 H   0  0  0  0  0  0
  -26.0883  -31.5512   20.6004 H   0  0  0  0  0  0
  -26.8432  -30.8425   21.9981 H   0  0  0  0  0  0
  -28.1229  -28.9893   21.1754 H   0  0  0  0  0  0
  -26.0066  -25.9137   19.0179 H   0  0  0  0  0  0
  -23.9751  -27.2933   19.0193 H   0  0  0  0  0  0
  -23.7566  -30.5866   19.4023 H   0  0  0  0  0  0
  -22.7558  -29.2410   19.8596 H   0  0  0  0  0  0
  -25.1299  -36.1937   25.0824 H   0  0  0  0  0  0
  -20.9985  -28.3260   24.1405 H   0  0  0  0  0  0
  -20.5675  -26.2298   23.3610 H   0  0  0  0  0  0
  -21.6643  -26.7440   22.1206 H   0  0  0  0  0  0
  -19.6902  -25.6298   21.1244 H   0  0  0  0  0  0
  -19.6681  -27.3199   20.6745 H   0  0  0  0  0  0
  -17.4201  -26.6689   21.4034 H   0  0  0  0  0  0
  -18.0330  -26.0066   22.9021 H   0  0  0  0  0  0
  -19.7929  -30.7284   24.2267 H   0  0  0  0  0  0
  -17.5004  -31.6268   24.5166 H   0  0  0  0  0  0
  -15.5348  -30.2985   23.7644 H   0  0  0  0  0  0
  -15.8683  -28.0823   22.7058 H   0  0  0  0  0  0
  -24.5907  -30.7072   25.7753 H   0  0  0  0  0  0
  -24.8909  -32.2890   26.4844 H   0  0  0  0  0  0
  -25.8040  -30.8911   27.0213 H   0  0  0  0  0  0
  -26.2914  -29.6777   24.1153 H   0  0  0  0  0  0
  -27.4023  -29.7255   25.4649 H   0  0  0  0  0  0
  -27.8788  -30.4310   23.9384 H   0  0  0  0  0  0
  -27.2675  -33.3602   26.2081 H   0  0  0  0  0  0
  -28.3858  -32.6886   25.0302 H   0  0  0  0  0  0
  -28.0743  -31.8423   26.5378 H   0  0  0  0  0  0
  -28.2607  -38.0090   24.7507 H   0  0  0  0  0  0
  -28.1068  -36.2620   24.6306 H   0  0  0  0  0  0
  -27.2294  -37.1471   25.8870 H   0  0  0  0  0  0
  -20.9368  -29.8751   21.6886 H   0  0  0  0  0  0
  -26.0177  -38.2855   24.1401 H   0  0  0  0  0  0
  -30.7351  -17.9354   22.7863 H   0  0  0  0  0  0
  -30.2918  -20.2540   22.2476 H   0  0  0  0  0  0
  -29.0223  -16.6996   19.0252 H   0  0  0  0  0  0
  -28.8881  -15.4778   24.6214 H   0  0  0  0  0  0
  -27.9464  -15.3853   23.1434 H   0  0  0  0  0  0
  -28.7308  -16.8857   23.5967 H   0  0  0  0  0  0
  -28.2978  -23.6827   18.9436 H   0  0  0  0  0  0
  -29.8427  -24.1251   19.6018 H   0  0  0  0  0  0
  -30.2682  -14.2889   23.0366 H   0  0  0  0  0  0
  -31.0087  -15.8221   23.2688 H   0  0  0  0  0  0
  -28.5782  -25.1037   21.6575 H   0  0  0  0  0  0
  -27.1109  -24.8531   20.7939 H   0  0  0  0  0  0
  -29.0078  -21.3937   18.9113 H   0  0  0  0  0  0
  1 25  1  0  0  0
  1 30  2  0  0  0
  1 83  1  0  0  0
  2  3  1  0  0  0
  2 25  1  0  0  0
  2 86  1  0  0  0
  2 87  1  0  0  0
  3  4  1  0  0  0
  3 88  1  0  0  0
  3 89  1  0  0  0
  4  5  1  0  0  0
  4 90  1  0  0  0
  4 91  1  0  0  0
  5  6  1  0  0  0
  5 26  1  0  0  0
  5 92  1  0  0  0
  6 25  1  0  0  0
  6 93  1  0  0  0
  6 94  1  0  0  0
  7  8  2  0  0  0
  7 26  1  0  0  0
  7 29  1  0  0  0
  8  9  1  0  0  0
  8 22  1  0  0  0
  9 10  1  0  0  0
  9 27  2  0  0  0
 10 11  2  0  0  0
 10 15  1  0  0  0
 11 12  1  0  0  0
 11 95  1  0  0  0
 12 13  2  0  0  0
 12 96  1  0  0  0
 13 14  1  0  0  0
 13 31  1  0  0  0
 14 15  2  0  0  0
 14 97  1  0  0  0
 15 98  1  0  0  0
 16 17  2  0  0  0
 16 21  1  0  0  0
 16 31  1  0  0  0
 17 18  1  0  0  0
 17 99  1  0  0  0
 18 19  2  0  0  0
 18100  1  0  0  0
 19 20  1  0  0  0
 19 24  1  0  0  0
 20 21  2  0  0  0
 20101  1  0  0  0
 21 23  1  0  0  0
 22 28  1  0  0  0
 22 32  2  0  0  0
 26 27  1  0  0  0
 28102  1  0  0  0
 28103  1  0  0  0
 29104  1  0  0  0
 29105  1  0  0  0
 33 34  1  0  0  0
 33 66  1  0  0  0
 33 70  2  0  0  0
 34 36  1  0  0  0
 34 59  1  0  0  0
 34106  1  0  0  0
 35 44  2  0  0  0
 35 45  1  0  0  0
 35 68  1  0  0  0
 36 56  1  0  0  0
 36107  1  0  0  0
 37 39  1  0  0  0
 37 47  1  0  0  0
 37 66  1  0  0  0
 37108  1  0  0  0
 38 43  2  0  0  0
 38 46  1  0  0  0
 38 47  1  0  0  0
 39 64  1  0  0  0
 39 67  2  0  0  0
 40 52  1  0  0  0
 40 53  2  0  0  0
 40 58  1  0  0  0
 41109  1  0  0  0
 41110  1  0  0  0
 41111  1  0  0  0
 41 48  1  0  0  0
 42 43  1  0  0  0
 42 66  1  0  0  0
 42112  1  0  0  0
 42113  1  0  0  0
 43 44  1  0  0  0
 44114  1  0  0  0
 45 46  2  0  0  0
 45115  1  0  0  0
 46116  1  0  0  0
 47117  1  0  0  0
 47118  1  0  0  0
 48 56  1  0  0  0
 48 65  1  0  0  0
 48119  1  0  0  0
 49 50  1  0  0  0
 49 53  1  0  0  0
 49 64  1  0  0  0
 49120  1  0  0  0
 50 51  1  0  0  0
 50121  1  0  0  0
 50122  1  0  0  0
 51 52  1  0  0  0
 51123  1  0  0  0
 51124  1  0  0  0
 52125  1  0  0  0
 52126  1  0  0  0
 53 54  1  0  0  0
 54 55  2  0  0  0
 54127  1  0  0  0
 55 57  1  0  0  0
 55128  1  0  0  0
 56 69  2  0  0  0
 57 58  2  0  0  0
 57129  1  0  0  0
 58130  1  0  0  0
 59 60  1  0  0  0
 59 61  1  0  0  0
 59 62  1  0  0  0
 60131  1  0  0  0
 60132  1  0  0  0
 60133  1  0  0  0
 61134  1  0  0  0
 61135  1  0  0  0
 61136  1  0  0  0
 62137  1  0  0  0
 62138  1  0  0  0
 62139  1  0  0  0
 63 65  1  0  0  0
 63140  1  0  0  0
 63141  1  0  0  0
 63142  1  0  0  0
 64143  1  0  0  0
 65144  1  0  0  0
 68 81  1  0  0  0
 71 72  2  0  0  0
 71 74  1  0  0  0
 71145  1  0  0  0
 72 75  1  0  0  0
 72146  1  0  0  0
 73 74  2  0  0  0
 73 76  1  0  0  0
 73147  1  0  0  0
 74 83  1  0  0  0
 75 76  2  0  0  0
 75 82  1  0  0  0
 76 85  1  0  0  0
 77 79  1  0  0  0
 77 82  1  0  0  0
 77 84  2  0  0  0
 78 80  1  0  0  0
 78148  1  0  0  0
 78149  1  0  0  0
 78150  1  0  0  0
 79 81  1  0  0  0
 79151  1  0  0  0
 79152  1  0  0  0
 80 83  1  0  0  0
 80153  1  0  0  0
 80154  1  0  0  0
 81155  1  0  0  0
 81156  1  0  0  0
 82157  1  0  0  0
M  ISO  4   1 100  68 101  81 101  83 100
M  END
> <chiral flag>
0

> <version>
0

> <s_m_source_file>
/data/baiqing/PycharmProjects/Reinvent-master-3.2/result/LINK_invent/BTK/process_docking_weight1_custom_product_contain_oxygen_bond_distance_aromatic_linkinvent_7_9_3/rearranged_h_0101.sdf

> <i_m_source_file_index>
47

> <r_mmod_Potential_Energy-OPLS-2005>
200.479476928711

> <r_mmod_Stretch_Energy-OPLS-2005>
94.6767807006836

> <r_mmod_Bend_Energy-OPLS-2005>
145.796646118164

> <r_mmod_Torsional_Energy-OPLS-2005>
310.268890380859

> <r_mmod_Improper_Torsional_Energy-OPLS-2005>
3.28334140777588

> <r_mmod_Van_der_Waal_Energy-OPLS-2005>
145.902786254883

> <r_mmod_Electrostatic_Energy-OPLS-2005>
-338.6005859375

> <r_mmod_Solvation_Energy-OPLS-2005>
-207.015899658203

> <b_mmod_Minimization_Converged-OPLS-2005>
0

> <r_mmod_RMS_Derivative-OPLS-2005>
1.14169812202454

$$$$
47
                    3D
 Structure written by MMmdl.
160169  0  0  1  0            999 V2000
  -30.6455  -14.7258   20.5749 C   0  0  0  0  0  0
  -30.4345  -12.4679   19.4780 C   0  0  0  0  0  0
  -29.5161  -12.5375   18.2370 C   0  0  0  0  0  0
  -28.0406  -12.3432   18.6348 C   0  0  0  0  0  0
  -27.6436  -13.2217   19.8457 C   0  0  2  0  0  0
  -28.6744  -13.1189   20.9821 C   0  0  0  0  0  0
  -25.2529  -13.8148   20.5682 C   0  0  0  0  0  0
  -24.1803  -13.0415   20.9158 C   0  0  0  0  0  0
  -24.6382  -11.6893   20.8694 C   0  0  0  0  0  0
  -23.9060  -10.4282   21.0386 C   0  0  0  0  0  0
  -24.3616   -9.4209   21.9169 C   0  0  0  0  0  0
  -23.6295   -8.2250   22.0753 C   0  0  0  0  0  0
  -22.4271   -8.0287   21.3552 C   0  0  0  0  0  0
  -21.9899   -9.0252   20.4644 C   0  0  0  0  0  0
  -22.7233  -10.2123   20.3041 C   0  0  0  0  0  0
  -21.6858   -6.0741   22.5281 C   0  0  0  0  0  0
  -21.4018   -6.5638   23.8215 C   0  0  0  0  0  0
  -21.3662   -5.6785   24.9174 C   0  0  0  0  0  0
  -21.6043   -4.3048   24.7214 C   0  0  0  0  0  0
  -21.8823   -3.8151   23.4331 C   0  0  0  0  0  0
  -21.9199   -4.6972   22.3394 C   0  0  0  0  0  0
  -22.7840  -13.5226   21.1850 C   0  0  0  0  0  0
  -22.1668   -4.2167   21.0972 F   0  0  0  0  0  0
  -21.5623   -3.4524   25.7721 F   0  0  0  0  0  0
  -29.9940  -13.5064   20.4462 N   0  0  0  0  0  0
  -26.2930  -12.9342   20.3191 N   0  0  0  0  0  0
  -25.9298  -11.6489   20.5642 N   0  0  0  0  0  0
  -22.0489  -12.8217   22.0408 N   0  0  0  0  0  0
  -25.4236  -15.1873   20.4264 N   0  0  0  0  0  0
  -31.7460  -14.8795   20.0361 O   0  0  0  0  0  0
  -21.6637   -6.8882   21.4246 O   0  0  0  0  0  0
  -22.3533  -14.5551   20.6724 O   0  0  0  0  0  0
  -24.6308  -31.8545   23.1997 C   0  0  0  0  0  0
  -25.9137  -32.4742   23.8340 C   0  0  1  0  0  0
  -27.2286  -27.2865   20.1262 C   0  0  0  0  0  0
  -25.5942  -33.8544   24.2268 N   0  0  0  0  0  0
  -23.4273  -30.4761   21.5416 C   0  0  2  0  0  0
  -24.8796  -28.9233   20.1135 C   0  0  0  0  0  0
  -22.7502  -29.4595   22.4916 C   0  0  0  0  0  0
  -18.0293  -28.1383   22.8478 C   0  0  0  0  0  0
  -24.1482  -36.7265   23.2637 C   0  0  0  0  0  0
  -25.9715  -30.7750   21.3774 C   0  0  0  0  0  0
  -26.0493  -29.3977   20.7234 C   0  0  0  0  0  0
  -27.2307  -28.5889   20.7242 C   0  0  0  0  0  0
  -26.0409  -26.8699   19.4960 C   0  0  0  0  0  0
  -24.8779  -27.6644   19.4914 C   0  0  0  0  0  0
  -23.6471  -29.8056   20.1595 C   0  0  0  0  0  0
  -25.4103  -36.3047   24.0325 C   0  0  1  0  0  0
  -20.5897  -28.3689   23.1260 C   0  0  2  0  0  0
  -20.6769  -26.9403   22.5404 C   0  0  0  0  0  0
  -19.5751  -26.6379   21.5195 C   0  0  0  0  0  0
  -18.1932  -26.7926   22.1612 C   0  0  0  0  0  0
  -19.1546  -28.8855   23.2866 C   0  0  0  0  0  0
  -18.9465  -30.1456   23.8879 C   0  0  0  0  0  0
  -17.6465  -30.6578   24.0559 C   0  0  0  0  0  0
  -25.9050  -34.9425   23.5094 C   0  0  0  0  0  0
  -16.5356  -29.9074   23.6334 C   0  0  0  0  0  0
  -16.7281  -28.6495   23.0350 C   0  0  0  0  0  0
  -26.4515  -31.6562   25.0725 C   0  0  0  0  0  0
  -25.3751  -31.3718   26.1460 C   0  0  0  0  0  0
  -27.0352  -30.2973   24.6200 C   0  0  0  0  0  0
  -27.6063  -32.4309   25.7503 C   0  0  0  0  0  0
  -27.5569  -37.1775   24.8455 C   0  0  0  0  0  0
  -21.4210  -29.3028   22.3651 N   0  0  0  0  0  0
  -26.4267  -37.3754   23.9420 N   0  0  0  0  0  0
  -24.6950  -31.0527   22.0959 N   0  0  0  0  0  0
  -23.4197  -28.8135   23.3019 O   0  0  0  0  0  0
  -28.2886  -26.3614   20.1292 O   0  0  0  0  0  0
  -26.5615  -34.8901   22.4658 O   0  0  0  0  0  0
  -23.5460  -32.1362   23.7297 O   0  0  0  0  0  0
  -30.5137  -19.5638   21.8300 C   0  0  0  0  0  0
  -30.7205  -18.1539   21.8453 C   0  0  0  0  0  0
  -29.0281  -19.3460   19.9892 C   0  0  0  0  0  0
  -29.2224  -17.9077   20.0040 C   0  0  0  0  0  0
  -29.6185  -20.2289   20.9452 C   0  0  0  0  0  0
  -30.0405  -17.2442   20.9847 C   0  0  0  0  0  0
  -28.5070  -24.0070   21.2202 C   0  0  0  0  0  0
  -28.2632  -25.3764   21.1365 C   0  0  0  0  0  0
  -28.4274  -23.3561   22.5832 C   0  0  0  0  0  0
  -28.9009  -22.8075   20.2748 C   0  0  0  0  0  0
  -29.3195  -22.1116   22.5300 C   0  0  0  0  0  0
  -28.4684  -17.0836   18.9779 C   0  0  0  0  0  0
  -29.8591  -15.4786   22.7241 C   0  0  0  0  0  0
  -29.3331  -21.6479   21.1448 N   0  0  0  0  0  0
  -30.0527  -15.7719   21.2885 N   0  0  0  0  0  0
  -31.4765  -12.5953   19.1798 H   0  0  0  0  0  0
  -30.3828  -11.4792   19.9367 H   0  0  0  0  0  0
  -29.8080  -11.7827   17.5061 H   0  0  0  0  0  0
  -29.6378  -13.5055   17.7487 H   0  0  0  0  0  0
  -27.8952  -11.2899   18.8768 H   0  0  0  0  0  0
  -27.3906  -12.5552   17.7850 H   0  0  0  0  0  0
  -27.6524  -14.2508   19.4906 H   0  0  0  0  0  0
  -28.7104  -12.1055   21.3848 H   0  0  0  0  0  0
  -28.3269  -13.7432   21.7990 H   0  0  0  0  0  0
  -25.2766   -9.5690   22.4732 H   0  0  0  0  0  0
  -24.0013   -7.4640   22.7467 H   0  0  0  0  0  0
  -21.0836   -8.8770   19.8950 H   0  0  0  0  0  0
  -22.3701  -10.9659   19.6140 H   0  0  0  0  0  0
  -21.2011   -7.6143   23.9720 H   0  0  0  0  0  0
  -21.1479   -6.0509   25.9073 H   0  0  0  0  0  0
  -22.0600   -2.7620   23.2815 H   0  0  0  0  0  0
  -22.4105  -11.9862   22.4763 H   0  0  0  0  0  0
  -21.1127  -13.1278   22.2647 H   0  0  0  0  0  0
  -24.6626  -15.8429   20.5670 H   0  0  0  0  0  0
  -26.3006  -15.6385   20.2040 H   0  0  0  0  0  0
  -26.7205  -32.5403   23.1085 H   0  0  0  0  0  0
  -25.0104  -33.9680   25.0427 H   0  0  0  0  0  0
  -22.7230  -31.2977   21.3931 H   0  0  0  0  0  0
  -23.3745  -35.9592   23.3276 H   0  0  0  0  0  0
  -24.3583  -36.8910   22.2056 H   0  0  0  0  0  0
  -23.7235  -37.6456   23.6684 H   0  0  0  0  0  0
  -26.1077  -31.5346   20.6069 H   0  0  0  0  0  0
  -26.8497  -30.8262   22.0086 H   0  0  0  0  0  0
  -28.1275  -28.9435   21.2125 H   0  0  0  0  0  0
  -26.0106  -25.8953   19.0289 H   0  0  0  0  0  0
  -23.9814  -27.2902   19.0166 H   0  0  0  0  0  0
  -23.7684  -30.5776   19.3991 H   0  0  0  0  0  0
  -22.7672  -29.2337   19.8588 H   0  0  0  0  0  0
  -25.1282  -36.1872   25.0813 H   0  0  0  0  0  0
  -21.0000  -28.3267   24.1376 H   0  0  0  0  0  0
  -20.5643  -26.2298   23.3610 H   0  0  0  0  0  0
  -21.6642  -26.7407   22.1218 H   0  0  0  0  0  0
  -19.6910  -25.6289   21.1222 H   0  0  0  0  0  0
  -19.6688  -27.3181   20.6715 H   0  0  0  0  0  0
  -17.4205  -26.6683   21.4012 H   0  0  0  0  0  0
  -18.0330  -26.0063   22.9006 H   0  0  0  0  0  0
  -19.7944  -30.7275   24.2239 H   0  0  0  0  0  0
  -17.5018  -31.6249   24.5174 H   0  0  0  0  0  0
  -15.5353  -30.2962   23.7667 H   0  0  0  0  0  0
  -15.8687  -28.0798   22.7078 H   0  0  0  0  0  0
  -24.5900  -30.7089   25.7808 H   0  0  0  0  0  0
  -24.8975  -32.2890   26.4910 H   0  0  0  0  0  0
  -25.8085  -30.8881   27.0223 H   0  0  0  0  0  0
  -26.2924  -29.6717   24.1232 H   0  0  0  0  0  0
  -27.4039  -29.7238   25.4716 H   0  0  0  0  0  0
  -27.8805  -30.4238   23.9432 H   0  0  0  0  0  0
  -27.2662  -33.3615   26.2061 H   0  0  0  0  0  0
  -28.3890  -32.6857   25.0347 H   0  0  0  0  0  0
  -28.0711  -31.8443   26.5440 H   0  0  0  0  0  0
  -28.2555  -38.0100   24.7528 H   0  0  0  0  0  0
  -28.1091  -36.2630   24.6233 H   0  0  0  0  0  0
  -27.2302  -37.1379   25.8861 H   0  0  0  0  0  0
  -20.9406  -29.8742   21.6843 H   0  0  0  0  0  0
  -26.0129  -38.2810   24.1456 H   0  0  0  0  0  0
  -31.0513  -20.1374   22.5699 H   0  0  0  0  0  0
  -31.4020  -17.7795   22.5945 H   0  0  0  0  0  0
  -28.3477  -19.7712   19.2645 H   0  0  0  0  0  0
  -28.0064  -25.8731   22.0636 H   0  0  0  0  0  0
  -27.3920  -23.0583   22.7535 H   0  0  0  0  0  0
  -28.7144  -24.0290   23.3917 H   0  0  0  0  0  0
  -29.6957  -23.1063   19.5902 H   0  0  0  0  0  0
  -28.0353  -22.5171   19.6773 H   0  0  0  0  0  0
  -28.9578  -21.3512   23.2244 H   0  0  0  0  0  0
  -30.3367  -22.3734   22.8247 H   0  0  0  0  0  0
  -28.2118  -17.6837   18.1047 H   0  0  0  0  0  0
  -27.5433  -16.7053   19.4069 H   0  0  0  0  0  0
  -29.0643  -16.2411   18.6283 H   0  0  0  0  0  0
  -30.5461  -16.0242   23.3672 H   0  0  0  0  0  0
  -30.0145  -14.4328   22.9947 H   0  0  0  0  0  0
  -28.8455  -15.7502   23.0208 H   0  0  0  0  0  0
  1 25  1  0  0  0
  1 30  2  0  0  0
  1 85  1  0  0  0
  2  3  1  0  0  0
  2 25  1  0  0  0
  2 86  1  0  0  0
  2 87  1  0  0  0
  3  4  1  0  0  0
  3 88  1  0  0  0
  3 89  1  0  0  0
  4  5  1  0  0  0
  4 90  1  0  0  0
  4 91  1  0  0  0
  5  6  1  0  0  0
  5 26  1  0  0  0
  5 92  1  0  0  0
  6 25  1  0  0  0
  6 93  1  0  0  0
  6 94  1  0  0  0
  7  8  2  0  0  0
  7 26  1  0  0  0
  7 29  1  0  0  0
  8  9  1  0  0  0
  8 22  1  0  0  0
  9 10  1  0  0  0
  9 27  2  0  0  0
 10 11  2  0  0  0
 10 15  1  0  0  0
 11 12  1  0  0  0
 11 95  1  0  0  0
 12 13  2  0  0  0
 12 96  1  0  0  0
 13 14  1  0  0  0
 13 31  1  0  0  0
 14 15  2  0  0  0
 14 97  1  0  0  0
 15 98  1  0  0  0
 16 17  2  0  0  0
 16 21  1  0  0  0
 16 31  1  0  0  0
 17 18  1  0  0  0
 17 99  1  0  0  0
 18 19  2  0  0  0
 18100  1  0  0  0
 19 20  1  0  0  0
 19 24  1  0  0  0
 20 21  2  0  0  0
 20101  1  0  0  0
 21 23  1  0  0  0
 22 28  1  0  0  0
 22 32  2  0  0  0
 26 27  1  0  0  0
 28102  1  0  0  0
 28103  1  0  0  0
 29104  1  0  0  0
 29105  1  0  0  0
 33 34  1  0  0  0
 33 66  1  0  0  0
 33 70  2  0  0  0
 34 36  1  0  0  0
 34 59  1  0  0  0
 34106  1  0  0  0
 35 44  2  0  0  0
 35 45  1  0  0  0
 35 68  1  0  0  0
 36 56  1  0  0  0
 36107  1  0  0  0
 37 39  1  0  0  0
 37 47  1  0  0  0
 37 66  1  0  0  0
 37108  1  0  0  0
 38 43  2  0  0  0
 38 46  1  0  0  0
 38 47  1  0  0  0
 39 64  1  0  0  0
 39 67  2  0  0  0
 40 52  1  0  0  0
 40 53  2  0  0  0
 40 58  1  0  0  0
 41109  1  0  0  0
 41110  1  0  0  0
 41111  1  0  0  0
 41 48  1  0  0  0
 42 43  1  0  0  0
 42 66  1  0  0  0
 42112  1  0  0  0
 42113  1  0  0  0
 43 44  1  0  0  0
 44114  1  0  0  0
 45 46  2  0  0  0
 45115  1  0  0  0
 46116  1  0  0  0
 47117  1  0  0  0
 47118  1  0  0  0
 48 56  1  0  0  0
 48 65  1  0  0  0
 48119  1  0  0  0
 49 50  1  0  0  0
 49 53  1  0  0  0
 49 64  1  0  0  0
 49120  1  0  0  0
 50 51  1  0  0  0
 50121  1  0  0  0
 50122  1  0  0  0
 51 52  1  0  0  0
 51123  1  0  0  0
 51124  1  0  0  0
 52125  1  0  0  0
 52126  1  0  0  0
 53 54  1  0  0  0
 54 55  2  0  0  0
 54127  1  0  0  0
 55 57  1  0  0  0
 55128  1  0  0  0
 56 69  2  0  0  0
 57 58  2  0  0  0
 57129  1  0  0  0
 58130  1  0  0  0
 59 60  1  0  0  0
 59 61  1  0  0  0
 59 62  1  0  0  0
 60131  1  0  0  0
 60132  1  0  0  0
 60133  1  0  0  0
 61134  1  0  0  0
 61135  1  0  0  0
 61136  1  0  0  0
 62137  1  0  0  0
 62138  1  0  0  0
 62139  1  0  0  0
 63 65  1  0  0  0
 63140  1  0  0  0
 63141  1  0  0  0
 63142  1  0  0  0
 64143  1  0  0  0
 65144  1  0  0  0
 68 78  1  0  0  0
 71 72  2  0  0  0
 71 75  1  0  0  0
 71145  1  0  0  0
 72 76  1  0  0  0
 72146  1  0  0  0
 73 74  1  0  0  0
 73 75  2  0  0  0
 73147  1  0  0  0
 74 76  2  0  0  0
 74 82  1  0  0  0
 75 84  1  0  0  0
 76 85  1  0  0  0
 77 78  2  0  0  0
 77 79  1  0  0  0
 77 80  1  0  0  0
 78148  1  0  0  0
 79 81  1  0  0  0
 79149  1  0  0  0
 79150  1  0  0  0
 80 84  1  0  0  0
 80151  1  0  0  0
 80152  1  0  0  0
 81 84  1  0  0  0
 81153  1  0  0  0
 81154  1  0  0  0
 82155  1  0  0  0
 82156  1  0  0  0
 82157  1  0  0  0
 83 85  1  0  0  0
 83158  1  0  0  0
 83159  1  0  0  0
 83160  1  0  0  0
M  ISO  4   1 100  68 101  78 101  85 100
M  END
> <chiral flag>
0

> <version>
0

> <s_m_source_file>
/data/baiqing/PycharmProjects/Reinvent-master-3.2/result/LINK_invent/BTK/process_docking_weight1_custom_product_contain_oxygen_bond_distance_aromatic_linkinvent_7_9_3/rearranged_h_0101.sdf

> <i_m_source_file_index>
48

> <r_mmod_Potential_Energy-OPLS-2005>
420.292602539062

> <r_mmod_Stretch_Energy-OPLS-2005>
114.18424987793

> <r_mmod_Bend_Energy-OPLS-2005>
266.403076171875

> <r_mmod_Torsional_Energy-OPLS-2005>
332.919586181641

> <r_mmod_Improper_Torsional_Energy-OPLS-2005>
4.72402286529541

> <r_mmod_Van_der_Waal_Energy-OPLS-2005>
143.281967163086

> <r_mmod_Electrostatic_Energy-OPLS-2005>
-307.702209472656

> <r_mmod_Solvation_Energy-OPLS-2005>
-208.469329833984

> <b_mmod_Minimization_Converged-OPLS-2005>
0

> <r_mmod_RMS_Derivative-OPLS-2005>
1.69619047641754

$$$$
48
                    3D
 Structure written by MMmdl.
169177  0  0  1  0            999 V2000
  -30.7218  -14.4586   20.4988 C   0  0  0  0  0  0
  -30.4060  -12.2814   19.4250 C   0  0  0  0  0  0
  -29.4917  -12.4969   18.2023 C   0  0  0  0  0  0
  -28.0106  -12.3730   18.6114 C   0  0  0  0  0  0
  -27.6565  -13.2156   19.8681 C   0  0  2  0  0  0
  -28.7039  -13.0286   20.9911 C   0  0  0  0  0  0
  -25.2561  -13.8170   20.5683 C   0  0  0  0  0  0
  -24.1828  -13.0433   20.9194 C   0  0  0  0  0  0
  -24.6404  -11.6909   20.8739 C   0  0  0  0  0  0
  -23.9068  -10.4291   21.0398 C   0  0  0  0  0  0
  -24.3614   -9.4205   21.9180 C   0  0  0  0  0  0
  -23.6285   -8.2240   22.0754 C   0  0  0  0  0  0
  -22.4270   -8.0281   21.3545 C   0  0  0  0  0  0
  -21.9906   -9.0252   20.4649 C   0  0  0  0  0  0
  -22.7235  -10.2130   20.3053 C   0  0  0  0  0  0
  -21.6854   -6.0731   22.5273 C   0  0  0  0  0  0
  -21.4020   -6.5636   23.8207 C   0  0  0  0  0  0
  -21.3657   -5.6791   24.9172 C   0  0  0  0  0  0
  -21.6048   -4.3054   24.7226 C   0  0  0  0  0  0
  -21.8816   -3.8140   23.4346 C   0  0  0  0  0  0
  -21.9194   -4.6957   22.3401 C   0  0  0  0  0  0
  -22.7853  -13.5223   21.1843 C   0  0  0  0  0  0
  -22.1661   -4.2142   21.0976 F   0  0  0  0  0  0
  -21.5627   -3.4537   25.7738 F   0  0  0  0  0  0
  -30.0313  -13.2928   20.4218 N   0  0  0  0  0  0
  -26.3010  -12.9357   20.3360 N   0  0  0  0  0  0
  -25.9339  -11.6514   20.5771 N   0  0  0  0  0  0
  -22.0494  -12.8223   22.0405 N   0  0  0  0  0  0
  -25.4224  -15.1885   20.4060 N   0  0  0  0  0  0
  -31.9031  -14.5552   20.1655 O   0  0  0  0  0  0
  -21.6639   -6.8874   21.4238 O   0  0  0  0  0  0
  -22.3545  -14.5524   20.6688 O   0  0  0  0  0  0
  -24.6155  -31.8693   23.2091 C   0  0  0  0  0  0
  -25.9058  -32.4822   23.8377 C   0  0  1  0  0  0
  -27.2314  -27.4354   20.0962 C   0  0  0  0  0  0
  -25.5927  -33.8618   24.2323 N   0  0  0  0  0  0
  -23.4015  -30.4937   21.5504 C   0  0  2  0  0  0
  -24.8437  -28.9561   20.1134 C   0  0  0  0  0  0
  -22.7405  -29.4677   22.4986 C   0  0  0  0  0  0
  -18.0295  -28.1376   22.8480 C   0  0  0  0  0  0
  -24.1506  -36.7291   23.2628 C   0  0  0  0  0  0
  -25.9285  -30.8325   21.3594 C   0  0  0  0  0  0
  -26.0030  -29.4668   20.7094 C   0  0  0  0  0  0
  -27.1978  -28.7141   20.6959 C   0  0  0  0  0  0
  -26.0512  -26.9367   19.4949 C   0  0  0  0  0  0
  -24.8606  -27.6873   19.5091 C   0  0  0  0  0  0
  -23.6083  -29.8268   20.1643 C   0  0  0  0  0  0
  -25.4114  -36.3101   24.0345 C   0  0  1  0  0  0
  -20.5882  -28.3665   23.1308 C   0  0  2  0  0  0
  -20.6814  -26.9411   22.5410 C   0  0  0  0  0  0
  -19.5793  -26.6395   21.5207 C   0  0  0  0  0  0
  -18.1954  -26.7928   22.1602 C   0  0  0  0  0  0
  -19.1540  -28.8838   23.2893 C   0  0  0  0  0  0
  -18.9480  -30.1444   23.8901 C   0  0  0  0  0  0
  -17.6479  -30.6588   24.0564 C   0  0  0  0  0  0
  -25.9052  -34.9470   23.5121 C   0  0  0  0  0  0
  -16.5370  -29.9087   23.6325 C   0  0  0  0  0  0
  -16.7286  -28.6513   23.0324 C   0  0  0  0  0  0
  -26.4464  -31.6577   25.0700 C   0  0  0  0  0  0
  -25.3709  -31.3699   26.1437 C   0  0  0  0  0  0
  -27.0296  -30.3036   24.6032 C   0  0  0  0  0  0
  -27.6053  -32.4261   25.7465 C   0  0  0  0  0  0
  -27.5602  -37.1776   24.8451 C   0  0  0  0  0  0
  -21.4141  -29.3034   22.3708 N   0  0  0  0  0  0
  -26.4286  -37.3797   23.9445 N   0  0  0  0  0  0
  -24.6671  -31.0799   22.0982 N   0  0  0  0  0  0
  -23.4176  -28.8242   23.3042 O   0  0  0  0  0  0
  -28.4139  -26.7231   20.1131 O   0  0  0  0  0  0
  -26.5599  -34.8923   22.4677 O   0  0  0  0  0  0
  -23.5344  -32.1437   23.7490 O   0  0  0  0  0  0
  -27.5134  -19.2157   21.2334 C   0  0  0  0  0  0
  -28.2459  -18.1022   20.7762 C   0  0  0  0  0  0
  -28.1700  -20.2876   21.8673 C   0  0  0  0  0  0
  -30.2923  -19.1181   21.6264 C   0  0  0  0  0  0
  -29.6428  -18.0451   20.9739 C   0  0  0  0  0  0
  -29.5731  -20.2627   22.0281 C   0  0  0  0  0  0
  -30.2750  -22.6409   22.3157 C   0  0  0  0  0  0
  -31.1511  -18.6700   16.8642 C   0  0  0  0  0  0
  -32.6939  -18.6224   18.8546 C   0  0  0  0  0  0
  -29.2580  -23.2037   21.3056 C   0  0  0  0  0  0
  -29.4591  -24.7045   20.9736 C   0  0  0  0  0  0
  -30.6026  -17.1358   18.8288 C   0  0  0  0  0  0
  -28.3313  -25.2925   20.1081 C   0  0  0  0  0  0
  -30.4760  -16.9204   20.3664 C   0  0  2  0  0  0
  -31.2351  -18.4820   18.3881 C   0  0  0  0  0  0
  -30.3012  -21.3291   22.6173 N   0  0  0  0  0  0
  -29.9808  -15.5688   20.6783 N   0  0  0  0  0  0
  -31.0994  -23.3981   22.8305 O   0  0  0  0  0  0
  -31.4567  -12.3394   19.1346 H   0  0  0  0  0  0
  -30.2653  -11.2805   19.8354 H   0  0  0  0  0  0
  -29.7242  -11.7725   17.4212 H   0  0  0  0  0  0
  -29.6749  -13.4820   17.7694 H   0  0  0  0  0  0
  -27.8056  -11.3186   18.7993 H   0  0  0  0  0  0
  -27.3665  -12.6613   17.7798 H   0  0  0  0  0  0
  -27.6877  -14.2587   19.5547 H   0  0  0  0  0  0
  -28.6743  -12.0097   21.3801 H   0  0  0  0  0  0
  -28.4931  -13.6806   21.8407 H   0  0  0  0  0  0
  -25.2759   -9.5681   22.4763 H   0  0  0  0  0  0
  -23.9994   -7.4635   22.7478 H   0  0  0  0  0  0
  -21.0837   -8.8768   19.8960 H   0  0  0  0  0  0
  -22.3686  -10.9670   19.6167 H   0  0  0  0  0  0
  -21.2014   -7.6147   23.9707 H   0  0  0  0  0  0
  -21.1487   -6.0524   25.9072 H   0  0  0  0  0  0
  -22.0598   -2.7606   23.2845 H   0  0  0  0  0  0
  -22.4099  -11.9887   22.4804 H   0  0  0  0  0  0
  -21.1113  -13.1261   22.2590 H   0  0  0  0  0  0
  -24.6466  -15.8342   20.5028 H   0  0  0  0  0  0
  -26.2581  -15.6273   20.0443 H   0  0  0  0  0  0
  -26.7124  -32.5528   23.1126 H   0  0  0  0  0  0
  -25.0136  -33.9762   25.0510 H   0  0  0  0  0  0
  -22.6905  -31.3115   21.4140 H   0  0  0  0  0  0
  -23.3783  -35.9611   23.3270 H   0  0  0  0  0  0
  -24.3627  -36.8913   22.2052 H   0  0  0  0  0  0
  -23.7236  -37.6484   23.6637 H   0  0  0  0  0  0
  -26.0367  -31.5931   20.5853 H   0  0  0  0  0  0
  -26.8182  -30.8886   21.9739 H   0  0  0  0  0  0
  -28.0946  -29.1027   21.1568 H   0  0  0  0  0  0
  -26.0345  -25.9719   19.0081 H   0  0  0  0  0  0
  -23.9670  -27.2874   19.0494 H   0  0  0  0  0  0
  -23.7194  -30.6025   19.4065 H   0  0  0  0  0  0
  -22.7303  -29.2518   19.8675 H   0  0  0  0  0  0
  -25.1274  -36.1948   25.0836 H   0  0  0  0  0  0
  -20.9979  -28.3267   24.1426 H   0  0  0  0  0  0
  -20.5782  -26.2266   23.3595 H   0  0  0  0  0  0
  -21.6678  -26.7503   22.1168 H   0  0  0  0  0  0
  -19.6970  -25.6318   21.1209 H   0  0  0  0  0  0
  -19.6746  -27.3230   20.6759 H   0  0  0  0  0  0
  -17.4243  -26.6675   21.3994 H   0  0  0  0  0  0
  -18.0354  -26.0062   22.8986 H   0  0  0  0  0  0
  -19.7972  -30.7257   24.2247 H   0  0  0  0  0  0
  -17.5057  -31.6268   24.5176 H   0  0  0  0  0  0
  -15.5376  -30.2990   23.7678 H   0  0  0  0  0  0
  -15.8682  -28.0869   22.6981 H   0  0  0  0  0  0
  -24.5933  -30.6966   25.7791 H   0  0  0  0  0  0
  -24.8820  -32.2865   26.4768 H   0  0  0  0  0  0
  -25.8051  -30.8982   27.0259 H   0  0  0  0  0  0
  -26.2845  -29.6820   24.1054 H   0  0  0  0  0  0
  -27.4083  -29.7236   25.4449 H   0  0  0  0  0  0
  -27.8656  -30.4404   23.9171 H   0  0  0  0  0  0
  -27.2716  -33.3590   26.2009 H   0  0  0  0  0  0
  -28.3889  -32.6742   25.0300 H   0  0  0  0  0  0
  -28.0656  -31.8372   26.5400 H   0  0  0  0  0  0
  -28.2518  -38.0171   24.7647 H   0  0  0  0  0  0
  -28.1198  -36.2713   24.6082 H   0  0  0  0  0  0
  -27.2348  -37.1178   25.8851 H   0  0  0  0  0  0
  -20.9296  -29.8722   21.6905 H   0  0  0  0  0  0
  -26.0167  -38.2849   24.1544 H   0  0  0  0  0  0
  -26.4444  -19.2647   21.0802 H   0  0  0  0  0  0
  -27.7361  -17.3124   20.2416 H   0  0  0  0  0  0
  -27.5808  -21.1211   22.2174 H   0  0  0  0  0  0
  -31.3636  -19.0960   21.7640 H   0  0  0  0  0  0
  -31.5931  -19.6190   16.5580 H   0  0  0  0  0  0
  -30.1177  -18.6733   16.5184 H   0  0  0  0  0  0
  -31.6790  -17.8779   16.3327 H   0  0  0  0  0  0
  -33.1407  -19.5438   18.4802 H   0  0  0  0  0  0
  -33.3086  -17.7924   18.5058 H   0  0  0  0  0  0
  -32.7716  -18.6565   19.9400 H   0  0  0  0  0  0
  -29.2803  -22.5995   20.3965 H   0  0  0  0  0  0
  -28.2697  -23.0928   21.7476 H   0  0  0  0  0  0
  -30.4196  -24.8581   20.4782 H   0  0  0  0  0  0
  -29.5000  -25.2724   21.9044 H   0  0  0  0  0  0
  -29.6056  -17.0573   18.3920 H   0  0  0  0  0  0
  -31.1774  -16.3269   18.3775 H   0  0  0  0  0  0
  -27.3811  -24.9460   20.5185 H   0  0  0  0  0  0
  -28.4049  -24.9212   19.0851 H   0  0  0  0  0  0
  -31.4708  -16.9883   20.8095 H   0  0  0  0  0  0
  -30.6667  -19.3017   18.8279 H   0  0  0  0  0  0
  -31.0695  -21.0544   23.2133 H   0  0  0  0  0  0
  -29.0101  -15.4595   20.9207 H   0  0  0  0  0  0
  1 25  1  0  0  0
  1 30  2  0  0  0
  1 87  1  0  0  0
  2  3  1  0  0  0
  2 25  1  0  0  0
  2 89  1  0  0  0
  2 90  1  0  0  0
  3  4  1  0  0  0
  3 91  1  0  0  0
  3 92  1  0  0  0
  4  5  1  0  0  0
  4 93  1  0  0  0
  4 94  1  0  0  0
  5  6  1  0  0  0
  5 26  1  0  0  0
  5 95  1  0  0  0
  6 25  1  0  0  0
  6 96  1  0  0  0
  6 97  1  0  0  0
  7  8  2  0  0  0
  7 26  1  0  0  0
  7 29  1  0  0  0
  8  9  1  0  0  0
  8 22  1  0  0  0
  9 10  1  0  0  0
  9 27  2  0  0  0
 10 11  2  0  0  0
 10 15  1  0  0  0
 11 12  1  0  0  0
 11 98  1  0  0  0
 12 13  2  0  0  0
 12 99  1  0  0  0
 13 14  1  0  0  0
 13 31  1  0  0  0
 14 15  2  0  0  0
 14100  1  0  0  0
 15101  1  0  0  0
 16 17  2  0  0  0
 16 21  1  0  0  0
 16 31  1  0  0  0
 17 18  1  0  0  0
 17102  1  0  0  0
 18 19  2  0  0  0
 18103  1  0  0  0
 19 20  1  0  0  0
 19 24  1  0  0  0
 20 21  2  0  0  0
 20104  1  0  0  0
 21 23  1  0  0  0
 22 28  1  0  0  0
 22 32  2  0  0  0
 26 27  1  0  0  0
 28105  1  0  0  0
 28106  1  0  0  0
 29107  1  0  0  0
 29108  1  0  0  0
 33 34  1  0  0  0
 33 66  1  0  0  0
 33 70  2  0  0  0
 34 36  1  0  0  0
 34 59  1  0  0  0
 34109  1  0  0  0
 35 44  2  0  0  0
 35 45  1  0  0  0
 35 68  1  0  0  0
 36 56  1  0  0  0
 36110  1  0  0  0
 37 39  1  0  0  0
 37 47  1  0  0  0
 37 66  1  0  0  0
 37111  1  0  0  0
 38 43  2  0  0  0
 38 46  1  0  0  0
 38 47  1  0  0  0
 39 64  1  0  0  0
 39 67  2  0  0  0
 40 52  1  0  0  0
 40 53  2  0  0  0
 40 58  1  0  0  0
 41112  1  0  0  0
 41113  1  0  0  0
 41114  1  0  0  0
 41 48  1  0  0  0
 42 43  1  0  0  0
 42 66  1  0  0  0
 42115  1  0  0  0
 42116  1  0  0  0
 43 44  1  0  0  0
 44117  1  0  0  0
 45 46  2  0  0  0
 45118  1  0  0  0
 46119  1  0  0  0
 47120  1  0  0  0
 47121  1  0  0  0
 48 56  1  0  0  0
 48 65  1  0  0  0
 48122  1  0  0  0
 49 50  1  0  0  0
 49 53  1  0  0  0
 49 64  1  0  0  0
 49123  1  0  0  0
 50 51  1  0  0  0
 50124  1  0  0  0
 50125  1  0  0  0
 51 52  1  0  0  0
 51126  1  0  0  0
 51127  1  0  0  0
 52128  1  0  0  0
 52129  1  0  0  0
 53 54  1  0  0  0
 54 55  2  0  0  0
 54130  1  0  0  0
 55 57  1  0  0  0
 55131  1  0  0  0
 56 69  2  0  0  0
 57 58  2  0  0  0
 57132  1  0  0  0
 58133  1  0  0  0
 59 60  1  0  0  0
 59 61  1  0  0  0
 59 62  1  0  0  0
 60134  1  0  0  0
 60135  1  0  0  0
 60136  1  0  0  0
 61137  1  0  0  0
 61138  1  0  0  0
 61139  1  0  0  0
 62140  1  0  0  0
 62141  1  0  0  0
 62142  1  0  0  0
 63 65  1  0  0  0
 63143  1  0  0  0
 63144  1  0  0  0
 63145  1  0  0  0
 64146  1  0  0  0
 65147  1  0  0  0
 68 83  1  0  0  0
 71 72  2  0  0  0
 71 73  1  0  0  0
 71148  1  0  0  0
 72 75  1  0  0  0
 72149  1  0  0  0
 73 76  2  0  0  0
 73150  1  0  0  0
 74 75  2  0  0  0
 74 76  1  0  0  0
 74151  1  0  0  0
 75 84  1  0  0  0
 76 86  1  0  0  0
 77 80  1  0  0  0
 77 86  1  0  0  0
 77 88  2  0  0  0
 78152  1  0  0  0
 78153  1  0  0  0
 78154  1  0  0  0
 78 85  1  0  0  0
 79 85  1  0  0  0
 79155  1  0  0  0
 79156  1  0  0  0
 79157  1  0  0  0
 80 81  1  0  0  0
 80158  1  0  0  0
 80159  1  0  0  0
 81 83  1  0  0  0
 81160  1  0  0  0
 81161  1  0  0  0
 82 85  1  0  0  0
 82162  1  0  0  0
 82163  1  0  0  0
 82 84  1  0  0  0
 83164  1  0  0  0
 83165  1  0  0  0
 84 87  1  0  0  0
 84166  1  0  0  0
 85167  1  0  0  0
 86168  1  0  0  0
 87169  1  0  0  0
M  ISO  4   1 100  68 101  83 101  87 100
M  END
> <chiral flag>
0

> <version>
0

> <s_m_source_file>
/data/baiqing/PycharmProjects/Reinvent-master-3.2/result/LINK_invent/BTK/process_docking_weight1_custom_product_contain_oxygen_bond_distance_aromatic_linkinvent_7_9_3/rearranged_h_0101.sdf

> <i_m_source_file_index>
49

> <r_mmod_Potential_Energy-OPLS-2005>
-120.774269104004

> <r_mmod_Stretch_Energy-OPLS-2005>
35.6826477050781

> <r_mmod_Bend_Energy-OPLS-2005>
102.131500244141

> <r_mmod_Torsional_Energy-OPLS-2005>
243.450042724609

> <r_mmod_Improper_Torsional_Energy-OPLS-2005>
8.23512077331543

> <r_mmod_Van_der_Waal_Energy-OPLS-2005>
154.168426513672

> <r_mmod_Electrostatic_Energy-OPLS-2005>
-465.004455566406

> <r_mmod_Solvation_Energy-OPLS-2005>
-217.555572509766

> <b_mmod_Minimization_Converged-OPLS-2005>
0

> <r_mmod_RMS_Derivative-OPLS-2005>
2.86913371086121

$$$$
49
                    3D
 Structure written by MMmdl.
154162  0  0  1  0            999 V2000
  -30.7544  -14.4337   20.6373 C   0  0  0  0  0  0
  -30.4250  -12.3072   19.4165 C   0  0  0  0  0  0
  -29.4953  -12.5315   18.2063 C   0  0  0  0  0  0
  -28.0199  -12.3849   18.6200 C   0  0  0  0  0  0
  -27.6727  -13.2118   19.8866 C   0  0  2  0  0  0
  -28.7162  -12.9786   21.0059 C   0  0  0  0  0  0
  -25.2611  -13.8184   20.5685 C   0  0  0  0  0  0
  -24.1861  -13.0452   20.9173 C   0  0  0  0  0  0
  -24.6435  -11.6918   20.8730 C   0  0  0  0  0  0
  -23.9090  -10.4309   21.0397 C   0  0  0  0  0  0
  -24.3630   -9.4221   21.9176 C   0  0  0  0  0  0
  -23.6296   -8.2259   22.0748 C   0  0  0  0  0  0
  -22.4277   -8.0307   21.3550 C   0  0  0  0  0  0
  -21.9923   -9.0283   20.4644 C   0  0  0  0  0  0
  -22.7261  -10.2155   20.3049 C   0  0  0  0  0  0
  -21.6860   -6.0735   22.5281 C   0  0  0  0  0  0
  -21.4019   -6.5633   23.8220 C   0  0  0  0  0  0
  -21.3662   -5.6786   24.9178 C   0  0  0  0  0  0
  -21.6046   -4.3048   24.7229 C   0  0  0  0  0  0
  -21.8815   -3.8144   23.4354 C   0  0  0  0  0  0
  -21.9193   -4.6961   22.3406 C   0  0  0  0  0  0
  -22.7883  -13.5247   21.1845 C   0  0  0  0  0  0
  -22.1659   -4.2146   21.0981 F   0  0  0  0  0  0
  -21.5634   -3.4533   25.7739 F   0  0  0  0  0  0
  -30.0598  -13.2726   20.4687 N   0  0  0  0  0  0
  -26.3089  -12.9380   20.3443 N   0  0  0  0  0  0
  -25.9375  -11.6524   20.5792 N   0  0  0  0  0  0
  -22.0515  -12.8240   22.0393 N   0  0  0  0  0  0
  -25.4335  -15.1900   20.4094 N   0  0  0  0  0  0
  -31.7962  -14.6837   20.0217 O   0  0  0  0  0  0
  -21.6652   -6.8894   21.4246 O   0  0  0  0  0  0
  -22.3552  -14.5542   20.6684 O   0  0  0  0  0  0
  -24.6183  -31.8675   23.2091 C   0  0  0  0  0  0
  -25.9064  -32.4823   23.8406 C   0  0  1  0  0  0
  -27.2486  -27.4334   20.1000 C   0  0  0  0  0  0
  -25.5901  -33.8623   24.2331 N   0  0  0  0  0  0
  -23.4053  -30.4917   21.5490 C   0  0  2  0  0  0
  -24.8563  -28.9644   20.1162 C   0  0  0  0  0  0
  -22.7426  -29.4652   22.4971 C   0  0  0  0  0  0
  -18.0276  -28.1371   22.8491 C   0  0  0  0  0  0
  -24.1481  -36.7316   23.2643 C   0  0  0  0  0  0
  -25.9377  -30.8346   21.3627 C   0  0  0  0  0  0
  -26.0187  -29.4720   20.7080 C   0  0  0  0  0  0
  -27.2164  -28.7175   20.6960 C   0  0  0  0  0  0
  -26.0614  -26.9525   19.4912 C   0  0  0  0  0  0
  -24.8749  -27.7035   19.5014 C   0  0  0  0  0  0
  -23.6150  -29.8276   20.1642 C   0  0  0  0  0  0
  -25.4099  -36.3111   24.0352 C   0  0  1  0  0  0
  -20.5860  -28.3655   23.1308 C   0  0  2  0  0  0
  -20.6765  -26.9386   22.5412 C   0  0  0  0  0  0
  -19.5743  -26.6379   21.5210 C   0  0  0  0  0  0
  -18.1918  -26.7924   22.1623 C   0  0  0  0  0  0
  -19.1524  -28.8839   23.2898 C   0  0  0  0  0  0
  -18.9456  -30.1444   23.8920 C   0  0  0  0  0  0
  -17.6453  -30.6587   24.0572 C   0  0  0  0  0  0
  -25.9037  -34.9476   23.5138 C   0  0  0  0  0  0
  -16.5340  -29.9092   23.6326 C   0  0  0  0  0  0
  -16.7263  -28.6496   23.0356 C   0  0  0  0  0  0
  -26.4472  -31.6606   25.0741 C   0  0  0  0  0  0
  -25.3738  -31.3709   26.1494 C   0  0  0  0  0  0
  -27.0303  -30.3051   24.6104 C   0  0  0  0  0  0
  -27.6046  -32.4326   25.7494 C   0  0  0  0  0  0
  -27.5572  -37.1818   24.8477 C   0  0  0  0  0  0
  -21.4144  -29.3031   22.3731 N   0  0  0  0  0  0
  -26.4293  -37.3795   23.9415 N   0  0  0  0  0  0
  -24.6720  -31.0790   22.0979 N   0  0  0  0  0  0
  -23.4190  -28.8189   23.3017 O   0  0  0  0  0  0
  -28.4109  -26.6741   20.1433 O   0  0  0  0  0  0
  -26.5597  -34.8926   22.4700 O   0  0  0  0  0  0
  -23.5372  -32.1407   23.7484 O   0  0  0  0  0  0
  -30.7546  -18.8290   22.7020 C   0  0  0  0  0  0
  -30.8095  -17.4169   22.6694 C   0  0  0  0  0  0
  -29.8851  -18.8536   20.4372 C   0  0  0  0  0  0
  -30.2624  -19.5684   21.6012 C   0  0  0  0  0  0
  -30.3875  -16.7079   21.5222 C   0  0  0  0  0  0
  -29.9442  -17.4418   20.3964 C   0  0  0  0  0  0
  -29.9926  -21.0518   21.7390 C   0  0  0  0  0  0
  -29.4050  -24.3215   20.4374 C   0  0  0  0  0  0
  -28.8936  -22.8525   20.4370 C   0  0  0  0  0  0
  -28.2265  -25.2493   20.0440 C   0  0  0  0  0  0
  -30.2721  -15.2838   21.5596 N   0  0  0  0  0  0
  -29.8702  -21.7689   20.6106 N   0  0  0  0  0  0
  -29.8331  -21.5561   22.8531 O   0  0  0  0  0  0
  -29.4948  -16.7951   19.2923 F   0  0  0  0  0  0
  -31.4692  -12.3994   19.1100 H   0  0  0  0  0  0
  -30.3162  -11.2874   19.7921 H   0  0  0  0  0  0
  -29.7325  -11.8248   17.4106 H   0  0  0  0  0  0
  -29.6653  -13.5279   17.7923 H   0  0  0  0  0  0
  -27.8274  -11.3283   18.8016 H   0  0  0  0  0  0
  -27.3681  -12.6765   17.7956 H   0  0  0  0  0  0
  -27.7247  -14.2652   19.6080 H   0  0  0  0  0  0
  -28.6813  -11.9403   21.3443 H   0  0  0  0  0  0
  -28.4697  -13.5765   21.8827 H   0  0  0  0  0  0
  -25.2779   -9.5686   22.4758 H   0  0  0  0  0  0
  -24.0005   -7.4643   22.7458 H   0  0  0  0  0  0
  -21.0860   -8.8804   19.8946 H   0  0  0  0  0  0
  -22.3723  -10.9696   19.6156 H   0  0  0  0  0  0
  -21.2007   -7.6144   23.9719 H   0  0  0  0  0  0
  -21.1491   -6.0519   25.9082 H   0  0  0  0  0  0
  -22.0590   -2.7607   23.2855 H   0  0  0  0  0  0
  -22.4126  -11.9896   22.4794 H   0  0  0  0  0  0
  -21.1136  -13.1266   22.2600 H   0  0  0  0  0  0
  -24.6685  -15.8486   20.5109 H   0  0  0  0  0  0
  -26.2971  -15.6290   20.1119 H   0  0  0  0  0  0
  -26.7145  -32.5538   23.1184 H   0  0  0  0  0  0
  -25.0081  -33.9775   25.0495 H   0  0  0  0  0  0
  -22.6954  -31.3094   21.4109 H   0  0  0  0  0  0
  -23.3733  -35.9659   23.3331 H   0  0  0  0  0  0
  -24.3564  -36.8900   22.2050 H   0  0  0  0  0  0
  -23.7226  -37.6534   23.6630 H   0  0  0  0  0  0
  -26.0551  -31.5992   20.5940 H   0  0  0  0  0  0
  -26.8238  -30.8831   21.9825 H   0  0  0  0  0  0
  -28.1089  -29.1093   21.1648 H   0  0  0  0  0  0
  -26.0230  -25.9904   19.0014 H   0  0  0  0  0  0
  -23.9883  -27.2984   19.0326 H   0  0  0  0  0  0
  -23.7216  -30.6040   19.4074 H   0  0  0  0  0  0
  -22.7407  -29.2473   19.8658 H   0  0  0  0  0  0
  -25.1264  -36.1994   25.0845 H   0  0  0  0  0  0
  -20.9956  -28.3220   24.1426 H   0  0  0  0  0  0
  -20.5653  -26.2263   23.3595 H   0  0  0  0  0  0
  -21.6637  -26.7432   22.1208 H   0  0  0  0  0  0
  -19.6903  -25.6294   21.1232 H   0  0  0  0  0  0
  -19.6691  -27.3207   20.6752 H   0  0  0  0  0  0
  -17.4182  -26.6666   21.4027 H   0  0  0  0  0  0
  -18.0328  -26.0059   22.9015 H   0  0  0  0  0  0
  -19.7929  -30.7249   24.2290 H   0  0  0  0  0  0
  -17.5016  -31.6272   24.5158 H   0  0  0  0  0  0
  -15.5346  -30.3013   23.7643 H   0  0  0  0  0  0
  -15.8650  -28.0840   22.7069 H   0  0  0  0  0  0
  -24.5919  -30.7035   25.7845 H   0  0  0  0  0  0
  -24.8927  -32.2870   26.4938 H   0  0  0  0  0  0
  -25.8111  -30.8898   27.0251 H   0  0  0  0  0  0
  -26.2854  -29.6815   24.1148 H   0  0  0  0  0  0
  -27.4073  -29.7269   25.4548 H   0  0  0  0  0  0
  -27.8684  -30.4378   23.9256 H   0  0  0  0  0  0
  -27.2660  -33.3617   26.2079 H   0  0  0  0  0  0
  -28.3843  -32.6889   25.0313 H   0  0  0  0  0  0
  -28.0718  -31.8447   26.5398 H   0  0  0  0  0  0
  -28.2628  -38.0078   24.7487 H   0  0  0  0  0  0
  -28.1024  -36.2611   24.6351 H   0  0  0  0  0  0
  -27.2301  -37.1548   25.8886 H   0  0  0  0  0  0
  -20.9296  -29.8762   21.6966 H   0  0  0  0  0  0
  -26.0192  -38.2886   24.1374 H   0  0  0  0  0  0
  -31.0431  -19.3465   23.6094 H   0  0  0  0  0  0
  -31.1381  -16.8835   23.5524 H   0  0  0  0  0  0
  -29.4778  -19.3654   19.5805 H   0  0  0  0  0  0
  -30.2290  -24.4370   19.7340 H   0  0  0  0  0  0
  -29.7860  -24.5991   21.4211 H   0  0  0  0  0  0
  -28.4011  -22.6610   19.4814 H   0  0  0  0  0  0
  -28.1054  -22.7481   21.1870 H   0  0  0  0  0  0
  -27.3817  -24.9804   20.6814 H   0  0  0  0  0  0
  -27.9586  -25.0093   19.0126 H   0  0  0  0  0  0
  -29.5492  -14.9135   22.1570 H   0  0  0  0  0  0
  -30.1486  -21.2869   19.7656 H   0  0  0  0  0  0
  1 25  1  0  0  0
  1 30  2  0  0  0
  1 81  1  0  0  0
  2  3  1  0  0  0
  2 25  1  0  0  0
  2 85  1  0  0  0
  2 86  1  0  0  0
  3  4  1  0  0  0
  3 87  1  0  0  0
  3 88  1  0  0  0
  4  5  1  0  0  0
  4 89  1  0  0  0
  4 90  1  0  0  0
  5  6  1  0  0  0
  5 26  1  0  0  0
  5 91  1  0  0  0
  6 25  1  0  0  0
  6 92  1  0  0  0
  6 93  1  0  0  0
  7  8  2  0  0  0
  7 26  1  0  0  0
  7 29  1  0  0  0
  8  9  1  0  0  0
  8 22  1  0  0  0
  9 10  1  0  0  0
  9 27  2  0  0  0
 10 11  2  0  0  0
 10 15  1  0  0  0
 11 12  1  0  0  0
 11 94  1  0  0  0
 12 13  2  0  0  0
 12 95  1  0  0  0
 13 14  1  0  0  0
 13 31  1  0  0  0
 14 15  2  0  0  0
 14 96  1  0  0  0
 15 97  1  0  0  0
 16 17  2  0  0  0
 16 21  1  0  0  0
 16 31  1  0  0  0
 17 18  1  0  0  0
 17 98  1  0  0  0
 18 19  2  0  0  0
 18 99  1  0  0  0
 19 20  1  0  0  0
 19 24  1  0  0  0
 20 21  2  0  0  0
 20100  1  0  0  0
 21 23  1  0  0  0
 22 28  1  0  0  0
 22 32  2  0  0  0
 26 27  1  0  0  0
 28101  1  0  0  0
 28102  1  0  0  0
 29103  1  0  0  0
 29104  1  0  0  0
 33 34  1  0  0  0
 33 66  1  0  0  0
 33 70  2  0  0  0
 34 36  1  0  0  0
 34 59  1  0  0  0
 34105  1  0  0  0
 35 44  2  0  0  0
 35 45  1  0  0  0
 35 68  1  0  0  0
 36 56  1  0  0  0
 36106  1  0  0  0
 37 39  1  0  0  0
 37 47  1  0  0  0
 37 66  1  0  0  0
 37107  1  0  0  0
 38 43  2  0  0  0
 38 46  1  0  0  0
 38 47  1  0  0  0
 39 64  1  0  0  0
 39 67  2  0  0  0
 40 52  1  0  0  0
 40 53  2  0  0  0
 40 58  1  0  0  0
 41108  1  0  0  0
 41109  1  0  0  0
 41110  1  0  0  0
 41 48  1  0  0  0
 42 43  1  0  0  0
 42 66  1  0  0  0
 42111  1  0  0  0
 42112  1  0  0  0
 43 44  1  0  0  0
 44113  1  0  0  0
 45 46  2  0  0  0
 45114  1  0  0  0
 46115  1  0  0  0
 47116  1  0  0  0
 47117  1  0  0  0
 48 56  1  0  0  0
 48 65  1  0  0  0
 48118  1  0  0  0
 49 50  1  0  0  0
 49 53  1  0  0  0
 49 64  1  0  0  0
 49119  1  0  0  0
 50 51  1  0  0  0
 50120  1  0  0  0
 50121  1  0  0  0
 51 52  1  0  0  0
 51122  1  0  0  0
 51123  1  0  0  0
 52124  1  0  0  0
 52125  1  0  0  0
 53 54  1  0  0  0
 54 55  2  0  0  0
 54126  1  0  0  0
 55 57  1  0  0  0
 55127  1  0  0  0
 56 69  2  0  0  0
 57 58  2  0  0  0
 57128  1  0  0  0
 58129  1  0  0  0
 59 60  1  0  0  0
 59 61  1  0  0  0
 59 62  1  0  0  0
 60130  1  0  0  0
 60131  1  0  0  0
 60132  1  0  0  0
 61133  1  0  0  0
 61134  1  0  0  0
 61135  1  0  0  0
 62136  1  0  0  0
 62137  1  0  0  0
 62138  1  0  0  0
 63 65  1  0  0  0
 63139  1  0  0  0
 63140  1  0  0  0
 63141  1  0  0  0
 64142  1  0  0  0
 65143  1  0  0  0
 68 80  1  0  0  0
 71 72  2  0  0  0
 71 74  1  0  0  0
 71144  1  0  0  0
 72 75  1  0  0  0
 72145  1  0  0  0
 73 74  2  0  0  0
 73 76  1  0  0  0
 73146  1  0  0  0
 74 77  1  0  0  0
 75 76  2  0  0  0
 75 81  1  0  0  0
 76 84  1  0  0  0
 77 82  1  0  0  0
 77 83  2  0  0  0
 78 79  1  0  0  0
 78 80  1  0  0  0
 78147  1  0  0  0
 78148  1  0  0  0
 79 82  1  0  0  0
 79149  1  0  0  0
 79150  1  0  0  0
 80151  1  0  0  0
 80152  1  0  0  0
 81153  1  0  0  0
 82154  1  0  0  0
M  ISO  4   1 100  68 101  80 101  81 100
M  END
> <chiral flag>
0

> <version>
0

> <s_m_source_file>
/data/baiqing/PycharmProjects/Reinvent-master-3.2/result/LINK_invent/BTK/process_docking_weight1_custom_product_contain_oxygen_bond_distance_aromatic_linkinvent_7_9_3/rearranged_h_0101.sdf

> <i_m_source_file_index>
50

> <r_mmod_Potential_Energy-OPLS-2005>
-123.718559265137

> <r_mmod_Stretch_Energy-OPLS-2005>
40.1457977294922

> <r_mmod_Bend_Energy-OPLS-2005>
101.749336242676

> <r_mmod_Torsional_Energy-OPLS-2005>
255.769744873047

> <r_mmod_Improper_Torsional_Energy-OPLS-2005>
6.3437705039978

> <r_mmod_Van_der_Waal_Energy-OPLS-2005>
160.567932128906

> <r_mmod_Electrostatic_Energy-OPLS-2005>
-462.946380615234

> <r_mmod_Solvation_Energy-OPLS-2005>
-236.342681884766

> <b_mmod_Minimization_Converged-OPLS-2005>
0

> <r_mmod_RMS_Derivative-OPLS-2005>
3.62304902076721

$$$$
50
                    3D
 Structure written by MMmdl.
157165  0  0  1  0            999 V2000
  -30.6563  -14.6814   20.3512 C   0  0  0  0  0  0
  -30.4383  -12.3802   19.4567 C   0  0  0  0  0  0
  -29.5026  -12.3850   18.2269 C   0  0  0  0  0  0
  -28.0212  -12.2751   18.6473 C   0  0  0  0  0  0
  -27.6316  -13.2038   19.8304 C   0  0  2  0  0  0
  -28.6957  -13.1819   20.9499 C   0  0  0  0  0  0
  -25.2485  -13.8054   20.5775 C   0  0  0  0  0  0
  -24.1763  -13.0341   20.9251 C   0  0  0  0  0  0
  -24.6343  -11.6835   20.8787 C   0  0  0  0  0  0
  -23.9021  -10.4231   21.0420 C   0  0  0  0  0  0
  -24.3581   -9.4155   21.9192 C   0  0  0  0  0  0
  -23.6256   -8.2198   22.0751 C   0  0  0  0  0  0
  -22.4239   -8.0245   21.3543 C   0  0  0  0  0  0
  -21.9876   -9.0215   20.4642 C   0  0  0  0  0  0
  -22.7203  -10.2092   20.3057 C   0  0  0  0  0  0
  -21.6833   -6.0721   22.5282 C   0  0  0  0  0  0
  -21.4003   -6.5627   23.8219 C   0  0  0  0  0  0
  -21.3664   -5.6780   24.9178 C   0  0  0  0  0  0
  -21.6045   -4.3043   24.7220 C   0  0  0  0  0  0
  -21.8820   -3.8136   23.4341 C   0  0  0  0  0  0
  -21.9185   -4.6953   22.3400 C   0  0  0  0  0  0
  -22.7801  -13.5164   21.1886 C   0  0  0  0  0  0
  -22.1656   -4.2147   21.0976 F   0  0  0  0  0  0
  -21.5629   -3.4525   25.7733 F   0  0  0  0  0  0
  -30.0082  -13.4686   20.3511 N   0  0  0  0  0  0
  -26.2897  -12.9240   20.3298 N   0  0  0  0  0  0
  -25.9264  -11.6414   20.5814 N   0  0  0  0  0  0
  -22.0444  -12.8188   22.0464 N   0  0  0  0  0  0
  -25.4118  -15.1761   20.4285 N   0  0  0  0  0  0
  -31.8865  -14.7469   20.3286 O   0  0  0  0  0  0
  -21.6614   -6.8848   21.4237 O   0  0  0  0  0  0
  -22.3508  -14.5473   20.6713 O   0  0  0  0  0  0
  -24.6230  -31.8621   23.2052 C   0  0  0  0  0  0
  -25.9091  -32.4792   23.8364 C   0  0  1  0  0  0
  -27.2321  -27.3514   20.1083 C   0  0  0  0  0  0
  -25.5924  -33.8593   24.2297 N   0  0  0  0  0  0
  -23.4150  -30.4849   21.5474 C   0  0  2  0  0  0
  -24.8625  -28.9462   20.1128 C   0  0  0  0  0  0
  -22.7458  -29.4626   22.4961 C   0  0  0  0  0  0
  -18.0288  -28.1377   22.8499 C   0  0  0  0  0  0
  -24.1493  -36.7301   23.2638 C   0  0  0  0  0  0
  -25.9538  -30.8025   21.3723 C   0  0  0  0  0  0
  -26.0294  -29.4331   20.7139 C   0  0  0  0  0  0
  -27.2164  -28.6464   20.7041 C   0  0  0  0  0  0
  -26.0392  -26.9100   19.4864 C   0  0  0  0  0  0
  -24.8671  -27.6876   19.4944 C   0  0  0  0  0  0
  -23.6275  -29.8204   20.1624 C   0  0  0  0  0  0
  -25.4118  -36.3097   24.0330 C   0  0  1  0  0  0
  -20.5889  -28.3670   23.1319 C   0  0  2  0  0  0
  -20.6790  -26.9408   22.5410 C   0  0  0  0  0  0
  -19.5761  -26.6398   21.5210 C   0  0  0  0  0  0
  -18.1941  -26.7925   22.1622 C   0  0  0  0  0  0
  -19.1540  -28.8838   23.2908 C   0  0  0  0  0  0
  -18.9468  -30.1446   23.8917 C   0  0  0  0  0  0
  -17.6469  -30.6583   24.0578 C   0  0  0  0  0  0
  -25.9044  -34.9459   23.5109 C   0  0  0  0  0  0
  -16.5362  -29.9081   23.6344 C   0  0  0  0  0  0
  -16.7274  -28.6503   23.0348 C   0  0  0  0  0  0
  -26.4486  -31.6586   25.0712 C   0  0  0  0  0  0
  -25.3732  -31.3718   26.1448 C   0  0  0  0  0  0
  -27.0315  -30.3011   24.6144 C   0  0  0  0  0  0
  -27.6052  -32.4318   25.7481 C   0  0  0  0  0  0
  -27.5583  -37.1804   24.8462 C   0  0  0  0  0  0
  -21.4172  -29.3036   22.3717 N   0  0  0  0  0  0
  -26.4301  -37.3784   23.9400 N   0  0  0  0  0  0
  -24.6823  -31.0653   22.0992 N   0  0  0  0  0  0
  -23.4191  -28.8166   23.3030 O   0  0  0  0  0  0
  -28.3685  -26.5319   20.1566 O   0  0  0  0  0  0
  -26.5609  -34.8925   22.4674 O   0  0  0  0  0  0
  -23.5402  -32.1413   23.7399 O   0  0  0  0  0  0
  -30.9522  -17.9734   20.7337 C   0  0  0  0  0  0
  -28.8057  -19.6113   19.9993 C   0  0  0  0  0  0
  -29.8500  -17.3295   20.1079 C   0  0  0  0  0  0
  -28.7524  -18.2070   19.7773 C   0  0  0  0  0  0
  -30.9946  -19.3845   20.9485 C   0  0  0  0  0  0
  -29.9335  -20.2469   20.5590 C   0  0  0  0  0  0
  -29.8993  -15.8605   19.6233 C   0  0  0  0  0  0
  -27.4655  -17.7199   19.1268 C   0  0  0  0  0  0
  -29.3298  -24.0989   20.4174 C   0  0  0  0  0  0
  -28.1790  -25.0846   19.9745 C   0  0  0  0  0  0
  -29.0312  -22.5539   20.2259 C   0  0  0  0  0  0
  -29.4023  -15.6319   18.4800 N   0  0  0  0  0  0
  -32.1262  -19.9532   21.5307 N   0  0  0  0  0  0
  -30.0487  -21.6403   20.7364 O   0  0  0  0  0  0
  -31.4752  -12.4993   19.1380 H   0  0  0  0  0  0
  -30.3870  -11.4236   19.9786 H   0  0  0  0  0  0
  -29.7553  -11.5456   17.5774 H   0  0  0  0  0  0
  -29.6643  -13.2731   17.6194 H   0  0  0  0  0  0
  -27.8511  -11.2358   18.9320 H   0  0  0  0  0  0
  -27.3715  -12.4600   17.7914 H   0  0  0  0  0  0
  -27.5831  -14.2067   19.4205 H   0  0  0  0  0  0
  -28.7155  -12.2132   21.4498 H   0  0  0  0  0  0
  -28.4574  -13.9225   21.7151 H   0  0  0  0  0  0
  -25.2722   -9.5629   22.4777 H   0  0  0  0  0  0
  -23.9967   -7.4576   22.7451 H   0  0  0  0  0  0
  -21.0821   -8.8708   19.8931 H   0  0  0  0  0  0
  -22.3654  -10.9628   19.6162 H   0  0  0  0  0  0
  -21.1998   -7.6139   23.9716 H   0  0  0  0  0  0
  -21.1492   -6.0515   25.9083 H   0  0  0  0  0  0
  -22.0601   -2.7598   23.2836 H   0  0  0  0  0  0
  -22.4034  -11.9842   22.4867 H   0  0  0  0  0  0
  -21.1057  -13.1217   22.2632 H   0  0  0  0  0  0
  -24.6497  -15.8333   20.5510 H   0  0  0  0  0  0
  -26.2720  -15.6126   20.1297 H   0  0  0  0  0  0
  -26.7151  -32.5464   23.1108 H   0  0  0  0  0  0
  -25.0074  -33.9750   25.0443 H   0  0  0  0  0  0
  -22.7082  -31.3051   21.4069 H   0  0  0  0  0  0
  -23.3757  -35.9628   23.3306 H   0  0  0  0  0  0
  -24.3589  -36.8915   22.2052 H   0  0  0  0  0  0
  -23.7242  -37.6506   23.6646 H   0  0  0  0  0  0
  -26.0816  -31.5686   20.6063 H   0  0  0  0  0  0
  -26.8348  -30.8505   22.0000 H   0  0  0  0  0  0
  -28.1109  -29.0160   21.1858 H   0  0  0  0  0  0
  -25.9822  -25.9515   18.9928 H   0  0  0  0  0  0
  -23.9711  -27.3088   19.0238 H   0  0  0  0  0  0
  -23.7404  -30.5967   19.4047 H   0  0  0  0  0  0
  -22.7489  -29.2448   19.8647 H   0  0  0  0  0  0
  -25.1300  -36.1954   25.0820 H   0  0  0  0  0  0
  -20.9979  -28.3221   24.1440 H   0  0  0  0  0  0
  -20.5715  -26.2255   23.3580 H   0  0  0  0  0  0
  -21.6654  -26.7459   22.1189 H   0  0  0  0  0  0
  -19.6917  -25.6318   21.1217 H   0  0  0  0  0  0
  -19.6687  -27.3244   20.6763 H   0  0  0  0  0  0
  -17.4206  -26.6698   21.4017 H   0  0  0  0  0  0
  -18.0339  -26.0056   22.9005 H   0  0  0  0  0  0
  -19.7944  -30.7270   24.2288 H   0  0  0  0  0  0
  -17.5020  -31.6263   24.5186 H   0  0  0  0  0  0
  -15.5365  -30.2978   23.7684 H   0  0  0  0  0  0
  -15.8675  -28.0841   22.7038 H   0  0  0  0  0  0
  -24.5914  -30.7053   25.7789 H   0  0  0  0  0  0
  -24.8911  -32.2880   26.4864 H   0  0  0  0  0  0
  -25.8079  -30.8909   27.0222 H   0  0  0  0  0  0
  -26.2870  -29.6777   24.1178 H   0  0  0  0  0  0
  -27.4033  -29.7252   25.4632 H   0  0  0  0  0  0
  -27.8735  -30.4306   23.9342 H   0  0  0  0  0  0
  -27.2659  -33.3616   26.2064 H   0  0  0  0  0  0
  -28.3858  -32.6890   25.0304 H   0  0  0  0  0  0
  -28.0718  -31.8434   26.5394 H   0  0  0  0  0  0
  -28.2609  -38.0097   24.7514 H   0  0  0  0  0  0
  -28.1083  -36.2631   24.6290 H   0  0  0  0  0  0
  -27.2300  -37.1454   25.8867 H   0  0  0  0  0  0
  -20.9336  -29.8764   21.6941 H   0  0  0  0  0  0
  -26.0191  -38.2863   24.1399 H   0  0  0  0  0  0
  -31.8167  -17.3802   20.9957 H   0  0  0  0  0  0
  -27.9570  -20.2085   19.7011 H   0  0  0  0  0  0
  -26.6167  -18.3496   19.3959 H   0  0  0  0  0  0
  -27.2191  -16.7117   19.4410 H   0  0  0  0  0  0
  -27.5563  -17.7346   18.0404 H   0  0  0  0  0  0
  -29.5510  -24.2793   21.4687 H   0  0  0  0  0  0
  -30.2386  -24.3543   19.8712 H   0  0  0  0  0  0
  -27.2865  -24.7825   20.5259 H   0  0  0  0  0  0
  -27.9713  -24.9015   18.9195 H   0  0  0  0  0  0
  -28.8928  -22.3568   19.1621 H   0  0  0  0  0  0
  -28.0818  -22.3211   20.7103 H   0  0  0  0  0  0
  -29.0108  -16.4791   18.0914 H   0  0  0  0  0  0
  -32.0224  -20.9022   21.8791 H   0  0  0  0  0  0
  -32.7136  -19.3752   22.1233 H   0  0  0  0  0  0
  1 25  1  0  0  0
  1 30  2  0  0  0
  1 77  1  0  0  0
  2  3  1  0  0  0
  2 25  1  0  0  0
  2 85  1  0  0  0
  2 86  1  0  0  0
  3  4  1  0  0  0
  3 87  1  0  0  0
  3 88  1  0  0  0
  4  5  1  0  0  0
  4 89  1  0  0  0
  4 90  1  0  0  0
  5  6  1  0  0  0
  5 26  1  0  0  0
  5 91  1  0  0  0
  6 25  1  0  0  0
  6 92  1  0  0  0
  6 93  1  0  0  0
  7  8  2  0  0  0
  7 26  1  0  0  0
  7 29  1  0  0  0
  8  9  1  0  0  0
  8 22  1  0  0  0
  9 10  1  0  0  0
  9 27  2  0  0  0
 10 11  2  0  0  0
 10 15  1  0  0  0
 11 12  1  0  0  0
 11 94  1  0  0  0
 12 13  2  0  0  0
 12 95  1  0  0  0
 13 14  1  0  0  0
 13 31  1  0  0  0
 14 15  2  0  0  0
 14 96  1  0  0  0
 15 97  1  0  0  0
 16 17  2  0  0  0
 16 21  1  0  0  0
 16 31  1  0  0  0
 17 18  1  0  0  0
 17 98  1  0  0  0
 18 19  2  0  0  0
 18 99  1  0  0  0
 19 20  1  0  0  0
 19 24  1  0  0  0
 20 21  2  0  0  0
 20100  1  0  0  0
 21 23  1  0  0  0
 22 28  1  0  0  0
 22 32  2  0  0  0
 26 27  1  0  0  0
 28101  1  0  0  0
 28102  1  0  0  0
 29103  1  0  0  0
 29104  1  0  0  0
 33 34  1  0  0  0
 33 66  1  0  0  0
 33 70  2  0  0  0
 34 36  1  0  0  0
 34 59  1  0  0  0
 34105  1  0  0  0
 35 44  2  0  0  0
 35 45  1  0  0  0
 35 68  1  0  0  0
 36 56  1  0  0  0
 36106  1  0  0  0
 37 39  1  0  0  0
 37 47  1  0  0  0
 37 66  1  0  0  0
 37107  1  0  0  0
 38 43  2  0  0  0
 38 46  1  0  0  0
 38 47  1  0  0  0
 39 64  1  0  0  0
 39 67  2  0  0  0
 40 52  1  0  0  0
 40 53  2  0  0  0
 40 58  1  0  0  0
 41108  1  0  0  0
 41109  1  0  0  0
 41110  1  0  0  0
 41 48  1  0  0  0
 42 43  1  0  0  0
 42 66  1  0  0  0
 42111  1  0  0  0
 42112  1  0  0  0
 43 44  1  0  0  0
 44113  1  0  0  0
 45 46  2  0  0  0
 45114  1  0  0  0
 46115  1  0  0  0
 47116  1  0  0  0
 47117  1  0  0  0
 48 56  1  0  0  0
 48 65  1  0  0  0
 48118  1  0  0  0
 49 50  1  0  0  0
 49 53  1  0  0  0
 49 64  1  0  0  0
 49119  1  0  0  0
 50 51  1  0  0  0
 50120  1  0  0  0
 50121  1  0  0  0
 51 52  1  0  0  0
 51122  1  0  0  0
 51123  1  0  0  0
 52124  1  0  0  0
 52125  1  0  0  0
 53 54  1  0  0  0
 54 55  2  0  0  0
 54126  1  0  0  0
 55 57  1  0  0  0
 55127  1  0  0  0
 56 69  2  0  0  0
 57 58  2  0  0  0
 57128  1  0  0  0
 58129  1  0  0  0
 59 60  1  0  0  0
 59 61  1  0  0  0
 59 62  1  0  0  0
 60130  1  0  0  0
 60131  1  0  0  0
 60132  1  0  0  0
 61133  1  0  0  0
 61134  1  0  0  0
 61135  1  0  0  0
 62136  1  0  0  0
 62137  1  0  0  0
 62138  1  0  0  0
 63 65  1  0  0  0
 63139  1  0  0  0
 63140  1  0  0  0
 63141  1  0  0  0
 64142  1  0  0  0
 65143  1  0  0  0
 68 80  1  0  0  0
 71 73  2  0  0  0
 71 75  1  0  0  0
 71144  1  0  0  0
 72 74  2  0  0  0
 72 76  1  0  0  0
 72145  1  0  0  0
 73 74  1  0  0  0
 73 77  1  0  0  0
 74 78  1  0  0  0
 75 76  2  0  0  0
 75 83  1  0  0  0
 76 84  1  0  0  0
 77 82  2  0  0  0
 78146  1  0  0  0
 78147  1  0  0  0
 78148  1  0  0  0
 79 80  1  0  0  0
 79 81  1  0  0  0
 79149  1  0  0  0
 79150  1  0  0  0
 80151  1  0  0  0
 80152  1  0  0  0
 81 84  1  0  0  0
 81153  1  0  0  0
 81154  1  0  0  0
 82155  1  0  0  0
 83156  1  0  0  0
 83157  1  0  0  0
M  ISO  4   1 100  68 101  77 100  80 101
M  END
> <chiral flag>
0

> <version>
0

> <s_m_source_file>
/data/baiqing/PycharmProjects/Reinvent-master-3.2/result/LINK_invent/BTK/process_docking_weight1_custom_product_contain_oxygen_bond_distance_aromatic_linkinvent_7_9_3/rearranged_h_0101.sdf

> <i_m_source_file_index>
51

> <r_mmod_Potential_Energy-OPLS-2005>
261.726959228516

> <r_mmod_Stretch_Energy-OPLS-2005>
81.6353073120117

> <r_mmod_Bend_Energy-OPLS-2005>
143.662399291992

> <r_mmod_Torsional_Energy-OPLS-2005>
249.792907714844

> <r_mmod_Improper_Torsional_Energy-OPLS-2005>
29.8967380523682

> <r_mmod_Van_der_Waal_Energy-OPLS-2005>
163.016616821289

> <r_mmod_Electrostatic_Energy-OPLS-2005>
-261.838287353516

> <r_mmod_Solvation_Energy-OPLS-2005>
-213.927780151367

> <b_mmod_Minimization_Converged-OPLS-2005>
0

> <r_mmod_RMS_Derivative-OPLS-2005>
1.77243292331696

$$$$
51
                    3D
 Structure written by MMmdl.
165174  0  0  1  0            999 V2000
  -30.5649  -14.8937   20.3708 C   0  0  0  0  0  0
  -30.4467  -12.5389   19.4749 C   0  0  0  0  0  0
  -29.5152  -12.4815   18.2419 C   0  0  0  0  0  0
  -28.0446  -12.2851   18.6639 C   0  0  0  0  0  0
  -27.6223  -13.2185   19.8264 C   0  0  2  0  0  0
  -28.6788  -13.2639   20.9488 C   0  0  0  0  0  0
  -25.2500  -13.8129   20.5738 C   0  0  0  0  0  0
  -24.1786  -13.0411   20.9262 C   0  0  0  0  0  0
  -24.6364  -11.6878   20.8791 C   0  0  0  0  0  0
  -23.9052  -10.4271   21.0439 C   0  0  0  0  0  0
  -24.3612   -9.4181   21.9203 C   0  0  0  0  0  0
  -23.6285   -8.2220   22.0763 C   0  0  0  0  0  0
  -22.4272   -8.0268   21.3549 C   0  0  0  0  0  0
  -21.9914   -9.0245   20.4649 C   0  0  0  0  0  0
  -22.7241  -10.2120   20.3066 C   0  0  0  0  0  0
  -21.6843   -6.0733   22.5286 C   0  0  0  0  0  0
  -21.4009   -6.5646   23.8219 C   0  0  0  0  0  0
  -21.3654   -5.6798   24.9179 C   0  0  0  0  0  0
  -21.6045   -4.3059   24.7223 C   0  0  0  0  0  0
  -21.8824   -3.8150   23.4347 C   0  0  0  0  0  0
  -21.9191   -4.6967   22.3402 C   0  0  0  0  0  0
  -22.7812  -13.5205   21.1908 C   0  0  0  0  0  0
  -22.1663   -4.2160   21.0973 F   0  0  0  0  0  0
  -21.5626   -3.4544   25.7733 F   0  0  0  0  0  0
  -29.9645  -13.6395   20.3450 N   0  0  0  0  0  0
  -26.2865  -12.9284   20.3251 N   0  0  0  0  0  0
  -25.9274  -11.6457   20.5772 N   0  0  0  0  0  0
  -22.0466  -12.8175   22.0450 N   0  0  0  0  0  0
  -25.4235  -15.1854   20.4125 N   0  0  0  0  0  0
  -31.7983  -14.9502   20.3171 O   0  0  0  0  0  0
  -21.6631   -6.8873   21.4245 O   0  0  0  0  0  0
  -22.3493  -14.5510   20.6747 O   0  0  0  0  0  0
  -24.6396  -31.8482   23.1896 C   0  0  0  0  0  0
  -25.9192  -32.4707   23.8272 C   0  0  1  0  0  0
  -27.2199  -27.1810   20.1465 C   0  0  0  0  0  0
  -25.5958  -33.8511   24.2196 N   0  0  0  0  0  0
  -23.4409  -30.4661   21.5360 C   0  0  2  0  0  0
  -24.8893  -28.9023   20.1084 C   0  0  0  0  0  0
  -22.7564  -29.4542   22.4888 C   0  0  0  0  0  0
  -18.0304  -28.1409   22.8461 C   0  0  0  0  0  0
  -24.1484  -36.7256   23.2642 C   0  0  0  0  0  0
  -25.9912  -30.7381   21.3798 C   0  0  0  0  0  0
  -26.0657  -29.3529   20.7222 C   0  0  0  0  0  0
  -27.2330  -28.5080   20.7247 C   0  0  0  0  0  0
  -26.0162  -26.8228   19.4969 C   0  0  0  0  0  0
  -24.8753  -27.6505   19.4793 C   0  0  0  0  0  0
  -23.6626  -29.7965   20.1546 C   0  0  0  0  0  0
  -25.4112  -36.3026   24.0308 C   0  0  1  0  0  0
  -20.5905  -28.3718   23.1246 C   0  0  2  0  0  0
  -20.6784  -26.9423   22.5410 C   0  0  0  0  0  0
  -19.5759  -26.6383   21.5211 C   0  0  0  0  0  0
  -18.1935  -26.7939   22.1625 C   0  0  0  0  0  0
  -19.1557  -28.8881   23.2841 C   0  0  0  0  0  0
  -18.9482  -30.1487   23.8848 C   0  0  0  0  0  0
  -17.6480  -30.6603   24.0555 C   0  0  0  0  0  0
  -25.9072  -34.9410   23.5060 C   0  0  0  0  0  0
  -16.5368  -29.9086   23.6343 C   0  0  0  0  0  0
  -16.7283  -28.6518   23.0327 C   0  0  0  0  0  0
  -26.4520  -31.6551   25.0698 C   0  0  0  0  0  0
  -25.3708  -31.3745   26.1398 C   0  0  0  0  0  0
  -27.0395  -30.2953   24.6245 C   0  0  0  0  0  0
  -27.6049  -32.4310   25.7501 C   0  0  0  0  0  0
  -27.5564  -37.1783   24.8462 C   0  0  0  0  0  0
  -21.4261  -29.3037   22.3632 N   0  0  0  0  0  0
  -26.4278  -37.3738   23.9405 N   0  0  0  0  0  0
  -24.7101  -31.0385   22.0908 N   0  0  0  0  0  0
  -23.4217  -28.8090   23.3030 O   0  0  0  0  0  0
  -28.2837  -26.2227   20.2195 O   0  0  0  0  0  0
  -26.5656  -34.8902   22.4638 O   0  0  0  0  0  0
  -23.5527  -32.1337   23.7148 O   0  0  0  0  0  0
  -28.4434  -18.1474   20.9698 C   0  0  0  0  0  0
  -30.4604  -18.7912   19.9475 C   0  0  0  0  0  0
  -28.0923  -19.5346   21.1213 C   0  0  0  0  0  0
  -30.1186  -20.1974   20.1268 C   0  0  0  0  0  0
  -29.6331  -17.6781   20.3409 C   0  0  0  0  0  0
  -28.8927  -20.6594   20.7143 C   0  0  0  0  0  0
  -28.5506  -22.8545   23.3012 C   0  0  0  0  0  0
  -29.7224  -16.1785   19.7821 C   0  0  0  0  0  0
  -29.4278  -24.0446   22.9136 C   0  0  0  0  0  0
  -27.6955  -22.2319   22.1853 C   0  0  0  0  0  0
  -30.0527  -23.8443   21.5194 C   0  0  0  0  0  0
  -29.0077  -23.4298   20.4635 C   0  0  2  0  0  0
  -29.3496  -17.2990   16.6643 C   0  0  0  0  0  0
  -27.9683  -24.7159   20.1903 C   0  0  0  0  0  0
  -28.4507  -16.8992   17.8402 C   0  0  0  0  0  0
  -29.1413  -15.9184   18.6660 N   0  0  0  0  0  0
  -28.4305  -22.0618   20.9095 N   0  0  0  0  0  0
  -28.5094  -22.4396   24.4614 O   0  0  0  0  0  0
  -31.4775  -12.7020   19.1560 H   0  0  0  0  0  0
  -30.4401  -11.5900   20.0145 H   0  0  0  0  0  0
  -29.8188  -11.6722   17.5775 H   0  0  0  0  0  0
  -29.6115  -13.3986   17.6609 H   0  0  0  0  0  0
  -27.9285  -11.2448   18.9710 H   0  0  0  0  0  0
  -27.3832  -12.4266   17.8080 H   0  0  0  0  0  0
  -27.5490  -14.2036   19.3842 H   0  0  0  0  0  0
  -28.7541  -12.3002   21.4529 H   0  0  0  0  0  0
  -28.3948  -13.9893   21.7126 H   0  0  0  0  0  0
  -25.2760   -9.5653   22.4776 H   0  0  0  0  0  0
  -24.0003   -7.4600   22.7462 H   0  0  0  0  0  0
  -21.0868   -8.8755   19.8933 H   0  0  0  0  0  0
  -22.3716  -10.9665   19.6172 H   0  0  0  0  0  0
  -21.2003   -7.6152   23.9723 H   0  0  0  0  0  0
  -21.1474   -6.0526   25.9081 H   0  0  0  0  0  0
  -22.0610   -2.7616   23.2837 H   0  0  0  0  0  0
  -22.4101  -11.9825   22.4817 H   0  0  0  0  0  0
  -21.1077  -13.1170   22.2666 H   0  0  0  0  0  0
  -24.6574  -15.8423   20.5097 H   0  0  0  0  0  0
  -26.2643  -15.6055   20.0395 H   0  0  0  0  0  0
  -26.7263  -32.5333   23.1014 H   0  0  0  0  0  0
  -25.0053  -33.9613   25.0302 H   0  0  0  0  0  0
  -22.7412  -31.2913   21.3860 H   0  0  0  0  0  0
  -23.3745  -35.9594   23.3293 H   0  0  0  0  0  0
  -24.3576  -36.8903   22.2064 H   0  0  0  0  0  0
  -23.7255  -37.6448   23.6699 H   0  0  0  0  0  0
  -26.1315  -31.4936   20.6065 H   0  0  0  0  0  0
  -26.8674  -30.7952   22.0140 H   0  0  0  0  0  0
  -28.1297  -28.8452   21.2260 H   0  0  0  0  0  0
  -25.9149  -25.8659   19.0087 H   0  0  0  0  0  0
  -23.9747  -27.2998   18.9924 H   0  0  0  0  0  0
  -23.7931  -30.5712   19.3988 H   0  0  0  0  0  0
  -22.7793  -29.2326   19.8489 H   0  0  0  0  0  0
  -25.1299  -36.1843   25.0800 H   0  0  0  0  0  0
  -20.9980  -28.3308   24.1375 H   0  0  0  0  0  0
  -20.5684  -26.2322   23.3625 H   0  0  0  0  0  0
  -21.6649  -26.7446   22.1198 H   0  0  0  0  0  0
  -19.6918  -25.6283   21.1257 H   0  0  0  0  0  0
  -19.6691  -27.3189   20.6730 H   0  0  0  0  0  0
  -17.4201  -26.6661   21.4040 H   0  0  0  0  0  0
  -18.0347  -26.0103   22.9046 H   0  0  0  0  0  0
  -19.7965  -30.7321   24.2165 H   0  0  0  0  0  0
  -17.5038  -31.6264   24.5201 H   0  0  0  0  0  0
  -15.5365  -30.2971   23.7710 H   0  0  0  0  0  0
  -15.8689  -28.0857   22.7011 H   0  0  0  0  0  0
  -24.5873  -30.7104   25.7731 H   0  0  0  0  0  0
  -24.8903  -32.2931   26.4774 H   0  0  0  0  0  0
  -25.7984  -30.8952   27.0210 H   0  0  0  0  0  0
  -26.3008  -29.6674   24.1255 H   0  0  0  0  0  0
  -27.4029  -29.7252   25.4802 H   0  0  0  0  0  0
  -27.8891  -30.4196   23.9532 H   0  0  0  0  0  0
  -27.2624  -33.3611   26.2049 H   0  0  0  0  0  0
  -28.3893  -32.6873   25.0369 H   0  0  0  0  0  0
  -28.0679  -31.8454   26.5450 H   0  0  0  0  0  0
  -28.2565  -38.0091   24.7511 H   0  0  0  0  0  0
  -28.1073  -36.2626   24.6281 H   0  0  0  0  0  0
  -27.2293  -37.1411   25.8867 H   0  0  0  0  0  0
  -20.9477  -29.8725   21.6793 H   0  0  0  0  0  0
  -26.0136  -38.2799   24.1428 H   0  0  0  0  0  0
  -27.7003  -17.4163   21.2541 H   0  0  0  0  0  0
  -31.3664  -18.5683   19.4040 H   0  0  0  0  0  0
  -27.1047  -19.6933   21.5243 H   0  0  0  0  0  0
  -30.8185  -20.9349   19.7607 H   0  0  0  0  0  0
  -30.2036  -24.1865   23.6653 H   0  0  0  0  0  0
  -28.8085  -24.9409   22.9203 H   0  0  0  0  0  0
  -26.8235  -22.8637   22.0282 H   0  0  0  0  0  0
  -27.2905  -21.3167   22.6038 H   0  0  0  0  0  0
  -30.8310  -23.0822   21.5890 H   0  0  0  0  0  0
  -30.5530  -24.7619   21.2074 H   0  0  0  0  0  0
  -29.5496  -23.2547   19.5330 H   0  0  0  0  0  0
  -28.8359  -17.9983   16.0043 H   0  0  0  0  0  0
  -29.6255  -16.4295   16.0681 H   0  0  0  0  0  0
  -30.2693  -17.7775   17.0043 H   0  0  0  0  0  0
  -27.1301  -24.6123   20.8780 H   0  0  0  0  0  0
  -27.5486  -24.5109   19.2060 H   0  0  0  0  0  0
  -27.5365  -16.4512   17.4488 H   0  0  0  0  0  0
  -28.1147  -17.7899   18.3691 H   0  0  0  0  0  0
  1 25  1  0  0  0
  1 30  2  0  0  0
  1 78  1  0  0  0
  2  3  1  0  0  0
  2 25  1  0  0  0
  2 89  1  0  0  0
  2 90  1  0  0  0
  3  4  1  0  0  0
  3 91  1  0  0  0
  3 92  1  0  0  0
  4  5  1  0  0  0
  4 93  1  0  0  0
  4 94  1  0  0  0
  5  6  1  0  0  0
  5 26  1  0  0  0
  5 95  1  0  0  0
  6 25  1  0  0  0
  6 96  1  0  0  0
  6 97  1  0  0  0
  7  8  2  0  0  0
  7 26  1  0  0  0
  7 29  1  0  0  0
  8  9  1  0  0  0
  8 22  1  0  0  0
  9 10  1  0  0  0
  9 27  2  0  0  0
 10 11  2  0  0  0
 10 15  1  0  0  0
 11 12  1  0  0  0
 11 98  1  0  0  0
 12 13  2  0  0  0
 12 99  1  0  0  0
 13 14  1  0  0  0
 13 31  1  0  0  0
 14 15  2  0  0  0
 14100  1  0  0  0
 15101  1  0  0  0
 16 17  2  0  0  0
 16 21  1  0  0  0
 16 31  1  0  0  0
 17 18  1  0  0  0
 17102  1  0  0  0
 18 19  2  0  0  0
 18103  1  0  0  0
 19 20  1  0  0  0
 19 24  1  0  0  0
 20 21  2  0  0  0
 20104  1  0  0  0
 21 23  1  0  0  0
 22 28  1  0  0  0
 22 32  2  0  0  0
 26 27  1  0  0  0
 28105  1  0  0  0
 28106  1  0  0  0
 29107  1  0  0  0
 29108  1  0  0  0
 33 34  1  0  0  0
 33 66  1  0  0  0
 33 70  2  0  0  0
 34 36  1  0  0  0
 34 59  1  0  0  0
 34109  1  0  0  0
 35 44  2  0  0  0
 35 45  1  0  0  0
 35 68  1  0  0  0
 36 56  1  0  0  0
 36110  1  0  0  0
 37 39  1  0  0  0
 37 47  1  0  0  0
 37 66  1  0  0  0
 37111  1  0  0  0
 38 43  2  0  0  0
 38 46  1  0  0  0
 38 47  1  0  0  0
 39 64  1  0  0  0
 39 67  2  0  0  0
 40 52  1  0  0  0
 40 53  2  0  0  0
 40 58  1  0  0  0
 41112  1  0  0  0
 41113  1  0  0  0
 41114  1  0  0  0
 41 48  1  0  0  0
 42 43  1  0  0  0
 42 66  1  0  0  0
 42115  1  0  0  0
 42116  1  0  0  0
 43 44  1  0  0  0
 44117  1  0  0  0
 45 46  2  0  0  0
 45118  1  0  0  0
 46119  1  0  0  0
 47120  1  0  0  0
 47121  1  0  0  0
 48 56  1  0  0  0
 48 65  1  0  0  0
 48122  1  0  0  0
 49 50  1  0  0  0
 49 53  1  0  0  0
 49 64  1  0  0  0
 49123  1  0  0  0
 50 51  1  0  0  0
 50124  1  0  0  0
 50125  1  0  0  0
 51 52  1  0  0  0
 51126  1  0  0  0
 51127  1  0  0  0
 52128  1  0  0  0
 52129  1  0  0  0
 53 54  1  0  0  0
 54 55  2  0  0  0
 54130  1  0  0  0
 55 57  1  0  0  0
 55131  1  0  0  0
 56 69  2  0  0  0
 57 58  2  0  0  0
 57132  1  0  0  0
 58133  1  0  0  0
 59 60  1  0  0  0
 59 61  1  0  0  0
 59 62  1  0  0  0
 60134  1  0  0  0
 60135  1  0  0  0
 60136  1  0  0  0
 61137  1  0  0  0
 61138  1  0  0  0
 61139  1  0  0  0
 62140  1  0  0  0
 62141  1  0  0  0
 62142  1  0  0  0
 63 65  1  0  0  0
 63143  1  0  0  0
 63144  1  0  0  0
 63145  1  0  0  0
 64146  1  0  0  0
 65147  1  0  0  0
 68 84  1  0  0  0
 71 73  2  0  0  0
 71 75  1  0  0  0
 71148  1  0  0  0
 72 74  1  0  0  0
 72 75  2  0  0  0
 72149  1  0  0  0
 73 76  1  0  0  0
 73150  1  0  0  0
 74 76  2  0  0  0
 74151  1  0  0  0
 75 78  1  0  0  0
 76 87  1  0  0  0
 77 79  1  0  0  0
 77 80  1  0  0  0
 77 88  2  0  0  0
 78 86  2  0  0  0
 79 81  1  0  0  0
 79152  1  0  0  0
 79153  1  0  0  0
 80 87  1  0  0  0
 80154  1  0  0  0
 80155  1  0  0  0
 81 82  1  0  0  0
 81156  1  0  0  0
 81157  1  0  0  0
 82 84  1  0  0  0
 82 87  1  0  0  0
 82158  1  0  0  0
 83 85  1  0  0  0
 83159  1  0  0  0
 83160  1  0  0  0
 83161  1  0  0  0
 84162  1  0  0  0
 84163  1  0  0  0
 85 86  1  0  0  0
 85164  1  0  0  0
 85165  1  0  0  0
M  ISO  4   1 100  68 101  78 100  84 101
M  END
> <chiral flag>
0

> <version>
0

> <s_m_source_file>
/data/baiqing/PycharmProjects/Reinvent-master-3.2/result/LINK_invent/BTK/process_docking_weight1_custom_product_contain_oxygen_bond_distance_aromatic_linkinvent_7_9_3/rearranged_h_0101.sdf

> <i_m_source_file_index>
52

> <r_mmod_Potential_Energy-OPLS-2005>
697.217163085938

> <r_mmod_Stretch_Energy-OPLS-2005>
213.141220092773

> <r_mmod_Bend_Energy-OPLS-2005>
266.702484130859

> <r_mmod_Torsional_Energy-OPLS-2005>
287.304870605469

> <r_mmod_Improper_Torsional_Energy-OPLS-2005>
28.4209861755371

> <r_mmod_Van_der_Waal_Energy-OPLS-2005>
150.30094909668

> <r_mmod_Electrostatic_Energy-OPLS-2005>
-195.649978637695

> <r_mmod_Solvation_Energy-OPLS-2005>
-218.256454467773

> <b_mmod_Minimization_Converged-OPLS-2005>
0

> <r_mmod_RMS_Derivative-OPLS-2005>
2.23311305046082

$$$$
52
                    3D
 Structure written by MMmdl.
166175  0  0  1  0            999 V2000
  -30.7600  -14.4231   20.6489 C   0  0  0  0  0  0
  -30.4134  -12.3024   19.4193 C   0  0  0  0  0  0
  -29.4902  -12.5135   18.2044 C   0  0  0  0  0  0
  -28.0130  -12.3706   18.6169 C   0  0  0  0  0  0
  -27.6621  -13.2093   19.8742 C   0  0  2  0  0  0
  -28.7002  -12.9853   20.9958 C   0  0  0  0  0  0
  -25.2579  -13.8175   20.5678 C   0  0  0  0  0  0
  -24.1834  -13.0450   20.9173 C   0  0  0  0  0  0
  -24.6378  -11.6910   20.8725 C   0  0  0  0  0  0
  -23.9048  -10.4300   21.0395 C   0  0  0  0  0  0
  -24.3601   -9.4218   21.9185 C   0  0  0  0  0  0
  -23.6276   -8.2254   22.0760 C   0  0  0  0  0  0
  -22.4263   -8.0284   21.3545 C   0  0  0  0  0  0
  -21.9885   -9.0259   20.4650 C   0  0  0  0  0  0
  -22.7212  -10.2134   20.3056 C   0  0  0  0  0  0
  -21.6846   -6.0725   22.5283 C   0  0  0  0  0  0
  -21.4020   -6.5634   23.8215 C   0  0  0  0  0  0
  -21.3666   -5.6788   24.9184 C   0  0  0  0  0  0
  -21.6037   -4.3051   24.7225 C   0  0  0  0  0  0
  -21.8817   -3.8138   23.4351 C   0  0  0  0  0  0
  -21.9184   -4.6955   22.3403 C   0  0  0  0  0  0
  -22.7844  -13.5237   21.1828 C   0  0  0  0  0  0
  -22.1645   -4.2146   21.0978 F   0  0  0  0  0  0
  -21.5630   -3.4530   25.7732 F   0  0  0  0  0  0
  -30.0409  -13.2791   20.4557 N   0  0  0  0  0  0
  -26.3023  -12.9350   20.3367 N   0  0  0  0  0  0
  -25.9308  -11.6501   20.5767 N   0  0  0  0  0  0
  -22.0479  -12.8264   22.0402 N   0  0  0  0  0  0
  -25.4282  -15.1902   20.4089 N   0  0  0  0  0  0
  -31.7996  -14.6623   20.0248 O   0  0  0  0  0  0
  -21.6640   -6.8876   21.4244 O   0  0  0  0  0  0
  -22.3532  -14.5548   20.6675 O   0  0  0  0  0  0
  -24.6152  -31.8675   23.2090 C   0  0  0  0  0  0
  -25.9047  -32.4813   23.8387 C   0  0  1  0  0  0
  -27.2362  -27.4168   20.0879 C   0  0  0  0  0  0
  -25.5902  -33.8614   24.2326 N   0  0  0  0  0  0
  -23.4034  -30.4907   21.5496 C   0  0  2  0  0  0
  -24.8478  -28.9568   20.1104 C   0  0  0  0  0  0
  -22.7421  -29.4654   22.4986 C   0  0  0  0  0  0
  -18.0275  -28.1371   22.8493 C   0  0  0  0  0  0
  -24.1487  -36.7294   23.2639 C   0  0  0  0  0  0
  -25.9343  -30.8271   21.3644 C   0  0  0  0  0  0
  -26.0090  -29.4604   20.7073 C   0  0  0  0  0  0
  -27.2000  -28.6965   20.6948 C   0  0  0  0  0  0
  -26.0460  -26.9267   19.4996 C   0  0  0  0  0  0
  -24.8631  -27.6890   19.5057 C   0  0  0  0  0  0
  -23.6099  -29.8248   20.1627 C   0  0  0  0  0  0
  -25.4109  -36.3109   24.0346 C   0  0  1  0  0  0
  -20.5859  -28.3660   23.1315 C   0  0  2  0  0  0
  -20.6754  -26.9402   22.5410 C   0  0  0  0  0  0
  -19.5736  -26.6391   21.5207 C   0  0  0  0  0  0
  -18.1920  -26.7919   22.1626 C   0  0  0  0  0  0
  -19.1520  -28.8833   23.2897 C   0  0  0  0  0  0
  -18.9456  -30.1436   23.8913 C   0  0  0  0  0  0
  -17.6457  -30.6581   24.0563 C   0  0  0  0  0  0
  -25.9037  -34.9472   23.5135 C   0  0  0  0  0  0
  -16.5344  -29.9081   23.6323 C   0  0  0  0  0  0
  -16.7261  -28.6490   23.0353 C   0  0  0  0  0  0
  -26.4479  -31.6575   25.0705 C   0  0  0  0  0  0
  -25.3747  -31.3664   26.1455 C   0  0  0  0  0  0
  -27.0301  -30.3014   24.6065 C   0  0  0  0  0  0
  -27.6067  -32.4277   25.7462 C   0  0  0  0  0  0
  -27.5577  -37.1811   24.8478 C   0  0  0  0  0  0
  -21.4144  -29.3032   22.3734 N   0  0  0  0  0  0
  -26.4294  -37.3788   23.9410 N   0  0  0  0  0  0
  -24.6693  -31.0771   22.0987 N   0  0  0  0  0  0
  -23.4197  -28.8209   23.3034 O   0  0  0  0  0  0
  -28.4169  -26.6927   20.1520 O   0  0  0  0  0  0
  -26.5607  -34.8922   22.4705 O   0  0  0  0  0  0
  -23.5344  -32.1449   23.7473 O   0  0  0  0  0  0
  -28.6110  -18.6658   21.9871 C   0  0  0  0  0  0
  -29.0596  -17.3494   22.2334 C   0  0  0  0  0  0
  -30.1338  -17.3059   20.0654 C   0  0  0  0  0  0
  -28.9201  -19.3253   20.7788 C   0  0  0  0  0  0
  -29.8355  -16.6346   21.2851 C   0  0  0  0  0  0
  -29.6907  -18.6288   19.8194 C   0  0  0  0  0  0
  -30.2312  -22.0832   21.4182 C   0  0  0  0  0  0
  -28.4789  -23.1268   20.2240 C   0  0  0  0  0  0
  -30.6883  -23.4561   21.9550 C   0  0  0  0  0  0
  -30.3799  -24.6552   21.0298 C   0  0  0  0  0  0
  -29.3812  -24.3473   19.8990 C   0  0  2  0  0  0
  -31.6177  -15.7428   23.6725 C   0  0  0  0  0  0
  -28.3208  -20.7160   20.4794 C   0  0  0  0  0  0
  -28.6998  -25.6019   19.2499 C   0  0  0  0  0  0
  -30.5276  -14.8958   22.9948 C   0  0  0  0  0  0
  -29.0635  -21.9960   20.7228 N   0  0  0  0  0  0
  -30.2970  -15.2894   21.5881 N   0  0  0  0  0  0
  -30.9286  -21.1102   21.7148 O   0  0  0  0  0  0
  -27.2789  -23.1709   19.9241 O   0  0  0  0  0  0
  -29.9904  -19.2201   18.6381 F   0  0  0  0  0  0
  -31.4609  -12.3801   19.1231 H   0  0  0  0  0  0
  -30.2951  -11.2892   19.8092 H   0  0  0  0  0  0
  -29.7300  -11.7938   17.4199 H   0  0  0  0  0  0
  -29.6618  -13.5025   17.7780 H   0  0  0  0  0  0
  -27.8275  -11.3144   18.8158 H   0  0  0  0  0  0
  -27.3599  -12.6436   17.7876 H   0  0  0  0  0  0
  -27.7096  -14.2601   19.5829 H   0  0  0  0  0  0
  -28.6687  -11.9505   21.3418 H   0  0  0  0  0  0
  -28.4404  -13.5891   21.8643 H   0  0  0  0  0  0
  -25.2748   -9.5695   22.4757 H   0  0  0  0  0  0
  -23.9977   -7.4651   22.7482 H   0  0  0  0  0  0
  -21.0812   -8.8776   19.8966 H   0  0  0  0  0  0
  -22.3666  -10.9673   19.6169 H   0  0  0  0  0  0
  -21.2027   -7.6142   23.9719 H   0  0  0  0  0  0
  -21.1490   -6.0522   25.9088 H   0  0  0  0  0  0
  -22.0585   -2.7598   23.2849 H   0  0  0  0  0  0
  -22.4066  -11.9921   22.4816 H   0  0  0  0  0  0
  -21.1112  -13.1346   22.2620 H   0  0  0  0  0  0
  -24.6619  -15.8442   20.5323 H   0  0  0  0  0  0
  -26.2861  -15.6349   20.1112 H   0  0  0  0  0  0
  -26.7114  -32.5529   23.1144 H   0  0  0  0  0  0
  -25.0064  -33.9782   25.0483 H   0  0  0  0  0  0
  -22.6924  -31.3075   21.4107 H   0  0  0  0  0  0
  -23.3747  -35.9631   23.3341 H   0  0  0  0  0  0
  -24.3579  -36.8865   22.2046 H   0  0  0  0  0  0
  -23.7249  -37.6512   23.6626 H   0  0  0  0  0  0
  -26.0539  -31.5960   20.5995 H   0  0  0  0  0  0
  -26.8210  -30.8760   21.9860 H   0  0  0  0  0  0
  -28.0952  -29.0856   21.1594 H   0  0  0  0  0  0
  -25.9826  -25.9460   19.0577 H   0  0  0  0  0  0
  -23.9661  -27.2903   19.0526 H   0  0  0  0  0  0
  -23.7172  -30.6009   19.4028 H   0  0  0  0  0  0
  -22.7331  -29.2417   19.8703 H   0  0  0  0  0  0
  -25.1290  -36.1979   25.0839 H   0  0  0  0  0  0
  -20.9944  -28.3221   24.1438 H   0  0  0  0  0  0
  -20.5649  -26.2282   23.3604 H   0  0  0  0  0  0
  -21.6632  -26.7444   22.1221 H   0  0  0  0  0  0
  -19.6905  -25.6311   21.1224 H   0  0  0  0  0  0
  -19.6662  -27.3209   20.6742 H   0  0  0  0  0  0
  -17.4189  -26.6664   21.4024 H   0  0  0  0  0  0
  -18.0321  -26.0053   22.9011 H   0  0  0  0  0  0
  -19.7929  -30.7242   24.2299 H   0  0  0  0  0  0
  -17.5011  -31.6267   24.5159 H   0  0  0  0  0  0
  -15.5342  -30.2990   23.7637 H   0  0  0  0  0  0
  -15.8661  -28.0812   22.7069 H   0  0  0  0  0  0
  -24.5938  -30.6987   25.7789 H   0  0  0  0  0  0
  -24.8905  -32.2793   26.4909 H   0  0  0  0  0  0
  -25.8104  -30.8838   27.0206 H   0  0  0  0  0  0
  -26.2825  -29.6785   24.1123 H   0  0  0  0  0  0
  -27.4081  -29.7241   25.4507 H   0  0  0  0  0  0
  -27.8666  -30.4335   23.9202 H   0  0  0  0  0  0
  -27.2712  -33.3572   26.2068 H   0  0  0  0  0  0
  -28.3860  -32.6833   25.0273 H   0  0  0  0  0  0
  -28.0749  -31.8373   26.5351 H   0  0  0  0  0  0
  -28.2637  -38.0064   24.7494 H   0  0  0  0  0  0
  -28.1038  -36.2606   24.6355 H   0  0  0  0  0  0
  -27.2302  -37.1525   25.8882 H   0  0  0  0  0  0
  -20.9315  -29.8748   21.6947 H   0  0  0  0  0  0
  -26.0195  -38.2879   24.1362 H   0  0  0  0  0  0
  -28.0018  -19.1602   22.7319 H   0  0  0  0  0  0
  -28.7814  -16.8956   23.1716 H   0  0  0  0  0  0
  -30.7205  -16.8314   19.2934 H   0  0  0  0  0  0
  -31.7514  -23.4300   22.2005 H   0  0  0  0  0  0
  -30.1720  -23.6033   22.9059 H   0  0  0  0  0  0
  -31.3104  -25.0097   20.5842 H   0  0  0  0  0  0
  -30.0170  -25.4776   21.6440 H   0  0  0  0  0  0
  -29.9864  -23.9342   19.0893 H   0  0  0  0  0  0
  -31.7990  -15.3907   24.6880 H   0  0  0  0  0  0
  -31.3372  -16.7931   23.7407 H   0  0  0  0  0  0
  -32.5615  -15.6857   23.1281 H   0  0  0  0  0  0
  -28.0342  -20.6904   19.4256 H   0  0  0  0  0  0
  -27.3798  -20.7769   21.0257 H   0  0  0  0  0  0
  -27.8623  -25.2876   18.6340 H   0  0  0  0  0  0
  -29.3982  -26.0140   18.5222 H   0  0  0  0  0  0
  -29.5958  -14.9467   23.5578 H   0  0  0  0  0  0
  -30.8290  -13.8472   23.0676 H   0  0  0  0  0  0
  1 25  1  0  0  0
  1 30  2  0  0  0
  1 87  1  0  0  0
  2  3  1  0  0  0
  2 25  1  0  0  0
  2 91  1  0  0  0
  2 92  1  0  0  0
  3  4  1  0  0  0
  3 93  1  0  0  0
  3 94  1  0  0  0
  4  5  1  0  0  0
  4 95  1  0  0  0
  4 96  1  0  0  0
  5  6  1  0  0  0
  5 26  1  0  0  0
  5 97  1  0  0  0
  6 25  1  0  0  0
  6 98  1  0  0  0
  6 99  1  0  0  0
  7  8  2  0  0  0
  7 26  1  0  0  0
  7 29  1  0  0  0
  8  9  1  0  0  0
  8 22  1  0  0  0
  9 10  1  0  0  0
  9 27  2  0  0  0
 10 11  2  0  0  0
 10 15  1  0  0  0
 11 12  1  0  0  0
 11100  1  0  0  0
 12 13  2  0  0  0
 12101  1  0  0  0
 13 14  1  0  0  0
 13 31  1  0  0  0
 14 15  2  0  0  0
 14102  1  0  0  0
 15103  1  0  0  0
 16 17  2  0  0  0
 16 21  1  0  0  0
 16 31  1  0  0  0
 17 18  1  0  0  0
 17104  1  0  0  0
 18 19  2  0  0  0
 18105  1  0  0  0
 19 20  1  0  0  0
 19 24  1  0  0  0
 20 21  2  0  0  0
 20106  1  0  0  0
 21 23  1  0  0  0
 22 28  1  0  0  0
 22 32  2  0  0  0
 26 27  1  0  0  0
 28107  1  0  0  0
 28108  1  0  0  0
 29109  1  0  0  0
 29110  1  0  0  0
 33 34  1  0  0  0
 33 66  1  0  0  0
 33 70  2  0  0  0
 34 36  1  0  0  0
 34 59  1  0  0  0
 34111  1  0  0  0
 35 44  2  0  0  0
 35 45  1  0  0  0
 35 68  1  0  0  0
 36 56  1  0  0  0
 36112  1  0  0  0
 37 39  1  0  0  0
 37 47  1  0  0  0
 37 66  1  0  0  0
 37113  1  0  0  0
 38 43  2  0  0  0
 38 46  1  0  0  0
 38 47  1  0  0  0
 39 64  1  0  0  0
 39 67  2  0  0  0
 40 52  1  0  0  0
 40 53  2  0  0  0
 40 58  1  0  0  0
 41114  1  0  0  0
 41115  1  0  0  0
 41116  1  0  0  0
 41 48  1  0  0  0
 42 43  1  0  0  0
 42 66  1  0  0  0
 42117  1  0  0  0
 42118  1  0  0  0
 43 44  1  0  0  0
 44119  1  0  0  0
 45 46  2  0  0  0
 45120  1  0  0  0
 46121  1  0  0  0
 47122  1  0  0  0
 47123  1  0  0  0
 48 56  1  0  0  0
 48 65  1  0  0  0
 48124  1  0  0  0
 49 50  1  0  0  0
 49 53  1  0  0  0
 49 64  1  0  0  0
 49125  1  0  0  0
 50 51  1  0  0  0
 50126  1  0  0  0
 50127  1  0  0  0
 51 52  1  0  0  0
 51128  1  0  0  0
 51129  1  0  0  0
 52130  1  0  0  0
 52131  1  0  0  0
 53 54  1  0  0  0
 54 55  2  0  0  0
 54132  1  0  0  0
 55 57  1  0  0  0
 55133  1  0  0  0
 56 69  2  0  0  0
 57 58  2  0  0  0
 57134  1  0  0  0
 58135  1  0  0  0
 59 60  1  0  0  0
 59 61  1  0  0  0
 59 62  1  0  0  0
 60136  1  0  0  0
 60137  1  0  0  0
 60138  1  0  0  0
 61139  1  0  0  0
 61140  1  0  0  0
 61141  1  0  0  0
 62142  1  0  0  0
 62143  1  0  0  0
 62144  1  0  0  0
 63 65  1  0  0  0
 63145  1  0  0  0
 63146  1  0  0  0
 63147  1  0  0  0
 64148  1  0  0  0
 65149  1  0  0  0
 68 84  1  0  0  0
 71 72  2  0  0  0
 71 74  1  0  0  0
 71150  1  0  0  0
 72 75  1  0  0  0
 72151  1  0  0  0
 73 75  2  0  0  0
 73 76  1  0  0  0
 73152  1  0  0  0
 74 76  2  0  0  0
 74 83  1  0  0  0
 75 87  1  0  0  0
 76 90  1  0  0  0
 77 79  1  0  0  0
 77 86  1  0  0  0
 77 88  2  0  0  0
 78 81  1  0  0  0
 78 86  1  0  0  0
 78 89  2  0  0  0
 79 80  1  0  0  0
 79153  1  0  0  0
 79154  1  0  0  0
 80 81  1  0  0  0
 80155  1  0  0  0
 80156  1  0  0  0
 81 84  1  0  0  0
 81157  1  0  0  0
 82 85  1  0  0  0
 82158  1  0  0  0
 82159  1  0  0  0
 82160  1  0  0  0
 83 86  1  0  0  0
 83161  1  0  0  0
 83162  1  0  0  0
 84163  1  0  0  0
 84164  1  0  0  0
 85 87  1  0  0  0
 85165  1  0  0  0
 85166  1  0  0  0
M  ISO  4   1 100  68 101  84 101  87 100
M  END
> <chiral flag>
0

> <version>
0

> <s_m_source_file>
/data/baiqing/PycharmProjects/Reinvent-master-3.2/result/LINK_invent/BTK/process_docking_weight1_custom_product_contain_oxygen_bond_distance_aromatic_linkinvent_7_9_3/rearranged_h_0101.sdf

> <i_m_source_file_index>
53

> <r_mmod_Potential_Energy-OPLS-2005>
182.931793212891

> <r_mmod_Stretch_Energy-OPLS-2005>
55.583683013916

> <r_mmod_Bend_Energy-OPLS-2005>
141.198852539062

> <r_mmod_Torsional_Energy-OPLS-2005>
308.322387695312

> <r_mmod_Improper_Torsional_Energy-OPLS-2005>
3.80892395973206

> <r_mmod_Van_der_Waal_Energy-OPLS-2005>
183.902313232422

> <r_mmod_Electrostatic_Energy-OPLS-2005>
-316.816833496094

> <r_mmod_Solvation_Energy-OPLS-2005>
-204.88069152832

> <b_mmod_Minimization_Converged-OPLS-2005>
0

> <r_mmod_RMS_Derivative-OPLS-2005>
2.63006687164307

$$$$
53
                    3D
 Structure written by MMmdl.
167176  0  0  1  0            999 V2000
  -30.6708  -14.4315   20.5773 C   0  0  0  0  0  0
  -30.4121  -12.3012   19.3645 C   0  0  0  0  0  0
  -29.4759  -12.5384   18.1621 C   0  0  0  0  0  0
  -27.9972  -12.3877   18.5780 C   0  0  0  0  0  0
  -27.6508  -13.1970   19.8561 C   0  0  2  0  0  0
  -28.6944  -12.9308   20.9607 C   0  0  0  0  0  0
  -25.2557  -13.8137   20.5638 C   0  0  0  0  0  0
  -24.1798  -13.0416   20.9164 C   0  0  0  0  0  0
  -24.6345  -11.6888   20.8688 C   0  0  0  0  0  0
  -23.9020  -10.4266   21.0347 C   0  0  0  0  0  0
  -24.3588   -9.4206   21.9149 C   0  0  0  0  0  0
  -23.6276   -8.2229   22.0736 C   0  0  0  0  0  0
  -22.4258   -8.0236   21.3530 C   0  0  0  0  0  0
  -21.9875   -9.0198   20.4614 C   0  0  0  0  0  0
  -22.7194  -10.2078   20.3004 C   0  0  0  0  0  0
  -21.6854   -6.0690   22.5271 C   0  0  0  0  0  0
  -21.3995   -6.5629   23.8182 C   0  0  0  0  0  0
  -21.3656   -5.6791   24.9162 C   0  0  0  0  0  0
  -21.6044   -4.3046   24.7247 C   0  0  0  0  0  0
  -21.8817   -3.8116   23.4370 C   0  0  0  0  0  0
  -21.9209   -4.6918   22.3402 C   0  0  0  0  0  0
  -22.7823  -13.5217   21.1873 C   0  0  0  0  0  0
  -22.1659   -4.2095   21.0979 F   0  0  0  0  0  0
  -21.5661   -3.4529   25.7768 F   0  0  0  0  0  0
  -30.0172  -13.2560   20.4024 N   0  0  0  0  0  0
  -26.2949  -12.9273   20.3233 N   0  0  0  0  0  0
  -25.9257  -11.6458   20.5636 N   0  0  0  0  0  0
  -22.0453  -12.8177   22.0375 N   0  0  0  0  0  0
  -25.4328  -15.1845   20.4048 N   0  0  0  0  0  0
  -31.8170  -14.6455   20.1676 O   0  0  0  0  0  0
  -21.6668   -6.8820   21.4203 O   0  0  0  0  0  0
  -22.3502  -14.5542   20.6751 O   0  0  0  0  0  0
  -24.6237  -31.8649   23.2081 C   0  0  0  0  0  0
  -25.9134  -32.4776   23.8364 C   0  0  1  0  0  0
  -27.2247  -27.3857   20.0903 C   0  0  0  0  0  0
  -25.5992  -33.8566   24.2293 N   0  0  0  0  0  0
  -23.4087  -30.4930   21.5532 C   0  0  2  0  0  0
  -24.8505  -28.9503   20.1197 C   0  0  0  0  0  0
  -22.7467  -29.4659   22.5001 C   0  0  0  0  0  0
  -18.0270  -28.1421   22.8484 C   0  0  0  0  0  0
  -24.1471  -36.7182   23.2614 C   0  0  0  0  0  0
  -25.9472  -30.8152   21.3661 C   0  0  0  0  0  0
  -26.0215  -29.4500   20.7052 C   0  0  0  0  0  0
  -27.2130  -28.6789   20.6775 C   0  0  0  0  0  0
  -26.0238  -26.9117   19.5099 C   0  0  0  0  0  0
  -24.8475  -27.6835   19.5201 C   0  0  0  0  0  0
  -23.6171  -29.8250   20.1687 C   0  0  0  0  0  0
  -25.4082  -36.3018   24.0344 C   0  0  1  0  0  0
  -20.5876  -28.3675   23.1332 C   0  0  2  0  0  0
  -20.6767  -26.9419   22.5417 C   0  0  0  0  0  0
  -19.5760  -26.6409   21.5220 C   0  0  0  0  0  0
  -18.1918  -26.7977   22.1584 C   0  0  0  0  0  0
  -19.1525  -28.8868   23.2903 C   0  0  0  0  0  0
  -18.9459  -30.1470   23.8916 C   0  0  0  0  0  0
  -17.6448  -30.6610   24.0570 C   0  0  0  0  0  0
  -25.9073  -34.9432   23.5094 C   0  0  0  0  0  0
  -16.5332  -29.9094   23.6380 C   0  0  0  0  0  0
  -16.7250  -28.6531   23.0365 C   0  0  0  0  0  0
  -26.4543  -31.6572   25.0705 C   0  0  0  0  0  0
  -25.3784  -31.3704   26.1436 C   0  0  0  0  0  0
  -27.0369  -30.2995   24.6122 C   0  0  0  0  0  0
  -27.6153  -32.4250   25.7473 C   0  0  0  0  0  0
  -27.5598  -37.1675   24.8411 C   0  0  0  0  0  0
  -21.4189  -29.3020   22.3736 N   0  0  0  0  0  0
  -26.4180  -37.3794   23.9559 N   0  0  0  0  0  0
  -24.6794  -31.0724   22.0981 N   0  0  0  0  0  0
  -23.4224  -28.8181   23.3038 O   0  0  0  0  0  0
  -28.3843  -26.6193   20.0821 O   0  0  0  0  0  0
  -26.5606  -34.8938   22.4630 O   0  0  0  0  0  0
  -23.5436  -32.1416   23.7469 O   0  0  0  0  0  0
  -29.6918  -18.3168   20.4415 C   0  0  0  0  0  0
  -29.6917  -19.6852   20.0838 C   0  0  0  0  0  0
  -31.1475  -20.1835   21.9744 C   0  0  0  0  0  0
  -30.4277  -17.8772   21.5656 C   0  0  0  0  0  0
  -30.4158  -20.6331   20.8472 C   0  0  0  0  0  0
  -31.1459  -18.8135   22.3408 C   0  0  0  0  0  0
  -32.4923  -23.4989   20.8232 C   0  0  0  0  0  0
  -29.4026  -22.8551   20.5324 C   0  0  0  0  0  0
  -31.6783  -24.2468   21.8763 C   0  0  0  0  0  0
  -31.7856  -22.4704   19.9292 C   0  0  0  0  0  0
  -30.5291  -25.0794   21.2769 C   0  0  0  0  0  0
  -29.5829  -24.3903   20.2594 C   0  0  2  0  0  0
  -32.3023  -19.1504   24.4410 C   0  0  0  0  0  0
  -30.4689  -16.4219   22.0415 C   0  0  0  0  0  0
  -28.2364  -25.1785   20.2204 C   0  0  0  0  0  0
  -30.4817  -22.0141   20.4508 N   0  0  0  0  0  0
  -29.9353  -15.3778   21.1798 N   0  0  0  0  0  0
  -33.6928  -23.7393   20.6808 O   0  0  0  0  0  0
  -28.2763  -22.4300   20.8117 O   0  0  0  0  0  0
  -31.8256  -18.2934   23.4213 O   0  0  0  0  0  0
  -31.4558  -12.4110   19.0668 H   0  0  0  0  0  0
  -30.3064  -11.2758   19.7232 H   0  0  0  0  0  0
  -29.7122  -11.8484   17.3535 H   0  0  0  0  0  0
  -29.6354  -13.5405   17.7550 H   0  0  0  0  0  0
  -27.8002  -11.3266   18.7437 H   0  0  0  0  0  0
  -27.3442  -12.6891   17.7583 H   0  0  0  0  0  0
  -27.6999  -14.2533   19.5887 H   0  0  0  0  0  0
  -28.6663  -11.8782   21.2517 H   0  0  0  0  0  0
  -28.4555  -13.4814   21.8705 H   0  0  0  0  0  0
  -25.2720   -9.5745   22.4725 H   0  0  0  0  0  0
  -24.0011   -7.4635   22.7461 H   0  0  0  0  0  0
  -21.0812   -8.8665   19.8913 H   0  0  0  0  0  0
  -22.3627  -10.9588   19.6097 H   0  0  0  0  0  0
  -21.1921   -7.6146   23.9664 H   0  0  0  0  0  0
  -21.1482   -6.0534   25.9067 H   0  0  0  0  0  0
  -22.0600   -2.7576   23.2884 H   0  0  0  0  0  0
  -22.4020  -11.9804   22.4752 H   0  0  0  0  0  0
  -21.1049  -13.1160   22.2559 H   0  0  0  0  0  0
  -24.6674  -15.8427   20.4944 H   0  0  0  0  0  0
  -26.2869  -15.6142   20.0735 H   0  0  0  0  0  0
  -26.7206  -32.5469   23.1132 H   0  0  0  0  0  0
  -25.0330  -33.9718   25.0559 H   0  0  0  0  0  0
  -22.6966  -31.3085   21.4114 H   0  0  0  0  0  0
  -23.3905  -35.9319   23.2951 H   0  0  0  0  0  0
  -24.3676  -36.9120   22.2103 H   0  0  0  0  0  0
  -23.6974  -37.6164   23.6853 H   0  0  0  0  0  0
  -26.0779  -31.5870   20.6040 H   0  0  0  0  0  0
  -26.8280  -30.8550   21.9973 H   0  0  0  0  0  0
  -28.1198  -29.0589   21.1264 H   0  0  0  0  0  0
  -25.9615  -25.9444   19.0354 H   0  0  0  0  0  0
  -23.9440  -27.2965   19.0717 H   0  0  0  0  0  0
  -23.7258  -30.5946   19.4028 H   0  0  0  0  0  0
  -22.7434  -29.2397   19.8767 H   0  0  0  0  0  0
  -25.1240  -36.1751   25.0808 H   0  0  0  0  0  0
  -20.9936  -28.3193   24.1467 H   0  0  0  0  0  0
  -20.5691  -26.2270   23.3592 H   0  0  0  0  0  0
  -21.6632  -26.7490   22.1177 H   0  0  0  0  0  0
  -19.6908  -25.6324   21.1243 H   0  0  0  0  0  0
  -19.6753  -27.3219   20.6761 H   0  0  0  0  0  0
  -17.4239  -26.6800   21.3939 H   0  0  0  0  0  0
  -18.0235  -26.0087   22.8926 H   0  0  0  0  0  0
  -19.7928  -30.7292   24.2282 H   0  0  0  0  0  0
  -17.5013  -31.6318   24.5119 H   0  0  0  0  0  0
  -15.5337  -30.2988   23.7790 H   0  0  0  0  0  0
  -15.8631  -28.0862   22.7098 H   0  0  0  0  0  0
  -24.5988  -30.7032   25.7740 H   0  0  0  0  0  0
  -24.8978  -32.2884   26.4841 H   0  0  0  0  0  0
  -25.8112  -30.8891   27.0218 H   0  0  0  0  0  0
  -26.2915  -29.6691   24.1268 H   0  0  0  0  0  0
  -27.4227  -29.7289   25.4574 H   0  0  0  0  0  0
  -27.8709  -30.4261   23.9213 H   0  0  0  0  0  0
  -27.2897  -33.3697   26.1839 H   0  0  0  0  0  0
  -28.4129  -32.6514   25.0373 H   0  0  0  0  0  0
  -28.0611  -31.8442   26.5562 H   0  0  0  0  0  0
  -28.2318  -38.0253   24.7958 H   0  0  0  0  0  0
  -28.1392  -36.2885   24.5573 H   0  0  0  0  0  0
  -27.2470  -37.0430   25.8792 H   0  0  0  0  0  0
  -20.9379  -29.8702   21.6906 H   0  0  0  0  0  0
  -25.9995  -38.2758   24.1915 H   0  0  0  0  0  0
  -29.1256  -17.6150   19.8445 H   0  0  0  0  0  0
  -29.1430  -20.0050   19.2064 H   0  0  0  0  0  0
  -31.7171  -20.8995   22.5504 H   0  0  0  0  0  0
  -32.3428  -24.9103   22.4306 H   0  0  0  0  0  0
  -31.2896  -23.5277   22.6007 H   0  0  0  0  0  0
  -32.4618  -21.6213   19.8176 H   0  0  0  0  0  0
  -31.6681  -22.8859   18.9302 H   0  0  0  0  0  0
  -30.9594  -25.9547   20.7891 H   0  0  0  0  0  0
  -29.9430  -25.4789   22.1046 H   0  0  0  0  0  0
  -30.0256  -24.4720   19.2651 H   0  0  0  0  0  0
  -32.4709  -18.5385   25.3268 H   0  0  0  0  0  0
  -31.5819  -19.9201   24.7087 H   0  0  0  0  0  0
  -33.2519  -19.6026   24.1643 H   0  0  0  0  0  0
  -29.9094  -16.3793   22.9779 H   0  0  0  0  0  0
  -31.4967  -16.1593   22.3009 H   0  0  0  0  0  0
  -27.6894  -24.9833   21.1466 H   0  0  0  0  0  0
  -27.6394  -24.7537   19.4133 H   0  0  0  0  0  0
  -28.9651  -15.1416   21.3170 H   0  0  0  0  0  0
  1 25  1  0  0  0
  1 30  2  0  0  0
  1 87  1  0  0  0
  2  3  1  0  0  0
  2 25  1  0  0  0
  2 91  1  0  0  0
  2 92  1  0  0  0
  3  4  1  0  0  0
  3 93  1  0  0  0
  3 94  1  0  0  0
  4  5  1  0  0  0
  4 95  1  0  0  0
  4 96  1  0  0  0
  5  6  1  0  0  0
  5 26  1  0  0  0
  5 97  1  0  0  0
  6 25  1  0  0  0
  6 98  1  0  0  0
  6 99  1  0  0  0
  7  8  2  0  0  0
  7 26  1  0  0  0
  7 29  1  0  0  0
  8  9  1  0  0  0
  8 22  1  0  0  0
  9 10  1  0  0  0
  9 27  2  0  0  0
 10 11  2  0  0  0
 10 15  1  0  0  0
 11 12  1  0  0  0
 11100  1  0  0  0
 12 13  2  0  0  0
 12101  1  0  0  0
 13 14  1  0  0  0
 13 31  1  0  0  0
 14 15  2  0  0  0
 14102  1  0  0  0
 15103  1  0  0  0
 16 17  2  0  0  0
 16 21  1  0  0  0
 16 31  1  0  0  0
 17 18  1  0  0  0
 17104  1  0  0  0
 18 19  2  0  0  0
 18105  1  0  0  0
 19 20  1  0  0  0
 19 24  1  0  0  0
 20 21  2  0  0  0
 20106  1  0  0  0
 21 23  1  0  0  0
 22 28  1  0  0  0
 22 32  2  0  0  0
 26 27  1  0  0  0
 28107  1  0  0  0
 28108  1  0  0  0
 29109  1  0  0  0
 29110  1  0  0  0
 33 34  1  0  0  0
 33 66  1  0  0  0
 33 70  2  0  0  0
 34 36  1  0  0  0
 34 59  1  0  0  0
 34111  1  0  0  0
 35 44  2  0  0  0
 35 45  1  0  0  0
 35 68  1  0  0  0
 36 56  1  0  0  0
 36112  1  0  0  0
 37 39  1  0  0  0
 37 47  1  0  0  0
 37 66  1  0  0  0
 37113  1  0  0  0
 38 43  2  0  0  0
 38 46  1  0  0  0
 38 47  1  0  0  0
 39 64  1  0  0  0
 39 67  2  0  0  0
 40 52  1  0  0  0
 40 53  2  0  0  0
 40 58  1  0  0  0
 41114  1  0  0  0
 41115  1  0  0  0
 41116  1  0  0  0
 41 48  1  0  0  0
 42 43  1  0  0  0
 42 66  1  0  0  0
 42117  1  0  0  0
 42118  1  0  0  0
 43 44  1  0  0  0
 44119  1  0  0  0
 45 46  2  0  0  0
 45120  1  0  0  0
 46121  1  0  0  0
 47122  1  0  0  0
 47123  1  0  0  0
 48 56  1  0  0  0
 48 65  1  0  0  0
 48124  1  0  0  0
 49 50  1  0  0  0
 49 53  1  0  0  0
 49 64  1  0  0  0
 49125  1  0  0  0
 50 51  1  0  0  0
 50126  1  0  0  0
 50127  1  0  0  0
 51 52  1  0  0  0
 51128  1  0  0  0
 51129  1  0  0  0
 52130  1  0  0  0
 52131  1  0  0  0
 53 54  1  0  0  0
 54 55  2  0  0  0
 54132  1  0  0  0
 55 57  1  0  0  0
 55133  1  0  0  0
 56 69  2  0  0  0
 57 58  2  0  0  0
 57134  1  0  0  0
 58135  1  0  0  0
 59 60  1  0  0  0
 59 61  1  0  0  0
 59 62  1  0  0  0
 60136  1  0  0  0
 60137  1  0  0  0
 60138  1  0  0  0
 61139  1  0  0  0
 61140  1  0  0  0
 61141  1  0  0  0
 62142  1  0  0  0
 62143  1  0  0  0
 62144  1  0  0  0
 63 65  1  0  0  0
 63145  1  0  0  0
 63146  1  0  0  0
 63147  1  0  0  0
 64148  1  0  0  0
 65149  1  0  0  0
 68 85  1  0  0  0
 71 72  2  0  0  0
 71 74  1  0  0  0
 71150  1  0  0  0
 72 75  1  0  0  0
 72151  1  0  0  0
 73 75  2  0  0  0
 73 76  1  0  0  0
 73152  1  0  0  0
 74 76  2  0  0  0
 74 84  1  0  0  0
 75 86  1  0  0  0
 76 90  1  0  0  0
 77 79  1  0  0  0
 77 80  1  0  0  0
 77 88  2  0  0  0
 78 82  1  0  0  0
 78 86  1  0  0  0
 78 89  2  0  0  0
 79 81  1  0  0  0
 79153  1  0  0  0
 79154  1  0  0  0
 80 86  1  0  0  0
 80155  1  0  0  0
 80156  1  0  0  0
 81 82  1  0  0  0
 81157  1  0  0  0
 81158  1  0  0  0
 82 85  1  0  0  0
 82159  1  0  0  0
 83 90  1  0  0  0
 83160  1  0  0  0
 83161  1  0  0  0
 83162  1  0  0  0
 84 87  1  0  0  0
 84163  1  0  0  0
 84164  1  0  0  0
 85165  1  0  0  0
 85166  1  0  0  0
 87167  1  0  0  0
M  ISO  4   1 100  68 101  85 101  87 100
M  END
> <chiral flag>
0

> <version>
0

> <s_m_source_file>
/data/baiqing/PycharmProjects/Reinvent-master-3.2/result/LINK_invent/BTK/process_docking_weight1_custom_product_contain_oxygen_bond_distance_aromatic_linkinvent_7_9_3/rearranged_h_0101.sdf

> <i_m_source_file_index>
54

> <r_mmod_Potential_Energy-OPLS-2005>
-14.9599256515503

> <r_mmod_Stretch_Energy-OPLS-2005>
48.4733619689941

> <r_mmod_Bend_Energy-OPLS-2005>
122.916679382324

> <r_mmod_Torsional_Energy-OPLS-2005>
284.629760742188

> <r_mmod_Improper_Torsional_Energy-OPLS-2005>
3.64301300048828

> <r_mmod_Van_der_Waal_Energy-OPLS-2005>
176.961853027344

> <r_mmod_Electrostatic_Energy-OPLS-2005>
-423.6015625

> <r_mmod_Solvation_Energy-OPLS-2005>
-245.868316650391

> <b_mmod_Minimization_Converged-OPLS-2005>
0

> <r_mmod_RMS_Derivative-OPLS-2005>
5.76733589172363

$$$$
54
                    3D
 Structure written by MMmdl.
161169  0  0  1  0            999 V2000
  -30.6477  -14.7057   20.3312 C   0  0  0  0  0  0
  -30.4406  -12.3851   19.4632 C   0  0  0  0  0  0
  -29.5040  -12.3305   18.2328 C   0  0  0  0  0  0
  -28.0194  -12.2783   18.6489 C   0  0  0  0  0  0
  -27.6419  -13.2178   19.8286 C   0  0  2  0  0  0
  -28.7018  -13.2014   20.9499 C   0  0  0  0  0  0
  -25.2563  -13.8186   20.5692 C   0  0  0  0  0  0
  -24.1832  -13.0447   20.9203 C   0  0  0  0  0  0
  -24.6408  -11.6921   20.8797 C   0  0  0  0  0  0
  -23.9084  -10.4295   21.0440 C   0  0  0  0  0  0
  -24.3631   -9.4197   21.9211 C   0  0  0  0  0  0
  -23.6300   -8.2232   22.0762 C   0  0  0  0  0  0
  -22.4281   -8.0282   21.3545 C   0  0  0  0  0  0
  -21.9926   -9.0265   20.4646 C   0  0  0  0  0  0
  -22.7264  -10.2144   20.3067 C   0  0  0  0  0  0
  -21.6851   -6.0745   22.5277 C   0  0  0  0  0  0
  -21.4020   -6.5651   23.8213 C   0  0  0  0  0  0
  -21.3646   -5.6798   24.9175 C   0  0  0  0  0  0
  -21.6033   -4.3059   24.7220 C   0  0  0  0  0  0
  -21.8822   -3.8156   23.4341 C   0  0  0  0  0  0
  -21.9196   -4.6974   22.3401 C   0  0  0  0  0  0
  -22.7847  -13.5235   21.1849 C   0  0  0  0  0  0
  -22.1665   -4.2157   21.0977 F   0  0  0  0  0  0
  -21.5616   -3.4541   25.7735 F   0  0  0  0  0  0
  -29.9978  -13.4944   20.3288 N   0  0  0  0  0  0
  -26.2980  -12.9371   20.3290 N   0  0  0  0  0  0
  -25.9337  -11.6535   20.5833 N   0  0  0  0  0  0
  -22.0496  -12.8217   22.0399 N   0  0  0  0  0  0
  -25.4265  -15.1899   20.4076 N   0  0  0  0  0  0
  -31.8800  -14.7485   20.3536 O   0  0  0  0  0  0
  -21.6636   -6.8885   21.4237 O   0  0  0  0  0  0
  -22.3530  -14.5537   20.6691 O   0  0  0  0  0  0
  -24.6247  -31.8636   23.2056 C   0  0  0  0  0  0
  -25.9124  -32.4800   23.8373 C   0  0  1  0  0  0
  -27.2257  -27.3377   20.1147 C   0  0  0  0  0  0
  -25.5962  -33.8591   24.2311 N   0  0  0  0  0  0
  -23.4170  -30.4865   21.5487 C   0  0  2  0  0  0
  -24.8625  -28.9478   20.1110 C   0  0  0  0  0  0
  -22.7477  -29.4619   22.4958 C   0  0  0  0  0  0
  -18.0291  -28.1349   22.8472 C   0  0  0  0  0  0
  -24.1514  -36.7276   23.2638 C   0  0  0  0  0  0
  -25.9561  -30.8008   21.3725 C   0  0  0  0  0  0
  -26.0321  -29.4297   20.7134 C   0  0  0  0  0  0
  -27.2155  -28.6364   20.7082 C   0  0  0  0  0  0
  -26.0307  -26.9089   19.4846 C   0  0  0  0  0  0
  -24.8627  -27.6916   19.4888 C   0  0  0  0  0  0
  -23.6313  -29.8283   20.1615 C   0  0  0  0  0  0
  -25.4127  -36.3075   24.0329 C   0  0  1  0  0  0
  -20.5886  -28.3670   23.1277 C   0  0  2  0  0  0
  -20.6802  -26.9396   22.5390 C   0  0  0  0  0  0
  -19.5778  -26.6370   21.5189 C   0  0  0  0  0  0
  -18.1948  -26.7902   22.1590 C   0  0  0  0  0  0
  -19.1540  -28.8823   23.2870 C   0  0  0  0  0  0
  -18.9467  -30.1428   23.8889 C   0  0  0  0  0  0
  -17.6467  -30.6568   24.0542 C   0  0  0  0  0  0
  -25.9055  -34.9450   23.5108 C   0  0  0  0  0  0
  -16.5360  -29.9052   23.6315 C   0  0  0  0  0  0
  -16.7279  -28.6468   23.0331 C   0  0  0  0  0  0
  -26.4502  -31.6591   25.0723 C   0  0  0  0  0  0
  -25.3726  -31.3679   26.1435 C   0  0  0  0  0  0
  -27.0351  -30.3039   24.6117 C   0  0  0  0  0  0
  -27.6094  -32.4287   25.7490 C   0  0  0  0  0  0
  -27.5587  -37.1794   24.8470 C   0  0  0  0  0  0
  -21.4195  -29.3034   22.3696 N   0  0  0  0  0  0
  -26.4303  -37.3765   23.9411 N   0  0  0  0  0  0
  -24.6852  -31.0650   22.1002 N   0  0  0  0  0  0
  -23.4210  -28.8164   23.3026 O   0  0  0  0  0  0
  -28.3456  -26.4969   20.1796 O   0  0  0  0  0  0
  -26.5599  -34.8908   22.4664 O   0  0  0  0  0  0
  -23.5415  -32.1449   23.7377 O   0  0  0  0  0  0
  -29.5898  -18.1390   18.9577 C   0  0  0  0  0  0
  -30.1419  -17.7742   21.2541 C   0  0  0  0  0  0
  -29.5849  -19.5487   19.1302 C   0  0  0  0  0  0
  -30.0779  -19.1960   21.4592 C   0  0  0  0  0  0
  -29.9159  -17.1862   19.9796 C   0  0  0  0  0  0
  -29.7992  -20.1248   20.4102 C   0  0  0  0  0  0
  -30.9868  -15.6525   17.4378 C   0  0  0  0  0  0
  -29.9376  -15.5087   18.2723 C   0  0  0  0  0  0
  -29.4480  -20.3932   17.8728 C   0  0  0  0  0  0
  -30.3297  -19.7482   22.8499 C   0  0  0  0  0  0
  -29.2129  -24.0065   20.4879 C   0  0  0  0  0  0
  -28.1127  -25.0470   20.0265 C   0  0  0  0  0  0
  -28.8672  -22.4762   20.2369 C   0  0  0  0  0  0
  -29.9914  -15.7321   19.6584 N   0  0  0  0  0  0
  -29.8840  -21.5114   20.6670 O   0  0  0  0  0  0
  -31.4774  -12.5046   19.1425 H   0  0  0  0  0  0
  -30.3957  -11.4456   20.0170 H   0  0  0  0  0  0
  -29.7388  -11.4415   17.6459 H   0  0  0  0  0  0
  -29.6820  -13.1448   17.5414 H   0  0  0  0  0  0
  -27.8224  -11.2448   18.9349 H   0  0  0  0  0  0
  -27.3784  -12.4735   17.7885 H   0  0  0  0  0  0
  -27.6147  -14.2262   19.4201 H   0  0  0  0  0  0
  -28.7270  -12.2363   21.4574 H   0  0  0  0  0  0
  -28.4666  -13.9549   21.7043 H   0  0  0  0  0  0
  -25.2774   -9.5660   22.4790 H   0  0  0  0  0  0
  -23.9995   -7.4620   22.7484 H   0  0  0  0  0  0
  -21.0854   -8.8804   19.8953 H   0  0  0  0  0  0
  -22.3745  -10.9690   19.6173 H   0  0  0  0  0  0
  -21.2026   -7.6161   23.9721 H   0  0  0  0  0  0
  -21.1455   -6.0528   25.9075 H   0  0  0  0  0  0
  -22.0614   -2.7619   23.2843 H   0  0  0  0  0  0
  -22.4131  -11.9884   22.4779 H   0  0  0  0  0  0
  -21.1110  -13.1233   22.2607 H   0  0  0  0  0  0
  -24.6630  -15.8475   20.5138 H   0  0  0  0  0  0
  -26.2874  -15.6286   20.1054 H   0  0  0  0  0  0
  -26.7204  -32.5485   23.1132 H   0  0  0  0  0  0
  -25.0169  -33.9738   25.0495 H   0  0  0  0  0  0
  -22.7093  -31.3055   21.4105 H   0  0  0  0  0  0
  -23.3775  -35.9616   23.3294 H   0  0  0  0  0  0
  -24.3615  -36.8897   22.2057 H   0  0  0  0  0  0
  -23.7259  -37.6472   23.6652 H   0  0  0  0  0  0
  -26.0810  -31.5672   20.6048 H   0  0  0  0  0  0
  -26.8391  -30.8496   21.9971 H   0  0  0  0  0  0
  -28.1114  -28.9994   21.1938 H   0  0  0  0  0  0
  -25.9648  -25.9487   18.9943 H   0  0  0  0  0  0
  -23.9648  -27.3166   19.0153 H   0  0  0  0  0  0
  -23.7514  -30.6115   19.4116 H   0  0  0  0  0  0
  -22.7521  -29.2600   19.8551 H   0  0  0  0  0  0
  -25.1299  -36.1929   25.0818 H   0  0  0  0  0  0
  -20.9965  -28.3247   24.1399 H   0  0  0  0  0  0
  -20.5723  -26.2264   23.3589 H   0  0  0  0  0  0
  -21.6666  -26.7457   22.1164 H   0  0  0  0  0  0
  -19.6951  -25.6280   21.1208 H   0  0  0  0  0  0
  -19.6715  -27.3195   20.6736 H   0  0  0  0  0  0
  -17.4221  -26.6651   21.3985 H   0  0  0  0  0  0
  -18.0342  -26.0037   22.8973 H   0  0  0  0  0  0
  -19.7950  -30.7226   24.2269 H   0  0  0  0  0  0
  -17.5026  -31.6248   24.5140 H   0  0  0  0  0  0
  -15.5351  -30.2944   23.7656 H   0  0  0  0  0  0
  -15.8685  -28.0794   22.7038 H   0  0  0  0  0  0
  -24.5965  -30.6958   25.7740 H   0  0  0  0  0  0
  -24.8817  -32.2817   26.4798 H   0  0  0  0  0  0
  -25.8037  -30.8911   27.0246 H   0  0  0  0  0  0
  -26.2906  -29.6771   24.1193 H   0  0  0  0  0  0
  -27.4170  -29.7276   25.4552 H   0  0  0  0  0  0
  -27.8718  -30.4368   23.9253 H   0  0  0  0  0  0
  -27.2779  -33.3634   26.1997 H   0  0  0  0  0  0
  -28.3938  -32.6744   25.0322 H   0  0  0  0  0  0
  -28.0719  -31.8433   26.5438 H   0  0  0  0  0  0
  -28.2580  -38.0113   24.7513 H   0  0  0  0  0  0
  -28.1089  -36.2622   24.6293 H   0  0  0  0  0  0
  -27.2286  -37.1450   25.8869 H   0  0  0  0  0  0
  -20.9374  -29.8744   21.6896 H   0  0  0  0  0  0
  -26.0177  -38.2834   24.1403 H   0  0  0  0  0  0
  -29.3753  -17.8146   17.9518 H   0  0  0  0  0  0
  -30.3795  -17.1362   22.0934 H   0  0  0  0  0  0
  -30.8842  -15.4803   16.3770 H   0  0  0  0  0  0
  -31.9613  -15.9446   17.8024 H   0  0  0  0  0  0
  -28.9557  -15.2323   17.9173 H   0  0  0  0  0  0
  -29.7399  -19.8305   16.9851 H   0  0  0  0  0  0
  -30.0998  -21.2677   17.9149 H   0  0  0  0  0  0
  -28.4181  -20.7188   17.7291 H   0  0  0  0  0  0
  -30.5694  -18.9596   23.5628 H   0  0  0  0  0  0
  -29.4427  -20.2689   23.2120 H   0  0  0  0  0  0
  -31.1568  -20.4586   22.8349 H   0  0  0  0  0  0
  -29.3989  -24.1509   21.5522 H   0  0  0  0  0  0
  -30.1516  -24.2409   19.9846 H   0  0  0  0  0  0
  -27.2092  -24.7902   20.5806 H   0  0  0  0  0  0
  -27.8997  -24.8555   18.9735 H   0  0  0  0  0  0
  -28.6404  -22.3828   19.1818 H   0  0  0  0  0  0
  -27.9407  -22.2260   20.7546 H   0  0  0  0  0  0
  1 25  1  0  0  0
  1 30  2  0  0  0
  1 84  1  0  0  0
  2  3  1  0  0  0
  2 25  1  0  0  0
  2 86  1  0  0  0
  2 87  1  0  0  0
  3  4  1  0  0  0
  3 88  1  0  0  0
  3 89  1  0  0  0
  4  5  1  0  0  0
  4 90  1  0  0  0
  4 91  1  0  0  0
  5  6  1  0  0  0
  5 26  1  0  0  0
  5 92  1  0  0  0
  6 25  1  0  0  0
  6 93  1  0  0  0
  6 94  1  0  0  0
  7  8  2  0  0  0
  7 26  1  0  0  0
  7 29  1  0  0  0
  8  9  1  0  0  0
  8 22  1  0  0  0
  9 10  1  0  0  0
  9 27  2  0  0  0
 10 11  2  0  0  0
 10 15  1  0  0  0
 11 12  1  0  0  0
 11 95  1  0  0  0
 12 13  2  0  0  0
 12 96  1  0  0  0
 13 14  1  0  0  0
 13 31  1  0  0  0
 14 15  2  0  0  0
 14 97  1  0  0  0
 15 98  1  0  0  0
 16 17  2  0  0  0
 16 21  1  0  0  0
 16 31  1  0  0  0
 17 18  1  0  0  0
 17 99  1  0  0  0
 18 19  2  0  0  0
 18100  1  0  0  0
 19 20  1  0  0  0
 19 24  1  0  0  0
 20 21  2  0  0  0
 20101  1  0  0  0
 21 23  1  0  0  0
 22 28  1  0  0  0
 22 32  2  0  0  0
 26 27  1  0  0  0
 28102  1  0  0  0
 28103  1  0  0  0
 29104  1  0  0  0
 29105  1  0  0  0
 33 34  1  0  0  0
 33 66  1  0  0  0
 33 70  2  0  0  0
 34 36  1  0  0  0
 34 59  1  0  0  0
 34106  1  0  0  0
 35 44  2  0  0  0
 35 45  1  0  0  0
 35 68  1  0  0  0
 36 56  1  0  0  0
 36107  1  0  0  0
 37 39  1  0  0  0
 37 47  1  0  0  0
 37 66  1  0  0  0
 37108  1  0  0  0
 38 43  2  0  0  0
 38 46  1  0  0  0
 38 47  1  0  0  0
 39 64  1  0  0  0
 39 67  2  0  0  0
 40 52  1  0  0  0
 40 53  2  0  0  0
 40 58  1  0  0  0
 41109  1  0  0  0
 41110  1  0  0  0
 41111  1  0  0  0
 41 48  1  0  0  0
 42 43  1  0  0  0
 42 66  1  0  0  0
 42112  1  0  0  0
 42113  1  0  0  0
 43 44  1  0  0  0
 44114  1  0  0  0
 45 46  2  0  0  0
 45115  1  0  0  0
 46116  1  0  0  0
 47117  1  0  0  0
 47118  1  0  0  0
 48 56  1  0  0  0
 48 65  1  0  0  0
 48119  1  0  0  0
 49 50  1  0  0  0
 49 53  1  0  0  0
 49 64  1  0  0  0
 49120  1  0  0  0
 50 51  1  0  0  0
 50121  1  0  0  0
 50122  1  0  0  0
 51 52  1  0  0  0
 51123  1  0  0  0
 51124  1  0  0  0
 52125  1  0  0  0
 52126  1  0  0  0
 53 54  1  0  0  0
 54 55  2  0  0  0
 54127  1  0  0  0
 55 57  1  0  0  0
 55128  1  0  0  0
 56 69  2  0  0  0
 57 58  2  0  0  0
 57129  1  0  0  0
 58130  1  0  0  0
 59 60  1  0  0  0
 59 61  1  0  0  0
 59 62  1  0  0  0
 60131  1  0  0  0
 60132  1  0  0  0
 60133  1  0  0  0
 61134  1  0  0  0
 61135  1  0  0  0
 61136  1  0  0  0
 62137  1  0  0  0
 62138  1  0  0  0
 62139  1  0  0  0
 63 65  1  0  0  0
 63140  1  0  0  0
 63141  1  0  0  0
 63142  1  0  0  0
 64143  1  0  0  0
 65144  1  0  0  0
 68 82  1  0  0  0
 71 73  2  0  0  0
 71 75  1  0  0  0
 71145  1  0  0  0
 72 74  1  0  0  0
 72 75  2  0  0  0
 72146  1  0  0  0
 73 76  1  0  0  0
 73 79  1  0  0  0
 74 76  2  0  0  0
 74 80  1  0  0  0
 75 84  1  0  0  0
 76 85  1  0  0  0
 77 78  2  0  0  0
 77147  1  0  0  0
 77148  1  0  0  0
 78 84  1  0  0  0
 78149  1  0  0  0
 79150  1  0  0  0
 79151  1  0  0  0
 79152  1  0  0  0
 80153  1  0  0  0
 80154  1  0  0  0
 80155  1  0  0  0
 81 82  1  0  0  0
 81 83  1  0  0  0
 81156  1  0  0  0
 81157  1  0  0  0
 82158  1  0  0  0
 82159  1  0  0  0
 83 85  1  0  0  0
 83160  1  0  0  0
 83161  1  0  0  0
M  ISO  4   1 100  68 101  82 101  84 100
M  END
> <chiral flag>
0

> <version>
0

> <s_m_source_file>
/data/baiqing/PycharmProjects/Reinvent-master-3.2/result/LINK_invent/BTK/process_docking_weight1_custom_product_contain_oxygen_bond_distance_aromatic_linkinvent_7_9_3/rearranged_h_0101.sdf

> <i_m_source_file_index>
55

> <r_mmod_Potential_Energy-OPLS-2005>
373.119689941406

> <r_mmod_Stretch_Energy-OPLS-2005>
87.5474090576172

> <r_mmod_Bend_Energy-OPLS-2005>
156.230438232422

> <r_mmod_Torsional_Energy-OPLS-2005>
358.570495605469

> <r_mmod_Improper_Torsional_Energy-OPLS-2005>
26.8708896636963

> <r_mmod_Van_der_Waal_Energy-OPLS-2005>
171.849487304688

> <r_mmod_Electrostatic_Energy-OPLS-2005>
-311.907379150391

> <r_mmod_Solvation_Energy-OPLS-2005>
-198.350479125977

> <b_mmod_Minimization_Converged-OPLS-2005>
0

> <r_mmod_RMS_Derivative-OPLS-2005>
2.55705261230469

$$$$
55
                    3D
 Structure written by MMmdl.
163172  0  0  1  0            999 V2000
  -30.6372  -14.6304   20.5156 C   0  0  0  0  0  0
  -30.4480  -12.3803   19.4765 C   0  0  0  0  0  0
  -29.5284  -12.4819   18.2400 C   0  0  0  0  0  0
  -28.0488  -12.3275   18.6430 C   0  0  0  0  0  0
  -27.6613  -13.2121   19.8588 C   0  0  2  0  0  0
  -28.6958  -13.0755   20.9991 C   0  0  0  0  0  0
  -25.2638  -13.8160   20.5681 C   0  0  0  0  0  0
  -24.1853  -13.0448   20.9124 C   0  0  0  0  0  0
  -24.6385  -11.6903   20.8646 C   0  0  0  0  0  0
  -23.9058  -10.4281   21.0355 C   0  0  0  0  0  0
  -24.3603   -9.4214   21.9153 C   0  0  0  0  0  0
  -23.6282   -8.2240   22.0737 C   0  0  0  0  0  0
  -22.4275   -8.0268   21.3525 C   0  0  0  0  0  0
  -21.9876   -9.0240   20.4648 C   0  0  0  0  0  0
  -22.7203  -10.2119   20.3055 C   0  0  0  0  0  0
  -21.6854   -6.0712   22.5272 C   0  0  0  0  0  0
  -21.4027   -6.5620   23.8195 C   0  0  0  0  0  0
  -21.3651   -5.6771   24.9153 C   0  0  0  0  0  0
  -21.6056   -4.3054   24.7211 C   0  0  0  0  0  0
  -21.8824   -3.8127   23.4342 C   0  0  0  0  0  0
  -21.9189   -4.6942   22.3398 C   0  0  0  0  0  0
  -22.7880  -13.5276   21.1806 C   0  0  0  0  0  0
  -22.1668   -4.2133   21.0982 F   0  0  0  0  0  0
  -21.5621   -3.4526   25.7716 F   0  0  0  0  0  0
  -30.0214  -13.4068   20.4480 N   0  0  0  0  0  0
  -26.3033  -12.9310   20.3247 N   0  0  0  0  0  0
  -25.9320  -11.6482   20.5656 N   0  0  0  0  0  0
  -22.0519  -12.8282   22.0366 N   0  0  0  0  0  0
  -25.4486  -15.1871   20.4264 N   0  0  0  0  0  0
  -31.7790  -14.7984   20.0758 O   0  0  0  0  0  0
  -21.6649   -6.8851   21.4226 O   0  0  0  0  0  0
  -22.3580  -14.5575   20.6620 O   0  0  0  0  0  0
  -24.6264  -31.8597   23.2014 C   0  0  0  0  0  0
  -25.9111  -32.4779   23.8327 C   0  0  1  0  0  0
  -27.2218  -27.3144   20.0965 C   0  0  0  0  0  0
  -25.5925  -33.8580   24.2253 N   0  0  0  0  0  0
  -23.4193  -30.4847   21.5476 C   0  0  2  0  0  0
  -24.8629  -28.9424   20.1115 C   0  0  0  0  0  0
  -22.7469  -29.4625   22.4949 C   0  0  0  0  0  0
  -18.0284  -28.1392   22.8484 C   0  0  0  0  0  0
  -24.1494  -36.7283   23.2633 C   0  0  0  0  0  0
  -25.9641  -30.7888   21.3743 C   0  0  0  0  0  0
  -26.0370  -29.4165   20.7113 C   0  0  0  0  0  0
  -27.2186  -28.6142   20.6933 C   0  0  0  0  0  0
  -26.0154  -26.8936   19.4889 C   0  0  0  0  0  0
  -24.8542  -27.6847   19.4939 C   0  0  0  0  0  0
  -23.6316  -29.8215   20.1622 C   0  0  0  0  0  0
  -25.4110  -36.3068   24.0323 C   0  0  1  0  0  0
  -20.5881  -28.3679   23.1292 C   0  0  2  0  0  0
  -20.6776  -26.9403   22.5413 C   0  0  0  0  0  0
  -19.5754  -26.6389   21.5210 C   0  0  0  0  0  0
  -18.1929  -26.7935   22.1619 C   0  0  0  0  0  0
  -19.1537  -28.8852   23.2887 C   0  0  0  0  0  0
  -18.9462  -30.1456   23.8904 C   0  0  0  0  0  0
  -17.6461  -30.6591   24.0569 C   0  0  0  0  0  0
  -25.9052  -34.9453   23.5091 C   0  0  0  0  0  0
  -16.5350  -29.9093   23.6340 C   0  0  0  0  0  0
  -16.7271  -28.6512   23.0359 C   0  0  0  0  0  0
  -26.4496  -31.6602   25.0710 C   0  0  0  0  0  0
  -25.3727  -31.3812   26.1451 C   0  0  0  0  0  0
  -27.0301  -30.2995   24.6198 C   0  0  0  0  0  0
  -27.6075  -32.4334   25.7450 C   0  0  0  0  0  0
  -27.5586  -37.1773   24.8450 C   0  0  0  0  0  0
  -21.4181  -29.3035   22.3680 N   0  0  0  0  0  0
  -26.4278  -37.3767   23.9422 N   0  0  0  0  0  0
  -24.6895  -31.0587   22.0986 N   0  0  0  0  0  0
  -23.4183  -28.8158   23.3025 O   0  0  0  0  0  0
  -28.3476  -26.4673   20.1141 O   0  0  0  0  0  0
  -26.5620  -34.8921   22.4658 O   0  0  0  0  0  0
  -23.5424  -32.1405   23.7331 O   0  0  0  0  0  0
  -29.8886  -19.4452   21.6422 C   0  0  0  0  0  0
  -30.0274  -17.6723   19.4698 C   0  0  0  0  0  0
  -29.9177  -18.0290   21.8604 C   0  0  0  0  0  0
  -29.9300  -20.0078   20.3419 C   0  0  0  0  0  0
  -29.9946  -17.1087   20.7742 C   0  0  0  0  0  0
  -29.9999  -19.0836   19.2612 C   0  0  0  0  0  0
  -30.2971  -24.0256   18.8581 C   0  0  0  0  0  0
  -31.4367  -22.9959   18.8069 C   0  0  0  0  0  0
  -31.3693  -21.9576   19.9482 C   0  0  0  0  0  0
  -28.9223  -22.4251   20.2951 C   0  0  0  0  0  0
  -29.3320  -23.9599   20.0618 C   0  0  2  0  0  0
  -29.8931  -17.5079   23.2886 C   0  0  0  0  0  0
  -28.1310  -25.0068   19.9397 C   0  0  0  0  0  0
  -30.0174  -21.4235   20.1015 N   0  0  0  0  0  0
  -30.0243  -19.5900   17.9617 N   0  0  0  0  0  0
  -29.8909  -15.6668   20.9989 N   0  0  0  0  0  0
  -30.1687  -24.8542   17.9509 O   0  0  0  0  0  0
  -31.4934  -12.4950   19.1840 H   0  0  0  0  0  0
  -30.3784  -11.3903   19.9295 H   0  0  0  0  0  0
  -29.7937  -11.7112   17.5141 H   0  0  0  0  0  0
  -29.6809  -13.4388   17.7408 H   0  0  0  0  0  0
  -27.8913  -11.2764   18.8870 H   0  0  0  0  0  0
  -27.4066  -12.5404   17.7890 H   0  0  0  0  0  0
  -27.6844  -14.2431   19.5080 H   0  0  0  0  0  0
  -28.6955  -12.0602   21.3979 H   0  0  0  0  0  0
  -28.4265  -13.7196   21.8402 H   0  0  0  0  0  0
  -25.2742   -9.5686   22.4736 H   0  0  0  0  0  0
  -23.9981   -7.4637   22.7453 H   0  0  0  0  0  0
  -21.0794   -8.8769   19.8970 H   0  0  0  0  0  0
  -22.3645  -10.9655   19.6186 H   0  0  0  0  0  0
  -21.2036   -7.6126   23.9693 H   0  0  0  0  0  0
  -21.1486   -6.0508   25.9054 H   0  0  0  0  0  0
  -22.0613   -2.7589   23.2851 H   0  0  0  0  0  0
  -22.4138  -11.9998   22.4888 H   0  0  0  0  0  0
  -21.1139  -13.1354   22.2523 H   0  0  0  0  0  0
  -24.7056  -15.8594   20.5896 H   0  0  0  0  0  0
  -26.3343  -15.6241   20.2063 H   0  0  0  0  0  0
  -26.7185  -32.5444   23.1076 H   0  0  0  0  0  0
  -25.0053  -33.9717   25.0389 H   0  0  0  0  0  0
  -22.7131  -31.3055   21.4059 H   0  0  0  0  0  0
  -23.3758  -35.9615   23.3272 H   0  0  0  0  0  0
  -24.3590  -36.8927   22.2053 H   0  0  0  0  0  0
  -23.7242  -37.6476   23.6672 H   0  0  0  0  0  0
  -26.0955  -31.5569   20.6100 H   0  0  0  0  0  0
  -26.8429  -30.8338   22.0067 H   0  0  0  0  0  0
  -28.1212  -28.9744   21.1679 H   0  0  0  0  0  0
  -25.9254  -25.9363   19.0037 H   0  0  0  0  0  0
  -23.9524  -27.3135   19.0257 H   0  0  0  0  0  0
  -23.7430  -30.5991   19.4052 H   0  0  0  0  0  0
  -22.7503  -29.2486   19.8633 H   0  0  0  0  0  0
  -25.1289  -36.1910   25.0811 H   0  0  0  0  0  0
  -20.9966  -28.3263   24.1414 H   0  0  0  0  0  0
  -20.5675  -26.2285   23.3603 H   0  0  0  0  0  0
  -21.6654  -26.7435   22.1218 H   0  0  0  0  0  0
  -19.6916  -25.6298   21.1246 H   0  0  0  0  0  0
  -19.6707  -27.3203   20.6741 H   0  0  0  0  0  0
  -17.4192  -26.6668   21.4031 H   0  0  0  0  0  0
  -18.0338  -26.0086   22.9022 H   0  0  0  0  0  0
  -19.7939  -30.7275   24.2277 H   0  0  0  0  0  0
  -17.5016  -31.6277   24.5163 H   0  0  0  0  0  0
  -15.5355  -30.2995   23.7659 H   0  0  0  0  0  0
  -15.8668  -28.0830   22.7075 H   0  0  0  0  0  0
  -24.5829  -30.7243   25.7791 H   0  0  0  0  0  0
  -24.9021  -32.3034   26.4873 H   0  0  0  0  0  0
  -25.8028  -30.8961   27.0222 H   0  0  0  0  0  0
  -26.2868  -29.6759   24.1215 H   0  0  0  0  0  0
  -27.3951  -29.7250   25.4721 H   0  0  0  0  0  0
  -27.8773  -30.4227   23.9443 H   0  0  0  0  0  0
  -27.2685  -33.3608   26.2075 H   0  0  0  0  0  0
  -28.3835  -32.6938   25.0241 H   0  0  0  0  0  0
  -28.0803  -31.8440   26.5318 H   0  0  0  0  0  0
  -28.2586  -38.0087   24.7519 H   0  0  0  0  0  0
  -28.1099  -36.2622   24.6233 H   0  0  0  0  0  0
  -27.2321  -37.1375   25.8857 H   0  0  0  0  0  0
  -20.9334  -29.8743   21.6892 H   0  0  0  0  0  0
  -26.0161  -38.2833   24.1471 H   0  0  0  0  0  0
  -29.8588  -20.1080   22.4942 H   0  0  0  0  0  0
  -30.0567  -17.0149   18.6136 H   0  0  0  0  0  0
  -32.4005  -23.5103   18.8216 H   0  0  0  0  0  0
  -31.3795  -22.4766   17.8484 H   0  0  0  0  0  0
  -31.6782  -22.4175   20.8899 H   0  0  0  0  0  0
  -32.0864  -21.1553   19.7587 H   0  0  0  0  0  0
  -28.1208  -22.1712   19.5987 H   0  0  0  0  0  0
  -28.5025  -22.3146   21.2952 H   0  0  0  0  0  0
  -29.9197  -24.2543   20.9303 H   0  0  0  0  0  0
  -29.8998  -18.3226   24.0130 H   0  0  0  0  0  0
  -30.7696  -16.8833   23.4724 H   0  0  0  0  0  0
  -28.9997  -16.9091   23.4683 H   0  0  0  0  0  0
  -27.3718  -24.7080   20.6618 H   0  0  0  0  0  0
  -27.6881  -24.8301   18.9591 H   0  0  0  0  0  0
  -29.4469  -19.1043   17.2868 H   0  0  0  0  0  0
  -29.8271  -20.5880   17.9651 H   0  0  0  0  0  0
  -29.0506  -15.3728   21.4746 H   0  0  0  0  0  0
  1 25  1  0  0  0
  1 30  2  0  0  0
  1 86  1  0  0  0
  2  3  1  0  0  0
  2 25  1  0  0  0
  2 88  1  0  0  0
  2 89  1  0  0  0
  3  4  1  0  0  0
  3 90  1  0  0  0
  3 91  1  0  0  0
  4  5  1  0  0  0
  4 92  1  0  0  0
  4 93  1  0  0  0
  5  6  1  0  0  0
  5 26  1  0  0  0
  5 94  1  0  0  0
  6 25  1  0  0  0
  6 95  1  0  0  0
  6 96  1  0  0  0
  7  8  2  0  0  0
  7 26  1  0  0  0
  7 29  1  0  0  0
  8  9  1  0  0  0
  8 22  1  0  0  0
  9 10  1  0  0  0
  9 27  2  0  0  0
 10 11  2  0  0  0
 10 15  1  0  0  0
 11 12  1  0  0  0
 11 97  1  0  0  0
 12 13  2  0  0  0
 12 98  1  0  0  0
 13 14  1  0  0  0
 13 31  1  0  0  0
 14 15  2  0  0  0
 14 99  1  0  0  0
 15100  1  0  0  0
 16 17  2  0  0  0
 16 21  1  0  0  0
 16 31  1  0  0  0
 17 18  1  0  0  0
 17101  1  0  0  0
 18 19  2  0  0  0
 18102  1  0  0  0
 19 20  1  0  0  0
 19 24  1  0  0  0
 20 21  2  0  0  0
 20103  1  0  0  0
 21 23  1  0  0  0
 22 28  1  0  0  0
 22 32  2  0  0  0
 26 27  1  0  0  0
 28104  1  0  0  0
 28105  1  0  0  0
 29106  1  0  0  0
 29107  1  0  0  0
 33 34  1  0  0  0
 33 66  1  0  0  0
 33 70  2  0  0  0
 34 36  1  0  0  0
 34 59  1  0  0  0
 34108  1  0  0  0
 35 44  2  0  0  0
 35 45  1  0  0  0
 35 68  1  0  0  0
 36 56  1  0  0  0
 36109  1  0  0  0
 37 39  1  0  0  0
 37 47  1  0  0  0
 37 66  1  0  0  0
 37110  1  0  0  0
 38 43  2  0  0  0
 38 46  1  0  0  0
 38 47  1  0  0  0
 39 64  1  0  0  0
 39 67  2  0  0  0
 40 52  1  0  0  0
 40 53  2  0  0  0
 40 58  1  0  0  0
 41111  1  0  0  0
 41112  1  0  0  0
 41113  1  0  0  0
 41 48  1  0  0  0
 42 43  1  0  0  0
 42 66  1  0  0  0
 42114  1  0  0  0
 42115  1  0  0  0
 43 44  1  0  0  0
 44116  1  0  0  0
 45 46  2  0  0  0
 45117  1  0  0  0
 46118  1  0  0  0
 47119  1  0  0  0
 47120  1  0  0  0
 48 56  1  0  0  0
 48 65  1  0  0  0
 48121  1  0  0  0
 49 50  1  0  0  0
 49 53  1  0  0  0
 49 64  1  0  0  0
 49122  1  0  0  0
 50 51  1  0  0  0
 50123  1  0  0  0
 50124  1  0  0  0
 51 52  1  0  0  0
 51125  1  0  0  0
 51126  1  0  0  0
 52127  1  0  0  0
 52128  1  0  0  0
 53 54  1  0  0  0
 54 55  2  0  0  0
 54129  1  0  0  0
 55 57  1  0  0  0
 55130  1  0  0  0
 56 69  2  0  0  0
 57 58  2  0  0  0
 57131  1  0  0  0
 58132  1  0  0  0
 59 60  1  0  0  0
 59 61  1  0  0  0
 59 62  1  0  0  0
 60133  1  0  0  0
 60134  1  0  0  0
 60135  1  0  0  0
 61136  1  0  0  0
 61137  1  0  0  0
 61138  1  0  0  0
 62139  1  0  0  0
 62140  1  0  0  0
 62141  1  0  0  0
 63 65  1  0  0  0
 63142  1  0  0  0
 63143  1  0  0  0
 63144  1  0  0  0
 64145  1  0  0  0
 65146  1  0  0  0
 68 83  1  0  0  0
 71 73  2  0  0  0
 71 74  1  0  0  0
 71147  1  0  0  0
 72 75  2  0  0  0
 72 76  1  0  0  0
 72148  1  0  0  0
 73 75  1  0  0  0
 73 82  1  0  0  0
 74 76  2  0  0  0
 74 84  1  0  0  0
 75 86  1  0  0  0
 76 85  1  0  0  0
 77 78  1  0  0  0
 77 81  1  0  0  0
 77 87  2  0  0  0
 78 79  1  0  0  0
 78149  1  0  0  0
 78150  1  0  0  0
 79 84  1  0  0  0
 79151  1  0  0  0
 79152  1  0  0  0
 80 81  1  0  0  0
 80 84  1  0  0  0
 80153  1  0  0  0
 80154  1  0  0  0
 81 83  1  0  0  0
 81155  1  0  0  0
 82156  1  0  0  0
 82157  1  0  0  0
 82158  1  0  0  0
 83159  1  0  0  0
 83160  1  0  0  0
 85161  1  0  0  0
 85162  1  0  0  0
 86163  1  0  0  0
M  ISO  4   1 100  68 101  83 101  86 100
M  END
> <chiral flag>
0

> <version>
0

> <s_m_source_file>
/data/baiqing/PycharmProjects/Reinvent-master-3.2/result/LINK_invent/BTK/process_docking_weight1_custom_product_contain_oxygen_bond_distance_aromatic_linkinvent_7_9_3/rearranged_h_0101.sdf

> <i_m_source_file_index>
56

> <r_mmod_Potential_Energy-OPLS-2005>
23.3705654144287

> <r_mmod_Stretch_Energy-OPLS-2005>
83.1511459350586

> <r_mmod_Bend_Energy-OPLS-2005>
141.633911132812

> <r_mmod_Torsional_Energy-OPLS-2005>
248.753356933594

> <r_mmod_Improper_Torsional_Energy-OPLS-2005>
9.35627269744873

> <r_mmod_Van_der_Waal_Energy-OPLS-2005>
155.824020385742

> <r_mmod_Electrostatic_Energy-OPLS-2005>
-420.255249023438

> <r_mmod_Solvation_Energy-OPLS-2005>
-242.591354370117

> <b_mmod_Minimization_Converged-OPLS-2005>
0

> <r_mmod_RMS_Derivative-OPLS-2005>
4.32061290740967

$$$$
56
                    3D
 Structure written by MMmdl.
168177  0  0  1  0            999 V2000
  -30.7951  -14.5182   20.5018 C   0  0  0  0  0  0
  -30.3993  -12.3303   19.4383 C   0  0  0  0  0  0
  -29.4825  -12.4914   18.2123 C   0  0  0  0  0  0
  -28.0103  -12.3285   18.6360 C   0  0  0  0  0  0
  -27.6475  -13.2140   19.8527 C   0  0  2  0  0  0
  -28.7038  -13.1179   20.9810 C   0  0  0  0  0  0
  -25.2499  -13.8110   20.5800 C   0  0  0  0  0  0
  -24.1752  -13.0363   20.9185 C   0  0  0  0  0  0
  -24.6390  -11.6858   20.8726 C   0  0  0  0  0  0
  -23.9044  -10.4238   21.0396 C   0  0  0  0  0  0
  -24.3596   -9.4161   21.9183 C   0  0  0  0  0  0
  -23.6278   -8.2198   22.0758 C   0  0  0  0  0  0
  -22.4252   -8.0242   21.3554 C   0  0  0  0  0  0
  -21.9878   -9.0204   20.4649 C   0  0  0  0  0  0
  -22.7200  -10.2092   20.3057 C   0  0  0  0  0  0
  -21.6830   -6.0750   22.5295 C   0  0  0  0  0  0
  -21.4005   -6.5659   23.8233 C   0  0  0  0  0  0
  -21.3658   -5.6801   24.9192 C   0  0  0  0  0  0
  -21.6044   -4.3066   24.7220 C   0  0  0  0  0  0
  -21.8818   -3.8162   23.4325 C   0  0  0  0  0  0
  -21.9183   -4.6984   22.3401 C   0  0  0  0  0  0
  -22.7773  -13.5158   21.1836 C   0  0  0  0  0  0
  -22.1639   -4.2199   21.0974 F   0  0  0  0  0  0
  -21.5628   -3.4528   25.7709 F   0  0  0  0  0  0
  -30.0336  -13.3827   20.4062 N   0  0  0  0  0  0
  -26.2970  -12.9345   20.3384 N   0  0  0  0  0  0
  -25.9331  -11.6501   20.5839 N   0  0  0  0  0  0
  -22.0424  -12.8221   22.0476 N   0  0  0  0  0  0
  -25.4175  -15.1786   20.4432 N   0  0  0  0  0  0
  -31.9044  -14.5901   19.9659 O   0  0  0  0  0  0
  -21.6586   -6.8867   21.4252 O   0  0  0  0  0  0
  -22.3435  -14.5431   20.6633 O   0  0  0  0  0  0
  -24.6177  -31.8696   23.2117 C   0  0  0  0  0  0
  -25.9066  -32.4851   23.8428 C   0  0  1  0  0  0
  -27.2357  -27.4202   20.0670 C   0  0  0  0  0  0
  -25.5899  -33.8645   24.2347 N   0  0  0  0  0  0
  -23.4061  -30.4954   21.5557 C   0  0  2  0  0  0
  -24.8498  -28.9651   20.1188 C   0  0  0  0  0  0
  -22.7439  -29.4665   22.5006 C   0  0  0  0  0  0
  -18.0268  -28.1388   22.8505 C   0  0  0  0  0  0
  -24.1471  -36.7323   23.2640 C   0  0  0  0  0  0
  -25.9394  -30.8277   21.3676 C   0  0  0  0  0  0
  -26.0156  -29.4604   20.7154 C   0  0  0  0  0  0
  -27.2086  -28.6938   20.6923 C   0  0  0  0  0  0
  -26.0363  -26.9481   19.4776 C   0  0  0  0  0  0
  -24.8551  -27.7058   19.5038 C   0  0  0  0  0  0
  -23.6162  -29.8377   20.1685 C   0  0  0  0  0  0
  -25.4093  -36.3128   24.0342 C   0  0  1  0  0  0
  -20.5868  -28.3670   23.1313 C   0  0  2  0  0  0
  -20.6759  -26.9404   22.5422 C   0  0  0  0  0  0
  -19.5733  -26.6388   21.5231 C   0  0  0  0  0  0
  -18.1910  -26.7930   22.1645 C   0  0  0  0  0  0
  -19.1524  -28.8851   23.2902 C   0  0  0  0  0  0
  -18.9456  -30.1454   23.8929 C   0  0  0  0  0  0
  -17.6460  -30.6596   24.0585 C   0  0  0  0  0  0
  -25.9030  -34.9499   23.5146 C   0  0  0  0  0  0
  -16.5350  -29.9108   23.6323 C   0  0  0  0  0  0
  -16.7263  -28.6521   23.0353 C   0  0  0  0  0  0
  -26.4467  -31.6638   25.0769 C   0  0  0  0  0  0
  -25.3717  -31.3773   26.1517 C   0  0  0  0  0  0
  -27.0295  -30.3083   24.6137 C   0  0  0  0  0  0
  -27.6033  -32.4357   25.7523 C   0  0  0  0  0  0
  -27.5569  -37.1811   24.8466 C   0  0  0  0  0  0
  -21.4159  -29.3047   22.3743 N   0  0  0  0  0  0
  -26.4283  -37.3809   23.9417 N   0  0  0  0  0  0
  -24.6741  -31.0781   22.1043 N   0  0  0  0  0  0
  -23.4215  -28.8190   23.3040 O   0  0  0  0  0  0
  -28.4116  -26.6762   20.0444 O   0  0  0  0  0  0
  -26.5592  -34.8942   22.4702 O   0  0  0  0  0  0
  -23.5357  -32.1472   23.7486 O   0  0  0  0  0  0
  -31.2225  -19.0127   19.7510 C   0  0  0  0  0  0
  -31.3655  -17.7090   20.2873 C   0  0  0  0  0  0
  -28.8542  -18.6123   19.4622 C   0  0  0  0  0  0
  -29.9501  -19.4951   19.3645 C   0  0  0  0  0  0
  -30.2451  -16.8552   20.4839 C   0  0  0  0  0  0
  -28.9919  -17.3270   20.0311 C   0  0  0  0  0  0
  -30.2833  -21.9877   19.1393 C   0  0  0  0  0  0
  -30.7916  -16.8153   24.7453 C   0  0  0  0  0  0
  -30.7358  -15.3009   24.9328 C   0  0  0  0  0  0
  -31.0231  -17.0488   23.2481 C   0  0  0  0  0  0
  -30.2731  -14.7628   23.5847 C   0  0  0  0  0  0
  -30.9773  -15.6598   22.5608 C   0  0  0  0  0  0
  -29.5608  -23.2462   18.6142 C   0  0  0  0  0  0
  -29.6393  -24.5119   19.5206 C   0  0  0  0  0  0
  -28.3574  -25.3733   19.4237 C   0  0  0  0  0  0
  -29.6839  -20.8112   18.8633 N   0  0  0  0  0  0
  -30.3629  -15.5979   21.2061 N   0  0  0  0  0  0
  -31.3492  -22.0907   19.7482 O   0  0  0  0  0  0
  -27.8654  -16.5837   20.1776 O   0  0  0  0  0  0
  -31.4457  -12.3716   19.1313 H   0  0  0  0  0  0
  -30.2711  -11.3412   19.8859 H   0  0  0  0  0  0
  -29.7355  -11.7519   17.4519 H   0  0  0  0  0  0
  -29.6302  -13.4752   17.7613 H   0  0  0  0  0  0
  -27.8510  -11.2770   18.8773 H   0  0  0  0  0  0
  -27.3501  -12.5432   17.7948 H   0  0  0  0  0  0
  -27.6530  -14.2339   19.4824 H   0  0  0  0  0  0
  -28.6917  -12.1318   21.4463 H   0  0  0  0  0  0
  -28.4516  -13.8280   21.7632 H   0  0  0  0  0  0
  -25.2750   -9.5677   22.4734 H   0  0  0  0  0  0
  -24.0022   -7.4601   22.7475 H   0  0  0  0  0  0
  -21.0821   -8.8682   19.8944 H   0  0  0  0  0  0
  -22.3650  -10.9605   19.6141 H   0  0  0  0  0  0
  -21.2006   -7.6168   23.9758 H   0  0  0  0  0  0
  -21.1470   -6.0530   25.9104 H   0  0  0  0  0  0
  -22.0608   -2.7614   23.2803 H   0  0  0  0  0  0
  -22.4002  -11.9887   22.4895 H   0  0  0  0  0  0
  -21.1025  -13.1223   22.2644 H   0  0  0  0  0  0
  -24.6892  -15.8418   20.6803 H   0  0  0  0  0  0
  -26.3588  -15.5692   20.4536 H   0  0  0  0  0  0
  -26.7152  -32.5565   23.1200 H   0  0  0  0  0  0
  -25.0060  -33.9812   25.0502 H   0  0  0  0  0  0
  -22.6952  -31.3127   21.4179 H   0  0  0  0  0  0
  -23.3735  -35.9655   23.3327 H   0  0  0  0  0  0
  -24.3557  -36.8914   22.2049 H   0  0  0  0  0  0
  -23.7216  -37.6531   23.6641 H   0  0  0  0  0  0
  -26.0454  -31.5885   20.5931 H   0  0  0  0  0  0
  -26.8293  -30.8899   21.9820 H   0  0  0  0  0  0
  -28.1094  -29.0780   21.1512 H   0  0  0  0  0  0
  -25.9715  -25.9932   18.9800 H   0  0  0  0  0  0
  -23.9600  -27.3149   19.0415 H   0  0  0  0  0  0
  -23.7318  -30.6183   19.4141 H   0  0  0  0  0  0
  -22.7371  -29.2648   19.8650 H   0  0  0  0  0  0
  -25.1254  -36.2005   25.0834 H   0  0  0  0  0  0
  -20.9945  -28.3243   24.1439 H   0  0  0  0  0  0
  -20.5657  -26.2300   23.3623 H   0  0  0  0  0  0
  -21.6625  -26.7443   22.1214 H   0  0  0  0  0  0
  -19.6883  -25.6301   21.1247 H   0  0  0  0  0  0
  -19.6650  -27.3219   20.6772 H   0  0  0  0  0  0
  -17.4169  -26.6696   21.4045 H   0  0  0  0  0  0
  -18.0291  -26.0066   22.9034 H   0  0  0  0  0  0
  -19.7943  -30.7252   24.2317 H   0  0  0  0  0  0
  -17.5029  -31.6274   24.5184 H   0  0  0  0  0  0
  -15.5361  -30.3037   23.7615 H   0  0  0  0  0  0
  -15.8662  -28.0859   22.7048 H   0  0  0  0  0  0
  -24.5876  -30.7120   25.7877 H   0  0  0  0  0  0
  -24.8929  -32.2959   26.4937 H   0  0  0  0  0  0
  -25.8057  -30.8979   27.0308 H   0  0  0  0  0  0
  -26.2866  -29.6861   24.1141 H   0  0  0  0  0  0
  -27.4028  -29.7277   25.4585 H   0  0  0  0  0  0
  -27.8708  -30.4408   23.9328 H   0  0  0  0  0  0
  -27.2658  -33.3664   26.2099 H   0  0  0  0  0  0
  -28.3851  -32.6921   25.0359 H   0  0  0  0  0  0
  -28.0714  -31.8506   26.5449 H   0  0  0  0  0  0
  -28.2596  -38.0097   24.7509 H   0  0  0  0  0  0
  -28.1048  -36.2628   24.6288 H   0  0  0  0  0  0
  -27.2301  -37.1471   25.8874 H   0  0  0  0  0  0
  -20.9327  -29.8845   21.7025 H   0  0  0  0  0  0
  -26.0178  -38.2890   24.1421 H   0  0  0  0  0  0
  -32.0967  -19.6413   19.6523 H   0  0  0  0  0  0
  -32.3473  -17.3755   20.6019 H   0  0  0  0  0  0
  -27.8799  -18.9518   19.1405 H   0  0  0  0  0  0
  -31.5722  -17.2758   25.3538 H   0  0  0  0  0  0
  -29.8443  -17.2624   25.0439 H   0  0  0  0  0  0
  -30.0820  -14.9946   25.7498 H   0  0  0  0  0  0
  -31.7354  -14.9216   25.1515 H   0  0  0  0  0  0
  -31.9923  -17.5183   23.0755 H   0  0  0  0  0  0
  -30.2585  -17.7402   22.8858 H   0  0  0  0  0  0
  -29.1925  -14.8827   23.5194 H   0  0  0  0  0  0
  -30.5048  -13.7039   23.4562 H   0  0  0  0  0  0
  -32.0160  -15.3235   22.5063 H   0  0  0  0  0  0
  -28.5119  -22.9804   18.4725 H   0  0  0  0  0  0
  -29.9358  -23.4785   17.6134 H   0  0  0  0  0  0
  -30.5038  -25.1009   19.2198 H   0  0  0  0  0  0
  -29.8026  -24.2333   20.5647 H   0  0  0  0  0  0
  -27.5558  -24.7912   19.8845 H   0  0  0  0  0  0
  -28.1041  -25.5001   18.3708 H   0  0  0  0  0  0
  -28.8193  -20.9113   18.3475 H   0  0  0  0  0  0
  -27.1249  -17.0503   19.7996 H   0  0  0  0  0  0
  1 25  1  0  0  0
  1 30  2  0  0  0
  1 87  1  0  0  0
  2  3  1  0  0  0
  2 25  1  0  0  0
  2 90  1  0  0  0
  2 91  1  0  0  0
  3  4  1  0  0  0
  3 92  1  0  0  0
  3 93  1  0  0  0
  4  5  1  0  0  0
  4 94  1  0  0  0
  4 95  1  0  0  0
  5  6  1  0  0  0
  5 26  1  0  0  0
  5 96  1  0  0  0
  6 25  1  0  0  0
  6 97  1  0  0  0
  6 98  1  0  0  0
  7  8  2  0  0  0
  7 26  1  0  0  0
  7 29  1  0  0  0
  8  9  1  0  0  0
  8 22  1  0  0  0
  9 10  1  0  0  0
  9 27  2  0  0  0
 10 11  2  0  0  0
 10 15  1  0  0  0
 11 12  1  0  0  0
 11 99  1  0  0  0
 12 13  2  0  0  0
 12100  1  0  0  0
 13 14  1  0  0  0
 13 31  1  0  0  0
 14 15  2  0  0  0
 14101  1  0  0  0
 15102  1  0  0  0
 16 17  2  0  0  0
 16 21  1  0  0  0
 16 31  1  0  0  0
 17 18  1  0  0  0
 17103  1  0  0  0
 18 19  2  0  0  0
 18104  1  0  0  0
 19 20  1  0  0  0
 19 24  1  0  0  0
 20 21  2  0  0  0
 20105  1  0  0  0
 21 23  1  0  0  0
 22 28  1  0  0  0
 22 32  2  0  0  0
 26 27  1  0  0  0
 28106  1  0  0  0
 28107  1  0  0  0
 29108  1  0  0  0
 29109  1  0  0  0
 33 34  1  0  0  0
 33 66  1  0  0  0
 33 70  2  0  0  0
 34 36  1  0  0  0
 34 59  1  0  0  0
 34110  1  0  0  0
 35 44  2  0  0  0
 35 45  1  0  0  0
 35 68  1  0  0  0
 36 56  1  0  0  0
 36111  1  0  0  0
 37 39  1  0  0  0
 37 47  1  0  0  0
 37 66  1  0  0  0
 37112  1  0  0  0
 38 43  2  0  0  0
 38 46  1  0  0  0
 38 47  1  0  0  0
 39 64  1  0  0  0
 39 67  2  0  0  0
 40 52  1  0  0  0
 40 53  2  0  0  0
 40 58  1  0  0  0
 41113  1  0  0  0
 41114  1  0  0  0
 41115  1  0  0  0
 41 48  1  0  0  0
 42 43  1  0  0  0
 42 66  1  0  0  0
 42116  1  0  0  0
 42117  1  0  0  0
 43 44  1  0  0  0
 44118  1  0  0  0
 45 46  2  0  0  0
 45119  1  0  0  0
 46120  1  0  0  0
 47121  1  0  0  0
 47122  1  0  0  0
 48 56  1  0  0  0
 48 65  1  0  0  0
 48123  1  0  0  0
 49 50  1  0  0  0
 49 53  1  0  0  0
 49 64  1  0  0  0
 49124  1  0  0  0
 50 51  1  0  0  0
 50125  1  0  0  0
 50126  1  0  0  0
 51 52  1  0  0  0
 51127  1  0  0  0
 51128  1  0  0  0
 52129  1  0  0  0
 52130  1  0  0  0
 53 54  1  0  0  0
 54 55  2  0  0  0
 54131  1  0  0  0
 55 57  1  0  0  0
 55132  1  0  0  0
 56 69  2  0  0  0
 57 58  2  0  0  0
 57133  1  0  0  0
 58134  1  0  0  0
 59 60  1  0  0  0
 59 61  1  0  0  0
 59 62  1  0  0  0
 60135  1  0  0  0
 60136  1  0  0  0
 60137  1  0  0  0
 61138  1  0  0  0
 61139  1  0  0  0
 61140  1  0  0  0
 62141  1  0  0  0
 62142  1  0  0  0
 62143  1  0  0  0
 63 65  1  0  0  0
 63144  1  0  0  0
 63145  1  0  0  0
 63146  1  0  0  0
 64147  1  0  0  0
 65148  1  0  0  0
 68 85  1  0  0  0
 71 72  2  0  0  0
 71 74  1  0  0  0
 71149  1  0  0  0
 72 75  1  0  0  0
 72150  1  0  0  0
 73 74  2  0  0  0
 73 76  1  0  0  0
 73151  1  0  0  0
 74 86  1  0  0  0
 75 76  2  0  0  0
 75 87  1  0  0  0
 76 89  1  0  0  0
 77 83  1  0  0  0
 77 86  1  0  0  0
 77 88  2  0  0  0
 78 79  1  0  0  0
 78 80  1  0  0  0
 78152  1  0  0  0
 78153  1  0  0  0
 79 81  1  0  0  0
 79154  1  0  0  0
 79155  1  0  0  0
 80 82  1  0  0  0
 80156  1  0  0  0
 80157  1  0  0  0
 81 82  1  0  0  0
 81158  1  0  0  0
 81159  1  0  0  0
 82 87  1  0  0  0
 82160  1  0  0  0
 83 84  1  0  0  0
 83161  1  0  0  0
 83162  1  0  0  0
 84 85  1  0  0  0
 84163  1  0  0  0
 84164  1  0  0  0
 85165  1  0  0  0
 85166  1  0  0  0
 86167  1  0  0  0
 89168  1  0  0  0
M  ISO  4   1 100  68 101  85 101  87 100
M  END
> <chiral flag>
0

> <version>
0

> <s_m_source_file>
/data/baiqing/PycharmProjects/Reinvent-master-3.2/result/LINK_invent/BTK/process_docking_weight1_custom_product_contain_oxygen_bond_distance_aromatic_linkinvent_7_9_3/rearranged_h_0101.sdf

> <i_m_source_file_index>
57

> <r_mmod_Potential_Energy-OPLS-2005>
162.302856445312

> <r_mmod_Stretch_Energy-OPLS-2005>
49.4240989685059

> <r_mmod_Bend_Energy-OPLS-2005>
157.56916809082

> <r_mmod_Torsional_Energy-OPLS-2005>
357.023681640625

> <r_mmod_Improper_Torsional_Energy-OPLS-2005>
7.2002739906311

> <r_mmod_Van_der_Waal_Energy-OPLS-2005>
165.903930664062

> <r_mmod_Electrostatic_Energy-OPLS-2005>
-373.746063232422

> <r_mmod_Solvation_Energy-OPLS-2005>
-226.719009399414

> <b_mmod_Minimization_Converged-OPLS-2005>
0

> <r_mmod_RMS_Derivative-OPLS-2005>
4.75277328491211

$$$$
57
                    3D
 Structure written by MMmdl.
156164  0  0  1  0            999 V2000
  -30.6545  -14.6231   20.5792 C   0  0  0  0  0  0
  -30.4382  -12.4051   19.4566 C   0  0  0  0  0  0
  -29.5095  -12.5318   18.2272 C   0  0  0  0  0  0
  -28.0306  -12.3606   18.6276 C   0  0  0  0  0  0
  -27.6563  -13.2117   19.8680 C   0  0  2  0  0  0
  -28.6924  -13.0149   20.9924 C   0  0  0  0  0  0
  -25.2565  -13.8160   20.5653 C   0  0  0  0  0  0
  -24.1829  -13.0431   20.9165 C   0  0  0  0  0  0
  -24.6390  -11.6899   20.8718 C   0  0  0  0  0  0
  -23.9056  -10.4289   21.0400 C   0  0  0  0  0  0
  -24.3612   -9.4208   21.9181 C   0  0  0  0  0  0
  -23.6290   -8.2243   22.0754 C   0  0  0  0  0  0
  -22.4273   -8.0280   21.3545 C   0  0  0  0  0  0
  -21.9905   -9.0250   20.4646 C   0  0  0  0  0  0
  -22.7226  -10.2131   20.3052 C   0  0  0  0  0  0
  -21.6852   -6.0732   22.5275 C   0  0  0  0  0  0
  -21.4014   -6.5639   23.8207 C   0  0  0  0  0  0
  -21.3660   -5.6796   24.9173 C   0  0  0  0  0  0
  -21.6044   -4.3057   24.7226 C   0  0  0  0  0  0
  -21.8820   -3.8146   23.4348 C   0  0  0  0  0  0
  -21.9191   -4.6959   22.3402 C   0  0  0  0  0  0
  -22.7854  -13.5224   21.1846 C   0  0  0  0  0  0
  -22.1659   -4.2145   21.0979 F   0  0  0  0  0  0
  -21.5628   -3.4542   25.7740 F   0  0  0  0  0  0
  -30.0153  -13.4036   20.4663 N   0  0  0  0  0  0
  -26.2991  -12.9330   20.3297 N   0  0  0  0  0  0
  -25.9311  -11.6487   20.5716 N   0  0  0  0  0  0
  -22.0504  -12.8213   22.0406 N   0  0  0  0  0  0
  -25.4297  -15.1881   20.4070 N   0  0  0  0  0  0
  -31.7431  -14.8178   20.0253 O   0  0  0  0  0  0
  -21.6641   -6.8874   21.4237 O   0  0  0  0  0  0
  -22.3532  -14.5532   20.6705 O   0  0  0  0  0  0
  -24.6248  -31.8598   23.2025 C   0  0  0  0  0  0
  -25.9094  -32.4782   23.8355 C   0  0  1  0  0  0
  -27.2289  -27.3341   20.1208 C   0  0  0  0  0  0
  -25.5912  -33.8583   24.2282 N   0  0  0  0  0  0
  -23.4181  -30.4824   21.5448 C   0  0  2  0  0  0
  -24.8659  -28.9338   20.1146 C   0  0  0  0  0  0
  -22.7460  -29.4631   22.4948 C   0  0  0  0  0  0
  -18.0296  -28.1373   22.8492 C   0  0  0  0  0  0
  -24.1488  -36.7300   23.2638 C   0  0  0  0  0  0
  -25.9570  -30.7965   21.3695 C   0  0  0  0  0  0
  -26.0335  -29.4230   20.7154 C   0  0  0  0  0  0
  -27.2203  -28.6352   20.7056 C   0  0  0  0  0  0
  -26.0429  -26.8897   19.4989 C   0  0  0  0  0  0
  -24.8712  -27.6715   19.4985 C   0  0  0  0  0  0
  -23.6324  -29.8123   20.1619 C   0  0  0  0  0  0
  -25.4112  -36.3089   24.0330 C   0  0  1  0  0  0
  -20.5886  -28.3682   23.1292 C   0  0  2  0  0  0
  -20.6785  -26.9414   22.5399 C   0  0  0  0  0  0
  -19.5765  -26.6392   21.5202 C   0  0  0  0  0  0
  -18.1947  -26.7921   22.1619 C   0  0  0  0  0  0
  -19.1543  -28.8844   23.2891 C   0  0  0  0  0  0
  -18.9463  -30.1445   23.8906 C   0  0  0  0  0  0
  -17.6465  -30.6580   24.0564 C   0  0  0  0  0  0
  -25.9043  -34.9454   23.5106 C   0  0  0  0  0  0
  -16.5358  -29.9077   23.6330 C   0  0  0  0  0  0
  -16.7280  -28.6490   23.0355 C   0  0  0  0  0  0
  -26.4484  -31.6591   25.0721 C   0  0  0  0  0  0
  -25.3726  -31.3723   26.1454 C   0  0  0  0  0  0
  -27.0325  -30.3021   24.6153 C   0  0  0  0  0  0
  -27.6043  -32.4326   25.7494 C   0  0  0  0  0  0
  -27.5578  -37.1806   24.8464 C   0  0  0  0  0  0
  -21.4174  -29.3044   22.3691 N   0  0  0  0  0  0
  -26.4294  -37.3781   23.9404 N   0  0  0  0  0  0
  -24.6855  -31.0624   22.0966 N   0  0  0  0  0  0
  -23.4189  -28.8169   23.3022 O   0  0  0  0  0  0
  -28.3549  -26.5045   20.1221 O   0  0  0  0  0  0
  -26.5617  -34.8920   22.4673 O   0  0  0  0  0  0
  -23.5414  -32.1383   23.7366 O   0  0  0  0  0  0
  -29.5247  -18.2853   21.8315 C   0  0  0  0  0  0
  -29.3653  -19.6443   21.4388 C   0  0  0  0  0  0
  -30.1303  -17.6781   19.6051 C   0  0  0  0  0  0
  -29.9117  -17.2400   20.9380 C   0  0  0  0  0  0
  -29.5843  -20.0730   20.1072 C   0  0  0  0  0  0
  -29.9660  -19.0369   19.1855 C   0  0  0  0  0  0
  -30.0064  -15.7752   21.4411 C   0  0  0  0  0  0
  -29.5121  -20.2824   17.1698 C   0  0  0  0  0  0
  -28.9315  -23.9351   19.8631 C   0  0  0  0  0  0
  -28.1952  -25.1215   20.6210 C   0  0  0  0  0  0
  -28.9005  -22.4822   20.5212 C   0  0  0  0  0  0
  -29.6006  -15.5226   22.6174 N   0  0  0  0  0  0
  -30.2185  -19.2497   17.8462 O   0  0  0  0  0  0
  -29.4830  -21.4213   19.6968 O   0  0  0  0  0  0
  -31.4783  -12.5332   19.1528 H   0  0  0  0  0  0
  -30.3825  -11.3986   19.8750 H   0  0  0  0  0  0
  -29.7809  -11.7925   17.4724 H   0  0  0  0  0  0
  -29.6518  -13.5088   17.7628 H   0  0  0  0  0  0
  -27.8654  -11.3040   18.8420 H   0  0  0  0  0  0
  -27.3784  -12.6052   17.7886 H   0  0  0  0  0  0
  -27.6919  -14.2570   19.5608 H   0  0  0  0  0  0
  -28.7122  -11.9691   21.3030 H   0  0  0  0  0  0
  -28.3814  -13.5515   21.8827 H   0  0  0  0  0  0
  -25.2762   -9.5686   22.4748 H   0  0  0  0  0  0
  -23.9997   -7.4638   22.7480 H   0  0  0  0  0  0
  -21.0831   -8.8767   19.8957 H   0  0  0  0  0  0
  -22.3683  -10.9668   19.6158 H   0  0  0  0  0  0
  -21.2006   -7.6148   23.9708 H   0  0  0  0  0  0
  -21.1482   -6.0528   25.9075 H   0  0  0  0  0  0
  -22.0600   -2.7608   23.2848 H   0  0  0  0  0  0
  -22.4123  -11.9869   22.4785 H   0  0  0  0  0  0
  -21.1135  -13.1251   22.2642 H   0  0  0  0  0  0
  -24.6687  -15.8485   20.5216 H   0  0  0  0  0  0
  -26.2919  -15.6264   20.1075 H   0  0  0  0  0  0
  -26.7163  -32.5459   23.1109 H   0  0  0  0  0  0
  -25.0053  -33.9730   25.0422 H   0  0  0  0  0  0
  -22.7116  -31.3023   21.4002 H   0  0  0  0  0  0
  -23.3747  -35.9638   23.3308 H   0  0  0  0  0  0
  -24.3579  -36.8913   22.2051 H   0  0  0  0  0  0
  -23.7246  -37.6507   23.6657 H   0  0  0  0  0  0
  -26.0822  -31.5591   20.5995 H   0  0  0  0  0  0
  -26.8398  -30.8493   21.9953 H   0  0  0  0  0  0
  -28.1198  -29.0084   21.1744 H   0  0  0  0  0  0
  -26.0176  -25.9243   19.0133 H   0  0  0  0  0  0
  -23.9769  -27.2918   19.0234 H   0  0  0  0  0  0
  -23.7488  -30.5866   19.4022 H   0  0  0  0  0  0
  -22.7534  -29.2386   19.8631 H   0  0  0  0  0  0
  -25.1296  -36.1943   25.0826 H   0  0  0  0  0  0
  -20.9981  -28.3253   24.1412 H   0  0  0  0  0  0
  -20.5685  -26.2287   23.3587 H   0  0  0  0  0  0
  -21.6656  -26.7447   22.1195 H   0  0  0  0  0  0
  -19.6937  -25.6307   21.1217 H   0  0  0  0  0  0
  -19.6693  -27.3206   20.6734 H   0  0  0  0  0  0
  -17.4215  -26.6662   21.4026 H   0  0  0  0  0  0
  -18.0360  -26.0053   22.9007 H   0  0  0  0  0  0
  -19.7939  -30.7256   24.2284 H   0  0  0  0  0  0
  -17.5021  -31.6261   24.5159 H   0  0  0  0  0  0
  -15.5358  -30.2981   23.7652 H   0  0  0  0  0  0
  -15.8683  -28.0811   22.7068 H   0  0  0  0  0  0
  -24.5901  -30.7067   25.7792 H   0  0  0  0  0  0
  -24.8916  -32.2887   26.4885 H   0  0  0  0  0  0
  -25.8058  -30.8904   27.0226 H   0  0  0  0  0  0
  -26.2893  -29.6777   24.1179 H   0  0  0  0  0  0
  -27.4037  -29.7268   25.4643 H   0  0  0  0  0  0
  -27.8754  -30.4322   23.9362 H   0  0  0  0  0  0
  -27.2649  -33.3621   26.2080 H   0  0  0  0  0  0
  -28.3851  -32.6893   25.0321 H   0  0  0  0  0  0
  -28.0715  -31.8446   26.5403 H   0  0  0  0  0  0
  -28.2604  -38.0096   24.7504 H   0  0  0  0  0  0
  -28.1067  -36.2626   24.6303 H   0  0  0  0  0  0
  -27.2295  -37.1474   25.8868 H   0  0  0  0  0  0
  -20.9343  -29.8759   21.6897 H   0  0  0  0  0  0
  -26.0175  -38.2859   24.1399 H   0  0  0  0  0  0
  -29.3365  -18.0613   22.8717 H   0  0  0  0  0  0
  -29.0792  -20.3598   22.1957 H   0  0  0  0  0  0
  -30.4167  -16.9506   18.8591 H   0  0  0  0  0  0
  -30.0147  -21.2439   17.2770 H   0  0  0  0  0  0
  -28.4793  -20.3713   17.5106 H   0  0  0  0  0  0
  -29.4823  -20.0527   16.1047 H   0  0  0  0  0  0
  -29.9755  -24.2164   19.7227 H   0  0  0  0  0  0
  -28.5090  -23.8646   18.8608 H   0  0  0  0  0  0
  -28.5671  -25.1366   21.6459 H   0  0  0  0  0  0
  -27.1426  -24.8545   20.7197 H   0  0  0  0  0  0
  -27.8667  -22.2118   20.7393 H   0  0  0  0  0  0
  -29.4235  -22.5221   21.4775 H   0  0  0  0  0  0
  -29.2267  -16.3517   23.0600 H   0  0  0  0  0  0
  1 25  1  0  0  0
  1 30  2  0  0  0
  1 77  1  0  0  0
  2  3  1  0  0  0
  2 25  1  0  0  0
  2 85  1  0  0  0
  2 86  1  0  0  0
  3  4  1  0  0  0
  3 87  1  0  0  0
  3 88  1  0  0  0
  4  5  1  0  0  0
  4 89  1  0  0  0
  4 90  1  0  0  0
  5  6  1  0  0  0
  5 26  1  0  0  0
  5 91  1  0  0  0
  6 25  1  0  0  0
  6 92  1  0  0  0
  6 93  1  0  0  0
  7  8  2  0  0  0
  7 26  1  0  0  0
  7 29  1  0  0  0
  8  9  1  0  0  0
  8 22  1  0  0  0
  9 10  1  0  0  0
  9 27  2  0  0  0
 10 11  2  0  0  0
 10 15  1  0  0  0
 11 12  1  0  0  0
 11 94  1  0  0  0
 12 13  2  0  0  0
 12 95  1  0  0  0
 13 14  1  0  0  0
 13 31  1  0  0  0
 14 15  2  0  0  0
 14 96  1  0  0  0
 15 97  1  0  0  0
 16 17  2  0  0  0
 16 21  1  0  0  0
 16 31  1  0  0  0
 17 18  1  0  0  0
 17 98  1  0  0  0
 18 19  2  0  0  0
 18 99  1  0  0  0
 19 20  1  0  0  0
 19 24  1  0  0  0
 20 21  2  0  0  0
 20100  1  0  0  0
 21 23  1  0  0  0
 22 28  1  0  0  0
 22 32  2  0  0  0
 26 27  1  0  0  0
 28101  1  0  0  0
 28102  1  0  0  0
 29103  1  0  0  0
 29104  1  0  0  0
 33 34  1  0  0  0
 33 66  1  0  0  0
 33 70  2  0  0  0
 34 36  1  0  0  0
 34 59  1  0  0  0
 34105  1  0  0  0
 35 44  2  0  0  0
 35 45  1  0  0  0
 35 68  1  0  0  0
 36 56  1  0  0  0
 36106  1  0  0  0
 37 39  1  0  0  0
 37 47  1  0  0  0
 37 66  1  0  0  0
 37107  1  0  0  0
 38 43  2  0  0  0
 38 46  1  0  0  0
 38 47  1  0  0  0
 39 64  1  0  0  0
 39 67  2  0  0  0
 40 52  1  0  0  0
 40 53  2  0  0  0
 40 58  1  0  0  0
 41108  1  0  0  0
 41109  1  0  0  0
 41110  1  0  0  0
 41 48  1  0  0  0
 42 43  1  0  0  0
 42 66  1  0  0  0
 42111  1  0  0  0
 42112  1  0  0  0
 43 44  1  0  0  0
 44113  1  0  0  0
 45 46  2  0  0  0
 45114  1  0  0  0
 46115  1  0  0  0
 47116  1  0  0  0
 47117  1  0  0  0
 48 56  1  0  0  0
 48 65  1  0  0  0
 48118  1  0  0  0
 49 50  1  0  0  0
 49 53  1  0  0  0
 49 64  1  0  0  0
 49119  1  0  0  0
 50 51  1  0  0  0
 50120  1  0  0  0
 50121  1  0  0  0
 51 52  1  0  0  0
 51122  1  0  0  0
 51123  1  0  0  0
 52124  1  0  0  0
 52125  1  0  0  0
 53 54  1  0  0  0
 54 55  2  0  0  0
 54126  1  0  0  0
 55 57  1  0  0  0
 55127  1  0  0  0
 56 69  2  0  0  0
 57 58  2  0  0  0
 57128  1  0  0  0
 58129  1  0  0  0
 59 60  1  0  0  0
 59 61  1  0  0  0
 59 62  1  0  0  0
 60130  1  0  0  0
 60131  1  0  0  0
 60132  1  0  0  0
 61133  1  0  0  0
 61134  1  0  0  0
 61135  1  0  0  0
 62136  1  0  0  0
 62137  1  0  0  0
 62138  1  0  0  0
 63 65  1  0  0  0
 63139  1  0  0  0
 63140  1  0  0  0
 63141  1  0  0  0
 64142  1  0  0  0
 65143  1  0  0  0
 68 80  1  0  0  0
 71 72  2  0  0  0
 71 74  1  0  0  0
 71144  1  0  0  0
 72 75  1  0  0  0
 72145  1  0  0  0
 73 74  2  0  0  0
 73 76  1  0  0  0
 73146  1  0  0  0
 74 77  1  0  0  0
 75 76  2  0  0  0
 75 84  1  0  0  0
 76 83  1  0  0  0
 77 82  2  0  0  0
 78 83  1  0  0  0
 78147  1  0  0  0
 78148  1  0  0  0
 78149  1  0  0  0
 79 80  1  0  0  0
 79 81  1  0  0  0
 79150  1  0  0  0
 79151  1  0  0  0
 80152  1  0  0  0
 80153  1  0  0  0
 81 84  1  0  0  0
 81154  1  0  0  0
 81155  1  0  0  0
 82156  1  0  0  0
M  ISO  4   1 100  68 101  77 100  80 101
M  END
> <chiral flag>
0

> <version>
0

> <s_m_source_file>
/data/baiqing/PycharmProjects/Reinvent-master-3.2/result/LINK_invent/BTK/process_docking_weight1_custom_product_contain_oxygen_bond_distance_aromatic_linkinvent_7_9_3/rearranged_h_0101.sdf

> <i_m_source_file_index>
58

> <r_mmod_Potential_Energy-OPLS-2005>
216.069030761719

> <r_mmod_Stretch_Energy-OPLS-2005>
90.6702423095703

> <r_mmod_Bend_Energy-OPLS-2005>
160.263366699219

> <r_mmod_Torsional_Energy-OPLS-2005>
215.12060546875

> <r_mmod_Improper_Torsional_Energy-OPLS-2005>
2.3287353515625

> <r_mmod_Van_der_Waal_Energy-OPLS-2005>
157.438858032227

> <r_mmod_Electrostatic_Energy-OPLS-2005>
-242.926345825195

> <r_mmod_Solvation_Energy-OPLS-2005>
-206.341857910156

> <b_mmod_Minimization_Converged-OPLS-2005>
0

> <r_mmod_RMS_Derivative-OPLS-2005>
0.843963444232941

$$$$
58
                    3D
 Structure written by MMmdl.
155163  0  0  1  0            999 V2000
  -30.5730  -14.7100   20.3729 C   0  0  0  0  0  0
  -30.4554  -12.4162   19.4120 C   0  0  0  0  0  0
  -29.5184  -12.3979   18.1983 C   0  0  0  0  0  0
  -28.0588  -12.2340   18.6596 C   0  0  0  0  0  0
  -27.6789  -13.1530   19.8515 C   0  0  2  0  0  0
  -28.7199  -13.0693   20.9997 C   0  0  0  0  0  0
  -25.3120  -13.8024   20.5767 C   0  0  0  0  0  0
  -24.2144  -13.0445   20.9161 C   0  0  0  0  0  0
  -24.6603  -11.6891   20.8845 C   0  0  0  0  0  0
  -23.9270  -10.4422   21.0591 C   0  0  0  0  0  0
  -24.3908   -9.4274   21.9275 C   0  0  0  0  0  0
  -23.6519   -8.2409   22.0930 C   0  0  0  0  0  0
  -22.4452   -8.0592   21.3744 C   0  0  0  0  0  0
  -22.0172   -9.0534   20.4837 C   0  0  0  0  0  0
  -22.7552  -10.2327   20.3120 C   0  0  0  0  0  0
  -21.6990   -6.0938   22.5183 C   0  0  0  0  0  0
  -21.4067   -6.5815   23.8071 C   0  0  0  0  0  0
  -21.3586   -5.6963   24.9068 C   0  0  0  0  0  0
  -21.5937   -4.3151   24.7090 C   0  0  0  0  0  0
  -21.8861   -3.8311   23.4183 C   0  0  0  0  0  0
  -21.9283   -4.7197   22.3300 C   0  0  0  0  0  0
  -22.8176  -13.5400   21.1610 C   0  0  0  0  0  0
  -22.1780   -4.2349   21.0862 F   0  0  0  0  0  0
  -21.5549   -3.4614   25.7591 F   0  0  0  0  0  0
  -29.9789  -13.4307   20.3709 N   0  0  0  0  0  0
  -26.3280  -12.9074   20.3205 N   0  0  0  0  0  0
  -25.9440  -11.6290   20.5658 N   0  0  0  0  0  0
  -22.0745  -12.8418   22.0075 N   0  0  0  0  0  0
  -25.5123  -15.1818   20.4934 N   0  0  0  0  0  0
  -31.6986  -14.9122   19.9017 O   0  0  0  0  0  0
  -21.6879   -6.9099   21.4210 O   0  0  0  0  0  0
  -22.3888  -14.5507   20.6152 O   0  0  0  0  0  0
  -24.6275  -31.8776   23.2578 C   0  0  0  0  0  0
  -25.9168  -32.4903   23.8723 C   0  0  1  0  0  0
  -27.0762  -27.3286   19.9564 C   0  0  0  0  0  0
  -25.6037  -33.8780   24.2551 N   0  0  0  0  0  0
  -23.4067  -30.5326   21.6143 C   0  0  2  0  0  0
  -24.8093  -29.0567   20.1031 C   0  0  0  0  0  0
  -22.7459  -29.4673   22.5220 C   0  0  0  0  0  0
  -18.0265  -28.1363   22.8494 C   0  0  0  0  0  0
  -24.1472  -36.7332   23.2638 C   0  0  0  0  0  0
  -25.9662  -30.7714   21.4484 C   0  0  0  0  0  0
  -26.0002  -29.4269   20.7432 C   0  0  0  0  0  0
  -27.1415  -28.5638   20.6958 C   0  0  0  0  0  0
  -25.9016  -27.1383   19.2014 C   0  0  0  0  0  0
  -24.7615  -27.9005   19.3341 C   0  0  0  0  0  0
  -23.6098  -29.9595   20.1971 C   0  0  0  0  0  0
  -25.4094  -36.3247   24.0385 C   0  0  1  0  0  0
  -20.5836  -28.3649   23.1364 C   0  0  2  0  0  0
  -20.6788  -26.9410   22.5436 C   0  0  0  0  0  0
  -19.5763  -26.6372   21.5244 C   0  0  0  0  0  0
  -18.1922  -26.7921   22.1625 C   0  0  0  0  0  0
  -19.1507  -28.8834   23.2900 C   0  0  0  0  0  0
  -18.9432  -30.1440   23.8919 C   0  0  0  0  0  0
  -17.6438  -30.6585   24.0564 C   0  0  0  0  0  0
  -25.9056  -34.9540   23.5223 C   0  0  0  0  0  0
  -16.5338  -29.9070   23.6310 C   0  0  0  0  0  0
  -16.7248  -28.6467   23.0357 C   0  0  0  0  0  0
  -26.4505  -31.6728   25.1094 C   0  0  0  0  0  0
  -25.3687  -31.3861   26.1783 C   0  0  0  0  0  0
  -27.0291  -30.3119   24.6603 C   0  0  0  0  0  0
  -27.6103  -32.4430   25.7797 C   0  0  0  0  0  0
  -27.5599  -37.1857   24.8441 C   0  0  0  0  0  0
  -21.4197  -29.3048   22.3804 N   0  0  0  0  0  0
  -26.4278  -37.3923   23.9447 N   0  0  0  0  0  0
  -24.6919  -31.0719   22.1627 N   0  0  0  0  0  0
  -23.4255  -28.8016   23.3096 O   0  0  0  0  0  0
  -28.0300  -26.3007   19.9417 O   0  0  0  0  0  0
  -26.5550  -34.8951   22.4769 O   0  0  0  0  0  0
  -23.5444  -32.1628   23.7828 O   0  0  0  0  0  0
  -28.3404  -17.2748   19.7322 C   0  0  0  0  0  0
  -26.6275  -18.4281   21.0502 C   0  0  0  0  0  0
  -27.9679  -16.6808   22.0656 C   0  0  0  0  0  0
  -27.2769  -18.2502   19.8114 C   0  0  0  0  0  0
  -28.7247  -16.5201   20.8902 C   0  0  0  0  0  0
  -26.9115  -17.6180   22.1364 C   0  0  0  0  0  0
  -26.6464  -19.0410   18.6506 C   0  0  0  0  0  0
  -26.8846  -21.4251   18.3458 C   0  0  0  0  0  0
  -28.0081  -22.4905   18.5162 C   0  0  0  0  0  0
  -27.8464  -23.5633   19.6759 C   0  0  0  0  0  0
  -27.6192  -25.0409   19.2102 C   0  0  0  0  0  0
  -27.2181  -20.1363   18.0804 N   0  0  0  0  0  0
  -25.5543  -18.6723   18.2585 O   0  0  0  0  0  0
  -25.7107  -21.8005   18.2785 O   0  0  0  0  0  0
  -29.8997  -15.7507   21.0914 O   0  0  0  0  0  0
  -26.1926  -17.7485   23.2632 F   0  0  0  0  0  0
  -31.4769  -12.6282   19.0914 H   0  0  0  0  0  0
  -30.5215  -11.4254   19.8865 H   0  0  0  0  0  0
  -29.7927  -11.6267   17.4912 H   0  0  0  0  0  0
  -29.6572  -13.3175   17.6804 H   0  0  0  0  0  0
  -27.4330  -12.4540   17.7949 H   0  0  0  0  0  0
  -27.9011  -11.1793   18.9317 H   0  0  0  0  0  0
  -27.6820  -14.1674   19.4646 H   0  0  0  0  0  0
  -28.7738  -12.0308   21.3260 H   0  0  0  0  0  0
  -28.4477  -13.6638   21.8623 H   0  0  0  0  0  0
  -25.3131   -9.5788   22.4869 H   0  0  0  0  0  0
  -24.0168   -7.4847   22.7744 H   0  0  0  0  0  0
  -21.0941   -8.9215   19.9212 H   0  0  0  0  0  0
  -22.4084  -11.0060   19.6224 H   0  0  0  0  0  0
  -21.2118   -7.6298   23.9576 H   0  0  0  0  0  0
  -21.1288   -6.0676   25.8871 H   0  0  0  0  0  0
  -22.0707   -2.7773   23.2621 H   0  0  0  0  0  0
  -22.4451  -12.0072   22.4442 H   0  0  0  0  0  0
  -21.1438  -13.1649   22.1837 H   0  0  0  0  0  0
  -24.8017  -15.8320   20.8442 H   0  0  0  0  0  0
  -26.3843  -15.6863   20.3708 H   0  0  0  0  0  0
  -26.7202  -32.5422   23.1432 H   0  0  0  0  0  0
  -25.0304  -33.9992   25.0771 H   0  0  0  0  0  0
  -22.6935  -31.3571   21.5333 H   0  0  0  0  0  0
  -23.3881  -35.9500   23.3124 H   0  0  0  0  0  0
  -24.3599  -36.9130   22.2084 H   0  0  0  0  0  0
  -23.6950  -37.6392   23.6719 H   0  0  0  0  0  0
  -26.1301  -31.5713   20.7249 H   0  0  0  0  0  0
  -26.8397  -30.7796   22.0922 H   0  0  0  0  0  0
  -28.0402  -28.8254   21.2383 H   0  0  0  0  0  0
  -25.7790  -26.4303   18.3928 H   0  0  0  0  0  0
  -23.8776  -27.6746   18.7569 H   0  0  0  0  0  0
  -23.7802  -30.8081   19.5291 H   0  0  0  0  0  0
  -22.7011  -29.4782   19.8265 H   0  0  0  0  0  0
  -25.1216  -36.2222   25.0869 H   0  0  0  0  0  0
  -20.9857  -28.3171   24.1516 H   0  0  0  0  0  0
  -20.5750  -26.2261   23.3585 H   0  0  0  0  0  0
  -21.6636  -26.7525   22.1179 H   0  0  0  0  0  0
  -19.6932  -25.6272   21.1273 H   0  0  0  0  0  0
  -19.6695  -27.3168   20.6743 H   0  0  0  0  0  0
  -17.4205  -26.6675   21.4006 H   0  0  0  0  0  0
  -18.0316  -26.0044   22.8999 H   0  0  0  0  0  0
  -19.7904  -30.7249   24.2313 H   0  0  0  0  0  0
  -17.4986  -31.6271   24.5153 H   0  0  0  0  0  0
  -15.5314  -30.2987   23.7654 H   0  0  0  0  0  0
  -15.8652  -28.0808   22.7096 H   0  0  0  0  0  0
  -24.6032  -30.6984   25.8186 H   0  0  0  0  0  0
  -24.8645  -32.2972   26.5035 H   0  0  0  0  0  0
  -25.8013  -30.9289   27.0696 H   0  0  0  0  0  0
  -26.2855  -29.6899   24.1631 H   0  0  0  0  0  0
  -27.3879  -29.7417   25.5182 H   0  0  0  0  0  0
  -27.8830  -30.4346   23.9934 H   0  0  0  0  0  0
  -27.2876  -33.3887   26.2164 H   0  0  0  0  0  0
  -28.4038  -32.6703   25.0668 H   0  0  0  0  0  0
  -28.0618  -31.8673   26.5888 H   0  0  0  0  0  0
  -28.2570  -38.0228   24.7699 H   0  0  0  0  0  0
  -28.1171  -36.2778   24.6035 H   0  0  0  0  0  0
  -27.2343  -37.1234   25.8852 H   0  0  0  0  0  0
  -20.9357  -29.8991   21.7232 H   0  0  0  0  0  0
  -26.0210  -38.3010   24.1582 H   0  0  0  0  0  0
  -28.8277  -17.0823   18.7855 H   0  0  0  0  0  0
  -25.8998  -19.2255   21.1249 H   0  0  0  0  0  0
  -28.2954  -16.1774   22.9420 H   0  0  0  0  0  0
  -28.0955  -23.0072   17.5534 H   0  0  0  0  0  0
  -28.9538  -21.9780   18.6390 H   0  0  0  0  0  0
  -28.6166  -23.4896   20.4332 H   0  0  0  0  0  0
  -26.9510  -23.2811   20.2363 H   0  0  0  0  0  0
  -26.5414  -24.9098   19.1825 H   0  0  0  0  0  0
  -27.8741  -25.1821   18.1633 H   0  0  0  0  0  0
  -26.7739  -20.0061   17.1678 H   0  0  0  0  0  0
  1 25  1  0  0  0
  1 30  2  0  0  0
  1 85  1  0  0  0
  2  3  1  0  0  0
  2 25  1  0  0  0
  2 87  1  0  0  0
  2 88  1  0  0  0
  3  4  1  0  0  0
  3 89  1  0  0  0
  3 90  1  0  0  0
  4  5  1  0  0  0
  4 91  1  0  0  0
  4 92  1  0  0  0
  5  6  1  0  0  0
  5 26  1  0  0  0
  5 93  1  0  0  0
  6 25  1  0  0  0
  6 94  1  0  0  0
  6 95  1  0  0  0
  7  8  2  0  0  0
  7 26  1  0  0  0
  7 29  1  0  0  0
  8  9  1  0  0  0
  8 22  1  0  0  0
  9 10  1  0  0  0
  9 27  2  0  0  0
 10 11  2  0  0  0
 10 15  1  0  0  0
 11 12  1  0  0  0
 11 96  1  0  0  0
 12 13  2  0  0  0
 12 97  1  0  0  0
 13 14  1  0  0  0
 13 31  1  0  0  0
 14 15  2  0  0  0
 14 98  1  0  0  0
 15 99  1  0  0  0
 16 17  2  0  0  0
 16 21  1  0  0  0
 16 31  1  0  0  0
 17 18  1  0  0  0
 17100  1  0  0  0
 18 19  2  0  0  0
 18101  1  0  0  0
 19 20  1  0  0  0
 19 24  1  0  0  0
 20 21  2  0  0  0
 20102  1  0  0  0
 21 23  1  0  0  0
 22 28  1  0  0  0
 22 32  2  0  0  0
 26 27  1  0  0  0
 28103  1  0  0  0
 28104  1  0  0  0
 29105  1  0  0  0
 29106  1  0  0  0
 33 34  1  0  0  0
 33 66  1  0  0  0
 33 70  2  0  0  0
 34 36  1  0  0  0
 34 59  1  0  0  0
 34107  1  0  0  0
 35 44  2  0  0  0
 35 45  1  0  0  0
 35 68  1  0  0  0
 36 56  1  0  0  0
 36108  1  0  0  0
 37 39  1  0  0  0
 37 47  1  0  0  0
 37 66  1  0  0  0
 37109  1  0  0  0
 38 43  2  0  0  0
 38 46  1  0  0  0
 38 47  1  0  0  0
 39 64  1  0  0  0
 39 67  2  0  0  0
 40 52  1  0  0  0
 40 53  2  0  0  0
 40 58  1  0  0  0
 41110  1  0  0  0
 41111  1  0  0  0
 41112  1  0  0  0
 41 48  1  0  0  0
 42 43  1  0  0  0
 42 66  1  0  0  0
 42113  1  0  0  0
 42114  1  0  0  0
 43 44  1  0  0  0
 44115  1  0  0  0
 45 46  2  0  0  0
 45116  1  0  0  0
 46117  1  0  0  0
 47118  1  0  0  0
 47119  1  0  0  0
 48 56  1  0  0  0
 48 65  1  0  0  0
 48120  1  0  0  0
 49 50  1  0  0  0
 49 53  1  0  0  0
 49 64  1  0  0  0
 49121  1  0  0  0
 50 51  1  0  0  0
 50122  1  0  0  0
 50123  1  0  0  0
 51 52  1  0  0  0
 51124  1  0  0  0
 51125  1  0  0  0
 52126  1  0  0  0
 52127  1  0  0  0
 53 54  1  0  0  0
 54 55  2  0  0  0
 54128  1  0  0  0
 55 57  1  0  0  0
 55129  1  0  0  0
 56 69  2  0  0  0
 57 58  2  0  0  0
 57130  1  0  0  0
 58131  1  0  0  0
 59 60  1  0  0  0
 59 61  1  0  0  0
 59 62  1  0  0  0
 60132  1  0  0  0
 60133  1  0  0  0
 60134  1  0  0  0
 61135  1  0  0  0
 61136  1  0  0  0
 61137  1  0  0  0
 62138  1  0  0  0
 62139  1  0  0  0
 62140  1  0  0  0
 63 65  1  0  0  0
 63141  1  0  0  0
 63142  1  0  0  0
 63143  1  0  0  0
 64144  1  0  0  0
 65145  1  0  0  0
 68 81  1  0  0  0
 71 74  2  0  0  0
 71 75  1  0  0  0
 71146  1  0  0  0
 72 74  1  0  0  0
 72 76  2  0  0  0
 72147  1  0  0  0
 73 75  2  0  0  0
 73 76  1  0  0  0
 73148  1  0  0  0
 74 77  1  0  0  0
 75 85  1  0  0  0
 76 86  1  0  0  0
 77 82  1  0  0  0
 77 83  2  0  0  0
 78 79  1  0  0  0
 78 82  1  0  0  0
 78 84  2  0  0  0
 79 80  1  0  0  0
 79149  1  0  0  0
 79150  1  0  0  0
 80 81  1  0  0  0
 80151  1  0  0  0
 80152  1  0  0  0
 81153  1  0  0  0
 81154  1  0  0  0
 82155  1  0  0  0
M  ISO  4   1 100  68 101  81 101  85 100
M  END
> <chiral flag>
0

> <version>
0

> <s_m_source_file>
/data/baiqing/PycharmProjects/Reinvent-master-3.2/result/LINK_invent/BTK/process_docking_weight1_custom_product_contain_oxygen_bond_distance_aromatic_linkinvent_7_9_3/rearranged_h_0101.sdf

> <i_m_source_file_index>
59

> <r_mmod_Potential_Energy-OPLS-2005>
322.734924316406

> <r_mmod_Stretch_Energy-OPLS-2005>
92.5686798095703

> <r_mmod_Bend_Energy-OPLS-2005>
281.195220947266

> <r_mmod_Torsional_Energy-OPLS-2005>
363.275726318359

> <r_mmod_Improper_Torsional_Energy-OPLS-2005>
16.3699150085449

> <r_mmod_Van_der_Waal_Energy-OPLS-2005>
169.116302490234

> <r_mmod_Electrostatic_Energy-OPLS-2005>
-509.311614990234

> <r_mmod_Solvation_Energy-OPLS-2005>
-230.662094116211

> <b_mmod_Minimization_Converged-OPLS-2005>
0

> <r_mmod_RMS_Derivative-OPLS-2005>
33.808723449707

$$$$
59
                    3D
 Structure written by MMmdl.
163172  0  0  1  0            999 V2000
  -30.6192  -14.6469   20.5124 C   0  0  0  0  0  0
  -30.4409  -12.4017   19.4527 C   0  0  0  0  0  0
  -29.5095  -12.5194   18.2251 C   0  0  0  0  0  0
  -28.0321  -12.3544   18.6345 C   0  0  0  0  0  0
  -27.6554  -13.2196   19.8655 C   0  0  2  0  0  0
  -28.6989  -13.0659   20.9949 C   0  0  0  0  0  0
  -25.2565  -13.8176   20.5672 C   0  0  0  0  0  0
  -24.1829  -13.0445   20.9176 C   0  0  0  0  0  0
  -24.6405  -11.6911   20.8735 C   0  0  0  0  0  0
  -23.9076  -10.4293   21.0402 C   0  0  0  0  0  0
  -24.3622   -9.4206   21.9181 C   0  0  0  0  0  0
  -23.6293   -8.2240   22.0748 C   0  0  0  0  0  0
  -22.4272   -8.0284   21.3541 C   0  0  0  0  0  0
  -21.9915   -9.0258   20.4646 C   0  0  0  0  0  0
  -22.7248  -10.2133   20.3055 C   0  0  0  0  0  0
  -21.6856   -6.0743   22.5277 C   0  0  0  0  0  0
  -21.4018   -6.5638   23.8213 C   0  0  0  0  0  0
  -21.3657   -5.6785   24.9168 C   0  0  0  0  0  0
  -21.6045   -4.3049   24.7218 C   0  0  0  0  0  0
  -21.8819   -3.8150   23.4338 C   0  0  0  0  0  0
  -21.9190   -4.6971   22.3401 C   0  0  0  0  0  0
  -22.7853  -13.5241   21.1839 C   0  0  0  0  0  0
  -22.1665   -4.2164   21.0976 F   0  0  0  0  0  0
  -21.5624   -3.4530   25.7732 F   0  0  0  0  0  0
  -30.0163  -13.4166   20.4386 N   0  0  0  0  0  0
  -26.2999  -12.9365   20.3316 N   0  0  0  0  0  0
  -25.9332  -11.6513   20.5737 N   0  0  0  0  0  0
  -22.0486  -12.8239   22.0397 N   0  0  0  0  0  0
  -25.4284  -15.1894   20.4091 N   0  0  0  0  0  0
  -31.7678  -14.8207   20.0938 O   0  0  0  0  0  0
  -21.6635   -6.8882   21.4238 O   0  0  0  0  0  0
  -22.3537  -14.5549   20.6694 O   0  0  0  0  0  0
  -24.6271  -31.8599   23.2020 C   0  0  0  0  0  0
  -25.9112  -32.4783   23.8352 C   0  0  1  0  0  0
  -27.2279  -27.3149   20.1169 C   0  0  0  0  0  0
  -25.5922  -33.8582   24.2276 N   0  0  0  0  0  0
  -23.4204  -30.4840   21.5461 C   0  0  2  0  0  0
  -24.8664  -28.9375   20.1149 C   0  0  0  0  0  0
  -22.7479  -29.4628   22.4945 C   0  0  0  0  0  0
  -18.0288  -28.1396   22.8482 C   0  0  0  0  0  0
  -24.1486  -36.7290   23.2636 C   0  0  0  0  0  0
  -25.9626  -30.7901   21.3726 C   0  0  0  0  0  0
  -26.0374  -29.4169   20.7151 C   0  0  0  0  0  0
  -27.2213  -28.6196   20.7030 C   0  0  0  0  0  0
  -26.0278  -26.8875   19.5007 C   0  0  0  0  0  0
  -24.8638  -27.6777   19.4997 C   0  0  0  0  0  0
  -23.6350  -29.8187   20.1619 C   0  0  0  0  0  0
  -25.4114  -36.3085   24.0326 C   0  0  1  0  0  0
  -20.5889  -28.3694   23.1281 C   0  0  2  0  0  0
  -20.6781  -26.9418   22.5409 C   0  0  0  0  0  0
  -19.5755  -26.6390   21.5215 C   0  0  0  0  0  0
  -18.1933  -26.7938   22.1621 C   0  0  0  0  0  0
  -19.1541  -28.8862   23.2876 C   0  0  0  0  0  0
  -18.9469  -30.1464   23.8896 C   0  0  0  0  0  0
  -17.6469  -30.6592   24.0568 C   0  0  0  0  0  0
  -25.9048  -34.9457   23.5101 C   0  0  0  0  0  0
  -16.5357  -29.9090   23.6336 C   0  0  0  0  0  0
  -16.7275  -28.6510   23.0348 C   0  0  0  0  0  0
  -26.4495  -31.6593   25.0723 C   0  0  0  0  0  0
  -25.3730  -31.3731   26.1452 C   0  0  0  0  0  0
  -27.0330  -30.3018   24.6170 C   0  0  0  0  0  0
  -27.6051  -32.4331   25.7495 C   0  0  0  0  0  0
  -27.5579  -37.1799   24.8464 C   0  0  0  0  0  0
  -21.4194  -29.3043   22.3678 N   0  0  0  0  0  0
  -26.4288  -37.3785   23.9411 N   0  0  0  0  0  0
  -24.6891  -31.0612   22.0970 N   0  0  0  0  0  0
  -23.4200  -28.8168   23.3027 O   0  0  0  0  0  0
  -28.3531  -26.4714   20.1508 O   0  0  0  0  0  0
  -26.5627  -34.8924   22.4673 O   0  0  0  0  0  0
  -23.5432  -32.1397   23.7345 O   0  0  0  0  0  0
  -29.6163  -19.3477   21.9276 C   0  0  0  0  0  0
  -30.1304  -19.2542   19.5754 C   0  0  0  0  0  0
  -29.8762  -20.0588   20.7244 C   0  0  0  0  0  0
  -29.6435  -17.9245   21.9896 C   0  0  0  0  0  0
  -29.9371  -17.1262   20.8515 C   0  0  0  0  0  0
  -30.1551  -17.8132   19.6204 C   0  0  0  0  0  0
  -31.2451  -21.9774   21.2287 C   0  0  0  0  0  0
  -29.0945  -22.4357   20.2912 C   0  0  0  0  0  0
  -31.5434  -23.4777   21.3945 C   0  0  0  0  0  0
  -30.2872  -24.3553   21.4340 C   0  0  0  0  0  0
  -29.3755  -24.0062   20.2587 C   0  0  2  0  0  0
  -30.5208  -17.6673   17.2449 C   0  0  0  0  0  0
  -28.1319  -25.0004   20.1509 C   0  0  0  0  0  0
  -30.0528  -21.5306   20.7294 N   0  0  0  0  0  0
  -29.3917  -17.2929   23.2088 N   0  0  0  0  0  0
  -29.8444  -15.6712   20.9824 N   0  0  0  0  0  0
  -32.1570  -21.2053   21.5544 O   0  0  0  0  0  0
  -27.9904  -22.0421   19.8969 O   0  0  0  0  0  0
  -30.3603  -17.0280   18.5038 O   0  0  0  0  0  0
  -31.4809  -12.5330   19.1487 H   0  0  0  0  0  0
  -30.3803  -11.4035   19.8879 H   0  0  0  0  0  0
  -29.7746  -11.7738   17.4749 H   0  0  0  0  0  0
  -29.6497  -13.4922   17.7511 H   0  0  0  0  0  0
  -27.8657  -11.3005   18.8595 H   0  0  0  0  0  0
  -27.3794  -12.5925   17.7934 H   0  0  0  0  0  0
  -27.6768  -14.2569   19.5301 H   0  0  0  0  0  0
  -28.7101  -12.0408   21.3667 H   0  0  0  0  0  0
  -28.4373  -13.6866   21.8527 H   0  0  0  0  0  0
  -25.2765   -9.5681   22.4755 H   0  0  0  0  0  0
  -24.0003   -7.4631   22.7467 H   0  0  0  0  0  0
  -21.0844   -8.8783   19.8954 H   0  0  0  0  0  0
  -22.3709  -10.9670   19.6165 H   0  0  0  0  0  0
  -21.2013   -7.6149   23.9722 H   0  0  0  0  0  0
  -21.1481   -6.0512   25.9070 H   0  0  0  0  0  0
  -22.0605   -2.7617   23.2831 H   0  0  0  0  0  0
  -22.4090  -11.9905   22.4797 H   0  0  0  0  0  0
  -21.1112  -13.1277   22.2602 H   0  0  0  0  0  0
  -24.6651  -15.8473   20.5232 H   0  0  0  0  0  0
  -26.2829  -15.6278   20.0889 H   0  0  0  0  0  0
  -26.7183  -32.5455   23.1101 H   0  0  0  0  0  0
  -25.0074  -33.9734   25.0424 H   0  0  0  0  0  0
  -22.7141  -31.3046   21.4033 H   0  0  0  0  0  0
  -23.3756  -35.9612   23.3301 H   0  0  0  0  0  0
  -24.3579  -36.8914   22.2051 H   0  0  0  0  0  0
  -23.7232  -37.6486   23.6665 H   0  0  0  0  0  0
  -26.0953  -31.5519   20.6033 H   0  0  0  0  0  0
  -26.8428  -30.8395   22.0015 H   0  0  0  0  0  0
  -28.1208  -28.9856   21.1783 H   0  0  0  0  0  0
  -25.9526  -25.9285   19.0137 H   0  0  0  0  0  0
  -23.9660  -27.3020   19.0280 H   0  0  0  0  0  0
  -23.7563  -30.5950   19.4057 H   0  0  0  0  0  0
  -22.7546  -29.2494   19.8585 H   0  0  0  0  0  0
  -25.1295  -36.1935   25.0818 H   0  0  0  0  0  0
  -20.9986  -28.3279   24.1400 H   0  0  0  0  0  0
  -20.5698  -26.2306   23.3611 H   0  0  0  0  0  0
  -21.6651  -26.7457   22.1200 H   0  0  0  0  0  0
  -19.6921  -25.6302   21.1244 H   0  0  0  0  0  0
  -19.6694  -27.3202   20.6748 H   0  0  0  0  0  0
  -17.4207  -26.6687   21.4021 H   0  0  0  0  0  0
  -18.0326  -26.0083   22.9018 H   0  0  0  0  0  0
  -19.7947  -30.7281   24.2262 H   0  0  0  0  0  0
  -17.5024  -31.6271   24.5170 H   0  0  0  0  0  0
  -15.5360  -30.2992   23.7665 H   0  0  0  0  0  0
  -15.8673  -28.0831   22.7063 H   0  0  0  0  0  0
  -24.5891  -30.7100   25.7780 H   0  0  0  0  0  0
  -24.8938  -32.2897   26.4897 H   0  0  0  0  0  0
  -25.8052  -30.8890   27.0215 H   0  0  0  0  0  0
  -26.2894  -29.6779   24.1199 H   0  0  0  0  0  0
  -27.4037  -29.7270   25.4666 H   0  0  0  0  0  0
  -27.8764  -30.4311   23.9384 H   0  0  0  0  0  0
  -27.2656  -33.3626   26.2077 H   0  0  0  0  0  0
  -28.3853  -32.6902   25.0319 H   0  0  0  0  0  0
  -28.0727  -31.8458   26.5406 H   0  0  0  0  0  0
  -28.2594  -38.0097   24.7523 H   0  0  0  0  0  0
  -28.1076  -36.2634   24.6274 H   0  0  0  0  0  0
  -27.2301  -37.1432   25.8866 H   0  0  0  0  0  0
  -20.9380  -29.8751   21.6871 H   0  0  0  0  0  0
  -26.0169  -38.2854   24.1433 H   0  0  0  0  0  0
  -29.4308  -19.9092   22.8328 H   0  0  0  0  0  0
  -30.3355  -19.7756   18.6527 H   0  0  0  0  0  0
  -32.1819  -23.7782   20.5624 H   0  0  0  0  0  0
  -32.1297  -23.6275   22.3019 H   0  0  0  0  0  0
  -30.5781  -25.4050   21.3846 H   0  0  0  0  0  0
  -29.7588  -24.2232   22.3796 H   0  0  0  0  0  0
  -29.9530  -24.1647   19.3467 H   0  0  0  0  0  0
  -30.6671  -16.9114   16.4734 H   0  0  0  0  0  0
  -31.3965  -18.3168   17.2346 H   0  0  0  0  0  0
  -29.6371  -18.2467   16.9739 H   0  0  0  0  0  0
  -27.4291  -24.7681   20.9526 H   0  0  0  0  0  0
  -27.6384  -24.7276   19.2196 H   0  0  0  0  0  0
  -29.5186  -17.8391   24.0543 H   0  0  0  0  0  0
  -29.7526  -16.3508   23.3111 H   0  0  0  0  0  0
  -29.0143  -15.3684   21.4681 H   0  0  0  0  0  0
  1 25  1  0  0  0
  1 30  2  0  0  0
  1 86  1  0  0  0
  2  3  1  0  0  0
  2 25  1  0  0  0
  2 90  1  0  0  0
  2 91  1  0  0  0
  3  4  1  0  0  0
  3 92  1  0  0  0
  3 93  1  0  0  0
  4  5  1  0  0  0
  4 94  1  0  0  0
  4 95  1  0  0  0
  5  6  1  0  0  0
  5 26  1  0  0  0
  5 96  1  0  0  0
  6 25  1  0  0  0
  6 97  1  0  0  0
  6 98  1  0  0  0
  7  8  2  0  0  0
  7 26  1  0  0  0
  7 29  1  0  0  0
  8  9  1  0  0  0
  8 22  1  0  0  0
  9 10  1  0  0  0
  9 27  2  0  0  0
 10 11  2  0  0  0
 10 15  1  0  0  0
 11 12  1  0  0  0
 11 99  1  0  0  0
 12 13  2  0  0  0
 12100  1  0  0  0
 13 14  1  0  0  0
 13 31  1  0  0  0
 14 15  2  0  0  0
 14101  1  0  0  0
 15102  1  0  0  0
 16 17  2  0  0  0
 16 21  1  0  0  0
 16 31  1  0  0  0
 17 18  1  0  0  0
 17103  1  0  0  0
 18 19  2  0  0  0
 18104  1  0  0  0
 19 20  1  0  0  0
 19 24  1  0  0  0
 20 21  2  0  0  0
 20105  1  0  0  0
 21 23  1  0  0  0
 22 28  1  0  0  0
 22 32  2  0  0  0
 26 27  1  0  0  0
 28106  1  0  0  0
 28107  1  0  0  0
 29108  1  0  0  0
 29109  1  0  0  0
 33 34  1  0  0  0
 33 66  1  0  0  0
 33 70  2  0  0  0
 34 36  1  0  0  0
 34 59  1  0  0  0
 34110  1  0  0  0
 35 44  2  0  0  0
 35 45  1  0  0  0
 35 68  1  0  0  0
 36 56  1  0  0  0
 36111  1  0  0  0
 37 39  1  0  0  0
 37 47  1  0  0  0
 37 66  1  0  0  0
 37112  1  0  0  0
 38 43  2  0  0  0
 38 46  1  0  0  0
 38 47  1  0  0  0
 39 64  1  0  0  0
 39 67  2  0  0  0
 40 52  1  0  0  0
 40 53  2  0  0  0
 40 58  1  0  0  0
 41113  1  0  0  0
 41114  1  0  0  0
 41115  1  0  0  0
 41 48  1  0  0  0
 42 43  1  0  0  0
 42 66  1  0  0  0
 42116  1  0  0  0
 42117  1  0  0  0
 43 44  1  0  0  0
 44118  1  0  0  0
 45 46  2  0  0  0
 45119  1  0  0  0
 46120  1  0  0  0
 47121  1  0  0  0
 47122  1  0  0  0
 48 56  1  0  0  0
 48 65  1  0  0  0
 48123  1  0  0  0
 49 50  1  0  0  0
 49 53  1  0  0  0
 49 64  1  0  0  0
 49124  1  0  0  0
 50 51  1  0  0  0
 50125  1  0  0  0
 50126  1  0  0  0
 51 52  1  0  0  0
 51127  1  0  0  0
 51128  1  0  0  0
 52129  1  0  0  0
 52130  1  0  0  0
 53 54  1  0  0  0
 54 55  2  0  0  0
 54131  1  0  0  0
 55 57  1  0  0  0
 55132  1  0  0  0
 56 69  2  0  0  0
 57 58  2  0  0  0
 57133  1  0  0  0
 58134  1  0  0  0
 59 60  1  0  0  0
 59 61  1  0  0  0
 59 62  1  0  0  0
 60135  1  0  0  0
 60136  1  0  0  0
 60137  1  0  0  0
 61138  1  0  0  0
 61139  1  0  0  0
 61140  1  0  0  0
 62141  1  0  0  0
 62142  1  0  0  0
 62143  1  0  0  0
 63 65  1  0  0  0
 63144  1  0  0  0
 63145  1  0  0  0
 63146  1  0  0  0
 64147  1  0  0  0
 65148  1  0  0  0
 68 83  1  0  0  0
 71 73  2  0  0  0
 71 74  1  0  0  0
 71149  1  0  0  0
 72 73  1  0  0  0
 72 76  2  0  0  0
 72150  1  0  0  0
 73 84  1  0  0  0
 74 75  2  0  0  0
 74 85  1  0  0  0
 75 76  1  0  0  0
 75 86  1  0  0  0
 76 89  1  0  0  0
 77 79  1  0  0  0
 77 84  1  0  0  0
 77 87  2  0  0  0
 78 81  1  0  0  0
 78 84  1  0  0  0
 78 88  2  0  0  0
 79 80  1  0  0  0
 79151  1  0  0  0
 79152  1  0  0  0
 80 81  1  0  0  0
 80153  1  0  0  0
 80154  1  0  0  0
 81 83  1  0  0  0
 81155  1  0  0  0
 82 89  1  0  0  0
 82156  1  0  0  0
 82157  1  0  0  0
 82158  1  0  0  0
 83159  1  0  0  0
 83160  1  0  0  0
 85161  1  0  0  0
 85162  1  0  0  0
 86163  1  0  0  0
M  ISO  4   1 100  68 101  83 101  86 100
M  END
> <chiral flag>
0

> <version>
0

> <s_m_source_file>
/data/baiqing/PycharmProjects/Reinvent-master-3.2/result/LINK_invent/BTK/process_docking_weight1_custom_product_contain_oxygen_bond_distance_aromatic_linkinvent_7_9_3/rearranged_h_0101.sdf

> <i_m_source_file_index>
60

> <r_mmod_Potential_Energy-OPLS-2005>
44.7775955200195

> <r_mmod_Stretch_Energy-OPLS-2005>
94.246711730957

> <r_mmod_Bend_Energy-OPLS-2005>
146.983474731445

> <r_mmod_Torsional_Energy-OPLS-2005>
286.841217041016

> <r_mmod_Improper_Torsional_Energy-OPLS-2005>
8.01396179199219

> <r_mmod_Van_der_Waal_Energy-OPLS-2005>
166.866775512695

> <r_mmod_Electrostatic_Energy-OPLS-2005>
-450.592468261719

> <r_mmod_Solvation_Energy-OPLS-2005>
-256.473449707031

> <b_mmod_Minimization_Converged-OPLS-2005>
0

> <r_mmod_RMS_Derivative-OPLS-2005>
1.29111480712891

$$$$
60
                    3D
 Structure written by MMmdl.
158167  0  0  1  0            999 V2000
  -30.5943  -14.6578   20.4892 C   0  0  0  0  0  0
  -30.4387  -12.4075   19.4429 C   0  0  0  0  0  0
  -29.5055  -12.5440   18.2203 C   0  0  0  0  0  0
  -28.0256  -12.3843   18.6286 C   0  0  0  0  0  0
  -27.6536  -13.2239   19.8794 C   0  0  2  0  0  0
  -28.7025  -13.0535   20.9985 C   0  0  0  0  0  0
  -25.2531  -13.8174   20.5805 C   0  0  0  0  0  0
  -24.1806  -13.0424   20.9210 C   0  0  0  0  0  0
  -24.6403  -11.6888   20.8706 C   0  0  0  0  0  0
  -23.9067  -10.4289   21.0357 C   0  0  0  0  0  0
  -24.3610   -9.4214   21.9150 C   0  0  0  0  0  0
  -23.6290   -8.2249   22.0733 C   0  0  0  0  0  0
  -22.4261   -8.0275   21.3545 C   0  0  0  0  0  0
  -21.9898   -9.0240   20.4640 C   0  0  0  0  0  0
  -22.7219  -10.2120   20.3039 C   0  0  0  0  0  0
  -21.6860   -6.0741   22.5271 C   0  0  0  0  0  0
  -21.4013   -6.5642   23.8211 C   0  0  0  0  0  0
  -21.3684   -5.6788   24.9176 C   0  0  0  0  0  0
  -21.6051   -4.3056   24.7238 C   0  0  0  0  0  0
  -21.8808   -3.8159   23.4358 C   0  0  0  0  0  0
  -21.9202   -4.6970   22.3397 C   0  0  0  0  0  0
  -22.7841  -13.5206   21.1924 C   0  0  0  0  0  0
  -22.1653   -4.2176   21.0966 F   0  0  0  0  0  0
  -21.5654   -3.4531   25.7749 F   0  0  0  0  0  0
  -30.0151  -13.4151   20.4342 N   0  0  0  0  0  0
  -26.2985  -12.9368   20.3422 N   0  0  0  0  0  0
  -25.9341  -11.6498   20.5745 N   0  0  0  0  0  0
  -22.0489  -12.8180   22.0466 N   0  0  0  0  0  0
  -25.4277  -15.1930   20.4438 N   0  0  0  0  0  0
  -31.7369  -14.8548   20.0621 O   0  0  0  0  0  0
  -21.6618   -6.8874   21.4230 O   0  0  0  0  0  0
  -22.3498  -14.5536   20.6807 O   0  0  0  0  0  0
  -24.6299  -31.8620   23.2066 C   0  0  0  0  0  0
  -25.9147  -32.4772   23.8390 C   0  0  1  0  0  0
  -27.2055  -27.3012   20.1085 C   0  0  0  0  0  0
  -25.5981  -33.8613   24.2290 N   0  0  0  0  0  0
  -23.4196  -30.4905   21.5452 C   0  0  2  0  0  0
  -24.8618  -28.9470   20.1070 C   0  0  0  0  0  0
  -22.7447  -29.4698   22.4935 C   0  0  0  0  0  0
  -18.0283  -28.1428   22.8522 C   0  0  0  0  0  0
  -24.1493  -36.7282   23.2639 C   0  0  0  0  0  0
  -25.9620  -30.7801   21.3850 C   0  0  0  0  0  0
  -26.0291  -29.4051   20.7270 C   0  0  0  0  0  0
  -27.2011  -28.5873   20.7363 C   0  0  0  0  0  0
  -26.0264  -26.9191   19.4356 C   0  0  0  0  0  0
  -24.8619  -27.7057   19.4565 C   0  0  0  0  0  0
  -23.6341  -29.8304   20.1580 C   0  0  0  0  0  0
  -25.4117  -36.3078   24.0310 C   0  0  1  0  0  0
  -20.5875  -28.3754   23.1291 C   0  0  2  0  0  0
  -20.6802  -26.9466   22.5462 C   0  0  0  0  0  0
  -19.5773  -26.6408   21.5266 C   0  0  0  0  0  0
  -18.1921  -26.7974   22.1616 C   0  0  0  0  0  0
  -19.1532  -28.8911   23.2910 C   0  0  0  0  0  0
  -18.9447  -30.1503   23.8942 C   0  0  0  0  0  0
  -17.6451  -30.6615   24.0615 C   0  0  0  0  0  0
  -25.9066  -34.9458   23.5057 C   0  0  0  0  0  0
  -16.5344  -29.9138   23.6368 C   0  0  0  0  0  0
  -16.7267  -28.6553   23.0392 C   0  0  0  0  0  0
  -26.4516  -31.6626   25.0820 C   0  0  0  0  0  0
  -25.3719  -31.3788   26.1517 C   0  0  0  0  0  0
  -27.0357  -30.3030   24.6390 C   0  0  0  0  0  0
  -27.6076  -32.4393   25.7580 C   0  0  0  0  0  0
  -27.5578  -37.1780   24.8442 C   0  0  0  0  0  0
  -21.4166  -29.3089   22.3641 N   0  0  0  0  0  0
  -26.4267  -37.3776   23.9422 N   0  0  0  0  0  0
  -24.6864  -31.0626   22.1015 N   0  0  0  0  0  0
  -23.4146  -28.8219   23.3016 O   0  0  0  0  0  0
  -28.3004  -26.4264   20.1934 O   0  0  0  0  0  0
  -26.5598  -34.8899   22.4592 O   0  0  0  0  0  0
  -23.5480  -32.1484   23.7392 O   0  0  0  0  0  0
  -29.3191  -19.3232   21.8151 C   0  0  0  0  0  0
  -29.6519  -17.9451   21.9159 C   0  0  0  0  0  0
  -29.2790  -19.1505   19.4202 C   0  0  0  0  0  0
  -29.0492  -19.9554   20.5745 C   0  0  0  0  0  0
  -29.7805  -17.1125   20.7769 C   0  0  0  0  0  0
  -29.6321  -17.7614   19.5120 C   0  0  0  0  0  0
  -26.5425  -23.4185   20.2394 C   0  0  0  0  0  0
  -26.4083  -22.5509   21.4851 C   0  0  0  0  0  0
  -27.1233  -21.1916   21.3416 C   0  0  0  0  0  0
  -28.9883  -22.5765   20.3393 C   0  0  0  0  0  0
  -27.9776  -23.6670   19.7407 C   0  0  2  0  0  0
  -28.4020  -25.1887   19.3769 C   0  0  0  0  0  0
  -28.3632  -21.2233   20.5382 N   0  0  0  0  0  0
  -29.8022  -15.6620   20.9706 N   0  0  0  0  0  0
  -25.5401  -23.7819   19.6199 O   0  0  0  0  0  0
  -29.7167  -17.0315   18.3706 F   0  0  0  0  0  0
  -31.4791  -12.5392   19.1403 H   0  0  0  0  0  0
  -30.3679  -11.4053   19.8666 H   0  0  0  0  0  0
  -29.7619  -11.8114   17.4547 H   0  0  0  0  0  0
  -29.6532  -13.5227   17.7611 H   0  0  0  0  0  0
  -27.8449  -11.3274   18.8257 H   0  0  0  0  0  0
  -27.3732  -12.6567   17.7959 H   0  0  0  0  0  0
  -27.6770  -14.2692   19.5732 H   0  0  0  0  0  0
  -28.7207  -12.0215   21.3512 H   0  0  0  0  0  0
  -28.4545  -13.6581   21.8733 H   0  0  0  0  0  0
  -25.2751   -9.5705   22.4725 H   0  0  0  0  0  0
  -24.0018   -7.4630   22.7418 H   0  0  0  0  0  0
  -21.0835   -8.8740   19.8940 H   0  0  0  0  0  0
  -22.3656  -10.9641   19.6161 H   0  0  0  0  0  0
  -21.1966   -7.6139   23.9747 H   0  0  0  0  0  0
  -21.1520   -6.0506   25.9084 H   0  0  0  0  0  0
  -22.0575   -2.7631   23.2853 H   0  0  0  0  0  0
  -22.4036  -11.9792   22.4823 H   0  0  0  0  0  0
  -21.1139  -13.1221   22.2726 H   0  0  0  0  0  0
  -24.6810  -15.8516   20.6396 H   0  0  0  0  0  0
  -26.3106  -15.6470   20.2485 H   0  0  0  0  0  0
  -26.7231  -32.5383   23.1125 H   0  0  0  0  0  0
  -25.0153  -33.9803   25.0468 H   0  0  0  0  0  0
  -22.7161  -31.3142   21.4044 H   0  0  0  0  0  0
  -23.3783  -35.9589   23.3284 H   0  0  0  0  0  0
  -24.3571  -36.8939   22.2059 H   0  0  0  0  0  0
  -23.7209  -37.6454   23.6698 H   0  0  0  0  0  0
  -26.1113  -31.5423   20.6191 H   0  0  0  0  0  0
  -26.8320  -30.8210   22.0300 H   0  0  0  0  0  0
  -28.0887  -28.9260   21.2552 H   0  0  0  0  0  0
  -25.9626  -25.9916   18.8935 H   0  0  0  0  0  0
  -23.9722  -27.3497   18.9540 H   0  0  0  0  0  0
  -23.7523  -30.6100   19.4057 H   0  0  0  0  0  0
  -22.7498  -29.2665   19.8557 H   0  0  0  0  0  0
  -25.1313  -36.1903   25.0809 H   0  0  0  0  0  0
  -21.0025  -28.3389   24.1385 H   0  0  0  0  0  0
  -20.5799  -26.2361   23.3678 H   0  0  0  0  0  0
  -21.6646  -26.7547   22.1159 H   0  0  0  0  0  0
  -19.6947  -25.6318   21.1290 H   0  0  0  0  0  0
  -19.6716  -27.3244   20.6812 H   0  0  0  0  0  0
  -17.4219  -26.6823   21.3983 H   0  0  0  0  0  0
  -18.0255  -26.0125   22.9011 H   0  0  0  0  0  0
  -19.7916  -30.7347   24.2319 H   0  0  0  0  0  0
  -17.4990  -31.6295   24.5204 H   0  0  0  0  0  0
  -15.5353  -30.3052   23.7670 H   0  0  0  0  0  0
  -15.8661  -28.0874   22.7122 H   0  0  0  0  0  0
  -24.6107  -30.6850   25.7900 H   0  0  0  0  0  0
  -24.8615  -32.2913   26.4660 H   0  0  0  0  0  0
  -25.8031  -30.9287   27.0465 H   0  0  0  0  0  0
  -26.2966  -29.6786   24.1366 H   0  0  0  0  0  0
  -27.3909  -29.7329   25.4978 H   0  0  0  0  0  0
  -27.8903  -30.4265   23.9737 H   0  0  0  0  0  0
  -27.2742  -33.3764   26.2045 H   0  0  0  0  0  0
  -28.3923  -32.6820   25.0415 H   0  0  0  0  0  0
  -28.0719  -31.8609   26.5577 H   0  0  0  0  0  0
  -28.2532  -38.0150   24.7514 H   0  0  0  0  0  0
  -28.1093  -36.2628   24.6169 H   0  0  0  0  0  0
  -27.2294  -37.1351   25.8853 H   0  0  0  0  0  0
  -20.9388  -29.8769   21.6791 H   0  0  0  0  0  0
  -26.0134  -38.2824   24.1498 H   0  0  0  0  0  0
  -29.1782  -19.8795   22.7308 H   0  0  0  0  0  0
  -29.7393  -17.5155   22.9052 H   0  0  0  0  0  0
  -29.0885  -19.5646   18.4379 H   0  0  0  0  0  0
  -25.3544  -22.3968   21.7261 H   0  0  0  0  0  0
  -26.8435  -23.0998   22.3185 H   0  0  0  0  0  0
  -26.4328  -20.4824   20.8799 H   0  0  0  0  0  0
  -27.3004  -20.8124   22.3487 H   0  0  0  0  0  0
  -29.3813  -22.9297   21.2961 H   0  0  0  0  0  0
  -29.8551  -22.4792   19.6803 H   0  0  0  0  0  0
  -27.8864  -23.2738   18.7277 H   0  0  0  0  0  0
  -27.9877  -25.4183   18.3949 H   0  0  0  0  0  0
  -29.4703  -25.1308   19.1611 H   0  0  0  0  0  0
  -28.9867  -15.3057   21.4466 H   0  0  0  0  0  0
  1 25  1  0  0  0
  1 30  2  0  0  0
  1 84  1  0  0  0
  2  3  1  0  0  0
  2 25  1  0  0  0
  2 87  1  0  0  0
  2 88  1  0  0  0
  3  4  1  0  0  0
  3 89  1  0  0  0
  3 90  1  0  0  0
  4  5  1  0  0  0
  4 91  1  0  0  0
  4 92  1  0  0  0
  5  6  1  0  0  0
  5 26  1  0  0  0
  5 93  1  0  0  0
  6 25  1  0  0  0
  6 94  1  0  0  0
  6 95  1  0  0  0
  7  8  2  0  0  0
  7 26  1  0  0  0
  7 29  1  0  0  0
  8  9  1  0  0  0
  8 22  1  0  0  0
  9 10  1  0  0  0
  9 27  2  0  0  0
 10 11  2  0  0  0
 10 15  1  0  0  0
 11 12  1  0  0  0
 11 96  1  0  0  0
 12 13  2  0  0  0
 12 97  1  0  0  0
 13 14  1  0  0  0
 13 31  1  0  0  0
 14 15  2  0  0  0
 14 98  1  0  0  0
 15 99  1  0  0  0
 16 17  2  0  0  0
 16 21  1  0  0  0
 16 31  1  0  0  0
 17 18  1  0  0  0
 17100  1  0  0  0
 18 19  2  0  0  0
 18101  1  0  0  0
 19 20  1  0  0  0
 19 24  1  0  0  0
 20 21  2  0  0  0
 20102  1  0  0  0
 21 23  1  0  0  0
 22 28  1  0  0  0
 22 32  2  0  0  0
 26 27  1  0  0  0
 28103  1  0  0  0
 28104  1  0  0  0
 29105  1  0  0  0
 29106  1  0  0  0
 33 34  1  0  0  0
 33 66  1  0  0  0
 33 70  2  0  0  0
 34 36  1  0  0  0
 34 59  1  0  0  0
 34107  1  0  0  0
 35 44  2  0  0  0
 35 45  1  0  0  0
 35 68  1  0  0  0
 36 56  1  0  0  0
 36108  1  0  0  0
 37 39  1  0  0  0
 37 47  1  0  0  0
 37 66  1  0  0  0
 37109  1  0  0  0
 38 43  2  0  0  0
 38 46  1  0  0  0
 38 47  1  0  0  0
 39 64  1  0  0  0
 39 67  2  0  0  0
 40 52  1  0  0  0
 40 53  2  0  0  0
 40 58  1  0  0  0
 41110  1  0  0  0
 41111  1  0  0  0
 41112  1  0  0  0
 41 48  1  0  0  0
 42 43  1  0  0  0
 42 66  1  0  0  0
 42113  1  0  0  0
 42114  1  0  0  0
 43 44  1  0  0  0
 44115  1  0  0  0
 45 46  2  0  0  0
 45116  1  0  0  0
 46117  1  0  0  0
 47118  1  0  0  0
 47119  1  0  0  0
 48 56  1  0  0  0
 48 65  1  0  0  0
 48120  1  0  0  0
 49 50  1  0  0  0
 49 53  1  0  0  0
 49 64  1  0  0  0
 49121  1  0  0  0
 50 51  1  0  0  0
 50122  1  0  0  0
 50123  1  0  0  0
 51 52  1  0  0  0
 51124  1  0  0  0
 51125  1  0  0  0
 52126  1  0  0  0
 52127  1  0  0  0
 53 54  1  0  0  0
 54 55  2  0  0  0
 54128  1  0  0  0
 55 57  1  0  0  0
 55129  1  0  0  0
 56 69  2  0  0  0
 57 58  2  0  0  0
 57130  1  0  0  0
 58131  1  0  0  0
 59 60  1  0  0  0
 59 61  1  0  0  0
 59 62  1  0  0  0
 60132  1  0  0  0
 60133  1  0  0  0
 60134  1  0  0  0
 61135  1  0  0  0
 61136  1  0  0  0
 61137  1  0  0  0
 62138  1  0  0  0
 62139  1  0  0  0
 62140  1  0  0  0
 63 65  1  0  0  0
 63141  1  0  0  0
 63142  1  0  0  0
 63143  1  0  0  0
 64144  1  0  0  0
 65145  1  0  0  0
 68 82  1  0  0  0
 71 72  2  0  0  0
 71 74  1  0  0  0
 71146  1  0  0  0
 72 75  1  0  0  0
 72147  1  0  0  0
 73 74  2  0  0  0
 73 76  1  0  0  0
 73148  1  0  0  0
 74 83  1  0  0  0
 75 76  2  0  0  0
 75 84  1  0  0  0
 76 86  1  0  0  0
 77 78  1  0  0  0
 77 81  1  0  0  0
 77 85  2  0  0  0
 78 79  1  0  0  0
 78149  1  0  0  0
 78150  1  0  0  0
 79 83  1  0  0  0
 79151  1  0  0  0
 79152  1  0  0  0
 80 81  1  0  0  0
 80 83  1  0  0  0
 80153  1  0  0  0
 80154  1  0  0  0
 81 82  1  0  0  0
 81155  1  0  0  0
 82156  1  0  0  0
 82157  1  0  0  0
 84158  1  0  0  0
M  ISO  4   1 100  68 101  82 101  84 100
M  END
> <chiral flag>
0

> <version>
0

> <s_m_source_file>
/data/baiqing/PycharmProjects/Reinvent-master-3.2/result/LINK_invent/BTK/process_docking_weight1_custom_product_contain_oxygen_bond_distance_aromatic_linkinvent_7_9_3/rearranged_h_0101.sdf

> <i_m_source_file_index>
61

> <r_mmod_Potential_Energy-OPLS-2005>
124.417587280273

> <r_mmod_Stretch_Energy-OPLS-2005>
88.6012268066406

> <r_mmod_Bend_Energy-OPLS-2005>
202.844543457031

> <r_mmod_Torsional_Energy-OPLS-2005>
257.724853515625

> <r_mmod_Improper_Torsional_Energy-OPLS-2005>
9.24803066253662

> <r_mmod_Van_der_Waal_Energy-OPLS-2005>
153.531509399414

> <r_mmod_Electrostatic_Energy-OPLS-2005>
-412.604705810547

> <r_mmod_Solvation_Energy-OPLS-2005>
-234.680114746094

> <b_mmod_Minimization_Converged-OPLS-2005>
0

> <r_mmod_RMS_Derivative-OPLS-2005>
6.15404558181763

$$$$
61
                    3D
 Structure written by MMmdl.
162171  0  0  1  0            999 V2000
  -30.6047  -14.6598   20.4594 C   0  0  0  0  0  0
  -30.4583  -12.4009   19.4360 C   0  0  0  0  0  0
  -29.5200  -12.5095   18.2131 C   0  0  0  0  0  0
  -28.0401  -12.3530   18.6247 C   0  0  0  0  0  0
  -27.6623  -13.2146   19.8595 C   0  0  2  0  0  0
  -28.7146  -13.0653   20.9834 C   0  0  0  0  0  0
  -25.2614  -13.8156   20.5645 C   0  0  0  0  0  0
  -24.1864  -13.0412   20.9141 C   0  0  0  0  0  0
  -24.6432  -11.6892   20.8698 C   0  0  0  0  0  0
  -23.9095  -10.4275   21.0373 C   0  0  0  0  0  0
  -24.3639   -9.4207   21.9168 C   0  0  0  0  0  0
  -23.6307   -8.2250   22.0754 C   0  0  0  0  0  0
  -22.4290   -8.0279   21.3549 C   0  0  0  0  0  0
  -21.9926   -9.0248   20.4647 C   0  0  0  0  0  0
  -22.7252  -10.2127   20.3039 C   0  0  0  0  0  0
  -21.6851   -6.0736   22.5287 C   0  0  0  0  0  0
  -21.3995   -6.5637   23.8219 C   0  0  0  0  0  0
  -21.3657   -5.6784   24.9180 C   0  0  0  0  0  0
  -21.6063   -4.3049   24.7228 C   0  0  0  0  0  0
  -21.8814   -3.8139   23.4344 C   0  0  0  0  0  0
  -21.9192   -4.6962   22.3406 C   0  0  0  0  0  0
  -22.7889  -13.5226   21.1817 C   0  0  0  0  0  0
  -22.1668   -4.2147   21.0983 F   0  0  0  0  0  0
  -21.5645   -3.4537   25.7736 F   0  0  0  0  0  0
  -30.0291  -13.4161   20.4165 N   0  0  0  0  0  0
  -26.3060  -12.9338   20.3292 N   0  0  0  0  0  0
  -25.9368  -11.6492   20.5720 N   0  0  0  0  0  0
  -22.0504  -12.8237   22.0373 N   0  0  0  0  0  0
  -25.4268  -15.1871   20.4122 N   0  0  0  0  0  0
  -31.7640  -14.8515   20.0817 O   0  0  0  0  0  0
  -21.6646   -6.8880   21.4250 O   0  0  0  0  0  0
  -22.3591  -14.5533   20.6666 O   0  0  0  0  0  0
  -24.6207  -31.8665   23.2084 C   0  0  0  0  0  0
  -25.9092  -32.4806   23.8402 C   0  0  1  0  0  0
  -27.2187  -27.3175   20.1215 C   0  0  0  0  0  0
  -25.5941  -33.8617   24.2318 N   0  0  0  0  0  0
  -23.4107  -30.4888   21.5527 C   0  0  2  0  0  0
  -24.8582  -28.9498   20.1075 C   0  0  0  0  0  0
  -22.7443  -29.4669   22.5030 C   0  0  0  0  0  0
  -18.0285  -28.1355   22.8531 C   0  0  0  0  0  0
  -24.1466  -36.7284   23.2647 C   0  0  0  0  0  0
  -25.9499  -30.7943   21.3823 C   0  0  0  0  0  0
  -26.0246  -29.4218   20.7204 C   0  0  0  0  0  0
  -27.2018  -28.6146   20.7262 C   0  0  0  0  0  0
  -26.0333  -26.9150   19.4578 C   0  0  0  0  0  0
  -24.8672  -27.7029   19.4639 C   0  0  0  0  0  0
  -23.6202  -29.8247   20.1656 C   0  0  0  0  0  0
  -25.4096  -36.3105   24.0344 C   0  0  1  0  0  0
  -20.5880  -28.3653   23.1333 C   0  0  2  0  0  0
  -20.6760  -26.9400   22.5420 C   0  0  0  0  0  0
  -19.5731  -26.6364   21.5228 C   0  0  0  0  0  0
  -18.1921  -26.7901   22.1646 C   0  0  0  0  0  0
  -19.1536  -28.8827   23.2919 C   0  0  0  0  0  0
  -18.9464  -30.1437   23.8907 C   0  0  0  0  0  0
  -17.6472  -30.6571   24.0560 C   0  0  0  0  0  0
  -25.9052  -34.9476   23.5124 C   0  0  0  0  0  0
  -16.5364  -29.9059   23.6342 C   0  0  0  0  0  0
  -16.7280  -28.6466   23.0389 C   0  0  0  0  0  0
  -26.4476  -31.6619   25.0782 C   0  0  0  0  0  0
  -25.3706  -31.3791   26.1517 C   0  0  0  0  0  0
  -27.0328  -30.3041   24.6241 C   0  0  0  0  0  0
  -27.6021  -32.4371   25.7563 C   0  0  0  0  0  0
  -27.5574  -37.1802   24.8475 C   0  0  0  0  0  0
  -21.4170  -29.3017   22.3737 N   0  0  0  0  0  0
  -26.4271  -37.3800   23.9437 N   0  0  0  0  0  0
  -24.6789  -31.0652   22.1044 N   0  0  0  0  0  0
  -23.4182  -28.8271   23.3141 O   0  0  0  0  0  0
  -28.3362  -26.4631   20.2033 O   0  0  0  0  0  0
  -26.5608  -34.8935   22.4682 O   0  0  0  0  0  0
  -23.5389  -32.1521   23.7397 O   0  0  0  0  0  0
  -28.6159  -19.2340   21.3552 C   0  0  0  0  0  0
  -30.7150  -17.9547   20.0126 C   0  0  0  0  0  0
  -29.5844  -20.0695   20.7411 C   0  0  0  0  0  0
  -30.6259  -19.3859   20.0453 C   0  0  0  0  0  0
  -29.7687  -17.1360   20.6959 C   0  0  0  0  0  0
  -28.6978  -17.8058   21.3377 C   0  0  0  0  0  0
  -28.7574  -23.5523   21.9531 C   0  0  0  0  0  0
  -29.1718  -22.0782   22.1902 C   0  0  0  0  0  0
  -29.1225  -22.4628   19.8605 C   0  0  0  0  0  0
  -29.1298  -23.9076   20.5023 C   0  0  1  0  0  0
  -26.7468  -17.5978   22.7250 C   0  0  0  0  0  0
  -28.2041  -25.0274   19.8372 C   0  0  0  0  0  0
  -29.5665  -21.5054   20.8992 N   0  0  0  0  0  0
  -31.6103  -20.1566   19.4269 N   0  0  0  0  0  0
  -29.7496  -15.6751   20.7855 N   0  0  0  0  0  0
  -27.7590  -16.9899   21.9365 O   0  0  0  0  0  0
  -31.4912  -12.5528   19.1184 H   0  0  0  0  0  0
  -30.4251  -11.3987   19.8661 H   0  0  0  0  0  0
  -29.7835  -11.7606   17.4641 H   0  0  0  0  0  0
  -29.6644  -13.4770   17.7294 H   0  0  0  0  0  0
  -27.8716  -11.2985   18.8441 H   0  0  0  0  0  0
  -27.3901  -12.5930   17.7833 H   0  0  0  0  0  0
  -27.6755  -14.2522   19.5253 H   0  0  0  0  0  0
  -28.7308  -12.0439   21.3640 H   0  0  0  0  0  0
  -28.4653  -13.6932   21.8414 H   0  0  0  0  0  0
  -25.2784   -9.5688   22.4746 H   0  0  0  0  0  0
  -24.0011   -7.4646   22.7491 H   0  0  0  0  0  0
  -21.0845   -8.8746   19.8970 H   0  0  0  0  0  0
  -22.3690  -10.9653   19.6152 H   0  0  0  0  0  0
  -21.1959   -7.6140   23.9724 H   0  0  0  0  0  0
  -21.1502   -6.0510   25.9089 H   0  0  0  0  0  0
  -22.0598   -2.7599   23.2836 H   0  0  0  0  0  0
  -22.4082  -11.9896   22.4768 H   0  0  0  0  0  0
  -21.1133  -13.1310   22.2545 H   0  0  0  0  0  0
  -24.6606  -15.8332   20.5641 H   0  0  0  0  0  0
  -26.2892  -15.6501   20.1504 H   0  0  0  0  0  0
  -26.7168  -32.5474   23.1161 H   0  0  0  0  0  0
  -25.0057  -33.9778   25.0436 H   0  0  0  0  0  0
  -22.7014  -31.3079   21.4179 H   0  0  0  0  0  0
  -23.3756  -35.9589   23.3302 H   0  0  0  0  0  0
  -24.3559  -36.8911   22.2063 H   0  0  0  0  0  0
  -23.7170  -37.6467   23.6661 H   0  0  0  0  0  0
  -26.0763  -31.5682   20.6249 H   0  0  0  0  0  0
  -26.8282  -30.8428   22.0126 H   0  0  0  0  0  0
  -28.0870  -28.9713   21.2342 H   0  0  0  0  0  0
  -25.9689  -25.9794   18.9256 H   0  0  0  0  0  0
  -23.9794  -27.3413   18.9634 H   0  0  0  0  0  0
  -23.7152  -30.6051   19.4092 H   0  0  0  0  0  0
  -22.7399  -29.2465   19.8773 H   0  0  0  0  0  0
  -25.1261  -36.1956   25.0834 H   0  0  0  0  0  0
  -20.9960  -28.3181   24.1457 H   0  0  0  0  0  0
  -20.5647  -26.2288   23.3612 H   0  0  0  0  0  0
  -21.6636  -26.7433   22.1223 H   0  0  0  0  0  0
  -19.6891  -25.6273   21.1251 H   0  0  0  0  0  0
  -19.6625  -27.3171   20.6750 H   0  0  0  0  0  0
  -17.4201  -26.6710   21.4033 H   0  0  0  0  0  0
  -18.0296  -25.9997   22.8989 H   0  0  0  0  0  0
  -19.7958  -30.7253   24.2246 H   0  0  0  0  0  0
  -17.5039  -31.6263   24.5143 H   0  0  0  0  0  0
  -15.5365  -30.2962   23.7639 H   0  0  0  0  0  0
  -15.8690  -28.0748   22.7126 H   0  0  0  0  0  0
  -24.5831  -30.7190   25.7872 H   0  0  0  0  0  0
  -24.8952  -32.2983   26.4956 H   0  0  0  0  0  0
  -25.8011  -30.8960   27.0297 H   0  0  0  0  0  0
  -26.2942  -29.6822   24.1170 H   0  0  0  0  0  0
  -27.3943  -29.7256   25.4756 H   0  0  0  0  0  0
  -27.8835  -30.4343   23.9545 H   0  0  0  0  0  0
  -27.2597  -33.3646   26.2160 H   0  0  0  0  0  0
  -28.3823  -32.6987   25.0410 H   0  0  0  0  0  0
  -28.0705  -31.8515   26.5480 H   0  0  0  0  0  0
  -28.2588  -38.0103   24.7555 H   0  0  0  0  0  0
  -28.1070  -36.2651   24.6231 H   0  0  0  0  0  0
  -27.2329  -37.1368   25.8887 H   0  0  0  0  0  0
  -20.9338  -29.8732   21.6951 H   0  0  0  0  0  0
  -26.0159  -38.2881   24.1442 H   0  0  0  0  0  0
  -27.7964  -19.7160   21.8587 H   0  0  0  0  0  0
  -31.5166  -17.4797   19.4658 H   0  0  0  0  0  0
  -29.2029  -24.2358   22.6779 H   0  0  0  0  0  0
  -27.6767  -23.6216   22.0850 H   0  0  0  0  0  0
  -28.3360  -21.5499   22.6486 H   0  0  0  0  0  0
  -30.0015  -22.0112   22.8969 H   0  0  0  0  0  0
  -29.7737  -22.4192   18.9863 H   0  0  0  0  0  0
  -28.1159  -22.1983   19.5303 H   0  0  0  0  0  0
  -30.1660  -24.2526   20.4813 H   0  0  0  0  0  0
  -26.0907  -18.2261   22.1187 H   0  0  0  0  0  0
  -27.1815  -18.1907   23.5319 H   0  0  0  0  0  0
  -26.1381  -16.8199   23.1847 H   0  0  0  0  0  0
  -27.1857  -24.6800   20.0117 H   0  0  0  0  0  0
  -28.3574  -24.9777   18.7588 H   0  0  0  0  0  0
  -32.5414  -19.7560   19.3746 H   0  0  0  0  0  0
  -31.6257  -21.1149   19.7660 H   0  0  0  0  0  0
  -28.8728  -15.3295   21.1485 H   0  0  0  0  0  0
  1 25  1  0  0  0
  1 30  2  0  0  0
  1 85  1  0  0  0
  2  3  1  0  0  0
  2 25  1  0  0  0
  2 87  1  0  0  0
  2 88  1  0  0  0
  3  4  1  0  0  0
  3 89  1  0  0  0
  3 90  1  0  0  0
  4  5  1  0  0  0
  4 91  1  0  0  0
  4 92  1  0  0  0
  5  6  1  0  0  0
  5 26  1  0  0  0
  5 93  1  0  0  0
  6 25  1  0  0  0
  6 94  1  0  0  0
  6 95  1  0  0  0
  7  8  2  0  0  0
  7 26  1  0  0  0
  7 29  1  0  0  0
  8  9  1  0  0  0
  8 22  1  0  0  0
  9 10  1  0  0  0
  9 27  2  0  0  0
 10 11  2  0  0  0
 10 15  1  0  0  0
 11 12  1  0  0  0
 11 96  1  0  0  0
 12 13  2  0  0  0
 12 97  1  0  0  0
 13 14  1  0  0  0
 13 31  1  0  0  0
 14 15  2  0  0  0
 14 98  1  0  0  0
 15 99  1  0  0  0
 16 17  2  0  0  0
 16 21  1  0  0  0
 16 31  1  0  0  0
 17 18  1  0  0  0
 17100  1  0  0  0
 18 19  2  0  0  0
 18101  1  0  0  0
 19 20  1  0  0  0
 19 24  1  0  0  0
 20 21  2  0  0  0
 20102  1  0  0  0
 21 23  1  0  0  0
 22 28  1  0  0  0
 22 32  2  0  0  0
 26 27  1  0  0  0
 28103  1  0  0  0
 28104  1  0  0  0
 29105  1  0  0  0
 29106  1  0  0  0
 33 34  1  0  0  0
 33 66  1  0  0  0
 33 70  2  0  0  0
 34 36  1  0  0  0
 34 59  1  0  0  0
 34107  1  0  0  0
 35 44  2  0  0  0
 35 45  1  0  0  0
 35 68  1  0  0  0
 36 56  1  0  0  0
 36108  1  0  0  0
 37 39  1  0  0  0
 37 47  1  0  0  0
 37 66  1  0  0  0
 37109  1  0  0  0
 38 43  2  0  0  0
 38 46  1  0  0  0
 38 47  1  0  0  0
 39 64  1  0  0  0
 39 67  2  0  0  0
 40 52  1  0  0  0
 40 53  2  0  0  0
 40 58  1  0  0  0
 41110  1  0  0  0
 41111  1  0  0  0
 41112  1  0  0  0
 41 48  1  0  0  0
 42 43  1  0  0  0
 42 66  1  0  0  0
 42113  1  0  0  0
 42114  1  0  0  0
 43 44  1  0  0  0
 44115  1  0  0  0
 45 46  2  0  0  0
 45116  1  0  0  0
 46117  1  0  0  0
 47118  1  0  0  0
 47119  1  0  0  0
 48 56  1  0  0  0
 48 65  1  0  0  0
 48120  1  0  0  0
 49 50  1  0  0  0
 49 53  1  0  0  0
 49 64  1  0  0  0
 49121  1  0  0  0
 50 51  1  0  0  0
 50122  1  0  0  0
 50123  1  0  0  0
 51 52  1  0  0  0
 51124  1  0  0  0
 51125  1  0  0  0
 52126  1  0  0  0
 52127  1  0  0  0
 53 54  1  0  0  0
 54 55  2  0  0  0
 54128  1  0  0  0
 55 57  1  0  0  0
 55129  1  0  0  0
 56 69  2  0  0  0
 57 58  2  0  0  0
 57130  1  0  0  0
 58131  1  0  0  0
 59 60  1  0  0  0
 59 61  1  0  0  0
 59 62  1  0  0  0
 60132  1  0  0  0
 60133  1  0  0  0
 60134  1  0  0  0
 61135  1  0  0  0
 61136  1  0  0  0
 61137  1  0  0  0
 62138  1  0  0  0
 62139  1  0  0  0
 62140  1  0  0  0
 63 65  1  0  0  0
 63141  1  0  0  0
 63142  1  0  0  0
 63143  1  0  0  0
 64144  1  0  0  0
 65145  1  0  0  0
 68 82  1  0  0  0
 71 73  2  0  0  0
 71 76  1  0  0  0
 71146  1  0  0  0
 72 74  2  0  0  0
 72 75  1  0  0  0
 72147  1  0  0  0
 73 74  1  0  0  0
 73 83  1  0  0  0
 74 84  1  0  0  0
 75 76  2  0  0  0
 75 85  1  0  0  0
 76 86  1  0  0  0
 77 78  1  0  0  0
 77 80  1  0  0  0
 77148  1  0  0  0
 77149  1  0  0  0
 78 83  1  0  0  0
 78150  1  0  0  0
 78151  1  0  0  0
 79 80  1  0  0  0
 79 83  1  0  0  0
 79152  1  0  0  0
 79153  1  0  0  0
 80 82  1  0  0  0
 80154  1  0  0  0
 81 86  1  0  0  0
 81155  1  0  0  0
 81156  1  0  0  0
 81157  1  0  0  0
 82158  1  0  0  0
 82159  1  0  0  0
 84160  1  0  0  0
 84161  1  0  0  0
 85162  1  0  0  0
M  ISO  4   1 100  68 101  82 101  85 100
M  END
> <chiral flag>
0

> <version>
0

> <s_m_source_file>
/data/baiqing/PycharmProjects/Reinvent-master-3.2/result/LINK_invent/BTK/process_docking_weight1_custom_product_contain_oxygen_bond_distance_aromatic_linkinvent_7_9_3/rearranged_h_0101.sdf

> <i_m_source_file_index>
62

> <r_mmod_Potential_Energy-OPLS-2005>
109.194107055664

> <r_mmod_Stretch_Energy-OPLS-2005>
79.924934387207

> <r_mmod_Bend_Energy-OPLS-2005>
189.403762817383

> <r_mmod_Torsional_Energy-OPLS-2005>
296.529113769531

> <r_mmod_Improper_Torsional_Energy-OPLS-2005>
12.0290517807007

> <r_mmod_Van_der_Waal_Energy-OPLS-2005>
151.300308227539

> <r_mmod_Electrostatic_Energy-OPLS-2005>
-450.720550537109

> <r_mmod_Solvation_Energy-OPLS-2005>
-224.244537353516

> <b_mmod_Minimization_Converged-OPLS-2005>
0

> <r_mmod_RMS_Derivative-OPLS-2005>
4.02196455001831

$$$$
62
                    3D
 Structure written by MMmdl.
152160  0  0  1  0            999 V2000
  -30.6472  -14.6171   20.5593 C   0  0  0  0  0  0
  -30.4352  -12.3938   19.4538 C   0  0  0  0  0  0
  -29.5061  -12.5240   18.2252 C   0  0  0  0  0  0
  -28.0257  -12.3610   18.6219 C   0  0  0  0  0  0
  -27.6541  -13.2085   19.8657 C   0  0  2  0  0  0
  -28.6910  -13.0000   20.9854 C   0  0  0  0  0  0
  -25.2551  -13.8147   20.5647 C   0  0  0  0  0  0
  -24.1805  -13.0420   20.9155 C   0  0  0  0  0  0
  -24.6369  -11.6892   20.8711 C   0  0  0  0  0  0
  -23.9039  -10.4281   21.0397 C   0  0  0  0  0  0
  -24.3595   -9.4209   21.9176 C   0  0  0  0  0  0
  -23.6282   -8.2240   22.0748 C   0  0  0  0  0  0
  -22.4267   -8.0269   21.3540 C   0  0  0  0  0  0
  -21.9893   -9.0241   20.4639 C   0  0  0  0  0  0
  -22.7208  -10.2126   20.3053 C   0  0  0  0  0  0
  -21.6850   -6.0727   22.5282 C   0  0  0  0  0  0
  -21.4009   -6.5637   23.8209 C   0  0  0  0  0  0
  -21.3664   -5.6793   24.9177 C   0  0  0  0  0  0
  -21.6043   -4.3055   24.7225 C   0  0  0  0  0  0
  -21.8822   -3.8143   23.4344 C   0  0  0  0  0  0
  -21.9187   -4.6955   22.3400 C   0  0  0  0  0  0
  -22.7835  -13.5232   21.1830 C   0  0  0  0  0  0
  -22.1658   -4.2143   21.0973 F   0  0  0  0  0  0
  -21.5631   -3.4541   25.7739 F   0  0  0  0  0  0
  -30.0120  -13.3946   20.4594 N   0  0  0  0  0  0
  -26.2973  -12.9313   20.3284 N   0  0  0  0  0  0
  -25.9285  -11.6475   20.5705 N   0  0  0  0  0  0
  -22.0487  -12.8230   22.0405 N   0  0  0  0  0  0
  -25.4266  -15.1858   20.4065 N   0  0  0  0  0  0
  -31.7428  -14.8074   20.0183 O   0  0  0  0  0  0
  -21.6630   -6.8866   21.4242 O   0  0  0  0  0  0
  -22.3514  -14.5537   20.6676 O   0  0  0  0  0  0
  -24.6236  -31.8612   23.2049 C   0  0  0  0  0  0
  -25.9100  -32.4776   23.8361 C   0  0  1  0  0  0
  -27.2314  -27.3357   20.0979 C   0  0  0  0  0  0
  -25.5920  -33.8579   24.2285 N   0  0  0  0  0  0
  -23.4158  -30.4853   21.5487 C   0  0  2  0  0  0
  -24.8597  -28.9407   20.1145 C   0  0  0  0  0  0
  -22.7459  -29.4626   22.4962 C   0  0  0  0  0  0
  -18.0269  -28.1391   22.8491 C   0  0  0  0  0  0
  -24.1481  -36.7292   23.2642 C   0  0  0  0  0  0
  -25.9562  -30.7949   21.3741 C   0  0  0  0  0  0
  -26.0277  -29.4218   20.7178 C   0  0  0  0  0  0
  -27.2103  -28.6285   20.7043 C   0  0  0  0  0  0
  -26.0315  -26.8980   19.4866 C   0  0  0  0  0  0
  -24.8628  -27.6814   19.4956 C   0  0  0  0  0  0
  -23.6282  -29.8210   20.1629 C   0  0  0  0  0  0
  -25.4109  -36.3081   24.0325 C   0  0  1  0  0  0
  -20.5871  -28.3685   23.1300 C   0  0  2  0  0  0
  -20.6759  -26.9412   22.5422 C   0  0  0  0  0  0
  -19.5732  -26.6392   21.5221 C   0  0  0  0  0  0
  -18.1911  -26.7929   22.1639 C   0  0  0  0  0  0
  -19.1524  -28.8853   23.2887 C   0  0  0  0  0  0
  -18.9451  -30.1452   23.8904 C   0  0  0  0  0  0
  -17.6455  -30.6591   24.0568 C   0  0  0  0  0  0
  -25.9048  -34.9451   23.5106 C   0  0  0  0  0  0
  -16.5343  -29.9095   23.6336 C   0  0  0  0  0  0
  -16.7259  -28.6511   23.0355 C   0  0  0  0  0  0
  -26.4490  -31.6588   25.0732 C   0  0  0  0  0  0
  -25.3739  -31.3724   26.1467 C   0  0  0  0  0  0
  -27.0334  -30.3014   24.6195 C   0  0  0  0  0  0
  -27.6046  -32.4321   25.7506 C   0  0  0  0  0  0
  -27.5567  -37.1806   24.8469 C   0  0  0  0  0  0
  -21.4178  -29.3038   22.3708 N   0  0  0  0  0  0
  -26.4281  -37.3779   23.9405 N   0  0  0  0  0  0
  -24.6840  -31.0641   22.0992 N   0  0  0  0  0  0
  -23.4188  -28.8174   23.3041 O   0  0  0  0  0  0
  -28.3947  -26.5520   20.1409 O   0  0  0  0  0  0
  -26.5624  -34.8908   22.4674 O   0  0  0  0  0  0
  -23.5408  -32.1403   23.7395 O   0  0  0  0  0  0
  -29.1485  -17.8374   19.9681 C   0  0  0  0  0  0
  -29.0172  -19.2582   19.8260 C   0  0  0  0  0  0
  -30.8701  -18.1552   21.6144 C   0  0  0  0  0  0
  -30.0467  -17.2458   20.9043 C   0  0  0  0  0  0
  -29.7850  -20.1548   20.6226 C   0  0  0  0  0  0
  -30.7426  -19.5616   21.4808 C   0  0  0  0  0  0
  -29.9730  -15.7877   21.3655 C   0  0  0  0  0  0
  -28.8747  -22.5256   20.0577 C   0  0  0  0  0  0
  -28.8528  -24.0098   20.5966 C   0  0  0  0  0  0
  -28.4783  -25.1801   19.5952 C   0  0  0  0  0  0
  -29.4193  -15.6001   22.4908 N   0  0  0  0  0  0
  -29.6489  -21.6074   20.7058 N   0  0  0  0  0  0
  -28.1923  -22.2286   19.0751 O   0  0  0  0  0  0
  -31.5275  -20.3643   22.2387 F   0  0  0  0  0  0
  -31.4757  -12.5175   19.1496 H   0  0  0  0  0  0
  -30.3787  -11.3883   19.8741 H   0  0  0  0  0  0
  -29.7738  -11.7849   17.4698 H   0  0  0  0  0  0
  -29.6514  -13.5016   17.7635 H   0  0  0  0  0  0
  -27.8458  -11.3048   18.8275 H   0  0  0  0  0  0
  -27.3807  -12.6229   17.7826 H   0  0  0  0  0  0
  -27.6923  -14.2542   19.5596 H   0  0  0  0  0  0
  -28.7121  -11.9493   21.2804 H   0  0  0  0  0  0
  -28.3813  -13.5162   21.8873 H   0  0  0  0  0  0
  -25.2745   -9.5687   22.4748 H   0  0  0  0  0  0
  -23.9991   -7.4633   22.7474 H   0  0  0  0  0  0
  -21.0820   -8.8748   19.8952 H   0  0  0  0  0  0
  -22.3657  -10.9658   19.6163 H   0  0  0  0  0  0
  -21.2004   -7.6154   23.9714 H   0  0  0  0  0  0
  -21.1485   -6.0524   25.9077 H   0  0  0  0  0  0
  -22.0594   -2.7610   23.2844 H   0  0  0  0  0  0
  -22.4097  -11.9903   22.4808 H   0  0  0  0  0  0
  -21.1117  -13.1265   22.2637 H   0  0  0  0  0  0
  -24.6625  -15.8440   20.5149 H   0  0  0  0  0  0
  -26.2874  -15.6258   20.1079 H   0  0  0  0  0  0
  -26.7175  -32.5451   23.1113 H   0  0  0  0  0  0
  -25.0051  -33.9730   25.0418 H   0  0  0  0  0  0
  -22.7066  -31.3034   21.4079 H   0  0  0  0  0  0
  -23.3726  -35.9643   23.3331 H   0  0  0  0  0  0
  -24.3565  -36.8895   22.2052 H   0  0  0  0  0  0
  -23.7247  -37.6506   23.6649 H   0  0  0  0  0  0
  -26.0888  -31.5588   20.6056 H   0  0  0  0  0  0
  -26.8360  -30.8425   22.0042 H   0  0  0  0  0  0
  -28.1096  -28.9978   21.1778 H   0  0  0  0  0  0
  -25.9377  -25.9458   18.9945 H   0  0  0  0  0  0
  -23.9661  -27.3002   19.0264 H   0  0  0  0  0  0
  -23.7515  -30.5986   19.4082 H   0  0  0  0  0  0
  -22.7461  -29.2536   19.8597 H   0  0  0  0  0  0
  -25.1291  -36.1942   25.0818 H   0  0  0  0  0  0
  -20.9951  -28.3252   24.1424 H   0  0  0  0  0  0
  -20.5678  -26.2287   23.3614 H   0  0  0  0  0  0
  -21.6625  -26.7460   22.1207 H   0  0  0  0  0  0
  -19.6903  -25.6308   21.1232 H   0  0  0  0  0  0
  -19.6666  -27.3219   20.6758 H   0  0  0  0  0  0
  -17.4186  -26.6666   21.4039 H   0  0  0  0  0  0
  -18.0318  -26.0070   22.9035 H   0  0  0  0  0  0
  -19.7925  -30.7258   24.2283 H   0  0  0  0  0  0
  -17.5011  -31.6272   24.5169 H   0  0  0  0  0  0
  -15.5344  -30.3008   23.7649 H   0  0  0  0  0  0
  -15.8651  -28.0834   22.7080 H   0  0  0  0  0  0
  -24.5911  -30.7071   25.7807 H   0  0  0  0  0  0
  -24.8926  -32.2891   26.4884 H   0  0  0  0  0  0
  -25.8069  -30.8917   27.0248 H   0  0  0  0  0  0
  -26.2922  -29.6766   24.1200 H   0  0  0  0  0  0
  -27.4012  -29.7260   25.4701 H   0  0  0  0  0  0
  -27.8791  -30.4287   23.9434 H   0  0  0  0  0  0
  -27.2650  -33.3614   26.2083 H   0  0  0  0  0  0
  -28.3854  -32.6898   25.0344 H   0  0  0  0  0  0
  -28.0713  -31.8457   26.5428 H   0  0  0  0  0  0
  -28.2610  -38.0077   24.7479 H   0  0  0  0  0  0
  -28.1033  -36.2604   24.6342 H   0  0  0  0  0  0
  -27.2278  -37.1522   25.8873 H   0  0  0  0  0  0
  -20.9354  -29.8749   21.6915 H   0  0  0  0  0  0
  -26.0163  -38.2856   24.1393 H   0  0  0  0  0  0
  -28.4880  -17.1983   19.3988 H   0  0  0  0  0  0
  -28.2781  -19.6446   19.1383 H   0  0  0  0  0  0
  -31.5670  -17.7745   22.3460 H   0  0  0  0  0  0
  -29.8208  -24.2341   21.0452 H   0  0  0  0  0  0
  -28.1329  -24.0218   21.4152 H   0  0  0  0  0  0
  -27.6075  -24.8749   19.0278 H   0  0  0  0  0  0
  -29.2692  -25.2216   18.8463 H   0  0  0  0  0  0
  -29.0766  -16.4711   22.8782 H   0  0  0  0  0  0
  -30.2169  -22.0046   21.4432 H   0  0  0  0  0  0
  1 25  1  0  0  0
  1 30  2  0  0  0
  1 77  1  0  0  0
  2  3  1  0  0  0
  2 25  1  0  0  0
  2 85  1  0  0  0
  2 86  1  0  0  0
  3  4  1  0  0  0
  3 87  1  0  0  0
  3 88  1  0  0  0
  4  5  1  0  0  0
  4 89  1  0  0  0
  4 90  1  0  0  0
  5  6  1  0  0  0
  5 26  1  0  0  0
  5 91  1  0  0  0
  6 25  1  0  0  0
  6 92  1  0  0  0
  6 93  1  0  0  0
  7  8  2  0  0  0
  7 26  1  0  0  0
  7 29  1  0  0  0
  8  9  1  0  0  0
  8 22  1  0  0  0
  9 10  1  0  0  0
  9 27  2  0  0  0
 10 11  2  0  0  0
 10 15  1  0  0  0
 11 12  1  0  0  0
 11 94  1  0  0  0
 12 13  2  0  0  0
 12 95  1  0  0  0
 13 14  1  0  0  0
 13 31  1  0  0  0
 14 15  2  0  0  0
 14 96  1  0  0  0
 15 97  1  0  0  0
 16 17  2  0  0  0
 16 21  1  0  0  0
 16 31  1  0  0  0
 17 18  1  0  0  0
 17 98  1  0  0  0
 18 19  2  0  0  0
 18 99  1  0  0  0
 19 20  1  0  0  0
 19 24  1  0  0  0
 20 21  2  0  0  0
 20100  1  0  0  0
 21 23  1  0  0  0
 22 28  1  0  0  0
 22 32  2  0  0  0
 26 27  1  0  0  0
 28101  1  0  0  0
 28102  1  0  0  0
 29103  1  0  0  0
 29104  1  0  0  0
 33 34  1  0  0  0
 33 66  1  0  0  0
 33 70  2  0  0  0
 34 36  1  0  0  0
 34 59  1  0  0  0
 34105  1  0  0  0
 35 44  2  0  0  0
 35 45  1  0  0  0
 35 68  1  0  0  0
 36 56  1  0  0  0
 36106  1  0  0  0
 37 39  1  0  0  0
 37 47  1  0  0  0
 37 66  1  0  0  0
 37107  1  0  0  0
 38 43  2  0  0  0
 38 46  1  0  0  0
 38 47  1  0  0  0
 39 64  1  0  0  0
 39 67  2  0  0  0
 40 52  1  0  0  0
 40 53  2  0  0  0
 40 58  1  0  0  0
 41108  1  0  0  0
 41109  1  0  0  0
 41110  1  0  0  0
 41 48  1  0  0  0
 42 43  1  0  0  0
 42 66  1  0  0  0
 42111  1  0  0  0
 42112  1  0  0  0
 43 44  1  0  0  0
 44113  1  0  0  0
 45 46  2  0  0  0
 45114  1  0  0  0
 46115  1  0  0  0
 47116  1  0  0  0
 47117  1  0  0  0
 48 56  1  0  0  0
 48 65  1  0  0  0
 48118  1  0  0  0
 49 50  1  0  0  0
 49 53  1  0  0  0
 49 64  1  0  0  0
 49119  1  0  0  0
 50 51  1  0  0  0
 50120  1  0  0  0
 50121  1  0  0  0
 51 52  1  0  0  0
 51122  1  0  0  0
 51123  1  0  0  0
 52124  1  0  0  0
 52125  1  0  0  0
 53 54  1  0  0  0
 54 55  2  0  0  0
 54126  1  0  0  0
 55 57  1  0  0  0
 55127  1  0  0  0
 56 69  2  0  0  0
 57 58  2  0  0  0
 57128  1  0  0  0
 58129  1  0  0  0
 59 60  1  0  0  0
 59 61  1  0  0  0
 59 62  1  0  0  0
 60130  1  0  0  0
 60131  1  0  0  0
 60132  1  0  0  0
 61133  1  0  0  0
 61134  1  0  0  0
 61135  1  0  0  0
 62136  1  0  0  0
 62137  1  0  0  0
 62138  1  0  0  0
 63 65  1  0  0  0
 63139  1  0  0  0
 63140  1  0  0  0
 63141  1  0  0  0
 64142  1  0  0  0
 65143  1  0  0  0
 68 80  1  0  0  0
 71 72  2  0  0  0
 71 74  1  0  0  0
 71144  1  0  0  0
 72 75  1  0  0  0
 72145  1  0  0  0
 73 74  2  0  0  0
 73 76  1  0  0  0
 73146  1  0  0  0
 74 77  1  0  0  0
 75 76  2  0  0  0
 75 82  1  0  0  0
 76 84  1  0  0  0
 77 81  2  0  0  0
 78 79  1  0  0  0
 78 82  1  0  0  0
 78 83  2  0  0  0
 79 80  1  0  0  0
 79147  1  0  0  0
 79148  1  0  0  0
 80149  1  0  0  0
 80150  1  0  0  0
 81151  1  0  0  0
 82152  1  0  0  0
M  ISO  4   1 100  68 101  77 100  80 101
M  END
> <chiral flag>
0

> <version>
0

> <s_m_source_file>
/data/baiqing/PycharmProjects/Reinvent-master-3.2/result/LINK_invent/BTK/process_docking_weight1_custom_product_contain_oxygen_bond_distance_aromatic_linkinvent_7_9_3/rearranged_h_0101.sdf

> <i_m_source_file_index>
63

> <r_mmod_Potential_Energy-OPLS-2005>
129.054107666016

> <r_mmod_Stretch_Energy-OPLS-2005>
80.5604476928711

> <r_mmod_Bend_Energy-OPLS-2005>
165.679504394531

> <r_mmod_Torsional_Energy-OPLS-2005>
218.649658203125

> <r_mmod_Improper_Torsional_Energy-OPLS-2005>
4.66095161437988

> <r_mmod_Van_der_Waal_Energy-OPLS-2005>
150.584686279297

> <r_mmod_Electrostatic_Energy-OPLS-2005>
-313.363098144531

> <r_mmod_Solvation_Energy-OPLS-2005>
-214.825592041016

> <b_mmod_Minimization_Converged-OPLS-2005>
0

> <r_mmod_RMS_Derivative-OPLS-2005>
2.23217916488647

$$$$
63
                    3D
 Structure written by MMmdl.
158167  0  0  1  0            999 V2000
  -30.6274  -14.6237   20.4944 C   0  0  0  0  0  0
  -30.4380  -12.3807   19.4454 C   0  0  0  0  0  0
  -29.5042  -12.5041   18.2204 C   0  0  0  0  0  0
  -28.0268  -12.3460   18.6341 C   0  0  0  0  0  0
  -27.6541  -13.2141   19.8656 C   0  0  2  0  0  0
  -28.7016  -13.0602   20.9918 C   0  0  0  0  0  0
  -25.2567  -13.8160   20.5702 C   0  0  0  0  0  0
  -24.1822  -13.0426   20.9160 C   0  0  0  0  0  0
  -24.6392  -11.6897   20.8722 C   0  0  0  0  0  0
  -23.9062  -10.4282   21.0395 C   0  0  0  0  0  0
  -24.3615   -9.4202   21.9178 C   0  0  0  0  0  0
  -23.6290   -8.2239   22.0750 C   0  0  0  0  0  0
  -22.4273   -8.0276   21.3541 C   0  0  0  0  0  0
  -21.9908   -9.0246   20.4641 C   0  0  0  0  0  0
  -22.7234  -10.2125   20.3047 C   0  0  0  0  0  0
  -21.6852   -6.0736   22.5278 C   0  0  0  0  0  0
  -21.4013   -6.5640   23.8211 C   0  0  0  0  0  0
  -21.3660   -5.6792   24.9172 C   0  0  0  0  0  0
  -21.6044   -4.3056   24.7222 C   0  0  0  0  0  0
  -21.8821   -3.8148   23.4344 C   0  0  0  0  0  0
  -21.9192   -4.6964   22.3401 C   0  0  0  0  0  0
  -22.7849  -13.5227   21.1839 C   0  0  0  0  0  0
  -22.1661   -4.2150   21.0978 F   0  0  0  0  0  0
  -21.5629   -3.4542   25.7739 F   0  0  0  0  0  0
  -30.0178  -13.3987   20.4270 N   0  0  0  0  0  0
  -26.3000  -12.9341   20.3354 N   0  0  0  0  0  0
  -25.9325  -11.6493   20.5766 N   0  0  0  0  0  0
  -22.0500  -12.8213   22.0400 N   0  0  0  0  0  0
  -25.4282  -15.1886   20.4205 N   0  0  0  0  0  0
  -31.7915  -14.7834   20.1168 O   0  0  0  0  0  0
  -21.6638   -6.8876   21.4240 O   0  0  0  0  0  0
  -22.3527  -14.5540   20.6707 O   0  0  0  0  0  0
  -24.6262  -31.8603   23.2044 C   0  0  0  0  0  0
  -25.9115  -32.4784   23.8366 C   0  0  1  0  0  0
  -27.2238  -27.3287   20.1095 C   0  0  0  0  0  0
  -25.5938  -33.8584   24.2294 N   0  0  0  0  0  0
  -23.4186  -30.4870   21.5456 C   0  0  2  0  0  0
  -24.8641  -28.9444   20.1111 C   0  0  0  0  0  0
  -22.7470  -29.4639   22.4925 C   0  0  0  0  0  0
  -18.0288  -28.1388   22.8477 C   0  0  0  0  0  0
  -24.1491  -36.7286   23.2636 C   0  0  0  0  0  0
  -25.9602  -30.7949   21.3735 C   0  0  0  0  0  0
  -26.0343  -29.4237   20.7133 C   0  0  0  0  0  0
  -27.2178  -28.6287   20.7007 C   0  0  0  0  0  0
  -26.0265  -26.8995   19.4888 C   0  0  0  0  0  0
  -24.8618  -27.6871   19.4911 C   0  0  0  0  0  0
  -23.6330  -29.8248   20.1599 C   0  0  0  0  0  0
  -25.4111  -36.3083   24.0337 C   0  0  1  0  0  0
  -20.5886  -28.3696   23.1270 C   0  0  2  0  0  0
  -20.6781  -26.9419   22.5394 C   0  0  0  0  0  0
  -19.5755  -26.6383   21.5202 C   0  0  0  0  0  0
  -18.1934  -26.7929   22.1615 C   0  0  0  0  0  0
  -19.1540  -28.8856   23.2875 C   0  0  0  0  0  0
  -18.9471  -30.1455   23.8898 C   0  0  0  0  0  0
  -17.6471  -30.6591   24.0561 C   0  0  0  0  0  0
  -25.9052  -34.9454   23.5111 C   0  0  0  0  0  0
  -16.5359  -29.9090   23.6331 C   0  0  0  0  0  0
  -16.7275  -28.6508   23.0346 C   0  0  0  0  0  0
  -26.4501  -31.6583   25.0726 C   0  0  0  0  0  0
  -25.3743  -31.3708   26.1458 C   0  0  0  0  0  0
  -27.0343  -30.3012   24.6165 C   0  0  0  0  0  0
  -27.6076  -32.4301   25.7490 C   0  0  0  0  0  0
  -27.5582  -37.1791   24.8463 C   0  0  0  0  0  0
  -21.4184  -29.3062   22.3677 N   0  0  0  0  0  0
  -26.4285  -37.3779   23.9423 N   0  0  0  0  0  0
  -24.6871  -31.0629   22.0985 N   0  0  0  0  0  0
  -23.4198  -28.8165   23.2990 O   0  0  0  0  0  0
  -28.3461  -26.4864   20.1492 O   0  0  0  0  0  0
  -26.5609  -34.8922   22.4671 O   0  0  0  0  0  0
  -23.5428  -32.1388   23.7386 O   0  0  0  0  0  0
  -31.1081  -19.2603   20.3327 C   0  0  0  0  0  0
  -31.0919  -17.8348   20.3473 C   0  0  0  0  0  0
  -28.7967  -19.3263   20.9969 C   0  0  0  0  0  0
  -29.9787  -20.0543   20.6989 C   0  0  0  0  0  0
  -29.9271  -17.1168   20.7189 C   0  0  0  0  0  0
  -28.7789  -17.8994   21.0151 C   0  0  0  0  0  0
  -31.0673  -22.0117   21.6608 C   0  0  0  0  0  0
  -31.2937  -23.5254   21.7883 C   0  0  0  0  0  0
  -30.0176  -24.3610   21.6767 C   0  0  0  0  0  0
  -28.9963  -22.4625   20.3696 C   0  0  0  0  0  0
  -29.3146  -24.0315   20.3659 C   0  0  1  0  0  0
  -28.1090  -25.0264   20.0964 C   0  0  0  0  0  0
  -30.0771  -21.5205   20.8554 N   0  0  0  0  0  0
  -29.8098  -15.6652   20.8302 N   0  0  0  0  0  0
  -31.8352  -21.2892   22.3068 O   0  0  0  0  0  0
  -27.6317  -17.2589   21.3462 F   0  0  0  0  0  0
  -31.4781  -12.5052   19.1402 H   0  0  0  0  0  0
  -30.3729  -11.3832   19.8829 H   0  0  0  0  0  0
  -29.7630  -11.7538   17.4723 H   0  0  0  0  0  0
  -29.6484  -13.4744   17.7419 H   0  0  0  0  0  0
  -27.8594  -11.2924   18.8612 H   0  0  0  0  0  0
  -27.3717  -12.5813   17.7942 H   0  0  0  0  0  0
  -27.6729  -14.2505   19.5278 H   0  0  0  0  0  0
  -28.7095  -12.0369   21.3694 H   0  0  0  0  0  0
  -28.4522  -13.6885   21.8484 H   0  0  0  0  0  0
  -25.2762   -9.5682   22.4748 H   0  0  0  0  0  0
  -24.0002   -7.4634   22.7470 H   0  0  0  0  0  0
  -21.0839   -8.8758   19.8949 H   0  0  0  0  0  0
  -22.3690  -10.9660   19.6152 H   0  0  0  0  0  0
  -21.2004   -7.6148   23.9715 H   0  0  0  0  0  0
  -21.1481   -6.0522   25.9074 H   0  0  0  0  0  0
  -22.0602   -2.7610   23.2844 H   0  0  0  0  0  0
  -22.4123  -11.9861   22.4762 H   0  0  0  0  0  0
  -21.1123  -13.1236   22.2630 H   0  0  0  0  0  0
  -24.6726  -15.8446   20.5821 H   0  0  0  0  0  0
  -26.3076  -15.6498   20.2255 H   0  0  0  0  0  0
  -26.7180  -32.5456   23.1109 H   0  0  0  0  0  0
  -25.0119  -33.9738   25.0465 H   0  0  0  0  0  0
  -22.7124  -31.3079   21.4044 H   0  0  0  0  0  0
  -23.3771  -35.9599   23.3274 H   0  0  0  0  0  0
  -24.3592  -36.8923   22.2055 H   0  0  0  0  0  0
  -23.7222  -37.6475   23.6667 H   0  0  0  0  0  0
  -26.0911  -31.5605   20.6075 H   0  0  0  0  0  0
  -26.8411  -30.8408   22.0021 H   0  0  0  0  0  0
  -28.1163  -28.9942   21.1782 H   0  0  0  0  0  0
  -25.9567  -25.9417   18.9977 H   0  0  0  0  0  0
  -23.9652  -27.3139   19.0157 H   0  0  0  0  0  0
  -23.7542  -30.6036   19.4059 H   0  0  0  0  0  0
  -22.7529  -29.2565   19.8545 H   0  0  0  0  0  0
  -25.1288  -36.1930   25.0829 H   0  0  0  0  0  0
  -20.9984  -28.3271   24.1387 H   0  0  0  0  0  0
  -20.5675  -26.2314   23.3599 H   0  0  0  0  0  0
  -21.6654  -26.7440   22.1193 H   0  0  0  0  0  0
  -19.6922  -25.6294   21.1239 H   0  0  0  0  0  0
  -19.6694  -27.3188   20.6729 H   0  0  0  0  0  0
  -17.4201  -26.6671   21.4023 H   0  0  0  0  0  0
  -18.0338  -26.0071   22.9012 H   0  0  0  0  0  0
  -19.7950  -30.7266   24.2273 H   0  0  0  0  0  0
  -17.5032  -31.6277   24.5153 H   0  0  0  0  0  0
  -15.5364  -30.2996   23.7665 H   0  0  0  0  0  0
  -15.8671  -28.0835   22.7056 H   0  0  0  0  0  0
  -24.5952  -30.7011   25.7797 H   0  0  0  0  0  0
  -24.8894  -32.2864   26.4861 H   0  0  0  0  0  0
  -25.8080  -30.8919   27.0247 H   0  0  0  0  0  0
  -26.2907  -29.6757   24.1210 H   0  0  0  0  0  0
  -27.4082  -29.7270   25.4653 H   0  0  0  0  0  0
  -27.8759  -30.4314   23.9356 H   0  0  0  0  0  0
  -27.2724  -33.3634   26.2027 H   0  0  0  0  0  0
  -28.3911  -32.6789   25.0319 H   0  0  0  0  0  0
  -28.0708  -31.8434   26.5435 H   0  0  0  0  0  0
  -28.2570  -38.0117   24.7555 H   0  0  0  0  0  0
  -28.1108  -36.2653   24.6227 H   0  0  0  0  0  0
  -27.2313  -37.1359   25.8868 H   0  0  0  0  0  0
  -20.9360  -29.8812   21.6911 H   0  0  0  0  0  0
  -26.0166  -38.2846   24.1457 H   0  0  0  0  0  0
  -32.0369  -19.7505   20.0757 H   0  0  0  0  0  0
  -31.9997  -17.3075   20.0926 H   0  0  0  0  0  0
  -27.8971  -19.8548   21.2759 H   0  0  0  0  0  0
  -31.9977  -23.8203   21.0089 H   0  0  0  0  0  0
  -31.7838  -23.7357   22.7396 H   0  0  0  0  0  0
  -30.2728  -25.4208   21.7160 H   0  0  0  0  0  0
  -29.3582  -24.1663   22.5240 H   0  0  0  0  0  0
  -28.7017  -22.1571   19.3654 H   0  0  0  0  0  0
  -28.1223  -22.2912   20.9991 H   0  0  0  0  0  0
  -30.0307  -24.2105   19.5622 H   0  0  0  0  0  0
  -27.3139  -24.7882   20.8051 H   0  0  0  0  0  0
  -27.7295  -24.7735   19.1067 H   0  0  0  0  0  0
  -28.8924  -15.3664   21.1237 H   0  0  0  0  0  0
  1 25  1  0  0  0
  1 30  2  0  0  0
  1 84  1  0  0  0
  2  3  1  0  0  0
  2 25  1  0  0  0
  2 87  1  0  0  0
  2 88  1  0  0  0
  3  4  1  0  0  0
  3 89  1  0  0  0
  3 90  1  0  0  0
  4  5  1  0  0  0
  4 91  1  0  0  0
  4 92  1  0  0  0
  5  6  1  0  0  0
  5 26  1  0  0  0
  5 93  1  0  0  0
  6 25  1  0  0  0
  6 94  1  0  0  0
  6 95  1  0  0  0
  7  8  2  0  0  0
  7 26  1  0  0  0
  7 29  1  0  0  0
  8  9  1  0  0  0
  8 22  1  0  0  0
  9 10  1  0  0  0
  9 27  2  0  0  0
 10 11  2  0  0  0
 10 15  1  0  0  0
 11 12  1  0  0  0
 11 96  1  0  0  0
 12 13  2  0  0  0
 12 97  1  0  0  0
 13 14  1  0  0  0
 13 31  1  0  0  0
 14 15  2  0  0  0
 14 98  1  0  0  0
 15 99  1  0  0  0
 16 17  2  0  0  0
 16 21  1  0  0  0
 16 31  1  0  0  0
 17 18  1  0  0  0
 17100  1  0  0  0
 18 19  2  0  0  0
 18101  1  0  0  0
 19 20  1  0  0  0
 19 24  1  0  0  0
 20 21  2  0  0  0
 20102  1  0  0  0
 21 23  1  0  0  0
 22 28  1  0  0  0
 22 32  2  0  0  0
 26 27  1  0  0  0
 28103  1  0  0  0
 28104  1  0  0  0
 29105  1  0  0  0
 29106  1  0  0  0
 33 34  1  0  0  0
 33 66  1  0  0  0
 33 70  2  0  0  0
 34 36  1  0  0  0
 34 59  1  0  0  0
 34107  1  0  0  0
 35 44  2  0  0  0
 35 45  1  0  0  0
 35 68  1  0  0  0
 36 56  1  0  0  0
 36108  1  0  0  0
 37 39  1  0  0  0
 37 47  1  0  0  0
 37 66  1  0  0  0
 37109  1  0  0  0
 38 43  2  0  0  0
 38 46  1  0  0  0
 38 47  1  0  0  0
 39 64  1  0  0  0
 39 67  2  0  0  0
 40 52  1  0  0  0
 40 53  2  0  0  0
 40 58  1  0  0  0
 41110  1  0  0  0
 41111  1  0  0  0
 41112  1  0  0  0
 41 48  1  0  0  0
 42 43  1  0  0  0
 42 66  1  0  0  0
 42113  1  0  0  0
 42114  1  0  0  0
 43 44  1  0  0  0
 44115  1  0  0  0
 45 46  2  0  0  0
 45116  1  0  0  0
 46117  1  0  0  0
 47118  1  0  0  0
 47119  1  0  0  0
 48 56  1  0  0  0
 48 65  1  0  0  0
 48120  1  0  0  0
 49 50  1  0  0  0
 49 53  1  0  0  0
 49 64  1  0  0  0
 49121  1  0  0  0
 50 51  1  0  0  0
 50122  1  0  0  0
 50123  1  0  0  0
 51 52  1  0  0  0
 51124  1  0  0  0
 51125  1  0  0  0
 52126  1  0  0  0
 52127  1  0  0  0
 53 54  1  0  0  0
 54 55  2  0  0  0
 54128  1  0  0  0
 55 57  1  0  0  0
 55129  1  0  0  0
 56 69  2  0  0  0
 57 58  2  0  0  0
 57130  1  0  0  0
 58131  1  0  0  0
 59 60  1  0  0  0
 59 61  1  0  0  0
 59 62  1  0  0  0
 60132  1  0  0  0
 60133  1  0  0  0
 60134  1  0  0  0
 61135  1  0  0  0
 61136  1  0  0  0
 61137  1  0  0  0
 62138  1  0  0  0
 62139  1  0  0  0
 62140  1  0  0  0
 63 65  1  0  0  0
 63141  1  0  0  0
 63142  1  0  0  0
 63143  1  0  0  0
 64144  1  0  0  0
 65145  1  0  0  0
 68 82  1  0  0  0
 71 72  2  0  0  0
 71 74  1  0  0  0
 71146  1  0  0  0
 72 75  1  0  0  0
 72147  1  0  0  0
 73 74  2  0  0  0
 73 76  1  0  0  0
 73148  1  0  0  0
 74 83  1  0  0  0
 75 76  2  0  0  0
 75 84  1  0  0  0
 76 86  1  0  0  0
 77 78  1  0  0  0
 77 83  1  0  0  0
 77 85  2  0  0  0
 78 79  1  0  0  0
 78149  1  0  0  0
 78150  1  0  0  0
 79 81  1  0  0  0
 79151  1  0  0  0
 79152  1  0  0  0
 80 81  1  0  0  0
 80 83  1  0  0  0
 80153  1  0  0  0
 80154  1  0  0  0
 81 82  1  0  0  0
 81155  1  0  0  0
 82156  1  0  0  0
 82157  1  0  0  0
 84158  1  0  0  0
M  ISO  4   1 100  68 101  82 101  84 100
M  END
> <chiral flag>
0

> <version>
0

> <s_m_source_file>
/data/baiqing/PycharmProjects/Reinvent-master-3.2/result/LINK_invent/BTK/process_docking_weight1_custom_product_contain_oxygen_bond_distance_aromatic_linkinvent_7_9_3/rearranged_h_0101.sdf

> <i_m_source_file_index>
64

> <r_mmod_Potential_Energy-OPLS-2005>
107.240104675293

> <r_mmod_Stretch_Energy-OPLS-2005>
82.9357223510742

> <r_mmod_Bend_Energy-OPLS-2005>
137.735961914062

> <r_mmod_Torsional_Energy-OPLS-2005>
273.721435546875

> <r_mmod_Improper_Torsional_Energy-OPLS-2005>
4.68192100524902

> <r_mmod_Van_der_Waal_Energy-OPLS-2005>
159.299835205078

> <r_mmod_Electrostatic_Energy-OPLS-2005>
-382.914001464844

> <r_mmod_Solvation_Energy-OPLS-2005>
-212.034591674805

> <b_mmod_Minimization_Converged-OPLS-2005>
0

> <r_mmod_RMS_Derivative-OPLS-2005>
0.928914606571198

$$$$
64
                    3D
 Structure written by MMmdl.
162171  0  0  1  0            999 V2000
  -30.6182  -14.7266   20.3770 C   0  0  0  0  0  0
  -30.4400  -12.4112   19.4746 C   0  0  0  0  0  0
  -29.5133  -12.3880   18.2386 C   0  0  0  0  0  0
  -28.0276  -12.2970   18.6516 C   0  0  0  0  0  0
  -27.6368  -13.2145   19.8451 C   0  0  2  0  0  0
  -28.6930  -13.1828   20.9685 C   0  0  0  0  0  0
  -25.2529  -13.8152   20.5735 C   0  0  0  0  0  0
  -24.1795  -13.0427   20.9234 C   0  0  0  0  0  0
  -24.6362  -11.6897   20.8791 C   0  0  0  0  0  0
  -23.9041  -10.4281   21.0435 C   0  0  0  0  0  0
  -24.3601   -9.4192   21.9202 C   0  0  0  0  0  0
  -23.6277   -8.2228   22.0763 C   0  0  0  0  0  0
  -22.4262   -8.0271   21.3547 C   0  0  0  0  0  0
  -21.9899   -9.0246   20.4652 C   0  0  0  0  0  0
  -22.7224  -10.2127   20.3069 C   0  0  0  0  0  0
  -21.6846   -6.0725   22.5277 C   0  0  0  0  0  0
  -21.4010   -6.5633   23.8209 C   0  0  0  0  0  0
  -21.3659   -5.6790   24.9174 C   0  0  0  0  0  0
  -21.6043   -4.3052   24.7228 C   0  0  0  0  0  0
  -21.8820   -3.8140   23.4351 C   0  0  0  0  0  0
  -21.9191   -4.6954   22.3405 C   0  0  0  0  0  0
  -22.7822  -13.5234   21.1869 C   0  0  0  0  0  0
  -22.1663   -4.2140   21.0982 F   0  0  0  0  0  0
  -21.5628   -3.4536   25.7742 F   0  0  0  0  0  0
  -29.9865  -13.5053   20.3557 N   0  0  0  0  0  0
  -26.2927  -12.9310   20.3336 N   0  0  0  0  0  0
  -25.9289  -11.6481   20.5834 N   0  0  0  0  0  0
  -22.0455  -12.8233   22.0422 N   0  0  0  0  0  0
  -25.4258  -15.1872   20.4146 N   0  0  0  0  0  0
  -31.8464  -14.7869   20.2664 O   0  0  0  0  0  0
  -21.6631   -6.8866   21.4239 O   0  0  0  0  0  0
  -22.3517  -14.5535   20.6702 O   0  0  0  0  0  0
  -24.6258  -31.8598   23.2030 C   0  0  0  0  0  0
  -25.9107  -32.4778   23.8361 C   0  0  1  0  0  0
  -27.2180  -27.3033   20.1450 C   0  0  0  0  0  0
  -25.5924  -33.8580   24.2285 N   0  0  0  0  0  0
  -23.4219  -30.4816   21.5445 C   0  0  2  0  0  0
  -24.8723  -28.9339   20.1144 C   0  0  0  0  0  0
  -22.7484  -29.4615   22.4933 C   0  0  0  0  0  0
  -18.0289  -28.1379   22.8492 C   0  0  0  0  0  0
  -24.1489  -36.7293   23.2637 C   0  0  0  0  0  0
  -25.9633  -30.7840   21.3810 C   0  0  0  0  0  0
  -26.0375  -29.4067   20.7335 C   0  0  0  0  0  0
  -27.2154  -28.5995   20.7469 C   0  0  0  0  0  0
  -26.0493  -26.9012   19.4715 C   0  0  0  0  0  0
  -24.8795  -27.6848   19.4739 C   0  0  0  0  0  0
  -23.6407  -29.8157   20.1601 C   0  0  0  0  0  0
  -25.4114  -36.3083   24.0327 C   0  0  1  0  0  0
  -20.5891  -28.3692   23.1280 C   0  0  2  0  0  0
  -20.6782  -26.9408   22.5427 C   0  0  0  0  0  0
  -19.5758  -26.6369   21.5232 C   0  0  0  0  0  0
  -18.1937  -26.7916   22.1644 C   0  0  0  0  0  0
  -19.1541  -28.8853   23.2877 C   0  0  0  0  0  0
  -18.9461  -30.1458   23.8889 C   0  0  0  0  0  0
  -17.6461  -30.6587   24.0553 C   0  0  0  0  0  0
  -25.9049  -34.9451   23.5105 C   0  0  0  0  0  0
  -16.5353  -29.9079   23.6327 C   0  0  0  0  0  0
  -16.7275  -28.6493   23.0354 C   0  0  0  0  0  0
  -26.4494  -31.6588   25.0733 C   0  0  0  0  0  0
  -25.3726  -31.3729   26.1460 C   0  0  0  0  0  0
  -27.0342  -30.3009   24.6198 C   0  0  0  0  0  0
  -27.6051  -32.4328   25.7502 C   0  0  0  0  0  0
  -27.5579  -37.1803   24.8466 C   0  0  0  0  0  0
  -21.4197  -29.3038   22.3668 N   0  0  0  0  0  0
  -26.4294  -37.3775   23.9403 N   0  0  0  0  0  0
  -24.6885  -31.0595   22.0992 N   0  0  0  0  0  0
  -23.4197  -28.8166   23.3031 O   0  0  0  0  0  0
  -28.3152  -26.4331   20.1161 O   0  0  0  0  0  0
  -26.5619  -34.8918   22.4672 O   0  0  0  0  0  0
  -23.5418  -32.1408   23.7347 O   0  0  0  0  0  0
  -30.1896  -19.6168   19.9708 C   0  0  0  0  0  0
  -30.5619  -18.2384   19.8710 C   0  0  0  0  0  0
  -28.6719  -17.6073   21.2043 C   0  0  0  0  0  0
  -29.0158  -20.0382   20.6525 C   0  0  0  0  0  0
  -29.7790  -17.1815   20.4270 C   0  0  0  0  0  0
  -28.3043  -18.9852   21.3134 C   0  0  0  0  0  0
  -28.0509  -23.8213   20.7554 C   0  0  0  0  0  0
  -28.8923  -22.7075   20.7401 C   0  0  0  0  0  0
  -26.5837  -23.5470   20.7032 C   0  0  0  0  0  0
  -26.0924  -22.1271   20.4192 C   0  0  0  0  0  0
  -27.1706  -21.2631   19.7683 C   0  0  0  0  0  0
  -30.3802  -22.8512   21.0231 C   0  0  0  0  0  0
  -29.7365  -15.8048   18.4350 C   0  0  0  0  0  0
  -28.4131  -25.3332   21.1112 C   0  0  0  0  0  0
  -28.4301  -21.3616   20.5071 N   0  0  0  0  0  0
  -29.8692  -15.8033   19.9073 N   0  0  0  0  0  0
  -25.7218  -24.3845   20.9755 O   0  0  0  0  0  0
  -27.1759  -19.2885   22.0026 F   0  0  0  0  0  0
  -31.4786  -12.5388   19.1637 H   0  0  0  0  0  0
  -30.3973  -11.4596   20.0066 H   0  0  0  0  0  0
  -29.7651  -11.5290   17.6148 H   0  0  0  0  0  0
  -29.6923  -13.2504   17.6025 H   0  0  0  0  0  0
  -27.8473  -11.2569   18.9258 H   0  0  0  0  0  0
  -27.3827  -12.4957   17.7949 H   0  0  0  0  0  0
  -27.6021  -14.2286   19.4607 H   0  0  0  0  0  0
  -28.7264  -12.2050   21.4514 H   0  0  0  0  0  0
  -28.4471  -13.9104   21.7438 H   0  0  0  0  0  0
  -25.2747   -9.5665   22.4777 H   0  0  0  0  0  0
  -23.9980   -7.4619   22.7482 H   0  0  0  0  0  0
  -21.0832   -8.8768   19.8956 H   0  0  0  0  0  0
  -22.3687  -10.9669   19.6179 H   0  0  0  0  0  0
  -21.2003   -7.6141   23.9706 H   0  0  0  0  0  0
  -21.1483   -6.0525   25.9075 H   0  0  0  0  0  0
  -22.0601   -2.7602   23.2856 H   0  0  0  0  0  0
  -22.4067  -11.9897   22.4818 H   0  0  0  0  0  0
  -21.1074  -13.1269   22.2617 H   0  0  0  0  0  0
  -24.6628  -15.8451   20.5294 H   0  0  0  0  0  0
  -26.2795  -15.6212   20.0884 H   0  0  0  0  0  0
  -26.7175  -32.5454   23.1110 H   0  0  0  0  0  0
  -25.0071  -33.9728   25.0430 H   0  0  0  0  0  0
  -22.7158  -31.3016   21.3994 H   0  0  0  0  0  0
  -23.3748  -35.9628   23.3307 H   0  0  0  0  0  0
  -24.3580  -36.8909   22.2051 H   0  0  0  0  0  0
  -23.7252  -37.6499   23.6657 H   0  0  0  0  0  0
  -26.0971  -31.5419   20.6077 H   0  0  0  0  0  0
  -26.8425  -30.8366   22.0115 H   0  0  0  0  0  0
  -28.1106  -28.9569   21.2366 H   0  0  0  0  0  0
  -26.0348  -25.9518   18.9564 H   0  0  0  0  0  0
  -23.9923  -27.3215   18.9736 H   0  0  0  0  0  0
  -23.7627  -30.5919   19.4036 H   0  0  0  0  0  0
  -22.7615  -29.2450   19.8562 H   0  0  0  0  0  0
  -25.1296  -36.1935   25.0819 H   0  0  0  0  0  0
  -20.9985  -28.3280   24.1400 H   0  0  0  0  0  0
  -20.5688  -26.2302   23.3634 H   0  0  0  0  0  0
  -21.6647  -26.7440   22.1214 H   0  0  0  0  0  0
  -19.6924  -25.6274   21.1278 H   0  0  0  0  0  0
  -19.6691  -27.3166   20.6752 H   0  0  0  0  0  0
  -17.4202  -26.6642   21.4054 H   0  0  0  0  0  0
  -18.0348  -26.0064   22.9049 H   0  0  0  0  0  0
  -19.7936  -30.7277   24.2253 H   0  0  0  0  0  0
  -17.5015  -31.6271   24.5143 H   0  0  0  0  0  0
  -15.5352  -30.2978   23.7648 H   0  0  0  0  0  0
  -15.8677  -28.0805   22.7075 H   0  0  0  0  0  0
  -24.5894  -30.7089   25.7787 H   0  0  0  0  0  0
  -24.8925  -32.2897   26.4890 H   0  0  0  0  0  0
  -25.8046  -30.8902   27.0235 H   0  0  0  0  0  0
  -26.2925  -29.6757   24.1216 H   0  0  0  0  0  0
  -27.4027  -29.7269   25.4710 H   0  0  0  0  0  0
  -27.8798  -30.4289   23.9438 H   0  0  0  0  0  0
  -27.2654  -33.3622   26.2084 H   0  0  0  0  0  0
  -28.3853  -32.6903   25.0327 H   0  0  0  0  0  0
  -28.0728  -31.8458   26.5416 H   0  0  0  0  0  0
  -28.2600  -38.0096   24.7500 H   0  0  0  0  0  0
  -28.1072  -36.2626   24.6305 H   0  0  0  0  0  0
  -27.2296  -37.1468   25.8870 H   0  0  0  0  0  0
  -20.9380  -29.8752   21.6870 H   0  0  0  0  0  0
  -26.0177  -38.2850   24.1402 H   0  0  0  0  0  0
  -30.7684  -20.3446   19.4213 H   0  0  0  0  0  0
  -31.4037  -17.9870   19.2409 H   0  0  0  0  0  0
  -28.0124  -16.8692   21.6360 H   0  0  0  0  0  0
  -25.2079  -22.1678   19.7837 H   0  0  0  0  0  0
  -25.7860  -21.6819   21.3655 H   0  0  0  0  0  0
  -27.3451  -21.6097   18.7483 H   0  0  0  0  0  0
  -26.8006  -20.2419   19.6690 H   0  0  0  0  0  0
  -30.5368  -23.3947   21.9550 H   0  0  0  0  0  0
  -30.8647  -23.4096   20.2215 H   0  0  0  0  0  0
  -30.9006  -21.9030   21.1346 H   0  0  0  0  0  0
  -30.6439  -15.4603   17.9342 H   0  0  0  0  0  0
  -29.5135  -16.7891   18.0219 H   0  0  0  0  0  0
  -28.9093  -15.1857   18.1045 H   0  0  0  0  0  0
  -29.4504  -25.3503   21.4402 H   0  0  0  0  0  0
  -27.8496  -25.6184   22.0012 H   0  0  0  0  0  0
  1 25  1  0  0  0
  1 30  2  0  0  0
  1 86  1  0  0  0
  2  3  1  0  0  0
  2 25  1  0  0  0
  2 89  1  0  0  0
  2 90  1  0  0  0
  3  4  1  0  0  0
  3 91  1  0  0  0
  3 92  1  0  0  0
  4  5  1  0  0  0
  4 93  1  0  0  0
  4 94  1  0  0  0
  5  6  1  0  0  0
  5 26  1  0  0  0
  5 95  1  0  0  0
  6 25  1  0  0  0
  6 96  1  0  0  0
  6 97  1  0  0  0
  7  8  2  0  0  0
  7 26  1  0  0  0
  7 29  1  0  0  0
  8  9  1  0  0  0
  8 22  1  0  0  0
  9 10  1  0  0  0
  9 27  2  0  0  0
 10 11  2  0  0  0
 10 15  1  0  0  0
 11 12  1  0  0  0
 11 98  1  0  0  0
 12 13  2  0  0  0
 12 99  1  0  0  0
 13 14  1  0  0  0
 13 31  1  0  0  0
 14 15  2  0  0  0
 14100  1  0  0  0
 15101  1  0  0  0
 16 17  2  0  0  0
 16 21  1  0  0  0
 16 31  1  0  0  0
 17 18  1  0  0  0
 17102  1  0  0  0
 18 19  2  0  0  0
 18103  1  0  0  0
 19 20  1  0  0  0
 19 24  1  0  0  0
 20 21  2  0  0  0
 20104  1  0  0  0
 21 23  1  0  0  0
 22 28  1  0  0  0
 22 32  2  0  0  0
 26 27  1  0  0  0
 28105  1  0  0  0
 28106  1  0  0  0
 29107  1  0  0  0
 29108  1  0  0  0
 33 34  1  0  0  0
 33 66  1  0  0  0
 33 70  2  0  0  0
 34 36  1  0  0  0
 34 59  1  0  0  0
 34109  1  0  0  0
 35 44  2  0  0  0
 35 45  1  0  0  0
 35 68  1  0  0  0
 36 56  1  0  0  0
 36110  1  0  0  0
 37 39  1  0  0  0
 37 47  1  0  0  0
 37 66  1  0  0  0
 37111  1  0  0  0
 38 43  2  0  0  0
 38 46  1  0  0  0
 38 47  1  0  0  0
 39 64  1  0  0  0
 39 67  2  0  0  0
 40 52  1  0  0  0
 40 53  2  0  0  0
 40 58  1  0  0  0
 41112  1  0  0  0
 41113  1  0  0  0
 41114  1  0  0  0
 41 48  1  0  0  0
 42 43  1  0  0  0
 42 66  1  0  0  0
 42115  1  0  0  0
 42116  1  0  0  0
 43 44  1  0  0  0
 44117  1  0  0  0
 45 46  2  0  0  0
 45118  1  0  0  0
 46119  1  0  0  0
 47120  1  0  0  0
 47121  1  0  0  0
 48 56  1  0  0  0
 48 65  1  0  0  0
 48122  1  0  0  0
 49 50  1  0  0  0
 49 53  1  0  0  0
 49 64  1  0  0  0
 49123  1  0  0  0
 50 51  1  0  0  0
 50124  1  0  0  0
 50125  1  0  0  0
 51 52  1  0  0  0
 51126  1  0  0  0
 51127  1  0  0  0
 52128  1  0  0  0
 52129  1  0  0  0
 53 54  1  0  0  0
 54 55  2  0  0  0
 54130  1  0  0  0
 55 57  1  0  0  0
 55131  1  0  0  0
 56 69  2  0  0  0
 57 58  2  0  0  0
 57132  1  0  0  0
 58133  1  0  0  0
 59 60  1  0  0  0
 59 61  1  0  0  0
 59 62  1  0  0  0
 60134  1  0  0  0
 60135  1  0  0  0
 60136  1  0  0  0
 61137  1  0  0  0
 61138  1  0  0  0
 61139  1  0  0  0
 62140  1  0  0  0
 62141  1  0  0  0
 62142  1  0  0  0
 63 65  1  0  0  0
 63143  1  0  0  0
 63144  1  0  0  0
 63145  1  0  0  0
 64146  1  0  0  0
 65147  1  0  0  0
 68 84  1  0  0  0
 71 72  2  0  0  0
 71 74  1  0  0  0
 71148  1  0  0  0
 72 75  1  0  0  0
 72149  1  0  0  0
 73 75  2  0  0  0
 73 76  1  0  0  0
 73150  1  0  0  0
 74 76  2  0  0  0
 74 85  1  0  0  0
 75 86  1  0  0  0
 76 88  1  0  0  0
 77 78  2  0  0  0
 77 79  1  0  0  0
 77 84  1  0  0  0
 78 82  1  0  0  0
 78 85  1  0  0  0
 79 80  1  0  0  0
 79 87  2  0  0  0
 80 81  1  0  0  0
 80151  1  0  0  0
 80152  1  0  0  0
 81 85  1  0  0  0
 81153  1  0  0  0
 81154  1  0  0  0
 82155  1  0  0  0
 82156  1  0  0  0
 82157  1  0  0  0
 83 86  1  0  0  0
 83158  1  0  0  0
 83159  1  0  0  0
 83160  1  0  0  0
 84161  1  0  0  0
 84162  1  0  0  0
M  ISO  4   1 100  68 101  84 101  86 100
M  END
> <chiral flag>
0

> <version>
0

> <s_m_source_file>
/data/baiqing/PycharmProjects/Reinvent-master-3.2/result/LINK_invent/BTK/process_docking_weight1_custom_product_contain_oxygen_bond_distance_aromatic_linkinvent_7_9_3/rearranged_h_0101.sdf

> <i_m_source_file_index>
65

> <r_mmod_Potential_Energy-OPLS-2005>
443.691070556641

> <r_mmod_Stretch_Energy-OPLS-2005>
103.445465087891

> <r_mmod_Bend_Energy-OPLS-2005>
168.054733276367

> <r_mmod_Torsional_Energy-OPLS-2005>
373.556091308594

> <r_mmod_Improper_Torsional_Energy-OPLS-2005>
30.9193725585938

> <r_mmod_Van_der_Waal_Energy-OPLS-2005>
159.897598266602

> <r_mmod_Electrostatic_Energy-OPLS-2005>
-270.223327636719

> <r_mmod_Solvation_Energy-OPLS-2005>
-202.825729370117

> <b_mmod_Minimization_Converged-OPLS-2005>
0

> <r_mmod_RMS_Derivative-OPLS-2005>
0.614092826843262

$$$$
65
                    3D
 Structure written by MMmdl.
161169  0  0  1  0            999 V2000
  -30.7437  -14.3730   20.7011 C   0  0  0  0  0  0
  -30.4231  -12.2976   19.3824 C   0  0  0  0  0  0
  -29.4815  -12.5310   18.1865 C   0  0  0  0  0  0
  -28.0073  -12.3820   18.6092 C   0  0  0  0  0  0
  -27.6698  -13.1974   19.8851 C   0  0  2  0  0  0
  -28.7121  -12.9219   20.9919 C   0  0  0  0  0  0
  -25.2635  -13.8150   20.5690 C   0  0  0  0  0  0
  -24.1863  -13.0437   20.9164 C   0  0  0  0  0  0
  -24.6400  -11.6901   20.8732 C   0  0  0  0  0  0
  -23.9055  -10.4292   21.0405 C   0  0  0  0  0  0
  -24.3604   -9.4211   21.9188 C   0  0  0  0  0  0
  -23.6281   -8.2246   22.0757 C   0  0  0  0  0  0
  -22.4270   -8.0277   21.3539 C   0  0  0  0  0  0
  -21.9905   -9.0252   20.4643 C   0  0  0  0  0  0
  -22.7228  -10.2133   20.3053 C   0  0  0  0  0  0
  -21.6849   -6.0736   22.5278 C   0  0  0  0  0  0
  -21.4011   -6.5640   23.8213 C   0  0  0  0  0  0
  -21.3659   -5.6795   24.9176 C   0  0  0  0  0  0
  -21.6046   -4.3056   24.7228 C   0  0  0  0  0  0
  -21.8820   -3.8149   23.4347 C   0  0  0  0  0  0
  -21.9191   -4.6964   22.3402 C   0  0  0  0  0  0
  -22.7888  -13.5241   21.1821 C   0  0  0  0  0  0
  -22.1665   -4.2147   21.0981 F   0  0  0  0  0  0
  -21.5625   -3.4540   25.7740 F   0  0  0  0  0  0
  -30.0458  -13.2338   20.4505 N   0  0  0  0  0  0
  -26.3070  -12.9300   20.3420 N   0  0  0  0  0  0
  -25.9324  -11.6465   20.5774 N   0  0  0  0  0  0
  -22.0519  -12.8233   22.0377 N   0  0  0  0  0  0
  -25.4385  -15.1862   20.4099 N   0  0  0  0  0  0
  -31.7755  -14.6475   20.0733 O   0  0  0  0  0  0
  -21.6633   -6.8873   21.4236 O   0  0  0  0  0  0
  -22.3583  -14.5551   20.6670 O   0  0  0  0  0  0
  -24.6131  -31.8704   23.2124 C   0  0  0  0  0  0
  -25.9035  -32.4835   23.8408 C   0  0  1  0  0  0
  -27.2366  -27.4528   20.0781 C   0  0  0  0  0  0
  -25.5897  -33.8633   24.2340 N   0  0  0  0  0  0
  -23.3986  -30.4953   21.5535 C   0  0  2  0  0  0
  -24.8410  -28.9609   20.1192 C   0  0  0  0  0  0
  -22.7388  -29.4674   22.5002 C   0  0  0  0  0  0
  -18.0273  -28.1382   22.8497 C   0  0  0  0  0  0
  -24.1482  -36.7314   23.2634 C   0  0  0  0  0  0
  -25.9268  -30.8384   21.3643 C   0  0  0  0  0  0
  -26.0007  -29.4742   20.7104 C   0  0  0  0  0  0
  -27.1969  -28.7258   20.6893 C   0  0  0  0  0  0
  -26.0478  -26.9395   19.5053 C   0  0  0  0  0  0
  -24.8575  -27.6900   19.5209 C   0  0  0  0  0  0
  -23.6047  -29.8280   20.1674 C   0  0  0  0  0  0
  -25.4107  -36.3127   24.0337 C   0  0  1  0  0  0
  -20.5861  -28.3656   23.1331 C   0  0  2  0  0  0
  -20.6764  -26.9394   22.5414 C   0  0  0  0  0  0
  -19.5739  -26.6388   21.5209 C   0  0  0  0  0  0
  -18.1921  -26.7933   22.1625 C   0  0  0  0  0  0
  -19.1525  -28.8833   23.2915 C   0  0  0  0  0  0
  -18.9456  -30.1448   23.8914 C   0  0  0  0  0  0
  -17.6456  -30.6585   24.0571 C   0  0  0  0  0  0
  -25.9032  -34.9486   23.5134 C   0  0  0  0  0  0
  -16.5345  -29.9092   23.6324 C   0  0  0  0  0  0
  -16.7263  -28.6510   23.0337 C   0  0  0  0  0  0
  -26.4468  -31.6610   25.0732 C   0  0  0  0  0  0
  -25.3729  -31.3700   26.1468 C   0  0  0  0  0  0
  -27.0319  -30.3067   24.6101 C   0  0  0  0  0  0
  -27.6037  -32.4324   25.7513 C   0  0  0  0  0  0
  -27.5582  -37.1822   24.8459 C   0  0  0  0  0  0
  -21.4120  -29.3026   22.3729 N   0  0  0  0  0  0
  -26.4296  -37.3808   23.9404 N   0  0  0  0  0  0
  -24.6648  -31.0814   22.1024 N   0  0  0  0  0  0
  -23.4169  -28.8222   23.3039 O   0  0  0  0  0  0
  -28.4478  -26.7899   20.0680 O   0  0  0  0  0  0
  -26.5594  -34.8931   22.4694 O   0  0  0  0  0  0
  -23.5329  -32.1455   23.7528 O   0  0  0  0  0  0
  -28.9004  -22.2625   22.7290 C   0  0  0  0  0  0
  -29.1654  -21.1707   23.5761 C   0  0  0  0  0  0
  -30.2265  -21.2115   20.9807 C   0  0  0  0  0  0
  -30.4993  -20.1098   21.8224 C   0  0  0  0  0  0
  -29.4314  -22.2922   21.4188 C   0  0  0  0  0  0
  -29.9667  -20.0995   23.1358 C   0  0  0  0  0  0
  -31.0477  -16.6040   21.8941 C   0  0  0  0  0  0
  -28.3692  -24.3920   20.5412 C   0  0  0  0  0  0
  -29.6024  -17.6784   20.1816 C   0  0  0  0  0  0
  -31.3889  -18.9832   21.2903 C   0  0  0  0  0  0
  -30.2061  -15.3159   21.8062 C   0  0  0  0  0  0
  -28.5763  -25.4887   19.4821 C   0  0  0  0  0  0
  -30.2295  -19.0593   24.0247 N   0  0  0  0  0  0
  -29.2644  -23.3872   20.5250 N   0  0  0  0  0  0
  -30.7038  -17.6865   21.1506 N   0  0  0  0  0  0
  -31.9866  -16.6312   22.6989 O   0  0  0  0  0  0
  -27.4191  -24.4613   21.3263 O   0  0  0  0  0  0
  -31.4629  -12.4111   19.0711 H   0  0  0  0  0  0
  -30.3353  -11.2708   19.7422 H   0  0  0  0  0  0
  -29.7114  -11.8299   17.3830 H   0  0  0  0  0  0
  -29.6476  -13.5297   17.7798 H   0  0  0  0  0  0
  -27.8162  -11.3228   18.7859 H   0  0  0  0  0  0
  -27.3494  -12.6762   17.7904 H   0  0  0  0  0  0
  -27.7333  -14.2536   19.6221 H   0  0  0  0  0  0
  -28.6805  -11.8708   21.2830 H   0  0  0  0  0  0
  -28.4630  -13.4683   21.9000 H   0  0  0  0  0  0
  -25.2749   -9.5687   22.4764 H   0  0  0  0  0  0
  -23.9986   -7.4644   22.7486 H   0  0  0  0  0  0
  -21.0835   -8.8766   19.8950 H   0  0  0  0  0  0
  -22.3684  -10.9669   19.6160 H   0  0  0  0  0  0
  -21.2007   -7.6149   23.9710 H   0  0  0  0  0  0
  -21.1481   -6.0532   25.9079 H   0  0  0  0  0  0
  -22.0602   -2.7612   23.2854 H   0  0  0  0  0  0
  -22.4110  -11.9875   22.4752 H   0  0  0  0  0  0
  -21.1143  -13.1270   22.2573 H   0  0  0  0  0  0
  -24.6758  -15.8462   20.5165 H   0  0  0  0  0  0
  -26.2973  -15.6220   20.0983 H   0  0  0  0  0  0
  -26.7106  -32.5557   23.1175 H   0  0  0  0  0  0
  -25.0047  -33.9799   25.0486 H   0  0  0  0  0  0
  -22.6866  -31.3122   21.4173 H   0  0  0  0  0  0
  -23.3754  -35.9635   23.3295 H   0  0  0  0  0  0
  -24.3561  -36.8927   22.2045 H   0  0  0  0  0  0
  -23.7222  -37.6510   23.6653 H   0  0  0  0  0  0
  -26.0372  -31.6071   20.5984 H   0  0  0  0  0  0
  -26.8165  -30.8908   21.9806 H   0  0  0  0  0  0
  -28.0955  -29.1258   21.1390 H   0  0  0  0  0  0
  -26.0053  -25.9648   19.0447 H   0  0  0  0  0  0
  -23.9599  -27.2850   19.0741 H   0  0  0  0  0  0
  -23.7141  -30.6037   19.4085 H   0  0  0  0  0  0
  -22.7284  -29.2490   19.8703 H   0  0  0  0  0  0
  -25.1284  -36.1998   25.0828 H   0  0  0  0  0  0
  -20.9961  -28.3228   24.1451 H   0  0  0  0  0  0
  -20.5682  -26.2249   23.3591 H   0  0  0  0  0  0
  -21.6636  -26.7450   22.1202 H   0  0  0  0  0  0
  -19.6884  -25.6308   21.1214 H   0  0  0  0  0  0
  -19.6681  -27.3212   20.6751 H   0  0  0  0  0  0
  -17.4187  -26.6689   21.4029 H   0  0  0  0  0  0
  -18.0321  -26.0080   22.9026 H   0  0  0  0  0  0
  -19.7934  -30.7265   24.2277 H   0  0  0  0  0  0
  -17.5015  -31.6264   24.5178 H   0  0  0  0  0  0
  -15.5348  -30.2995   23.7644 H   0  0  0  0  0  0
  -15.8665  -28.0840   22.7025 H   0  0  0  0  0  0
  -24.5876  -30.7092   25.7782 H   0  0  0  0  0  0
  -24.8954  -32.2857   26.4968 H   0  0  0  0  0  0
  -25.8075  -30.8809   27.0194 H   0  0  0  0  0  0
  -26.2882  -29.6831   24.1132 H   0  0  0  0  0  0
  -27.4078  -29.7304   25.4564 H   0  0  0  0  0  0
  -27.8713  -30.4404   23.9271 H   0  0  0  0  0  0
  -27.2644  -33.3599   26.2140 H   0  0  0  0  0  0
  -28.3838  -32.6920   25.0344 H   0  0  0  0  0  0
  -28.0716  -31.8413   26.5397 H   0  0  0  0  0  0
  -28.2602  -38.0123   24.7539 H   0  0  0  0  0  0
  -28.1088  -36.2658   24.6274 H   0  0  0  0  0  0
  -27.2289  -37.1443   25.8858 H   0  0  0  0  0  0
  -20.9257  -29.8754   21.6971 H   0  0  0  0  0  0
  -26.0190  -38.2883   24.1431 H   0  0  0  0  0  0
  -28.3064  -23.0745   23.1196 H   0  0  0  0  0  0
  -28.7550  -21.1766   24.5763 H   0  0  0  0  0  0
  -30.6437  -21.2265   19.9835 H   0  0  0  0  0  0
  -29.6258  -16.7950   19.5431 H   0  0  0  0  0  0
  -29.6402  -18.5438   19.5195 H   0  0  0  0  0  0
  -28.6440  -17.7062   20.7017 H   0  0  0  0  0  0
  -32.2661  -18.9266   21.9362 H   0  0  0  0  0  0
  -31.7882  -19.2557   20.3131 H   0  0  0  0  0  0
  -29.1595  -15.5646   21.6386 H   0  0  0  0  0  0
  -30.2587  -14.7995   22.7650 H   0  0  0  0  0  0
  -27.9466  -25.3232   18.6092 H   0  0  0  0  0  0
  -29.5979  -25.4216   19.1063 H   0  0  0  0  0  0
  -30.0756  -19.2087   25.0168 H   0  0  0  0  0  0
  -30.9984  -18.4250   23.8287 H   0  0  0  0  0  0
  -29.9226  -23.4283   19.7587 H   0  0  0  0  0  0
  1 25  1  0  0  0
  1 30  2  0  0  0
  1 81  1  0  0  0
  2  3  1  0  0  0
  2 25  1  0  0  0
  2 88  1  0  0  0
  2 89  1  0  0  0
  3  4  1  0  0  0
  3 90  1  0  0  0
  3 91  1  0  0  0
  4  5  1  0  0  0
  4 92  1  0  0  0
  4 93  1  0  0  0
  5  6  1  0  0  0
  5 26  1  0  0  0
  5 94  1  0  0  0
  6 25  1  0  0  0
  6 95  1  0  0  0
  6 96  1  0  0  0
  7  8  2  0  0  0
  7 26  1  0  0  0
  7 29  1  0  0  0
  8  9  1  0  0  0
  8 22  1  0  0  0
  9 10  1  0  0  0
  9 27  2  0  0  0
 10 11  2  0  0  0
 10 15  1  0  0  0
 11 12  1  0  0  0
 11 97  1  0  0  0
 12 13  2  0  0  0
 12 98  1  0  0  0
 13 14  1  0  0  0
 13 31  1  0  0  0
 14 15  2  0  0  0
 14 99  1  0  0  0
 15100  1  0  0  0
 16 17  2  0  0  0
 16 21  1  0  0  0
 16 31  1  0  0  0
 17 18  1  0  0  0
 17101  1  0  0  0
 18 19  2  0  0  0
 18102  1  0  0  0
 19 20  1  0  0  0
 19 24  1  0  0  0
 20 21  2  0  0  0
 20103  1  0  0  0
 21 23  1  0  0  0
 22 28  1  0  0  0
 22 32  2  0  0  0
 26 27  1  0  0  0
 28104  1  0  0  0
 28105  1  0  0  0
 29106  1  0  0  0
 29107  1  0  0  0
 33 34  1  0  0  0
 33 66  1  0  0  0
 33 70  2  0  0  0
 34 36  1  0  0  0
 34 59  1  0  0  0
 34108  1  0  0  0
 35 44  2  0  0  0
 35 45  1  0  0  0
 35 68  1  0  0  0
 36 56  1  0  0  0
 36109  1  0  0  0
 37 39  1  0  0  0
 37 47  1  0  0  0
 37 66  1  0  0  0
 37110  1  0  0  0
 38 43  2  0  0  0
 38 46  1  0  0  0
 38 47  1  0  0  0
 39 64  1  0  0  0
 39 67  2  0  0  0
 40 52  1  0  0  0
 40 53  2  0  0  0
 40 58  1  0  0  0
 41111  1  0  0  0
 41112  1  0  0  0
 41113  1  0  0  0
 41 48  1  0  0  0
 42 43  1  0  0  0
 42 66  1  0  0  0
 42114  1  0  0  0
 42115  1  0  0  0
 43 44  1  0  0  0
 44116  1  0  0  0
 45 46  2  0  0  0
 45117  1  0  0  0
 46118  1  0  0  0
 47119  1  0  0  0
 47120  1  0  0  0
 48 56  1  0  0  0
 48 65  1  0  0  0
 48121  1  0  0  0
 49 50  1  0  0  0
 49 53  1  0  0  0
 49 64  1  0  0  0
 49122  1  0  0  0
 50 51  1  0  0  0
 50123  1  0  0  0
 50124  1  0  0  0
 51 52  1  0  0  0
 51125  1  0  0  0
 51126  1  0  0  0
 52127  1  0  0  0
 52128  1  0  0  0
 53 54  1  0  0  0
 54 55  2  0  0  0
 54129  1  0  0  0
 55 57  1  0  0  0
 55130  1  0  0  0
 56 69  2  0  0  0
 57 58  2  0  0  0
 57131  1  0  0  0
 58132  1  0  0  0
 59 60  1  0  0  0
 59 61  1  0  0  0
 59 62  1  0  0  0
 60133  1  0  0  0
 60134  1  0  0  0
 60135  1  0  0  0
 61136  1  0  0  0
 61137  1  0  0  0
 61138  1  0  0  0
 62139  1  0  0  0
 62140  1  0  0  0
 62141  1  0  0  0
 63 65  1  0  0  0
 63142  1  0  0  0
 63143  1  0  0  0
 63144  1  0  0  0
 64145  1  0  0  0
 65146  1  0  0  0
 68 82  1  0  0  0
 71 72  2  0  0  0
 71 75  1  0  0  0
 71147  1  0  0  0
 72 76  1  0  0  0
 72148  1  0  0  0
 73 74  1  0  0  0
 73 75  2  0  0  0
 73149  1  0  0  0
 74 76  2  0  0  0
 74 80  1  0  0  0
 75 84  1  0  0  0
 76 83  1  0  0  0
 77 81  1  0  0  0
 77 85  1  0  0  0
 77 86  2  0  0  0
 78 82  1  0  0  0
 78 84  1  0  0  0
 78 87  2  0  0  0
 79 85  1  0  0  0
 79150  1  0  0  0
 79151  1  0  0  0
 79152  1  0  0  0
 80 85  1  0  0  0
 80153  1  0  0  0
 80154  1  0  0  0
 81155  1  0  0  0
 81156  1  0  0  0
 82157  1  0  0  0
 82158  1  0  0  0
 83159  1  0  0  0
 83160  1  0  0  0
 84161  1  0  0  0
M  ISO  4   1 100  68 101  81 100  82 101
M  END
> <chiral flag>
0

> <version>
0

> <s_m_source_file>
/data/baiqing/PycharmProjects/Reinvent-master-3.2/result/LINK_invent/BTK/process_docking_weight1_custom_product_contain_oxygen_bond_distance_aromatic_linkinvent_7_9_3/rearranged_h_0101.sdf

> <i_m_source_file_index>
66

> <r_mmod_Potential_Energy-OPLS-2005>
-131.186889648438

> <r_mmod_Stretch_Energy-OPLS-2005>
37.5753173828125

> <r_mmod_Bend_Energy-OPLS-2005>
115.272964477539

> <r_mmod_Torsional_Energy-OPLS-2005>
188.585464477539

> <r_mmod_Improper_Torsional_Energy-OPLS-2005>
4.74705839157104

> <r_mmod_Van_der_Waal_Energy-OPLS-2005>
170.741027832031

> <r_mmod_Electrostatic_Energy-OPLS-2005>
-405.025848388672

> <r_mmod_Solvation_Energy-OPLS-2005>
-251.408477783203

> <b_mmod_Minimization_Converged-OPLS-2005>
0

> <r_mmod_RMS_Derivative-OPLS-2005>
0.981327831745148

$$$$
66
                    3D
 Structure written by MMmdl.
163172  0  0  1  0            999 V2000
  -30.6280  -14.7136   20.3639 C   0  0  0  0  0  0
  -30.4475  -12.3852   19.4920 C   0  0  0  0  0  0
  -29.5248  -12.2989   18.2548 C   0  0  0  0  0  0
  -28.0285  -12.2808   18.6479 C   0  0  0  0  0  0
  -27.6409  -13.2113   19.8340 C   0  0  2  0  0  0
  -28.6935  -13.1854   20.9602 C   0  0  0  0  0  0
  -25.2549  -13.8178   20.5705 C   0  0  0  0  0  0
  -24.1817  -13.0456   20.9230 C   0  0  0  0  0  0
  -24.6368  -11.6922   20.8776 C   0  0  0  0  0  0
  -23.9036  -10.4298   21.0416 C   0  0  0  0  0  0
  -24.3601   -9.4214   21.9186 C   0  0  0  0  0  0
  -23.6276   -8.2250   22.0747 C   0  0  0  0  0  0
  -22.4261   -8.0273   21.3538 C   0  0  0  0  0  0
  -21.9890   -9.0251   20.4657 C   0  0  0  0  0  0
  -22.7209  -10.2133   20.3062 C   0  0  0  0  0  0
  -21.6866   -6.0726   22.5268 C   0  0  0  0  0  0
  -21.4027   -6.5630   23.8200 C   0  0  0  0  0  0
  -21.3660   -5.6782   24.9164 C   0  0  0  0  0  0
  -21.6038   -4.3042   24.7223 C   0  0  0  0  0  0
  -21.8824   -3.8136   23.4344 C   0  0  0  0  0  0
  -21.9203   -4.6953   22.3399 C   0  0  0  0  0  0
  -22.7839  -13.5252   21.1885 C   0  0  0  0  0  0
  -22.1675   -4.2138   21.0980 F   0  0  0  0  0  0
  -21.5622   -3.4525   25.7742 F   0  0  0  0  0  0
  -29.9894  -13.4966   20.3479 N   0  0  0  0  0  0
  -26.2947  -12.9335   20.3272 N   0  0  0  0  0  0
  -25.9286  -11.6509   20.5811 N   0  0  0  0  0  0
  -22.0473  -12.8255   22.0441 N   0  0  0  0  0  0
  -25.4284  -15.1894   20.4112 N   0  0  0  0  0  0
  -31.8546  -14.7695   20.2310 O   0  0  0  0  0  0
  -21.6639   -6.8862   21.4225 O   0  0  0  0  0  0
  -22.3523  -14.5546   20.6712 O   0  0  0  0  0  0
  -24.6262  -31.8599   23.2031 C   0  0  0  0  0  0
  -25.9110  -32.4780   23.8359 C   0  0  1  0  0  0
  -27.2204  -27.3199   20.1201 C   0  0  0  0  0  0
  -25.5914  -33.8582   24.2263 N   0  0  0  0  0  0
  -23.4190  -30.4846   21.5459 C   0  0  2  0  0  0
  -24.8649  -28.9410   20.1101 C   0  0  0  0  0  0
  -22.7470  -29.4628   22.4940 C   0  0  0  0  0  0
  -18.0284  -28.1398   22.8487 C   0  0  0  0  0  0
  -24.1486  -36.7301   23.2641 C   0  0  0  0  0  0
  -25.9612  -30.7910   21.3760 C   0  0  0  0  0  0
  -26.0338  -29.4205   20.7145 C   0  0  0  0  0  0
  -27.2157  -28.6218   20.7078 C   0  0  0  0  0  0
  -26.0283  -26.8926   19.4916 C   0  0  0  0  0  0
  -24.8633  -27.6827   19.4907 C   0  0  0  0  0  0
  -23.6333  -29.8215   20.1609 C   0  0  0  0  0  0
  -25.4113  -36.3086   24.0323 C   0  0  1  0  0  0
  -20.5886  -28.3695   23.1287 C   0  0  2  0  0  0
  -20.6780  -26.9416   22.5418 C   0  0  0  0  0  0
  -19.5754  -26.6391   21.5221 C   0  0  0  0  0  0
  -18.1930  -26.7941   22.1627 C   0  0  0  0  0  0
  -19.1539  -28.8863   23.2880 C   0  0  0  0  0  0
  -18.9466  -30.1468   23.8891 C   0  0  0  0  0  0
  -17.6467  -30.6599   24.0570 C   0  0  0  0  0  0
  -25.9052  -34.9455   23.5097 C   0  0  0  0  0  0
  -16.5355  -29.9099   23.6342 C   0  0  0  0  0  0
  -16.7272  -28.6522   23.0350 C   0  0  0  0  0  0
  -26.4484  -31.6605   25.0746 C   0  0  0  0  0  0
  -25.3707  -31.3780   26.1474 C   0  0  0  0  0  0
  -27.0325  -30.3015   24.6232 C   0  0  0  0  0  0
  -27.6027  -32.4359   25.7520 C   0  0  0  0  0  0
  -27.5579  -37.1807   24.8457 C   0  0  0  0  0  0
  -21.4185  -29.3041   22.3676 N   0  0  0  0  0  0
  -26.4289  -37.3783   23.9408 N   0  0  0  0  0  0
  -24.6872  -31.0613   22.0985 N   0  0  0  0  0  0
  -23.4196  -28.8171   23.3021 O   0  0  0  0  0  0
  -28.3385  -26.4728   20.1818 O   0  0  0  0  0  0
  -26.5626  -34.8922   22.4667 O   0  0  0  0  0  0
  -23.5424  -32.1402   23.7355 O   0  0  0  0  0  0
  -28.8885  -19.1947   21.4947 C   0  0  0  0  0  0
  -30.8504  -19.4946   20.1292 C   0  0  0  0  0  0
  -28.9753  -17.7800   21.3098 C   0  0  0  0  0  0
  -30.9411  -18.0857   19.9527 C   0  0  0  0  0  0
  -29.8116  -20.0958   20.8897 C   0  0  0  0  0  0
  -29.9942  -17.1855   20.5156 C   0  0  0  0  0  0
  -30.6019  -21.9619   22.1826 C   0  0  0  0  0  0
  -29.0902  -22.4643   20.3932 C   0  0  0  0  0  0
  -30.7528  -23.4492   22.5348 C   0  0  0  0  0  0
  -29.5843  -24.3137   22.0592 C   0  0  0  0  0  0
  -29.2697  -24.0345   20.5886 C   0  0  2  0  0  0
  -28.4066  -16.8096   18.1475 C   0  0  0  0  0  0
  -28.1198  -25.0087   20.0767 C   0  0  0  0  0  0
  -29.5611  -15.8668   18.5461 C   0  0  0  0  0  0
  -29.8078  -21.5474   21.1506 N   0  0  0  0  0  0
  -29.8668  -15.8211   19.9970 N   0  0  0  0  0  0
  -31.2502  -21.1704   22.8809 O   0  0  0  0  0  0
  -28.2894  -22.0836   19.5298 O   0  0  0  0  0  0
  -31.4856  -12.5065   19.1781 H   0  0  0  0  0  0
  -30.4149  -11.4520   20.0569 H   0  0  0  0  0  0
  -29.7491  -11.3713   17.7260 H   0  0  0  0  0  0
  -29.7556  -13.0621   17.5187 H   0  0  0  0  0  0
  -27.8052  -11.2486   18.9195 H   0  0  0  0  0  0
  -27.4045  -12.4967   17.7803 H   0  0  0  0  0  0
  -27.6127  -14.2201   19.4339 H   0  0  0  0  0  0
  -28.7224  -12.2136   21.4549 H   0  0  0  0  0  0
  -28.4461  -13.9225   21.7263 H   0  0  0  0  0  0
  -25.2746   -9.5697   22.4755 H   0  0  0  0  0  0
  -23.9981   -7.4653   22.7471 H   0  0  0  0  0  0
  -21.0813   -8.8773   19.8984 H   0  0  0  0  0  0
  -22.3653  -10.9667   19.6173 H   0  0  0  0  0  0
  -21.2022   -7.6142   23.9695 H   0  0  0  0  0  0
  -21.1476   -6.0518   25.9065 H   0  0  0  0  0  0
  -22.0606   -2.7600   23.2839 H   0  0  0  0  0  0
  -22.4047  -11.9913   22.4856 H   0  0  0  0  0  0
  -21.1109  -13.1329   22.2643 H   0  0  0  0  0  0
  -24.6651  -15.8496   20.5193 H   0  0  0  0  0  0
  -26.2927  -15.6232   20.1114 H   0  0  0  0  0  0
  -26.7176  -32.5438   23.1106 H   0  0  0  0  0  0
  -25.0037  -33.9723   25.0389 H   0  0  0  0  0  0
  -22.7130  -31.3059   21.4050 H   0  0  0  0  0  0
  -23.3743  -35.9639   23.3306 H   0  0  0  0  0  0
  -24.3572  -36.8927   22.2054 H   0  0  0  0  0  0
  -23.7244  -37.6505   23.6667 H   0  0  0  0  0  0
  -26.0982  -31.5579   20.6121 H   0  0  0  0  0  0
  -26.8391  -30.8320   22.0094 H   0  0  0  0  0  0
  -28.1134  -28.9833   21.1891 H   0  0  0  0  0  0
  -25.9675  -25.9304   19.0054 H   0  0  0  0  0  0
  -23.9658  -27.3096   19.0168 H   0  0  0  0  0  0
  -23.7529  -30.5996   19.4062 H   0  0  0  0  0  0
  -22.7522  -29.2533   19.8570 H   0  0  0  0  0  0
  -25.1292  -36.1936   25.0814 H   0  0  0  0  0  0
  -20.9976  -28.3281   24.1408 H   0  0  0  0  0  0
  -20.5707  -26.2295   23.3617 H   0  0  0  0  0  0
  -21.6648  -26.7470   22.1196 H   0  0  0  0  0  0
  -19.6919  -25.6299   21.1252 H   0  0  0  0  0  0
  -19.6702  -27.3202   20.6750 H   0  0  0  0  0  0
  -17.4204  -26.6689   21.4024 H   0  0  0  0  0  0
  -18.0328  -26.0088   22.9027 H   0  0  0  0  0  0
  -19.7942  -30.7289   24.2253 H   0  0  0  0  0  0
  -17.5025  -31.6279   24.5177 H   0  0  0  0  0  0
  -15.5355  -30.3002   23.7685 H   0  0  0  0  0  0
  -15.8666  -28.0853   22.7057 H   0  0  0  0  0  0
  -24.5838  -30.7175   25.7815 H   0  0  0  0  0  0
  -24.8954  -32.2970   26.4912 H   0  0  0  0  0  0
  -25.8019  -30.8942   27.0244 H   0  0  0  0  0  0
  -26.2921  -29.6782   24.1204 H   0  0  0  0  0  0
  -27.3932  -29.7264   25.4770 H   0  0  0  0  0  0
  -27.8827  -30.4276   23.9527 H   0  0  0  0  0  0
  -27.2601  -33.3637   26.2114 H   0  0  0  0  0  0
  -28.3829  -32.6966   25.0359 H   0  0  0  0  0  0
  -28.0704  -31.8490   26.5432 H   0  0  0  0  0  0
  -28.2591  -38.0109   24.7507 H   0  0  0  0  0  0
  -28.1077  -36.2638   24.6271 H   0  0  0  0  0  0
  -27.2298  -37.1450   25.8860 H   0  0  0  0  0  0
  -20.9365  -29.8743   21.6868 H   0  0  0  0  0  0
  -26.0166  -38.2856   24.1415 H   0  0  0  0  0  0
  -28.0890  -19.5861   22.1079 H   0  0  0  0  0  0
  -31.6018  -20.1189   19.6642 H   0  0  0  0  0  0
  -28.2035  -17.1542   21.7345 H   0  0  0  0  0  0
  -31.7172  -17.6992   19.3068 H   0  0  0  0  0  0
  -31.6832  -23.7991   22.0871 H   0  0  0  0  0  0
  -30.8703  -23.5524   23.6139 H   0  0  0  0  0  0
  -29.8370  -25.3660   22.1945 H   0  0  0  0  0  0
  -28.7028  -24.1264   22.6744 H   0  0  0  0  0  0
  -30.1549  -24.2807   20.0020 H   0  0  0  0  0  0
  -28.1787  -16.7013   17.0853 H   0  0  0  0  0  0
  -28.6444  -17.8610   18.3113 H   0  0  0  0  0  0
  -27.4959  -16.5800   18.6991 H   0  0  0  0  0  0
  -27.2140  -24.7471   20.6247 H   0  0  0  0  0  0
  -27.9213  -24.7774   19.0292 H   0  0  0  0  0  0
  -30.4637  -16.1327   17.9927 H   0  0  0  0  0  0
  -29.2723  -14.8986   18.1743 H   0  0  0  0  0  0
  1 25  1  0  0  0
  1 30  2  0  0  0
  1 86  1  0  0  0
  2  3  1  0  0  0
  2 25  1  0  0  0
  2 89  1  0  0  0
  2 90  1  0  0  0
  3  4  1  0  0  0
  3 91  1  0  0  0
  3 92  1  0  0  0
  4  5  1  0  0  0
  4 93  1  0  0  0
  4 94  1  0  0  0
  5  6  1  0  0  0
  5 26  1  0  0  0
  5 95  1  0  0  0
  6 25  1  0  0  0
  6 96  1  0  0  0
  6 97  1  0  0  0
  7  8  2  0  0  0
  7 26  1  0  0  0
  7 29  1  0  0  0
  8  9  1  0  0  0
  8 22  1  0  0  0
  9 10  1  0  0  0
  9 27  2  0  0  0
 10 11  2  0  0  0
 10 15  1  0  0  0
 11 12  1  0  0  0
 11 98  1  0  0  0
 12 13  2  0  0  0
 12 99  1  0  0  0
 13 14  1  0  0  0
 13 31  1  0  0  0
 14 15  2  0  0  0
 14100  1  0  0  0
 15101  1  0  0  0
 16 17  2  0  0  0
 16 21  1  0  0  0
 16 31  1  0  0  0
 17 18  1  0  0  0
 17102  1  0  0  0
 18 19  2  0  0  0
 18103  1  0  0  0
 19 20  1  0  0  0
 19 24  1  0  0  0
 20 21  2  0  0  0
 20104  1  0  0  0
 21 23  1  0  0  0
 22 28  1  0  0  0
 22 32  2  0  0  0
 26 27  1  0  0  0
 28105  1  0  0  0
 28106  1  0  0  0
 29107  1  0  0  0
 29108  1  0  0  0
 33 34  1  0  0  0
 33 66  1  0  0  0
 33 70  2  0  0  0
 34 36  1  0  0  0
 34 59  1  0  0  0
 34109  1  0  0  0
 35 44  2  0  0  0
 35 45  1  0  0  0
 35 68  1  0  0  0
 36 56  1  0  0  0
 36110  1  0  0  0
 37 39  1  0  0  0
 37 47  1  0  0  0
 37 66  1  0  0  0
 37111  1  0  0  0
 38 43  2  0  0  0
 38 46  1  0  0  0
 38 47  1  0  0  0
 39 64  1  0  0  0
 39 67  2  0  0  0
 40 52  1  0  0  0
 40 53  2  0  0  0
 40 58  1  0  0  0
 41112  1  0  0  0
 41113  1  0  0  0
 41114  1  0  0  0
 41 48  1  0  0  0
 42 43  1  0  0  0
 42 66  1  0  0  0
 42115  1  0  0  0
 42116  1  0  0  0
 43 44  1  0  0  0
 44117  1  0  0  0
 45 46  2  0  0  0
 45118  1  0  0  0
 46119  1  0  0  0
 47120  1  0  0  0
 47121  1  0  0  0
 48 56  1  0  0  0
 48 65  1  0  0  0
 48122  1  0  0  0
 49 50  1  0  0  0
 49 53  1  0  0  0
 49 64  1  0  0  0
 49123  1  0  0  0
 50 51  1  0  0  0
 50124  1  0  0  0
 50125  1  0  0  0
 51 52  1  0  0  0
 51126  1  0  0  0
 51127  1  0  0  0
 52128  1  0  0  0
 52129  1  0  0  0
 53 54  1  0  0  0
 54 55  2  0  0  0
 54130  1  0  0  0
 55 57  1  0  0  0
 55131  1  0  0  0
 56 69  2  0  0  0
 57 58  2  0  0  0
 57132  1  0  0  0
 58133  1  0  0  0
 59 60  1  0  0  0
 59 61  1  0  0  0
 59 62  1  0  0  0
 60134  1  0  0  0
 60135  1  0  0  0
 60136  1  0  0  0
 61137  1  0  0  0
 61138  1  0  0  0
 61139  1  0  0  0
 62140  1  0  0  0
 62141  1  0  0  0
 62142  1  0  0  0
 63 65  1  0  0  0
 63143  1  0  0  0
 63144  1  0  0  0
 63145  1  0  0  0
 64146  1  0  0  0
 65147  1  0  0  0
 68 83  1  0  0  0
 71 73  2  0  0  0
 71 75  1  0  0  0
 71148  1  0  0  0
 72 74  1  0  0  0
 72 75  2  0  0  0
 72149  1  0  0  0
 73 76  1  0  0  0
 73150  1  0  0  0
 74 76  2  0  0  0
 74151  1  0  0  0
 75 85  1  0  0  0
 76 86  1  0  0  0
 77 79  1  0  0  0
 77 85  1  0  0  0
 77 87  2  0  0  0
 78 81  1  0  0  0
 78 85  1  0  0  0
 78 88  2  0  0  0
 79 80  1  0  0  0
 79152  1  0  0  0
 79153  1  0  0  0
 80 81  1  0  0  0
 80154  1  0  0  0
 80155  1  0  0  0
 81 83  1  0  0  0
 81156  1  0  0  0
 82 84  1  0  0  0
 82157  1  0  0  0
 82158  1  0  0  0
 82159  1  0  0  0
 83160  1  0  0  0
 83161  1  0  0  0
 84 86  1  0  0  0
 84162  1  0  0  0
 84163  1  0  0  0
M  ISO  4   1 100  68 101  83 101  86 100
M  END
> <chiral flag>
0

> <version>
0

> <s_m_source_file>
/data/baiqing/PycharmProjects/Reinvent-master-3.2/result/LINK_invent/BTK/process_docking_weight1_custom_product_contain_oxygen_bond_distance_aromatic_linkinvent_7_9_3/rearranged_h_0101.sdf

> <i_m_source_file_index>
67

> <r_mmod_Potential_Energy-OPLS-2005>
412.758911132812

> <r_mmod_Stretch_Energy-OPLS-2005>
93.7779541015625

> <r_mmod_Bend_Energy-OPLS-2005>
147.125061035156

> <r_mmod_Torsional_Energy-OPLS-2005>
387.580169677734

> <r_mmod_Improper_Torsional_Energy-OPLS-2005>
23.8134479522705

> <r_mmod_Van_der_Waal_Energy-OPLS-2005>
163.863662719727

> <r_mmod_Electrostatic_Energy-OPLS-2005>
-263.360198974609

> <r_mmod_Solvation_Energy-OPLS-2005>
-219.942352294922

> <b_mmod_Minimization_Converged-OPLS-2005>
0

> <r_mmod_RMS_Derivative-OPLS-2005>
1.96278238296509

$$$$
67
                    3D
 Structure written by MMmdl.
155163  0  0  1  0            999 V2000
  -30.7043  -14.6632   20.4816 C   0  0  0  0  0  0
  -30.4084  -12.4086   19.4725 C   0  0  0  0  0  0
  -29.4984  -12.4902   18.2321 C   0  0  0  0  0  0
  -28.0264  -12.3274   18.6487 C   0  0  0  0  0  0
  -27.6392  -13.2342   19.8477 C   0  0  2  0  0  0
  -28.6843  -13.1806   20.9838 C   0  0  0  0  0  0
  -25.2494  -13.8206   20.5694 C   0  0  0  0  0  0
  -24.1791  -13.0442   20.9202 C   0  0  0  0  0  0
  -24.6384  -11.6922   20.8739 C   0  0  0  0  0  0
  -23.9064  -10.4293   21.0393 C   0  0  0  0  0  0
  -24.3618   -9.4210   21.9171 C   0  0  0  0  0  0
  -23.6293   -8.2244   22.0748 C   0  0  0  0  0  0
  -22.4277   -8.0276   21.3537 C   0  0  0  0  0  0
  -21.9904   -9.0251   20.4644 C   0  0  0  0  0  0
  -22.7232  -10.2131   20.3049 C   0  0  0  0  0  0
  -21.6856   -6.0728   22.5272 C   0  0  0  0  0  0
  -21.4017   -6.5635   23.8204 C   0  0  0  0  0  0
  -21.3661   -5.6789   24.9167 C   0  0  0  0  0  0
  -21.6050   -4.3053   24.7221 C   0  0  0  0  0  0
  -21.8824   -3.8140   23.4343 C   0  0  0  0  0  0
  -21.9194   -4.6954   22.3396 C   0  0  0  0  0  0
  -22.7813  -13.5211   21.1865 C   0  0  0  0  0  0
  -22.1663   -4.2144   21.0972 F   0  0  0  0  0  0
  -21.5629   -3.4536   25.7731 F   0  0  0  0  0  0
  -29.9920  -13.4908   20.3941 N   0  0  0  0  0  0
  -26.2924  -12.9421   20.3282 N   0  0  0  0  0  0
  -25.9315  -11.6561   20.5757 N   0  0  0  0  0  0
  -22.0474  -12.8194   22.0428 N   0  0  0  0  0  0
  -25.4175  -15.1930   20.4094 N   0  0  0  0  0  0
  -31.8953  -14.6411   20.1629 O   0  0  0  0  0  0
  -21.6644   -6.8872   21.4235 O   0  0  0  0  0  0
  -22.3488  -14.5515   20.6715 O   0  0  0  0  0  0
  -24.6267  -31.8620   23.2025 C   0  0  0  0  0  0
  -25.9137  -32.4783   23.8349 C   0  0  1  0  0  0
  -27.2102  -27.3000   20.1170 C   0  0  0  0  0  0
  -25.5982  -33.8579   24.2292 N   0  0  0  0  0  0
  -23.4207  -30.4874   21.5446 C   0  0  2  0  0  0
  -24.8672  -28.9486   20.1067 C   0  0  0  0  0  0
  -22.7488  -29.4638   22.4914 C   0  0  0  0  0  0
  -18.0306  -28.1387   22.8489 C   0  0  0  0  0  0
  -24.1494  -36.7264   23.2627 C   0  0  0  0  0  0
  -25.9666  -30.7850   21.3804 C   0  0  0  0  0  0
  -26.0389  -29.4149   20.7156 C   0  0  0  0  0  0
  -27.2165  -28.6041   20.7100 C   0  0  0  0  0  0
  -26.0146  -26.9035   19.4730 C   0  0  0  0  0  0
  -24.8595  -27.7011   19.4721 C   0  0  0  0  0  0
  -23.6362  -29.8290   20.1575 C   0  0  0  0  0  0
  -25.4122  -36.3066   24.0324 C   0  0  1  0  0  0
  -20.5901  -28.3697   23.1270 C   0  0  2  0  0  0
  -20.6805  -26.9419   22.5393 C   0  0  0  0  0  0
  -19.5774  -26.6387   21.5204 C   0  0  0  0  0  0
  -18.1957  -26.7938   22.1621 C   0  0  0  0  0  0
  -19.1550  -28.8861   23.2884 C   0  0  0  0  0  0
  -18.9472  -30.1468   23.8890 C   0  0  0  0  0  0
  -17.6465  -30.6591   24.0549 C   0  0  0  0  0  0
  -25.9067  -34.9440   23.5092 C   0  0  0  0  0  0
  -16.5362  -29.9074   23.6324 C   0  0  0  0  0  0
  -16.7289  -28.6495   23.0348 C   0  0  0  0  0  0
  -26.4531  -31.6584   25.0711 C   0  0  0  0  0  0
  -25.3752  -31.3744   26.1419 C   0  0  0  0  0  0
  -27.0374  -30.2995   24.6167 C   0  0  0  0  0  0
  -27.6099  -32.4303   25.7483 C   0  0  0  0  0  0
  -27.5584  -37.1781   24.8462 C   0  0  0  0  0  0
  -21.4201  -29.3049   22.3659 N   0  0  0  0  0  0
  -26.4293  -37.3762   23.9408 N   0  0  0  0  0  0
  -24.6893  -31.0619   22.0986 N   0  0  0  0  0  0
  -23.4214  -28.8173   23.2994 O   0  0  0  0  0  0
  -28.2982  -26.4069   20.1889 O   0  0  0  0  0  0
  -26.5587  -34.8904   22.4634 O   0  0  0  0  0  0
  -23.5425  -32.1433   23.7336 O   0  0  0  0  0  0
  -29.0011  -18.9002   21.6698 C   0  0  0  0  0  0
  -29.7282  -20.7818   19.7179 C   0  0  0  0  0  0
  -29.8694  -18.4531   20.6432 C   0  0  0  0  0  0
  -30.1983  -19.4302   19.6439 C   0  0  0  0  0  0
  -28.5233  -20.2454   21.7225 C   0  0  0  0  0  0
  -28.8914  -21.2366   20.7670 C   0  0  0  0  0  0
  -30.6353  -17.1118   20.7509 C   0  0  0  0  0  0
  -31.0849  -19.0628   18.4601 C   0  0  0  0  0  0
  -27.9730  -24.9520   20.1137 C   0  0  0  0  0  0
  -29.0052  -23.7799   20.4423 C   0  0  0  0  0  0
  -27.6897  -20.6207   22.7732 N   0  0  0  0  0  0
  -30.0434  -15.8638   20.6930 N   0  0  0  0  0  0
  -31.8551  -17.2527   20.8968 O   0  0  0  0  0  0
  -28.3480  -22.5385   20.8824 O   0  0  0  0  0  0
  -31.4539  -12.4799   19.1708 H   0  0  0  0  0  0
  -30.3103  -11.4378   19.9615 H   0  0  0  0  0  0
  -29.7719  -11.7192   17.5110 H   0  0  0  0  0  0
  -29.6407  -13.4474   17.7273 H   0  0  0  0  0  0
  -27.8812  -11.2812   18.9168 H   0  0  0  0  0  0
  -27.3685  -12.5173   17.7995 H   0  0  0  0  0  0
  -27.6317  -14.2541   19.4610 H   0  0  0  0  0  0
  -28.7005  -12.1947   21.4517 H   0  0  0  0  0  0
  -28.4323  -13.8900   21.7730 H   0  0  0  0  0  0
  -25.2766   -9.5692   22.4739 H   0  0  0  0  0  0
  -24.0009   -7.4639   22.7466 H   0  0  0  0  0  0
  -21.0837   -8.8771   19.8948 H   0  0  0  0  0  0
  -22.3686  -10.9670   19.6161 H   0  0  0  0  0  0
  -21.2011   -7.6143   23.9708 H   0  0  0  0  0  0
  -21.1481   -6.0515   25.9072 H   0  0  0  0  0  0
  -22.0601   -2.7600   23.2842 H   0  0  0  0  0  0
  -22.4109  -11.9869   22.4830 H   0  0  0  0  0  0
  -21.1093  -13.1218   22.2644 H   0  0  0  0  0  0
  -24.6472  -15.8443   20.5148 H   0  0  0  0  0  0
  -26.2605  -15.6329   20.0644 H   0  0  0  0  0  0
  -26.7195  -32.5447   23.1081 H   0  0  0  0  0  0
  -25.0235  -33.9759   25.0503 H   0  0  0  0  0  0
  -22.7123  -31.3068   21.4034 H   0  0  0  0  0  0
  -23.3767  -35.9581   23.3286 H   0  0  0  0  0  0
  -24.3581  -36.8882   22.2039 H   0  0  0  0  0  0
  -23.7236  -37.6463   23.6643 H   0  0  0  0  0  0
  -26.1066  -31.5502   20.6164 H   0  0  0  0  0  0
  -26.8433  -30.8246   22.0151 H   0  0  0  0  0  0
  -28.1115  -28.9539   21.2041 H   0  0  0  0  0  0
  -25.9231  -25.9565   18.9644 H   0  0  0  0  0  0
  -23.9665  -27.3412   18.9812 H   0  0  0  0  0  0
  -23.7515  -30.6060   19.4010 H   0  0  0  0  0  0
  -22.7567  -29.2569   19.8574 H   0  0  0  0  0  0
  -25.1292  -36.1909   25.0813 H   0  0  0  0  0  0
  -21.0015  -28.3286   24.1379 H   0  0  0  0  0  0
  -20.5727  -26.2305   23.3596 H   0  0  0  0  0  0
  -21.6681  -26.7467   22.1171 H   0  0  0  0  0  0
  -19.6928  -25.6293   21.1240 H   0  0  0  0  0  0
  -19.6708  -27.3197   20.6737 H   0  0  0  0  0  0
  -17.4232  -26.6687   21.4021 H   0  0  0  0  0  0
  -18.0356  -26.0082   22.9011 H   0  0  0  0  0  0
  -19.7946  -30.7289   24.2262 H   0  0  0  0  0  0
  -17.5012  -31.6269   24.5150 H   0  0  0  0  0  0
  -15.5364  -30.2952   23.7666 H   0  0  0  0  0  0
  -15.8700  -28.0802   22.7057 H   0  0  0  0  0  0
  -24.5936  -30.7096   25.7739 H   0  0  0  0  0  0
  -24.8942  -32.2922   26.4804 H   0  0  0  0  0  0
  -25.8060  -30.8941   27.0209 H   0  0  0  0  0  0
  -26.2960  -29.6738   24.1188 H   0  0  0  0  0  0
  -27.4065  -29.7258   25.4681 H   0  0  0  0  0  0
  -27.8825  -30.4279   23.9406 H   0  0  0  0  0  0
  -27.2738  -33.3604   26.2074 H   0  0  0  0  0  0
  -28.3910  -32.6868   25.0323 H   0  0  0  0  0  0
  -28.0751  -31.8412   26.5393 H   0  0  0  0  0  0
  -28.2587  -38.0092   24.7532 H   0  0  0  0  0  0
  -28.1108  -36.2628   24.6270 H   0  0  0  0  0  0
  -27.2305  -37.1392   25.8864 H   0  0  0  0  0  0
  -20.9383  -29.8727   21.6823 H   0  0  0  0  0  0
  -26.0175  -38.2829   24.1418 H   0  0  0  0  0  0
  -28.7593  -18.2164   22.4722 H   0  0  0  0  0  0
  -30.0089  -21.4740   18.9385 H   0  0  0  0  0  0
  -31.0045  -19.7947   17.6557 H   0  0  0  0  0  0
  -30.7997  -18.0969   18.0411 H   0  0  0  0  0  0
  -32.1308  -19.0135   18.7631 H   0  0  0  0  0  0
  -27.1256  -24.7945   20.7834 H   0  0  0  0  0  0
  -27.6096  -24.7294   19.1116 H   0  0  0  0  0  0
  -29.6481  -24.1012   21.2629 H   0  0  0  0  0  0
  -29.6581  -23.6081   19.5873 H   0  0  0  0  0  0
  -27.1639  -19.9034   23.2617 H   0  0  0  0  0  0
  -27.1780  -21.4906   22.6604 H   0  0  0  0  0  0
  -29.0387  -15.8395   20.7286 H   0  0  0  0  0  0
  1 25  1  0  0  0
  1 30  2  0  0  0
  1 82  1  0  0  0
  2  3  1  0  0  0
  2 25  1  0  0  0
  2 85  1  0  0  0
  2 86  1  0  0  0
  3  4  1  0  0  0
  3 87  1  0  0  0
  3 88  1  0  0  0
  4  5  1  0  0  0
  4 89  1  0  0  0
  4 90  1  0  0  0
  5  6  1  0  0  0
  5 26  1  0  0  0
  5 91  1  0  0  0
  6 25  1  0  0  0
  6 92  1  0  0  0
  6 93  1  0  0  0
  7  8  2  0  0  0
  7 26  1  0  0  0
  7 29  1  0  0  0
  8  9  1  0  0  0
  8 22  1  0  0  0
  9 10  1  0  0  0
  9 27  2  0  0  0
 10 11  2  0  0  0
 10 15  1  0  0  0
 11 12  1  0  0  0
 11 94  1  0  0  0
 12 13  2  0  0  0
 12 95  1  0  0  0
 13 14  1  0  0  0
 13 31  1  0  0  0
 14 15  2  0  0  0
 14 96  1  0  0  0
 15 97  1  0  0  0
 16 17  2  0  0  0
 16 21  1  0  0  0
 16 31  1  0  0  0
 17 18  1  0  0  0
 17 98  1  0  0  0
 18 19  2  0  0  0
 18 99  1  0  0  0
 19 20  1  0  0  0
 19 24  1  0  0  0
 20 21  2  0  0  0
 20100  1  0  0  0
 21 23  1  0  0  0
 22 28  1  0  0  0
 22 32  2  0  0  0
 26 27  1  0  0  0
 28101  1  0  0  0
 28102  1  0  0  0
 29103  1  0  0  0
 29104  1  0  0  0
 33 34  1  0  0  0
 33 66  1  0  0  0
 33 70  2  0  0  0
 34 36  1  0  0  0
 34 59  1  0  0  0
 34105  1  0  0  0
 35 44  2  0  0  0
 35 45  1  0  0  0
 35 68  1  0  0  0
 36 56  1  0  0  0
 36106  1  0  0  0
 37 39  1  0  0  0
 37 47  1  0  0  0
 37 66  1  0  0  0
 37107  1  0  0  0
 38 43  2  0  0  0
 38 46  1  0  0  0
 38 47  1  0  0  0
 39 64  1  0  0  0
 39 67  2  0  0  0
 40 52  1  0  0  0
 40 53  2  0  0  0
 40 58  1  0  0  0
 41108  1  0  0  0
 41109  1  0  0  0
 41110  1  0  0  0
 41 48  1  0  0  0
 42 43  1  0  0  0
 42 66  1  0  0  0
 42111  1  0  0  0
 42112  1  0  0  0
 43 44  1  0  0  0
 44113  1  0  0  0
 45 46  2  0  0  0
 45114  1  0  0  0
 46115  1  0  0  0
 47116  1  0  0  0
 47117  1  0  0  0
 48 56  1  0  0  0
 48 65  1  0  0  0
 48118  1  0  0  0
 49 50  1  0  0  0
 49 53  1  0  0  0
 49 64  1  0  0  0
 49119  1  0  0  0
 50 51  1  0  0  0
 50120  1  0  0  0
 50121  1  0  0  0
 51 52  1  0  0  0
 51122  1  0  0  0
 51123  1  0  0  0
 52124  1  0  0  0
 52125  1  0  0  0
 53 54  1  0  0  0
 54 55  2  0  0  0
 54126  1  0  0  0
 55 57  1  0  0  0
 55127  1  0  0  0
 56 69  2  0  0  0
 57 58  2  0  0  0
 57128  1  0  0  0
 58129  1  0  0  0
 59 60  1  0  0  0
 59 61  1  0  0  0
 59 62  1  0  0  0
 60130  1  0  0  0
 60131  1  0  0  0
 60132  1  0  0  0
 61133  1  0  0  0
 61134  1  0  0  0
 61135  1  0  0  0
 62136  1  0  0  0
 62137  1  0  0  0
 62138  1  0  0  0
 63 65  1  0  0  0
 63139  1  0  0  0
 63140  1  0  0  0
 63141  1  0  0  0
 64142  1  0  0  0
 65143  1  0  0  0
 68 79  1  0  0  0
 71 73  2  0  0  0
 71 75  1  0  0  0
 71144  1  0  0  0
 72 74  2  0  0  0
 72 76  1  0  0  0
 72145  1  0  0  0
 73 74  1  0  0  0
 73 77  1  0  0  0
 74 78  1  0  0  0
 75 76  2  0  0  0
 75 81  1  0  0  0
 76 84  1  0  0  0
 77 82  1  0  0  0
 77 83  2  0  0  0
 78146  1  0  0  0
 78147  1  0  0  0
 78148  1  0  0  0
 79 80  1  0  0  0
 79149  1  0  0  0
 79150  1  0  0  0
 80 84  1  0  0  0
 80151  1  0  0  0
 80152  1  0  0  0
 81153  1  0  0  0
 81154  1  0  0  0
 82155  1  0  0  0
M  ISO  4   1 100  68 101  79 101  82 100
M  END
> <chiral flag>
0

> <version>
0

> <s_m_source_file>
/data/baiqing/PycharmProjects/Reinvent-master-3.2/result/LINK_invent/BTK/process_docking_weight1_custom_product_contain_oxygen_bond_distance_aromatic_linkinvent_7_9_3/rearranged_h_0101.sdf

> <i_m_source_file_index>
68

> <r_mmod_Potential_Energy-OPLS-2005>
38.0504608154297

> <r_mmod_Stretch_Energy-OPLS-2005>
88.9132385253906

> <r_mmod_Bend_Energy-OPLS-2005>
164.83381652832

> <r_mmod_Torsional_Energy-OPLS-2005>
249.589019775391

> <r_mmod_Improper_Torsional_Energy-OPLS-2005>
10.2230319976807

> <r_mmod_Van_der_Waal_Energy-OPLS-2005>
161.050018310547

> <r_mmod_Electrostatic_Energy-OPLS-2005>
-464.889495849609

> <r_mmod_Solvation_Energy-OPLS-2005>
-238.07177734375

> <b_mmod_Minimization_Converged-OPLS-2005>
0

> <r_mmod_RMS_Derivative-OPLS-2005>
2.20947957038879

$$$$
68
                    3D
 Structure written by MMmdl.
164173  0  0  1  0            999 V2000
  -30.6305  -14.6910   20.3690 C   0  0  0  0  0  0
  -30.4482  -12.3690   19.4909 C   0  0  0  0  0  0
  -29.5242  -12.2848   18.2538 C   0  0  0  0  0  0
  -28.0283  -12.2725   18.6495 C   0  0  0  0  0  0
  -27.6414  -13.2046   19.8356 C   0  0  2  0  0  0
  -28.6937  -13.1707   20.9639 C   0  0  0  0  0  0
  -25.2563  -13.8149   20.5690 C   0  0  0  0  0  0
  -24.1815  -13.0442   20.9197 C   0  0  0  0  0  0
  -24.6359  -11.6907   20.8777 C   0  0  0  0  0  0
  -23.9024  -10.4294   21.0441 C   0  0  0  0  0  0
  -24.3594   -9.4203   21.9203 C   0  0  0  0  0  0
  -23.6277   -8.2235   22.0760 C   0  0  0  0  0  0
  -22.4267   -8.0270   21.3544 C   0  0  0  0  0  0
  -21.9893   -9.0250   20.4654 C   0  0  0  0  0  0
  -22.7209  -10.2138   20.3076 C   0  0  0  0  0  0
  -21.6855   -6.0731   22.5279 C   0  0  0  0  0  0
  -21.4017   -6.5639   23.8210 C   0  0  0  0  0  0
  -21.3651   -5.6792   24.9174 C   0  0  0  0  0  0
  -21.6048   -4.3057   24.7226 C   0  0  0  0  0  0
  -21.8826   -3.8147   23.4348 C   0  0  0  0  0  0
  -21.9200   -4.6959   22.3401 C   0  0  0  0  0  0
  -22.7852  -13.5256   21.1857 C   0  0  0  0  0  0
  -22.1662   -4.2144   21.0978 F   0  0  0  0  0  0
  -21.5624   -3.4531   25.7732 F   0  0  0  0  0  0
  -29.9925  -13.4750   20.3556 N   0  0  0  0  0  0
  -26.2948  -12.9291   20.3276 N   0  0  0  0  0  0
  -25.9283  -11.6476   20.5830 N   0  0  0  0  0  0
  -22.0488  -12.8257   22.0415 N   0  0  0  0  0  0
  -25.4334  -15.1863   20.4129 N   0  0  0  0  0  0
  -31.8551  -14.7529   20.2279 O   0  0  0  0  0  0
  -21.6643   -6.8861   21.4237 O   0  0  0  0  0  0
  -22.3544  -14.5563   20.6693 O   0  0  0  0  0  0
  -24.6229  -31.8625   23.2040 C   0  0  0  0  0  0
  -25.9093  -32.4790   23.8367 C   0  0  1  0  0  0
  -27.2220  -27.3448   20.1305 C   0  0  0  0  0  0
  -25.5917  -33.8591   24.2291 N   0  0  0  0  0  0
  -23.4150  -30.4852   21.5459 C   0  0  2  0  0  0
  -24.8624  -28.9432   20.1113 C   0  0  0  0  0  0
  -22.7455  -29.4637   22.4946 C   0  0  0  0  0  0
  -18.0283  -28.1386   22.8488 C   0  0  0  0  0  0
  -24.1488  -36.7304   23.2637 C   0  0  0  0  0  0
  -25.9525  -30.8014   21.3714 C   0  0  0  0  0  0
  -26.0274  -29.4297   20.7184 C   0  0  0  0  0  0
  -27.2121  -28.6416   20.7190 C   0  0  0  0  0  0
  -26.0434  -26.9093   19.4853 C   0  0  0  0  0  0
  -24.8708  -27.6874   19.4836 C   0  0  0  0  0  0
  -23.6286  -29.8191   20.1607 C   0  0  0  0  0  0
  -25.4109  -36.3089   24.0331 C   0  0  1  0  0  0
  -20.5882  -28.3692   23.1287 C   0  0  2  0  0  0
  -20.6777  -26.9417   22.5412 C   0  0  0  0  0  0
  -19.5754  -26.6389   21.5215 C   0  0  0  0  0  0
  -18.1930  -26.7930   22.1622 C   0  0  0  0  0  0
  -19.1535  -28.8855   23.2886 C   0  0  0  0  0  0
  -18.9458  -30.1456   23.8904 C   0  0  0  0  0  0
  -17.6458  -30.6589   24.0565 C   0  0  0  0  0  0
  -25.9048  -34.9458   23.5112 C   0  0  0  0  0  0
  -16.5350  -29.9091   23.6327 C   0  0  0  0  0  0
  -16.7269  -28.6508   23.0347 C   0  0  0  0  0  0
  -26.4489  -31.6584   25.0721 C   0  0  0  0  0  0
  -25.3737  -31.3712   26.1455 C   0  0  0  0  0  0
  -27.0324  -30.3011   24.6149 C   0  0  0  0  0  0
  -27.6055  -32.4309   25.7487 C   0  0  0  0  0  0
  -27.5579  -37.1801   24.8460 C   0  0  0  0  0  0
  -21.4176  -29.3047   22.3686 N   0  0  0  0  0  0
  -26.4287  -37.3782   23.9412 N   0  0  0  0  0  0
  -24.6820  -31.0659   22.0979 N   0  0  0  0  0  0
  -23.4189  -28.8185   23.3025 O   0  0  0  0  0  0
  -28.3420  -26.5121   20.1704 O   0  0  0  0  0  0
  -26.5613  -34.8922   22.4676 O   0  0  0  0  0  0
  -23.5399  -32.1411   23.7387 O   0  0  0  0  0  0
  -31.1171  -19.3360   20.1507 C   0  0  0  0  0  0
  -31.1504  -17.9172   20.1804 C   0  0  0  0  0  0
  -28.8647  -17.9001   20.9308 C   0  0  0  0  0  0
  -29.9346  -20.0899   20.4046 C   0  0  0  0  0  0
  -29.9991  -17.1582   20.4970 C   0  0  0  0  0  0
  -28.8242  -19.3276   20.8802 C   0  0  0  0  0  0
  -29.0115  -23.8537   18.5140 C   0  0  0  0  0  0
  -29.7682  -22.6816   17.8907 C   0  0  0  0  0  0
  -30.6509  -21.9354   18.9092 C   0  0  0  0  0  0
  -28.9538  -22.5208   20.6608 C   0  0  0  0  0  0
  -29.0967  -23.9894   20.0416 C   0  0  2  0  0  0
  -28.4112  -16.7415   18.1011 C   0  0  0  0  0  0
  -28.1237  -25.1129   20.5934 C   0  0  0  0  0  0
  -29.5707  -15.8292   18.5493 C   0  0  0  0  0  0
  -29.9008  -21.5036   20.1000 N   0  0  0  0  0  0
  -29.8578  -15.7895   20.0053 N   0  0  0  0  0  0
  -28.3636  -24.6296   17.8046 O   0  0  0  0  0  0
  -27.6622  -19.9480   21.2018 F   0  0  0  0  0  0
  -31.4859  -12.4885   19.1755 H   0  0  0  0  0  0
  -30.4121  -11.4339   20.0514 H   0  0  0  0  0  0
  -29.7448  -11.3525   17.7315 H   0  0  0  0  0  0
  -29.7594  -13.0376   17.5081 H   0  0  0  0  0  0
  -27.8078  -11.2412   18.9291 H   0  0  0  0  0  0
  -27.4027  -12.4768   17.7798 H   0  0  0  0  0  0
  -27.6117  -14.2138   19.4369 H   0  0  0  0  0  0
  -28.7148  -12.1966   21.4550 H   0  0  0  0  0  0
  -28.4501  -13.9060   21.7329 H   0  0  0  0  0  0
  -25.2741   -9.5684   22.4778 H   0  0  0  0  0  0
  -23.9997   -7.4630   22.7471 H   0  0  0  0  0  0
  -21.0828   -8.8772   19.8947 H   0  0  0  0  0  0
  -22.3670  -10.9690   19.6192 H   0  0  0  0  0  0
  -21.2006   -7.6152   23.9709 H   0  0  0  0  0  0
  -21.1462   -6.0523   25.9071 H   0  0  0  0  0  0
  -22.0607   -2.7607   23.2854 H   0  0  0  0  0  0
  -22.4088  -11.9916   22.4806 H   0  0  0  0  0  0
  -21.1116  -13.1302   22.2624 H   0  0  0  0  0  0
  -24.6758  -15.8508   20.5257 H   0  0  0  0  0  0
  -26.2965  -15.6127   20.1034 H   0  0  0  0  0  0
  -26.7160  -32.5471   23.1122 H   0  0  0  0  0  0
  -25.0064  -33.9745   25.0433 H   0  0  0  0  0  0
  -22.7077  -31.3049   21.4030 H   0  0  0  0  0  0
  -23.3748  -35.9638   23.3291 H   0  0  0  0  0  0
  -24.3584  -36.8930   22.2053 H   0  0  0  0  0  0
  -23.7242  -37.6505   23.6662 H   0  0  0  0  0  0
  -26.0767  -31.5620   20.5995 H   0  0  0  0  0  0
  -26.8364  -30.8544   21.9953 H   0  0  0  0  0  0
  -28.1065  -29.0075   21.2039 H   0  0  0  0  0  0
  -26.0183  -25.9554   18.9779 H   0  0  0  0  0  0
  -23.9819  -27.3134   18.9947 H   0  0  0  0  0  0
  -23.7450  -30.5952   19.4032 H   0  0  0  0  0  0
  -22.7502  -29.2454   19.8590 H   0  0  0  0  0  0
  -25.1289  -36.1942   25.0823 H   0  0  0  0  0  0
  -20.9975  -28.3269   24.1408 H   0  0  0  0  0  0
  -20.5683  -26.2305   23.3614 H   0  0  0  0  0  0
  -21.6644  -26.7460   22.1195 H   0  0  0  0  0  0
  -19.6918  -25.6302   21.1243 H   0  0  0  0  0  0
  -19.6692  -27.3202   20.6746 H   0  0  0  0  0  0
  -17.4204  -26.6677   21.4021 H   0  0  0  0  0  0
  -18.0333  -26.0071   22.9016 H   0  0  0  0  0  0
  -19.7936  -30.7267   24.2277 H   0  0  0  0  0  0
  -17.5015  -31.6270   24.5166 H   0  0  0  0  0  0
  -15.5350  -30.2995   23.7651 H   0  0  0  0  0  0
  -15.8667  -28.0831   22.7057 H   0  0  0  0  0  0
  -24.5911  -30.7061   25.7787 H   0  0  0  0  0  0
  -24.8935  -32.2877   26.4894 H   0  0  0  0  0  0
  -25.8074  -30.8881   27.0221 H   0  0  0  0  0  0
  -26.2888  -29.6762   24.1191 H   0  0  0  0  0  0
  -27.4052  -29.7259   25.4635 H   0  0  0  0  0  0
  -27.8745  -30.4300   23.9345 H   0  0  0  0  0  0
  -27.2673  -33.3608   26.2073 H   0  0  0  0  0  0
  -28.3865  -32.6870   25.0315 H   0  0  0  0  0  0
  -28.0725  -31.8430   26.5398 H   0  0  0  0  0  0
  -28.2584  -38.0110   24.7520 H   0  0  0  0  0  0
  -28.1088  -36.2644   24.6264 H   0  0  0  0  0  0
  -27.2306  -37.1418   25.8864 H   0  0  0  0  0  0
  -20.9350  -29.8762   21.6892 H   0  0  0  0  0  0
  -26.0170  -38.2856   24.1422 H   0  0  0  0  0  0
  -32.0218  -19.8387   19.8423 H   0  0  0  0  0  0
  -32.0439  -17.4176   19.8331 H   0  0  0  0  0  0
  -27.9522  -17.3733   21.1687 H   0  0  0  0  0  0
  -30.3794  -23.0541   17.0684 H   0  0  0  0  0  0
  -29.0395  -21.9972   17.4577 H   0  0  0  0  0  0
  -31.4750  -22.5786   19.2229 H   0  0  0  0  0  0
  -31.1050  -21.1019   18.3740 H   0  0  0  0  0  0
  -27.9295  -22.1811   20.5041 H   0  0  0  0  0  0
  -29.0990  -22.5685   21.7406 H   0  0  0  0  0  0
  -30.1081  -24.3327   20.2571 H   0  0  0  0  0  0
  -28.1844  -16.5680   17.0484 H   0  0  0  0  0  0
  -28.6520  -17.8001   18.1971 H   0  0  0  0  0  0
  -27.4988  -16.5410   18.6603 H   0  0  0  0  0  0
  -28.2232  -25.1192   21.6788 H   0  0  0  0  0  0
  -27.1010  -24.7783   20.4242 H   0  0  0  0  0  0
  -30.4806  -16.1038   18.0114 H   0  0  0  0  0  0
  -29.3011  -14.8565   18.1833 H   0  0  0  0  0  0
  1 25  1  0  0  0
  1 30  2  0  0  0
  1 86  1  0  0  0
  2  3  1  0  0  0
  2 25  1  0  0  0
  2 89  1  0  0  0
  2 90  1  0  0  0
  3  4  1  0  0  0
  3 91  1  0  0  0
  3 92  1  0  0  0
  4  5  1  0  0  0
  4 93  1  0  0  0
  4 94  1  0  0  0
  5  6  1  0  0  0
  5 26  1  0  0  0
  5 95  1  0  0  0
  6 25  1  0  0  0
  6 96  1  0  0  0
  6 97  1  0  0  0
  7  8  2  0  0  0
  7 26  1  0  0  0
  7 29  1  0  0  0
  8  9  1  0  0  0
  8 22  1  0  0  0
  9 10  1  0  0  0
  9 27  2  0  0  0
 10 11  2  0  0  0
 10 15  1  0  0  0
 11 12  1  0  0  0
 11 98  1  0  0  0
 12 13  2  0  0  0
 12 99  1  0  0  0
 13 14  1  0  0  0
 13 31  1  0  0  0
 14 15  2  0  0  0
 14100  1  0  0  0
 15101  1  0  0  0
 16 17  2  0  0  0
 16 21  1  0  0  0
 16 31  1  0  0  0
 17 18  1  0  0  0
 17102  1  0  0  0
 18 19  2  0  0  0
 18103  1  0  0  0
 19 20  1  0  0  0
 19 24  1  0  0  0
 20 21  2  0  0  0
 20104  1  0  0  0
 21 23  1  0  0  0
 22 28  1  0  0  0
 22 32  2  0  0  0
 26 27  1  0  0  0
 28105  1  0  0  0
 28106  1  0  0  0
 29107  1  0  0  0
 29108  1  0  0  0
 33 34  1  0  0  0
 33 66  1  0  0  0
 33 70  2  0  0  0
 34 36  1  0  0  0
 34 59  1  0  0  0
 34109  1  0  0  0
 35 44  2  0  0  0
 35 45  1  0  0  0
 35 68  1  0  0  0
 36 56  1  0  0  0
 36110  1  0  0  0
 37 39  1  0  0  0
 37 47  1  0  0  0
 37 66  1  0  0  0
 37111  1  0  0  0
 38 43  2  0  0  0
 38 46  1  0  0  0
 38 47  1  0  0  0
 39 64  1  0  0  0
 39 67  2  0  0  0
 40 52  1  0  0  0
 40 53  2  0  0  0
 40 58  1  0  0  0
 41112  1  0  0  0
 41113  1  0  0  0
 41114  1  0  0  0
 41 48  1  0  0  0
 42 43  1  0  0  0
 42 66  1  0  0  0
 42115  1  0  0  0
 42116  1  0  0  0
 43 44  1  0  0  0
 44117  1  0  0  0
 45 46  2  0  0  0
 45118  1  0  0  0
 46119  1  0  0  0
 47120  1  0  0  0
 47121  1  0  0  0
 48 56  1  0  0  0
 48 65  1  0  0  0
 48122  1  0  0  0
 49 50  1  0  0  0
 49 53  1  0  0  0
 49 64  1  0  0  0
 49123  1  0  0  0
 50 51  1  0  0  0
 50124  1  0  0  0
 50125  1  0  0  0
 51 52  1  0  0  0
 51126  1  0  0  0
 51127  1  0  0  0
 52128  1  0  0  0
 52129  1  0  0  0
 53 54  1  0  0  0
 54 55  2  0  0  0
 54130  1  0  0  0
 55 57  1  0  0  0
 55131  1  0  0  0
 56 69  2  0  0  0
 57 58  2  0  0  0
 57132  1  0  0  0
 58133  1  0  0  0
 59 60  1  0  0  0
 59 61  1  0  0  0
 59 62  1  0  0  0
 60134  1  0  0  0
 60135  1  0  0  0
 60136  1  0  0  0
 61137  1  0  0  0
 61138  1  0  0  0
 61139  1  0  0  0
 62140  1  0  0  0
 62141  1  0  0  0
 62142  1  0  0  0
 63 65  1  0  0  0
 63143  1  0  0  0
 63144  1  0  0  0
 63145  1  0  0  0
 64146  1  0  0  0
 65147  1  0  0  0
 68 83  1  0  0  0
 71 72  2  0  0  0
 71 74  1  0  0  0
 71148  1  0  0  0
 72 75  1  0  0  0
 72149  1  0  0  0
 73 75  2  0  0  0
 73 76  1  0  0  0
 73150  1  0  0  0
 74 76  2  0  0  0
 74 85  1  0  0  0
 75 86  1  0  0  0
 76 88  1  0  0  0
 77 78  1  0  0  0
 77 81  1  0  0  0
 77 87  2  0  0  0
 78 79  1  0  0  0
 78151  1  0  0  0
 78152  1  0  0  0
 79 85  1  0  0  0
 79153  1  0  0  0
 79154  1  0  0  0
 80 81  1  0  0  0
 80 85  1  0  0  0
 80155  1  0  0  0
 80156  1  0  0  0
 81 83  1  0  0  0
 81157  1  0  0  0
 82 84  1  0  0  0
 82158  1  0  0  0
 82159  1  0  0  0
 82160  1  0  0  0
 83161  1  0  0  0
 83162  1  0  0  0
 84 86  1  0  0  0
 84163  1  0  0  0
 84164  1  0  0  0
M  ISO  4   1 100  68 101  83 101  86 100
M  END
> <chiral flag>
0

> <version>
0

> <s_m_source_file>
/data/baiqing/PycharmProjects/Reinvent-master-3.2/result/LINK_invent/BTK/process_docking_weight1_custom_product_contain_oxygen_bond_distance_aromatic_linkinvent_7_9_3/rearranged_h_0101.sdf

> <i_m_source_file_index>
69

> <r_mmod_Potential_Energy-OPLS-2005>
385.066345214844

> <r_mmod_Stretch_Energy-OPLS-2005>
82.6027069091797

> <r_mmod_Bend_Energy-OPLS-2005>
159.327163696289

> <r_mmod_Torsional_Energy-OPLS-2005>
346.144592285156

> <r_mmod_Improper_Torsional_Energy-OPLS-2005>
25.7435779571533

> <r_mmod_Van_der_Waal_Energy-OPLS-2005>
167.516906738281

> <r_mmod_Electrostatic_Energy-OPLS-2005>
-253.537017822266

> <r_mmod_Solvation_Energy-OPLS-2005>
-213.523422241211

> <b_mmod_Minimization_Converged-OPLS-2005>
0

> <r_mmod_RMS_Derivative-OPLS-2005>
1.49940228462219

$$$$
69
                    3D
 Structure written by MMmdl.
158167  0  0  1  0            999 V2000
  -30.6637  -14.6337   20.4686 C   0  0  0  0  0  0
  -30.4140  -12.3800   19.4734 C   0  0  0  0  0  0
  -29.5017  -12.4982   18.2340 C   0  0  0  0  0  0
  -28.0246  -12.3461   18.6418 C   0  0  0  0  0  0
  -27.6455  -13.2288   19.8619 C   0  0  2  0  0  0
  -28.6887  -13.1277   20.9988 C   0  0  0  0  0  0
  -25.2508  -13.8193   20.5716 C   0  0  0  0  0  0
  -24.1792  -13.0438   20.9193 C   0  0  0  0  0  0
  -24.6377  -11.6913   20.8736 C   0  0  0  0  0  0
  -23.9059  -10.4286   21.0390 C   0  0  0  0  0  0
  -24.3609   -9.4204   21.9173 C   0  0  0  0  0  0
  -23.6285   -8.2241   22.0748 C   0  0  0  0  0  0
  -22.4272   -8.0271   21.3539 C   0  0  0  0  0  0
  -21.9902   -9.0243   20.4642 C   0  0  0  0  0  0
  -22.7227  -10.2123   20.3044 C   0  0  0  0  0  0
  -21.6854   -6.0722   22.5268 C   0  0  0  0  0  0
  -21.4022   -6.5633   23.8202 C   0  0  0  0  0  0
  -21.3663   -5.6788   24.9167 C   0  0  0  0  0  0
  -21.6049   -4.3049   24.7221 C   0  0  0  0  0  0
  -21.8822   -3.8134   23.4344 C   0  0  0  0  0  0
  -21.9199   -4.6949   22.3397 C   0  0  0  0  0  0
  -22.7818  -13.5216   21.1863 C   0  0  0  0  0  0
  -22.1663   -4.2133   21.0974 F   0  0  0  0  0  0
  -21.5630   -3.4536   25.7736 F   0  0  0  0  0  0
  -30.0018  -13.4353   20.4218 N   0  0  0  0  0  0
  -26.2944  -12.9400   20.3334 N   0  0  0  0  0  0
  -25.9312  -11.6538   20.5772 N   0  0  0  0  0  0
  -22.0479  -12.8190   22.0417 N   0  0  0  0  0  0
  -25.4220  -15.1920   20.4162 N   0  0  0  0  0  0
  -31.8443  -14.7094   20.1198 O   0  0  0  0  0  0
  -21.6649   -6.8862   21.4229 O   0  0  0  0  0  0
  -22.3497  -14.5527   20.6720 O   0  0  0  0  0  0
  -24.6271  -31.8599   23.2036 C   0  0  0  0  0  0
  -25.9124  -32.4770   23.8370 C   0  0  1  0  0  0
  -27.2166  -27.3193   20.1174 C   0  0  0  0  0  0
  -25.5952  -33.8574   24.2292 N   0  0  0  0  0  0
  -23.4191  -30.4851   21.5465 C   0  0  2  0  0  0
  -24.8642  -28.9425   20.1089 C   0  0  0  0  0  0
  -22.7475  -29.4635   22.4946 C   0  0  0  0  0  0
  -18.0282  -28.1364   22.8493 C   0  0  0  0  0  0
  -24.1495  -36.7285   23.2632 C   0  0  0  0  0  0
  -25.9616  -30.7887   21.3765 C   0  0  0  0  0  0
  -26.0336  -29.4180   20.7157 C   0  0  0  0  0  0
  -27.2144  -28.6188   20.7101 C   0  0  0  0  0  0
  -26.0267  -26.8993   19.4806 C   0  0  0  0  0  0
  -24.8627  -27.6888   19.4816 C   0  0  0  0  0  0
  -23.6325  -29.8215   20.1613 C   0  0  0  0  0  0
  -25.4111  -36.3081   24.0335 C   0  0  1  0  0  0
  -20.5882  -28.3680   23.1272 C   0  0  2  0  0  0
  -20.6776  -26.9409   22.5392 C   0  0  0  0  0  0
  -19.5749  -26.6368   21.5202 C   0  0  0  0  0  0
  -18.1927  -26.7906   22.1621 C   0  0  0  0  0  0
  -19.1536  -28.8844   23.2874 C   0  0  0  0  0  0
  -18.9463  -30.1446   23.8893 C   0  0  0  0  0  0
  -17.6463  -30.6577   24.0563 C   0  0  0  0  0  0
  -25.9055  -34.9449   23.5109 C   0  0  0  0  0  0
  -16.5353  -29.9070   23.6335 C   0  0  0  0  0  0
  -16.7270  -28.6483   23.0365 C   0  0  0  0  0  0
  -26.4503  -31.6572   25.0735 C   0  0  0  0  0  0
  -25.3738  -31.3716   26.1472 C   0  0  0  0  0  0
  -27.0325  -30.2988   24.6195 C   0  0  0  0  0  0
  -27.6089  -32.4292   25.7489 C   0  0  0  0  0  0
  -27.5577  -37.1793   24.8466 C   0  0  0  0  0  0
  -21.4191  -29.3049   22.3683 N   0  0  0  0  0  0
  -26.4282  -37.3778   23.9415 N   0  0  0  0  0  0
  -24.6877  -31.0624   22.0981 N   0  0  0  0  0  0
  -23.4209  -28.8163   23.3008 O   0  0  0  0  0  0
  -28.3242  -26.4590   20.1751 O   0  0  0  0  0  0
  -26.5619  -34.8919   22.4672 O   0  0  0  0  0  0
  -23.5437  -32.1395   23.7367 O   0  0  0  0  0  0
  -30.0817  -19.6211   19.5794 C   0  0  0  0  0  0
  -29.6785  -20.9644   19.8519 C   0  0  0  0  0  0
  -28.5877  -20.1767   21.8324 C   0  0  0  0  0  0
  -29.7753  -18.5217   20.4311 C   0  0  0  0  0  0
  -28.9363  -21.3058   21.0136 C   0  0  0  0  0  0
  -28.9949  -18.8355   21.5653 C   0  0  0  0  0  0
  -28.1755  -23.0589   22.6165 C   0  0  0  0  0  0
  -28.7703  -24.3764   23.0863 C   0  0  0  0  0  0
  -29.7818  -24.6756   21.9871 C   0  0  0  0  0  0
  -29.1599  -23.9917   20.7648 C   0  0  2  0  0  0
  -30.4131  -17.1168   20.1161 C   0  0  0  0  0  0
  -28.0657  -24.9954   20.1613 C   0  0  0  0  0  0
  -28.6142  -22.7139   21.3795 N   0  0  0  0  0  0
  -29.9366  -15.7852   20.6398 N   0  0  0  0  0  0
  -27.3543  -22.4558   23.3125 O   0  0  0  0  0  0
  -28.6588  -17.8575   22.4402 F   0  0  0  0  0  0
  -31.4629  -12.4604   19.1816 H   0  0  0  0  0  0
  -30.3098  -11.3963   19.9343 H   0  0  0  0  0  0
  -29.7658  -11.7414   17.4946 H   0  0  0  0  0  0
  -29.6554  -13.4652   17.7522 H   0  0  0  0  0  0
  -27.8573  -11.2947   18.8790 H   0  0  0  0  0  0
  -27.3729  -12.5720   17.7977 H   0  0  0  0  0  0
  -27.6515  -14.2592   19.5034 H   0  0  0  0  0  0
  -28.6913  -12.1271   21.4344 H   0  0  0  0  0  0
  -28.4460  -13.8147   21.8114 H   0  0  0  0  0  0
  -25.2747   -9.5693   22.4754 H   0  0  0  0  0  0
  -23.9998   -7.4636   22.7468 H   0  0  0  0  0  0
  -21.0834   -8.8748   19.8948 H   0  0  0  0  0  0
  -22.3668  -10.9657   19.6159 H   0  0  0  0  0  0
  -21.2014   -7.6144   23.9697 H   0  0  0  0  0  0
  -21.1488   -6.0523   25.9070 H   0  0  0  0  0  0
  -22.0601   -2.7595   23.2848 H   0  0  0  0  0  0
  -22.4111  -11.9843   22.4774 H   0  0  0  0  0  0
  -21.1103  -13.1209   22.2658 H   0  0  0  0  0  0
  -24.6595  -15.8487   20.5376 H   0  0  0  0  0  0
  -26.2804  -15.6344   20.1139 H   0  0  0  0  0  0
  -26.7183  -32.5436   23.1110 H   0  0  0  0  0  0
  -25.0147  -33.9722   25.0476 H   0  0  0  0  0  0
  -22.7132  -31.3066   21.4042 H   0  0  0  0  0  0
  -23.3765  -35.9614   23.3286 H   0  0  0  0  0  0
  -24.3591  -36.8906   22.2050 H   0  0  0  0  0  0
  -23.7225  -37.6472   23.6665 H   0  0  0  0  0  0
  -26.0979  -31.5507   20.6081 H   0  0  0  0  0  0
  -26.8413  -30.8332   22.0075 H   0  0  0  0  0  0
  -28.1098  -28.9779   21.1975 H   0  0  0  0  0  0
  -25.9710  -25.9428   18.9823 H   0  0  0  0  0  0
  -23.9670  -27.3197   18.9998 H   0  0  0  0  0  0
  -23.7508  -30.5995   19.4066 H   0  0  0  0  0  0
  -22.7531  -29.2503   19.8590 H   0  0  0  0  0  0
  -25.1276  -36.1937   25.0819 H   0  0  0  0  0  0
  -20.9966  -28.3239   24.1394 H   0  0  0  0  0  0
  -20.5674  -26.2290   23.3588 H   0  0  0  0  0  0
  -21.6637  -26.7431   22.1183 H   0  0  0  0  0  0
  -19.6917  -25.6280   21.1227 H   0  0  0  0  0  0
  -19.6673  -27.3191   20.6746 H   0  0  0  0  0  0
  -17.4190  -26.6655   21.4034 H   0  0  0  0  0  0
  -18.0355  -26.0034   22.9009 H   0  0  0  0  0  0
  -19.7941  -30.7262   24.2259 H   0  0  0  0  0  0
  -17.5017  -31.6266   24.5151 H   0  0  0  0  0  0
  -15.5357  -30.2976   23.7650 H   0  0  0  0  0  0
  -15.8663  -28.0790   22.7094 H   0  0  0  0  0  0
  -24.5946  -30.7014   25.7815 H   0  0  0  0  0  0
  -24.8892  -32.2880   26.4868 H   0  0  0  0  0  0
  -25.8066  -30.8930   27.0268 H   0  0  0  0  0  0
  -26.2882  -29.6746   24.1235 H   0  0  0  0  0  0
  -27.4016  -29.7245   25.4700 H   0  0  0  0  0  0
  -27.8778  -30.4243   23.9417 H   0  0  0  0  0  0
  -27.2748  -33.3642   26.2005 H   0  0  0  0  0  0
  -28.3939  -32.6746   25.0319 H   0  0  0  0  0  0
  -28.0721  -31.8432   26.5443 H   0  0  0  0  0  0
  -28.2585  -38.0102   24.7537 H   0  0  0  0  0  0
  -28.1075  -36.2635   24.6257 H   0  0  0  0  0  0
  -27.2310  -37.1396   25.8871 H   0  0  0  0  0  0
  -20.9379  -29.8775   21.6896 H   0  0  0  0  0  0
  -26.0167  -38.2846   24.1428 H   0  0  0  0  0  0
  -30.6809  -19.4396   18.6975 H   0  0  0  0  0  0
  -29.9859  -21.7353   19.1594 H   0  0  0  0  0  0
  -28.0208  -20.2962   22.7402 H   0  0  0  0  0  0
  -29.2364  -24.2911   24.0683 H   0  0  0  0  0  0
  -27.9867  -25.1339   23.1342 H   0  0  0  0  0  0
  -30.7397  -24.2096   22.2261 H   0  0  0  0  0  0
  -29.9676  -25.7407   21.8564 H   0  0  0  0  0  0
  -29.9390  -23.7983   20.0263 H   0  0  0  0  0  0
  -31.4631  -17.2231   20.3940 H   0  0  0  0  0  0
  -30.4163  -17.0199   19.0287 H   0  0  0  0  0  0
  -27.1323  -24.8243   20.7009 H   0  0  0  0  0  0
  -27.8687  -24.6921   19.1331 H   0  0  0  0  0  0
  -28.9704  -15.7027   20.9156 H   0  0  0  0  0  0
  1 25  1  0  0  0
  1 30  2  0  0  0
  1 84  1  0  0  0
  2  3  1  0  0  0
  2 25  1  0  0  0
  2 87  1  0  0  0
  2 88  1  0  0  0
  3  4  1  0  0  0
  3 89  1  0  0  0
  3 90  1  0  0  0
  4  5  1  0  0  0
  4 91  1  0  0  0
  4 92  1  0  0  0
  5  6  1  0  0  0
  5 26  1  0  0  0
  5 93  1  0  0  0
  6 25  1  0  0  0
  6 94  1  0  0  0
  6 95  1  0  0  0
  7  8  2  0  0  0
  7 26  1  0  0  0
  7 29  1  0  0  0
  8  9  1  0  0  0
  8 22  1  0  0  0
  9 10  1  0  0  0
  9 27  2  0  0  0
 10 11  2  0  0  0
 10 15  1  0  0  0
 11 12  1  0  0  0
 11 96  1  0  0  0
 12 13  2  0  0  0
 12 97  1  0  0  0
 13 14  1  0  0  0
 13 31  1  0  0  0
 14 15  2  0  0  0
 14 98  1  0  0  0
 15 99  1  0  0  0
 16 17  2  0  0  0
 16 21  1  0  0  0
 16 31  1  0  0  0
 17 18  1  0  0  0
 17100  1  0  0  0
 18 19  2  0  0  0
 18101  1  0  0  0
 19 20  1  0  0  0
 19 24  1  0  0  0
 20 21  2  0  0  0
 20102  1  0  0  0
 21 23  1  0  0  0
 22 28  1  0  0  0
 22 32  2  0  0  0
 26 27  1  0  0  0
 28103  1  0  0  0
 28104  1  0  0  0
 29105  1  0  0  0
 29106  1  0  0  0
 33 34  1  0  0  0
 33 66  1  0  0  0
 33 70  2  0  0  0
 34 36  1  0  0  0
 34 59  1  0  0  0
 34107  1  0  0  0
 35 44  2  0  0  0
 35 45  1  0  0  0
 35 68  1  0  0  0
 36 56  1  0  0  0
 36108  1  0  0  0
 37 39  1  0  0  0
 37 47  1  0  0  0
 37 66  1  0  0  0
 37109  1  0  0  0
 38 43  2  0  0  0
 38 46  1  0  0  0
 38 47  1  0  0  0
 39 64  1  0  0  0
 39 67  2  0  0  0
 40 52  1  0  0  0
 40 53  2  0  0  0
 40 58  1  0  0  0
 41110  1  0  0  0
 41111  1  0  0  0
 41112  1  0  0  0
 41 48  1  0  0  0
 42 43  1  0  0  0
 42 66  1  0  0  0
 42113  1  0  0  0
 42114  1  0  0  0
 43 44  1  0  0  0
 44115  1  0  0  0
 45 46  2  0  0  0
 45116  1  0  0  0
 46117  1  0  0  0
 47118  1  0  0  0
 47119  1  0  0  0
 48 56  1  0  0  0
 48 65  1  0  0  0
 48120  1  0  0  0
 49 50  1  0  0  0
 49 53  1  0  0  0
 49 64  1  0  0  0
 49121  1  0  0  0
 50 51  1  0  0  0
 50122  1  0  0  0
 50123  1  0  0  0
 51 52  1  0  0  0
 51124  1  0  0  0
 51125  1  0  0  0
 52126  1  0  0  0
 52127  1  0  0  0
 53 54  1  0  0  0
 54 55  2  0  0  0
 54128  1  0  0  0
 55 57  1  0  0  0
 55129  1  0  0  0
 56 69  2  0  0  0
 57 58  2  0  0  0
 57130  1  0  0  0
 58131  1  0  0  0
 59 60  1  0  0  0
 59 61  1  0  0  0
 59 62  1  0  0  0
 60132  1  0  0  0
 60133  1  0  0  0
 60134  1  0  0  0
 61135  1  0  0  0
 61136  1  0  0  0
 61137  1  0  0  0
 62138  1  0  0  0
 62139  1  0  0  0
 62140  1  0  0  0
 63 65  1  0  0  0
 63141  1  0  0  0
 63142  1  0  0  0
 63143  1  0  0  0
 64144  1  0  0  0
 65145  1  0  0  0
 68 82  1  0  0  0
 71 72  2  0  0  0
 71 74  1  0  0  0
 71146  1  0  0  0
 72 75  1  0  0  0
 72147  1  0  0  0
 73 75  2  0  0  0
 73 76  1  0  0  0
 73148  1  0  0  0
 74 76  2  0  0  0
 74 81  1  0  0  0
 75 83  1  0  0  0
 76 86  1  0  0  0
 77 78  1  0  0  0
 77 83  1  0  0  0
 77 85  2  0  0  0
 78 79  1  0  0  0
 78149  1  0  0  0
 78150  1  0  0  0
 79 80  1  0  0  0
 79151  1  0  0  0
 79152  1  0  0  0
 80 82  1  0  0  0
 80 83  1  0  0  0
 80153  1  0  0  0
 81 84  1  0  0  0
 81154  1  0  0  0
 81155  1  0  0  0
 82156  1  0  0  0
 82157  1  0  0  0
 84158  1  0  0  0
M  ISO  4   1 100  68 101  82 101  84 100
M  END
> <chiral flag>
0

> <version>
0

> <s_m_source_file>
/data/baiqing/PycharmProjects/Reinvent-master-3.2/result/LINK_invent/BTK/process_docking_weight1_custom_product_contain_oxygen_bond_distance_aromatic_linkinvent_7_9_3/rearranged_h_0101.sdf

> <i_m_source_file_index>
70

> <r_mmod_Potential_Energy-OPLS-2005>
177.890991210938

> <r_mmod_Stretch_Energy-OPLS-2005>
91.2617645263672

> <r_mmod_Bend_Energy-OPLS-2005>
188.735153198242

> <r_mmod_Torsional_Energy-OPLS-2005>
277.281158447266

> <r_mmod_Improper_Torsional_Energy-OPLS-2005>
8.59231472015381

> <r_mmod_Van_der_Waal_Energy-OPLS-2005>
155.857009887695

> <r_mmod_Electrostatic_Energy-OPLS-2005>
-382.813873291016

> <r_mmod_Solvation_Energy-OPLS-2005>
-212.413619995117

> <b_mmod_Minimization_Converged-OPLS-2005>
0

> <r_mmod_RMS_Derivative-OPLS-2005>
1.78259813785553

$$$$
70
                    3D
 Structure written by MMmdl.
163172  0  0  1  0            999 V2000
  -30.7078  -14.4899   20.5980 C   0  0  0  0  0  0
  -30.4208  -12.3302   19.4212 C   0  0  0  0  0  0
  -29.4896  -12.5096   18.2056 C   0  0  0  0  0  0
  -28.0135  -12.3634   18.6228 C   0  0  0  0  0  0
  -27.6580  -13.2094   19.8738 C   0  0  2  0  0  0
  -28.7003  -13.0048   20.9946 C   0  0  0  0  0  0
  -25.2574  -13.8168   20.5688 C   0  0  0  0  0  0
  -24.1830  -13.0440   20.9178 C   0  0  0  0  0  0
  -24.6382  -11.6905   20.8729 C   0  0  0  0  0  0
  -23.9046  -10.4291   21.0402 C   0  0  0  0  0  0
  -24.3598   -9.4214   21.9186 C   0  0  0  0  0  0
  -23.6282   -8.2245   22.0758 C   0  0  0  0  0  0
  -22.4268   -8.0271   21.3541 C   0  0  0  0  0  0
  -21.9902   -9.0243   20.4645 C   0  0  0  0  0  0
  -22.7220  -10.2131   20.3053 C   0  0  0  0  0  0
  -21.6850   -6.0725   22.5273 C   0  0  0  0  0  0
  -21.4013   -6.5634   23.8206 C   0  0  0  0  0  0
  -21.3662   -5.6792   24.9174 C   0  0  0  0  0  0
  -21.6047   -4.3054   24.7227 C   0  0  0  0  0  0
  -21.8820   -3.8144   23.4353 C   0  0  0  0  0  0
  -21.9192   -4.6955   22.3402 C   0  0  0  0  0  0
  -22.7858  -13.5236   21.1844 C   0  0  0  0  0  0
  -22.1662   -4.2138   21.0981 F   0  0  0  0  0  0
  -21.5631   -3.4539   25.7745 F   0  0  0  0  0  0
  -30.0261  -13.3202   20.4374 N   0  0  0  0  0  0
  -26.3002  -12.9333   20.3366 N   0  0  0  0  0  0
  -25.9307  -11.6487   20.5768 N   0  0  0  0  0  0
  -22.0502  -12.8223   22.0397 N   0  0  0  0  0  0
  -25.4330  -15.1882   20.4115 N   0  0  0  0  0  0
  -31.8297  -14.6733   20.1177 O   0  0  0  0  0  0
  -21.6634   -6.8864   21.4237 O   0  0  0  0  0  0
  -22.3537  -14.5548   20.6706 O   0  0  0  0  0  0
  -24.6183  -31.8685   23.2124 C   0  0  0  0  0  0
  -25.9078  -32.4821   23.8413 C   0  0  1  0  0  0
  -27.2231  -27.4045   20.0784 C   0  0  0  0  0  0
  -25.5935  -33.8615   24.2339 N   0  0  0  0  0  0
  -23.4069  -30.4977   21.5521 C   0  0  2  0  0  0
  -24.8512  -28.9750   20.1069 C   0  0  0  0  0  0
  -22.7432  -29.4674   22.4956 C   0  0  0  0  0  0
  -18.0289  -28.1382   22.8491 C   0  0  0  0  0  0
  -24.1489  -36.7301   23.2641 C   0  0  0  0  0  0
  -25.9437  -30.8194   21.3789 C   0  0  0  0  0  0
  -26.0158  -29.4560   20.7181 C   0  0  0  0  0  0
  -27.1993  -28.6729   20.7158 C   0  0  0  0  0  0
  -26.0378  -26.9662   19.4549 C   0  0  0  0  0  0
  -24.8589  -27.7263   19.4735 C   0  0  0  0  0  0
  -23.6160  -29.8436   20.1629 C   0  0  0  0  0  0
  -25.4109  -36.3095   24.0333 C   0  0  1  0  0  0
  -20.5882  -28.3676   23.1293 C   0  0  2  0  0  0
  -20.6780  -26.9405   22.5413 C   0  0  0  0  0  0
  -19.5752  -26.6384   21.5210 C   0  0  0  0  0  0
  -18.1928  -26.7937   22.1604 C   0  0  0  0  0  0
  -19.1537  -28.8844   23.2890 C   0  0  0  0  0  0
  -18.9461  -30.1444   23.8902 C   0  0  0  0  0  0
  -17.6467  -30.6588   24.0564 C   0  0  0  0  0  0
  -25.9046  -34.9465   23.5126 C   0  0  0  0  0  0
  -16.5361  -29.9086   23.6325 C   0  0  0  0  0  0
  -16.7280  -28.6502   23.0354 C   0  0  0  0  0  0
  -26.4488  -31.6615   25.0755 C   0  0  0  0  0  0
  -25.3741  -31.3720   26.1493 C   0  0  0  0  0  0
  -27.0345  -30.3056   24.6172 C   0  0  0  0  0  0
  -27.6046  -32.4366   25.7512 C   0  0  0  0  0  0
  -27.5585  -37.1787   24.8457 C   0  0  0  0  0  0
  -21.4157  -29.3045   22.3688 N   0  0  0  0  0  0
  -26.4284  -37.3790   23.9427 N   0  0  0  0  0  0
  -24.6741  -31.0767   22.1045 N   0  0  0  0  0  0
  -23.4187  -28.8201   23.3002 O   0  0  0  0  0  0
  -28.3491  -26.5932   20.1455 O   0  0  0  0  0  0
  -26.5593  -34.8907   22.4680 O   0  0  0  0  0  0
  -23.5364  -32.1471   23.7483 O   0  0  0  0  0  0
  -30.5279  -19.8427   19.4200 C   0  0  0  0  0  0
  -28.6927  -20.0174   20.9939 C   0  0  0  0  0  0
  -30.9031  -18.6026   19.9875 C   0  0  0  0  0  0
  -29.0659  -18.7721   21.5599 C   0  0  0  0  0  0
  -29.4107  -20.5642   19.9036 C   0  0  0  0  0  0
  -30.1728  -18.0467   21.0603 C   0  0  0  0  0  0
  -27.0069  -22.5895   17.6306 C   0  0  0  0  0  0
  -27.4632  -21.5251   18.6295 C   0  0  0  0  0  0
  -27.0947  -23.9807   18.2611 C   0  0  0  0  0  0
  -29.0034  -23.2222   19.7686 C   0  0  0  0  0  0
  -28.8981  -21.7935   19.1210 C   0  0  1  0  0  0
  -28.5182  -24.3139   18.7474 C   0  0  2  0  0  0
  -30.6433  -16.7428   21.7292 C   0  0  0  0  0  0
  -28.7956  -25.8529   18.9866 C   0  0  0  0  0  0
  -30.0575  -15.4768   21.2487 N   0  0  0  0  0  0
  -31.4634  -12.4362   19.1162 H   0  0  0  0  0  0
  -30.3310  -11.3214   19.8269 H   0  0  0  0  0  0
  -29.7319  -11.7786   17.4326 H   0  0  0  0  0  0
  -29.6495  -13.4922   17.7590 H   0  0  0  0  0  0
  -27.8316  -11.3081   18.8274 H   0  0  0  0  0  0
  -27.3586  -12.6283   17.7924 H   0  0  0  0  0  0
  -27.6989  -14.2558   19.5702 H   0  0  0  0  0  0
  -28.6851  -11.9703   21.3412 H   0  0  0  0  0  0
  -28.4551  -13.6068   21.8703 H   0  0  0  0  0  0
  -25.2739   -9.5696   22.4768 H   0  0  0  0  0  0
  -23.9989   -7.4640   22.7488 H   0  0  0  0  0  0
  -21.0832   -8.8758   19.8947 H   0  0  0  0  0  0
  -22.3670  -10.9669   19.6165 H   0  0  0  0  0  0
  -21.2005   -7.6140   23.9703 H   0  0  0  0  0  0
  -21.1485   -6.0525   25.9074 H   0  0  0  0  0  0
  -22.0599   -2.7604   23.2854 H   0  0  0  0  0  0
  -22.4114  -11.9873   22.4758 H   0  0  0  0  0  0
  -21.1131  -13.1251   22.2634 H   0  0  0  0  0  0
  -24.6738  -15.8519   20.5232 H   0  0  0  0  0  0
  -26.2950  -15.6216   20.1032 H   0  0  0  0  0  0
  -26.7145  -32.5520   23.1172 H   0  0  0  0  0  0
  -25.0109  -33.9783   25.0500 H   0  0  0  0  0  0
  -22.6971  -31.3158   21.4180 H   0  0  0  0  0  0
  -23.3751  -35.9629   23.3286 H   0  0  0  0  0  0
  -24.3587  -36.8951   22.2061 H   0  0  0  0  0  0
  -23.7231  -37.6487   23.6678 H   0  0  0  0  0  0
  -26.0746  -31.5873   20.6149 H   0  0  0  0  0  0
  -26.8257  -30.8597   22.0068 H   0  0  0  0  0  0
  -28.0915  -29.0349   21.2080 H   0  0  0  0  0  0
  -25.9746  -26.0234   18.9647 H   0  0  0  0  0  0
  -23.9675  -27.3451   18.9962 H   0  0  0  0  0  0
  -23.7298  -30.6271   19.4127 H   0  0  0  0  0  0
  -22.7375  -29.2703   19.8580 H   0  0  0  0  0  0
  -25.1277  -36.1952   25.0823 H   0  0  0  0  0  0
  -20.9976  -28.3259   24.1413 H   0  0  0  0  0  0
  -20.5686  -26.2285   23.3603 H   0  0  0  0  0  0
  -21.6649  -26.7438   22.1216 H   0  0  0  0  0  0
  -19.6909  -25.6291   21.1245 H   0  0  0  0  0  0
  -19.6702  -27.3180   20.6730 H   0  0  0  0  0  0
  -17.4209  -26.6708   21.3989 H   0  0  0  0  0  0
  -18.0296  -26.0066   22.8981 H   0  0  0  0  0  0
  -19.7941  -30.7253   24.2277 H   0  0  0  0  0  0
  -17.5030  -31.6267   24.5169 H   0  0  0  0  0  0
  -15.5358  -30.2993   23.7646 H   0  0  0  0  0  0
  -15.8688  -28.0823   22.7062 H   0  0  0  0  0  0
  -24.5982  -30.6972   25.7863 H   0  0  0  0  0  0
  -24.8831  -32.2850   26.4861 H   0  0  0  0  0  0
  -25.8116  -30.8999   27.0302 H   0  0  0  0  0  0
  -26.2912  -29.6793   24.1229 H   0  0  0  0  0  0
  -27.4105  -29.7324   25.4657 H   0  0  0  0  0  0
  -27.8748  -30.4365   23.9353 H   0  0  0  0  0  0
  -27.2659  -33.3689   26.2044 H   0  0  0  0  0  0
  -28.3867  -32.6910   25.0347 H   0  0  0  0  0  0
  -28.0697  -31.8530   26.5465 H   0  0  0  0  0  0
  -28.2566  -38.0123   24.7577 H   0  0  0  0  0  0
  -28.1123  -36.2657   24.6205 H   0  0  0  0  0  0
  -27.2315  -37.1362   25.8861 H   0  0  0  0  0  0
  -20.9309  -29.8786   21.6929 H   0  0  0  0  0  0
  -26.0162  -38.2851   24.1478 H   0  0  0  0  0  0
  -31.0897  -20.2223   18.5776 H   0  0  0  0  0  0
  -27.8228  -20.5319   21.3788 H   0  0  0  0  0  0
  -31.7631  -18.0770   19.5956 H   0  0  0  0  0  0
  -28.4966  -18.3771   22.3904 H   0  0  0  0  0  0
  -25.9818  -22.3874   17.3157 H   0  0  0  0  0  0
  -27.6219  -22.5523   16.7299 H   0  0  0  0  0  0
  -27.4112  -20.5457   18.1513 H   0  0  0  0  0  0
  -26.7732  -21.4952   19.4735 H   0  0  0  0  0  0
  -26.4020  -24.0144   19.1026 H   0  0  0  0  0  0
  -26.7715  -24.7068   17.5143 H   0  0  0  0  0  0
  -30.0364  -23.4190   20.0560 H   0  0  0  0  0  0
  -28.4108  -23.2712   20.6826 H   0  0  0  0  0  0
  -29.5202  -21.8351   18.2247 H   0  0  0  0  0  0
  -29.1381  -24.1320   17.8664 H   0  0  0  0  0  0
  -30.4206  -16.8152   22.7943 H   0  0  0  0  0  0
  -31.7326  -16.7017   21.6767 H   0  0  0  0  0  0
  -28.4857  -26.3997   18.0940 H   0  0  0  0  0  0
  -29.8802  -25.9700   19.0030 H   0  0  0  0  0  0
  -29.1184  -15.2699   21.5528 H   0  0  0  0  0  0
  1 25  1  0  0  0
  1 30  2  0  0  0
  1 85  1  0  0  0
  2  3  1  0  0  0
  2 25  1  0  0  0
  2 86  1  0  0  0
  2 87  1  0  0  0
  3  4  1  0  0  0
  3 88  1  0  0  0
  3 89  1  0  0  0
  4  5  1  0  0  0
  4 90  1  0  0  0
  4 91  1  0  0  0
  5  6  1  0  0  0
  5 26  1  0  0  0
  5 92  1  0  0  0
  6 25  1  0  0  0
  6 93  1  0  0  0
  6 94  1  0  0  0
  7  8  2  0  0  0
  7 26  1  0  0  0
  7 29  1  0  0  0
  8  9  1  0  0  0
  8 22  1  0  0  0
  9 10  1  0  0  0
  9 27  2  0  0  0
 10 11  2  0  0  0
 10 15  1  0  0  0
 11 12  1  0  0  0
 11 95  1  0  0  0
 12 13  2  0  0  0
 12 96  1  0  0  0
 13 14  1  0  0  0
 13 31  1  0  0  0
 14 15  2  0  0  0
 14 97  1  0  0  0
 15 98  1  0  0  0
 16 17  2  0  0  0
 16 21  1  0  0  0
 16 31  1  0  0  0
 17 18  1  0  0  0
 17 99  1  0  0  0
 18 19  2  0  0  0
 18100  1  0  0  0
 19 20  1  0  0  0
 19 24  1  0  0  0
 20 21  2  0  0  0
 20101  1  0  0  0
 21 23  1  0  0  0
 22 28  1  0  0  0
 22 32  2  0  0  0
 26 27  1  0  0  0
 28102  1  0  0  0
 28103  1  0  0  0
 29104  1  0  0  0
 29105  1  0  0  0
 33 34  1  0  0  0
 33 66  1  0  0  0
 33 70  2  0  0  0
 34 36  1  0  0  0
 34 59  1  0  0  0
 34106  1  0  0  0
 35 44  2  0  0  0
 35 45  1  0  0  0
 35 68  1  0  0  0
 36 56  1  0  0  0
 36107  1  0  0  0
 37 39  1  0  0  0
 37 47  1  0  0  0
 37 66  1  0  0  0
 37108  1  0  0  0
 38 43  2  0  0  0
 38 46  1  0  0  0
 38 47  1  0  0  0
 39 64  1  0  0  0
 39 67  2  0  0  0
 40 52  1  0  0  0
 40 53  2  0  0  0
 40 58  1  0  0  0
 41109  1  0  0  0
 41110  1  0  0  0
 41111  1  0  0  0
 41 48  1  0  0  0
 42 43  1  0  0  0
 42 66  1  0  0  0
 42112  1  0  0  0
 42113  1  0  0  0
 43 44  1  0  0  0
 44114  1  0  0  0
 45 46  2  0  0  0
 45115  1  0  0  0
 46116  1  0  0  0
 47117  1  0  0  0
 47118  1  0  0  0
 48 56  1  0  0  0
 48 65  1  0  0  0
 48119  1  0  0  0
 49 50  1  0  0  0
 49 53  1  0  0  0
 49 64  1  0  0  0
 49120  1  0  0  0
 50 51  1  0  0  0
 50121  1  0  0  0
 50122  1  0  0  0
 51 52  1  0  0  0
 51123  1  0  0  0
 51124  1  0  0  0
 52125  1  0  0  0
 52126  1  0  0  0
 53 54  1  0  0  0
 54 55  2  0  0  0
 54127  1  0  0  0
 55 57  1  0  0  0
 55128  1  0  0  0
 56 69  2  0  0  0
 57 58  2  0  0  0
 57129  1  0  0  0
 58130  1  0  0  0
 59 60  1  0  0  0
 59 61  1  0  0  0
 59 62  1  0  0  0
 60131  1  0  0  0
 60132  1  0  0  0
 60133  1  0  0  0
 61134  1  0  0  0
 61135  1  0  0  0
 61136  1  0  0  0
 62137  1  0  0  0
 62138  1  0  0  0
 62139  1  0  0  0
 63 65  1  0  0  0
 63140  1  0  0  0
 63141  1  0  0  0
 63142  1  0  0  0
 64143  1  0  0  0
 65144  1  0  0  0
 68 84  1  0  0  0
 71 73  2  0  0  0
 71 75  1  0  0  0
 71145  1  0  0  0
 72 74  1  0  0  0
 72 75  2  0  0  0
 72146  1  0  0  0
 73 76  1  0  0  0
 73147  1  0  0  0
 74 76  2  0  0  0
 74148  1  0  0  0
 75 81  1  0  0  0
 76 83  1  0  0  0
 77 78  1  0  0  0
 77 79  1  0  0  0
 77149  1  0  0  0
 77150  1  0  0  0
 78 81  1  0  0  0
 78151  1  0  0  0
 78152  1  0  0  0
 79 82  1  0  0  0
 79153  1  0  0  0
 79154  1  0  0  0
 80 81  1  0  0  0
 80 82  1  0  0  0
 80155  1  0  0  0
 80156  1  0  0  0
 81157  1  0  0  0
 82 84  1  0  0  0
 82158  1  0  0  0
 83 85  1  0  0  0
 83159  1  0  0  0
 83160  1  0  0  0
 84161  1  0  0  0
 84162  1  0  0  0
 85163  1  0  0  0
M  ISO  4   1 100  68 101  84 101  85 100
M  END
> <chiral flag>
0

> <version>
0

> <s_m_source_file>
/data/baiqing/PycharmProjects/Reinvent-master-3.2/result/LINK_invent/BTK/process_docking_weight1_custom_product_contain_oxygen_bond_distance_aromatic_linkinvent_7_9_3/rearranged_h_0101.sdf

> <i_m_source_file_index>
71

> <r_mmod_Potential_Energy-OPLS-2005>
-4.86056661605835

> <r_mmod_Stretch_Energy-OPLS-2005>
47.3478584289551

> <r_mmod_Bend_Energy-OPLS-2005>
141.048736572266

> <r_mmod_Torsional_Energy-OPLS-2005>
233.606674194336

> <r_mmod_Improper_Torsional_Energy-OPLS-2005>
3.47165751457214

> <r_mmod_Van_der_Waal_Energy-OPLS-2005>
155.78727722168

> <r_mmod_Electrostatic_Energy-OPLS-2005>
-404.790893554688

> <r_mmod_Solvation_Energy-OPLS-2005>
-200.799880981445

> <b_mmod_Minimization_Converged-OPLS-2005>
0

> <r_mmod_RMS_Derivative-OPLS-2005>
1.63840293884277

$$$$
71
                    3D
 Structure written by MMmdl.
158167  0  0  1  0            999 V2000
  -30.6916  -14.5040   20.5501 C   0  0  0  0  0  0
  -30.4241  -12.3190   19.4395 C   0  0  0  0  0  0
  -29.5002  -12.5120   18.2184 C   0  0  0  0  0  0
  -28.0204  -12.3719   18.6259 C   0  0  0  0  0  0
  -27.6626  -13.2139   19.8813 C   0  0  2  0  0  0
  -28.7049  -13.0084   21.0059 C   0  0  0  0  0  0
  -25.2571  -13.8179   20.5690 C   0  0  0  0  0  0
  -24.1835  -13.0435   20.9184 C   0  0  0  0  0  0
  -24.6401  -11.6903   20.8745 C   0  0  0  0  0  0
  -23.9066  -10.4286   21.0406 C   0  0  0  0  0  0
  -24.3617   -9.4202   21.9188 C   0  0  0  0  0  0
  -23.6281   -8.2244   22.0756 C   0  0  0  0  0  0
  -22.4264   -8.0284   21.3547 C   0  0  0  0  0  0
  -21.9904   -9.0256   20.4648 C   0  0  0  0  0  0
  -22.7238  -10.2131   20.3051 C   0  0  0  0  0  0
  -21.6841   -6.0739   22.5273 C   0  0  0  0  0  0
  -21.4013   -6.5639   23.8208 C   0  0  0  0  0  0
  -21.3664   -5.6791   24.9171 C   0  0  0  0  0  0
  -21.6042   -4.3051   24.7223 C   0  0  0  0  0  0
  -21.8817   -3.8145   23.4344 C   0  0  0  0  0  0
  -21.9186   -4.6965   22.3403 C   0  0  0  0  0  0
  -22.7858  -13.5220   21.1839 C   0  0  0  0  0  0
  -22.1646   -4.2152   21.0973 F   0  0  0  0  0  0
  -21.5645   -3.4532   25.7739 F   0  0  0  0  0  0
  -30.0367  -13.3115   20.4567 N   0  0  0  0  0  0
  -26.3026  -12.9366   20.3399 N   0  0  0  0  0  0
  -25.9331  -11.6511   20.5779 N   0  0  0  0  0  0
  -22.0486  -12.8224   22.0393 N   0  0  0  0  0  0
  -25.4268  -15.1907   20.4103 N   0  0  0  0  0  0
  -31.8168  -14.6823   20.0761 O   0  0  0  0  0  0
  -21.6630   -6.8881   21.4233 O   0  0  0  0  0  0
  -22.3531  -14.5519   20.6679 O   0  0  0  0  0  0
  -24.6194  -31.8663   23.2097 C   0  0  0  0  0  0
  -25.9075  -32.4813   23.8401 C   0  0  1  0  0  0
  -27.2268  -27.3979   20.0927 C   0  0  0  0  0  0
  -25.5919  -33.8614   24.2325 N   0  0  0  0  0  0
  -23.4086  -30.4928   21.5510 C   0  0  2  0  0  0
  -24.8526  -28.9624   20.1097 C   0  0  0  0  0  0
  -22.7439  -29.4656   22.4973 C   0  0  0  0  0  0
  -18.0276  -28.1380   22.8493 C   0  0  0  0  0  0
  -24.1481  -36.7306   23.2639 C   0  0  0  0  0  0
  -25.9432  -30.8213   21.3694 C   0  0  0  0  0  0
  -26.0180  -29.4567   20.7081 C   0  0  0  0  0  0
  -27.2087  -28.6854   20.6909 C   0  0  0  0  0  0
  -26.0374  -26.9380   19.4765 C   0  0  0  0  0  0
  -24.8601  -27.7057   19.4870 C   0  0  0  0  0  0
  -23.6168  -29.8324   20.1636 C   0  0  0  0  0  0
  -25.4103  -36.3104   24.0337 C   0  0  1  0  0  0
  -20.5873  -28.3670   23.1304 C   0  0  2  0  0  0
  -20.6760  -26.9403   22.5410 C   0  0  0  0  0  0
  -19.5737  -26.6389   21.5207 C   0  0  0  0  0  0
  -18.1921  -26.7925   22.1625 C   0  0  0  0  0  0
  -19.1528  -28.8843   23.2895 C   0  0  0  0  0  0
  -18.9452  -30.1445   23.8911 C   0  0  0  0  0  0
  -17.6453  -30.6582   24.0566 C   0  0  0  0  0  0
  -25.9035  -34.9471   23.5121 C   0  0  0  0  0  0
  -16.5343  -29.9084   23.6327 C   0  0  0  0  0  0
  -16.7265  -28.6500   23.0352 C   0  0  0  0  0  0
  -26.4488  -31.6607   25.0747 C   0  0  0  0  0  0
  -25.3739  -31.3719   26.1482 C   0  0  0  0  0  0
  -27.0328  -30.3045   24.6158 C   0  0  0  0  0  0
  -27.6067  -32.4329   25.7501 C   0  0  0  0  0  0
  -27.5576  -37.1809   24.8466 C   0  0  0  0  0  0
  -21.4160  -29.3042   22.3718 N   0  0  0  0  0  0
  -26.4291  -37.3793   23.9406 N   0  0  0  0  0  0
  -24.6757  -31.0746   22.1009 N   0  0  0  0  0  0
  -23.4198  -28.8188   23.3019 O   0  0  0  0  0  0
  -28.3758  -26.6148   20.1313 O   0  0  0  0  0  0
  -26.5600  -34.8928   22.4684 O   0  0  0  0  0  0
  -23.5375  -32.1434   23.7466 O   0  0  0  0  0  0
  -29.8394  -18.5938   18.9136 C   0  0  0  0  0  0
  -30.5569  -19.2778   21.1246 C   0  0  0  0  0  0
  -29.7484  -17.2526   19.3462 C   0  0  0  0  0  0
  -30.4593  -17.9295   21.5651 C   0  0  0  0  0  0
  -30.2609  -19.6290   19.7834 C   0  0  0  0  0  0
  -30.0862  -16.8956   20.6708 C   0  0  0  0  0  0
  -30.5613  -21.0037   19.2044 C   0  0  0  0  0  0
  -30.6515  -24.4961   19.5509 C   0  0  0  0  0  0
  -31.4486  -23.2121   19.7860 C   0  0  0  0  0  0
  -29.1785  -22.7582   20.3064 C   0  0  0  0  0  0
  -29.4032  -24.3001   20.3944 C   0  0  2  0  0  0
  -28.1978  -25.1845   19.9637 C   0  0  0  0  0  0
  -30.4719  -22.1267   19.9680 N   0  0  0  0  0  0
  -29.9963  -15.5285   21.0928 N   0  0  0  0  0  0
  -30.9622  -21.0588   18.0360 O   0  0  0  0  0  0
  -31.4701  -12.4148   19.1412 H   0  0  0  0  0  0
  -30.3227  -11.3093   19.8414 H   0  0  0  0  0  0
  -29.7444  -11.7863   17.4414 H   0  0  0  0  0  0
  -29.6713  -13.4954   17.7788 H   0  0  0  0  0  0
  -27.8319  -11.3160   18.8226 H   0  0  0  0  0  0
  -27.3711  -12.6452   17.7933 H   0  0  0  0  0  0
  -27.7000  -14.2617   19.5822 H   0  0  0  0  0  0
  -28.6845  -11.9767   21.3604 H   0  0  0  0  0  0
  -28.4671  -13.6233   21.8749 H   0  0  0  0  0  0
  -25.2763   -9.5673   22.4761 H   0  0  0  0  0  0
  -23.9985   -7.4635   22.7474 H   0  0  0  0  0  0
  -21.0837   -8.8777   19.8951 H   0  0  0  0  0  0
  -22.3701  -10.9671   19.6166 H   0  0  0  0  0  0
  -21.1996   -7.6143   23.9712 H   0  0  0  0  0  0
  -21.1493   -6.0524   25.9075 H   0  0  0  0  0  0
  -22.0589   -2.7610   23.2838 H   0  0  0  0  0  0
  -22.4065  -11.9879   22.4793 H   0  0  0  0  0  0
  -21.1115  -13.1276   22.2597 H   0  0  0  0  0  0
  -24.6600  -15.8453   20.5237 H   0  0  0  0  0  0
  -26.2820  -15.6340   20.0973 H   0  0  0  0  0  0
  -26.7149  -32.5507   23.1163 H   0  0  0  0  0  0
  -25.0073  -33.9774   25.0477 H   0  0  0  0  0  0
  -22.6987  -31.3112   21.4153 H   0  0  0  0  0  0
  -23.3741  -35.9639   23.3307 H   0  0  0  0  0  0
  -24.3571  -36.8918   22.2052 H   0  0  0  0  0  0
  -23.7232  -37.6511   23.6651 H   0  0  0  0  0  0
  -26.0669  -31.5926   20.6079 H   0  0  0  0  0  0
  -26.8260  -30.8648   21.9953 H   0  0  0  0  0  0
  -28.1073  -29.0650   21.1565 H   0  0  0  0  0  0
  -25.9899  -25.9818   18.9778 H   0  0  0  0  0  0
  -23.9673  -27.3261   19.0092 H   0  0  0  0  0  0
  -23.7269  -30.6117   19.4091 H   0  0  0  0  0  0
  -22.7385  -29.2577   19.8636 H   0  0  0  0  0  0
  -25.1280  -36.1965   25.0831 H   0  0  0  0  0  0
  -20.9963  -28.3226   24.1423 H   0  0  0  0  0  0
  -20.5650  -26.2282   23.3598 H   0  0  0  0  0  0
  -21.6628  -26.7435   22.1205 H   0  0  0  0  0  0
  -19.6893  -25.6302   21.1229 H   0  0  0  0  0  0
  -19.6668  -27.3203   20.6739 H   0  0  0  0  0  0
  -17.4186  -26.6678   21.4033 H   0  0  0  0  0  0
  -18.0324  -26.0064   22.9019 H   0  0  0  0  0  0
  -19.7923  -30.7262   24.2289 H   0  0  0  0  0  0
  -17.5001  -31.6264   24.5166 H   0  0  0  0  0  0
  -15.5340  -30.2986   23.7644 H   0  0  0  0  0  0
  -15.8668  -28.0819   22.7061 H   0  0  0  0  0  0
  -24.5898  -30.7093   25.7797 H   0  0  0  0  0  0
  -24.8950  -32.2877   26.4957 H   0  0  0  0  0  0
  -25.8074  -30.8851   27.0228 H   0  0  0  0  0  0
  -26.2893  -29.6800   24.1194 H   0  0  0  0  0  0
  -27.4059  -29.7292   25.4643 H   0  0  0  0  0  0
  -27.8744  -30.4348   23.9350 H   0  0  0  0  0  0
  -27.2697  -33.3621   26.2105 H   0  0  0  0  0  0
  -28.3860  -32.6904   25.0317 H   0  0  0  0  0  0
  -28.0758  -31.8442   26.5395 H   0  0  0  0  0  0
  -28.2601  -38.0102   24.7510 H   0  0  0  0  0  0
  -28.1068  -36.2635   24.6289 H   0  0  0  0  0  0
  -27.2298  -37.1455   25.8873 H   0  0  0  0  0  0
  -20.9322  -29.8786   21.6956 H   0  0  0  0  0  0
  -26.0175  -38.2869   24.1403 H   0  0  0  0  0  0
  -29.6273  -18.8204   17.8780 H   0  0  0  0  0  0
  -30.9042  -20.0345   21.8152 H   0  0  0  0  0  0
  -29.4404  -16.4936   18.6402 H   0  0  0  0  0  0
  -30.7108  -17.6913   22.5896 H   0  0  0  0  0  0
  -30.3835  -24.5680   18.4959 H   0  0  0  0  0  0
  -31.2047  -25.3979   19.8157 H   0  0  0  0  0  0
  -32.0296  -23.2974   20.7050 H   0  0  0  0  0  0
  -32.1649  -23.0432   18.9785 H   0  0  0  0  0  0
  -28.4491  -22.5293   19.5273 H   0  0  0  0  0  0
  -28.7874  -22.3543   21.2408 H   0  0  0  0  0  0
  -29.6545  -24.5422   21.4282 H   0  0  0  0  0  0
  -27.3382  -24.8604   20.5541 H   0  0  0  0  0  0
  -27.9686  -24.9730   18.9183 H   0  0  0  0  0  0
  -29.1530  -15.2674   21.5816 H   0  0  0  0  0  0
  1 25  1  0  0  0
  1 30  2  0  0  0
  1 84  1  0  0  0
  2  3  1  0  0  0
  2 25  1  0  0  0
  2 86  1  0  0  0
  2 87  1  0  0  0
  3  4  1  0  0  0
  3 88  1  0  0  0
  3 89  1  0  0  0
  4  5  1  0  0  0
  4 90  1  0  0  0
  4 91  1  0  0  0
  5  6  1  0  0  0
  5 26  1  0  0  0
  5 92  1  0  0  0
  6 25  1  0  0  0
  6 93  1  0  0  0
  6 94  1  0  0  0
  7  8  2  0  0  0
  7 26  1  0  0  0
  7 29  1  0  0  0
  8  9  1  0  0  0
  8 22  1  0  0  0
  9 10  1  0  0  0
  9 27  2  0  0  0
 10 11  2  0  0  0
 10 15  1  0  0  0
 11 12  1  0  0  0
 11 95  1  0  0  0
 12 13  2  0  0  0
 12 96  1  0  0  0
 13 14  1  0  0  0
 13 31  1  0  0  0
 14 15  2  0  0  0
 14 97  1  0  0  0
 15 98  1  0  0  0
 16 17  2  0  0  0
 16 21  1  0  0  0
 16 31  1  0  0  0
 17 18  1  0  0  0
 17 99  1  0  0  0
 18 19  2  0  0  0
 18100  1  0  0  0
 19 20  1  0  0  0
 19 24  1  0  0  0
 20 21  2  0  0  0
 20101  1  0  0  0
 21 23  1  0  0  0
 22 28  1  0  0  0
 22 32  2  0  0  0
 26 27  1  0  0  0
 28102  1  0  0  0
 28103  1  0  0  0
 29104  1  0  0  0
 29105  1  0  0  0
 33 34  1  0  0  0
 33 66  1  0  0  0
 33 70  2  0  0  0
 34 36  1  0  0  0
 34 59  1  0  0  0
 34106  1  0  0  0
 35 44  2  0  0  0
 35 45  1  0  0  0
 35 68  1  0  0  0
 36 56  1  0  0  0
 36107  1  0  0  0
 37 39  1  0  0  0
 37 47  1  0  0  0
 37 66  1  0  0  0
 37108  1  0  0  0
 38 43  2  0  0  0
 38 46  1  0  0  0
 38 47  1  0  0  0
 39 64  1  0  0  0
 39 67  2  0  0  0
 40 52  1  0  0  0
 40 53  2  0  0  0
 40 58  1  0  0  0
 41109  1  0  0  0
 41110  1  0  0  0
 41111  1  0  0  0
 41 48  1  0  0  0
 42 43  1  0  0  0
 42 66  1  0  0  0
 42112  1  0  0  0
 42113  1  0  0  0
 43 44  1  0  0  0
 44114  1  0  0  0
 45 46  2  0  0  0
 45115  1  0  0  0
 46116  1  0  0  0
 47117  1  0  0  0
 47118  1  0  0  0
 48 56  1  0  0  0
 48 65  1  0  0  0
 48119  1  0  0  0
 49 50  1  0  0  0
 49 53  1  0  0  0
 49 64  1  0  0  0
 49120  1  0  0  0
 50 51  1  0  0  0
 50121  1  0  0  0
 50122  1  0  0  0
 51 52  1  0  0  0
 51123  1  0  0  0
 51124  1  0  0  0
 52125  1  0  0  0
 52126  1  0  0  0
 53 54  1  0  0  0
 54 55  2  0  0  0
 54127  1  0  0  0
 55 57  1  0  0  0
 55128  1  0  0  0
 56 69  2  0  0  0
 57 58  2  0  0  0
 57129  1  0  0  0
 58130  1  0  0  0
 59 60  1  0  0  0
 59 61  1  0  0  0
 59 62  1  0  0  0
 60131  1  0  0  0
 60132  1  0  0  0
 60133  1  0  0  0
 61134  1  0  0  0
 61135  1  0  0  0
 61136  1  0  0  0
 62137  1  0  0  0
 62138  1  0  0  0
 62139  1  0  0  0
 63 65  1  0  0  0
 63140  1  0  0  0
 63141  1  0  0  0
 63142  1  0  0  0
 64143  1  0  0  0
 65144  1  0  0  0
 68 82  1  0  0  0
 71 73  2  0  0  0
 71 75  1  0  0  0
 71145  1  0  0  0
 72 74  1  0  0  0
 72 75  2  0  0  0
 72146  1  0  0  0
 73 76  1  0  0  0
 73147  1  0  0  0
 74 76  2  0  0  0
 74148  1  0  0  0
 75 77  1  0  0  0
 76 84  1  0  0  0
 77 83  1  0  0  0
 77 85  2  0  0  0
 78 79  1  0  0  0
 78 81  1  0  0  0
 78149  1  0  0  0
 78150  1  0  0  0
 79 83  1  0  0  0
 79151  1  0  0  0
 79152  1  0  0  0
 80 81  1  0  0  0
 80 83  1  0  0  0
 80153  1  0  0  0
 80154  1  0  0  0
 81 82  1  0  0  0
 81155  1  0  0  0
 82156  1  0  0  0
 82157  1  0  0  0
 84158  1  0  0  0
M  ISO  4   1 100  68 101  82 101  84 100
M  END
> <chiral flag>
0

> <version>
0

> <s_m_source_file>
/data/baiqing/PycharmProjects/Reinvent-master-3.2/result/LINK_invent/BTK/process_docking_weight1_custom_product_contain_oxygen_bond_distance_aromatic_linkinvent_7_9_3/rearranged_h_0101.sdf

> <i_m_source_file_index>
72

> <r_mmod_Potential_Energy-OPLS-2005>
169.046356201172

> <r_mmod_Stretch_Energy-OPLS-2005>
46.9154281616211

> <r_mmod_Bend_Energy-OPLS-2005>
123.765090942383

> <r_mmod_Torsional_Energy-OPLS-2005>
369.393096923828

> <r_mmod_Improper_Torsional_Energy-OPLS-2005>
8.84942054748535

> <r_mmod_Van_der_Waal_Energy-OPLS-2005>
151.936553955078

> <r_mmod_Electrostatic_Energy-OPLS-2005>
-320.800689697266

> <r_mmod_Solvation_Energy-OPLS-2005>
-229.641067504883

> <b_mmod_Minimization_Converged-OPLS-2005>
0

> <r_mmod_RMS_Derivative-OPLS-2005>
1.67473006248474

$$$$
72
                    3D
 Structure written by MMmdl.
161169  0  0  1  0            999 V2000
  -30.6995  -14.3901   20.6978 C   0  0  0  0  0  0
  -30.4379  -12.3060   19.3839 C   0  0  0  0  0  0
  -29.4936  -12.5474   18.1883 C   0  0  0  0  0  0
  -28.0137  -12.3954   18.5980 C   0  0  0  0  0  0
  -27.6716  -13.1928   19.8843 C   0  0  2  0  0  0
  -28.7078  -12.8698   20.9795 C   0  0  0  0  0  0
  -25.2630  -13.8137   20.5651 C   0  0  0  0  0  0
  -24.1863  -13.0427   20.9145 C   0  0  0  0  0  0
  -24.6394  -11.6888   20.8709 C   0  0  0  0  0  0
  -23.9051  -10.4287   21.0400 C   0  0  0  0  0  0
  -24.3614   -9.4202   21.9176 C   0  0  0  0  0  0
  -23.6292   -8.2238   22.0749 C   0  0  0  0  0  0
  -22.4276   -8.0274   21.3542 C   0  0  0  0  0  0
  -21.9902   -9.0240   20.4645 C   0  0  0  0  0  0
  -22.7223  -10.2123   20.3045 C   0  0  0  0  0  0
  -21.6852   -6.0736   22.5280 C   0  0  0  0  0  0
  -21.4010   -6.5644   23.8211 C   0  0  0  0  0  0
  -21.3658   -5.6794   24.9171 C   0  0  0  0  0  0
  -21.6046   -4.3059   24.7219 C   0  0  0  0  0  0
  -21.8819   -3.8154   23.4341 C   0  0  0  0  0  0
  -21.9188   -4.6967   22.3399 C   0  0  0  0  0  0
  -22.7880  -13.5231   21.1838 C   0  0  0  0  0  0
  -22.1662   -4.2159   21.0975 F   0  0  0  0  0  0
  -21.5623   -3.4543   25.7732 F   0  0  0  0  0  0
  -30.0481  -13.2176   20.4689 N   0  0  0  0  0  0
  -26.3068  -12.9282   20.3366 N   0  0  0  0  0  0
  -25.9314  -11.6447   20.5704 N   0  0  0  0  0  0
  -22.0524  -12.8231   22.0409 N   0  0  0  0  0  0
  -25.4336  -15.1856   20.4022 N   0  0  0  0  0  0
  -31.7348  -14.7120   20.1014 O   0  0  0  0  0  0
  -21.6634   -6.8880   21.4246 O   0  0  0  0  0  0
  -22.3559  -14.5518   20.6659 O   0  0  0  0  0  0
  -24.6142  -31.8695   23.2117 C   0  0  0  0  0  0
  -25.9044  -32.4828   23.8392 C   0  0  1  0  0  0
  -27.2321  -27.4461   20.0788 C   0  0  0  0  0  0
  -25.5902  -33.8622   24.2329 N   0  0  0  0  0  0
  -23.4000  -30.4965   21.5512 C   0  0  2  0  0  0
  -24.8437  -28.9663   20.1161 C   0  0  0  0  0  0
  -22.7398  -29.4674   22.4974 C   0  0  0  0  0  0
  -18.0268  -28.1394   22.8494 C   0  0  0  0  0  0
  -24.1491  -36.7324   23.2633 C   0  0  0  0  0  0
  -25.9281  -30.8367   21.3638 C   0  0  0  0  0  0
  -26.0050  -29.4722   20.7121 C   0  0  0  0  0  0
  -27.1989  -28.7184   20.6952 C   0  0  0  0  0  0
  -26.0450  -26.9559   19.4776 C   0  0  0  0  0  0
  -24.8571  -27.7065   19.5007 C   0  0  0  0  0  0
  -23.6077  -29.8325   20.1650 C   0  0  0  0  0  0
  -25.4106  -36.3118   24.0339 C   0  0  1  0  0  0
  -20.5859  -28.3686   23.1321 C   0  0  2  0  0  0
  -20.6770  -26.9421   22.5425 C   0  0  0  0  0  0
  -19.5747  -26.6400   21.5224 C   0  0  0  0  0  0
  -18.1924  -26.7936   22.1633 C   0  0  0  0  0  0
  -19.1518  -28.8843   23.2905 C   0  0  0  0  0  0
  -18.9456  -30.1451   23.8920 C   0  0  0  0  0  0
  -17.6462  -30.6599   24.0573 C   0  0  0  0  0  0
  -25.9038  -34.9477   23.5126 C   0  0  0  0  0  0
  -16.5351  -29.9113   23.6328 C   0  0  0  0  0  0
  -16.7259  -28.6530   23.0340 C   0  0  0  0  0  0
  -26.4474  -31.6596   25.0710 C   0  0  0  0  0  0
  -25.3733  -31.3709   26.1451 C   0  0  0  0  0  0
  -27.0297  -30.3037   24.6074 C   0  0  0  0  0  0
  -27.6054  -32.4308   25.7474 C   0  0  0  0  0  0
  -27.5579  -37.1816   24.8458 C   0  0  0  0  0  0
  -21.4132  -29.3053   22.3722 N   0  0  0  0  0  0
  -26.4300  -37.3800   23.9402 N   0  0  0  0  0  0
  -24.6652  -31.0814   22.1016 N   0  0  0  0  0  0
  -23.4183  -28.8184   23.2978 O   0  0  0  0  0  0
  -28.4155  -26.7318   20.0881 O   0  0  0  0  0  0
  -26.5602  -34.8937   22.4691 O   0  0  0  0  0  0
  -23.5350  -32.1435   23.7541 O   0  0  0  0  0  0
  -29.1155  -18.4680   23.0717 C   0  0  0  0  0  0
  -29.8248  -19.3566   22.2500 C   0  0  0  0  0  0
  -30.8057  -17.4657   21.0723 C   0  0  0  0  0  0
  -29.2344  -17.0674   22.9165 C   0  0  0  0  0  0
  -30.6802  -18.8623   21.2483 C   0  0  0  0  0  0
  -30.0791  -16.5491   21.8820 C   0  0  0  0  0  0
  -28.4168  -16.1900   23.8355 C   0  0  0  0  0  0
  -30.5892  -22.1630   20.2644 C   0  0  0  0  0  0
  -29.4846  -23.0888   19.7450 C   0  0  0  0  0  0
  -30.5746  -20.7287   19.7033 C   0  0  0  0  0  0
  -29.6100  -24.5785   20.1305 C   0  0  0  0  0  0
  -28.3569  -25.3573   19.7023 C   0  0  0  0  0  0
  -28.3468  -16.5633   25.1073 N   0  0  0  0  0  0
  -30.1415  -15.1300   21.6755 N   0  0  0  0  0  0
  -31.3909  -19.7439   20.4227 N   0  0  0  0  0  0
  -27.8707  -15.1617   23.4446 O   0  0  0  0  0  0
  -31.4311  -22.5387   21.0876 O   0  0  0  0  0  0
  -31.4780  -12.4445   19.0825 H   0  0  0  0  0  0
  -30.3650  -11.2720   19.7247 H   0  0  0  0  0  0
  -29.7318  -11.8609   17.3752 H   0  0  0  0  0  0
  -29.6573  -13.5520   17.7950 H   0  0  0  0  0  0
  -27.8162  -11.3340   18.7581 H   0  0  0  0  0  0
  -27.3643  -12.7050   17.7776 H   0  0  0  0  0  0
  -27.7443  -14.2542   19.6462 H   0  0  0  0  0  0
  -28.6803  -11.8033   21.2078 H   0  0  0  0  0  0
  -28.4472  -13.3481   21.9170 H   0  0  0  0  0  0
  -25.2765   -9.5674   22.4740 H   0  0  0  0  0  0
  -24.0001   -7.4634   22.7472 H   0  0  0  0  0  0
  -21.0832   -8.8761   19.8957 H   0  0  0  0  0  0
  -22.3690  -10.9659   19.6146 H   0  0  0  0  0  0
  -21.2004   -7.6157   23.9720 H   0  0  0  0  0  0
  -21.1484   -6.0525   25.9077 H   0  0  0  0  0  0
  -22.0600   -2.7623   23.2832 H   0  0  0  0  0  0
  -22.4162  -11.9896   22.4796 H   0  0  0  0  0  0
  -21.1129  -13.1243   22.2601 H   0  0  0  0  0  0
  -24.6765  -15.8454   20.5437 H   0  0  0  0  0  0
  -26.3016  -15.6295   20.1267 H   0  0  0  0  0  0
  -26.7087  -32.5550   23.1134 H   0  0  0  0  0  0
  -25.0025  -33.9767   25.0453 H   0  0  0  0  0  0
  -22.6906  -31.3156   21.4134 H   0  0  0  0  0  0
  -23.3757  -35.9658   23.3317 H   0  0  0  0  0  0
  -24.3574  -36.8924   22.2041 H   0  0  0  0  0  0
  -23.7264  -37.6543   23.6637 H   0  0  0  0  0  0
  -26.0373  -31.6021   20.5938 H   0  0  0  0  0  0
  -26.8180  -30.8904   21.9787 H   0  0  0  0  0  0
  -28.0942  -29.1076   21.1600 H   0  0  0  0  0  0
  -26.0076  -25.9998   18.9776 H   0  0  0  0  0  0
  -23.9623  -27.3153   19.0374 H   0  0  0  0  0  0
  -23.7211  -30.6094   19.4079 H   0  0  0  0  0  0
  -22.7323  -29.2544   19.8645 H   0  0  0  0  0  0
  -25.1292  -36.1973   25.0839 H   0  0  0  0  0  0
  -20.9944  -28.3256   24.1442 H   0  0  0  0  0  0
  -20.5698  -26.2281   23.3606 H   0  0  0  0  0  0
  -21.6637  -26.7475   22.1196 H   0  0  0  0  0  0
  -19.6918  -25.6316   21.1233 H   0  0  0  0  0  0
  -19.6694  -27.3230   20.6768 H   0  0  0  0  0  0
  -17.4194  -26.6687   21.4036 H   0  0  0  0  0  0
  -18.0329  -26.0072   22.9020 H   0  0  0  0  0  0
  -19.7934  -30.7256   24.2306 H   0  0  0  0  0  0
  -17.5028  -31.6278   24.5182 H   0  0  0  0  0  0
  -15.5360  -30.3031   23.7641 H   0  0  0  0  0  0
  -15.8658  -28.0870   22.7036 H   0  0  0  0  0  0
  -24.5896  -30.7072   25.7784 H   0  0  0  0  0  0
  -24.8929  -32.2870   26.4900 H   0  0  0  0  0  0
  -25.8068  -30.8867   27.0205 H   0  0  0  0  0  0
  -26.2835  -29.6805   24.1128 H   0  0  0  0  0  0
  -27.4074  -29.7268   25.4525 H   0  0  0  0  0  0
  -27.8667  -30.4366   23.9214 H   0  0  0  0  0  0
  -27.2665  -33.3583   26.2099 H   0  0  0  0  0  0
  -28.3836  -32.6897   25.0284 H   0  0  0  0  0  0
  -28.0741  -31.8392   26.5351 H   0  0  0  0  0  0
  -28.2608  -38.0102   24.7506 H   0  0  0  0  0  0
  -28.1070  -36.2637   24.6293 H   0  0  0  0  0  0
  -27.2286  -37.1470   25.8859 H   0  0  0  0  0  0
  -20.9296  -29.8786   21.6946 H   0  0  0  0  0  0
  -26.0197  -38.2887   24.1412 H   0  0  0  0  0  0
  -28.4575  -18.8789   23.8239 H   0  0  0  0  0  0
  -29.7048  -20.4186   22.4075 H   0  0  0  0  0  0
  -31.4497  -17.1081   20.2838 H   0  0  0  0  0  0
  -29.4455  -22.9937   18.6599 H   0  0  0  0  0  0
  -28.5386  -22.6979   20.1208 H   0  0  0  0  0  0
  -30.9356  -20.7824   18.6763 H   0  0  0  0  0  0
  -29.5400  -20.3892   19.6409 H   0  0  0  0  0  0
  -30.4951  -25.0112   19.6640 H   0  0  0  0  0  0
  -29.7392  -24.6796   21.2082 H   0  0  0  0  0  0
  -28.2332  -25.2926   18.6200 H   0  0  0  0  0  0
  -27.4969  -24.8731   20.1698 H   0  0  0  0  0  0
  -28.8304  -17.3903   25.4220 H   0  0  0  0  0  0
  -27.8186  -16.0133   25.7675 H   0  0  0  0  0  0
  -29.4335  -14.6192   22.1888 H   0  0  0  0  0  0
  -32.1027  -19.3134   19.8390 H   0  0  0  0  0  0
  1 25  1  0  0  0
  1 30  2  0  0  0
  1 84  1  0  0  0
  2  3  1  0  0  0
  2 25  1  0  0  0
  2 88  1  0  0  0
  2 89  1  0  0  0
  3  4  1  0  0  0
  3 90  1  0  0  0
  3 91  1  0  0  0
  4  5  1  0  0  0
  4 92  1  0  0  0
  4 93  1  0  0  0
  5  6  1  0  0  0
  5 26  1  0  0  0
  5 94  1  0  0  0
  6 25  1  0  0  0
  6 95  1  0  0  0
  6 96  1  0  0  0
  7  8  2  0  0  0
  7 26  1  0  0  0
  7 29  1  0  0  0
  8  9  1  0  0  0
  8 22  1  0  0  0
  9 10  1  0  0  0
  9 27  2  0  0  0
 10 11  2  0  0  0
 10 15  1  0  0  0
 11 12  1  0  0  0
 11 97  1  0  0  0
 12 13  2  0  0  0
 12 98  1  0  0  0
 13 14  1  0  0  0
 13 31  1  0  0  0
 14 15  2  0  0  0
 14 99  1  0  0  0
 15100  1  0  0  0
 16 17  2  0  0  0
 16 21  1  0  0  0
 16 31  1  0  0  0
 17 18  1  0  0  0
 17101  1  0  0  0
 18 19  2  0  0  0
 18102  1  0  0  0
 19 20  1  0  0  0
 19 24  1  0  0  0
 20 21  2  0  0  0
 20103  1  0  0  0
 21 23  1  0  0  0
 22 28  1  0  0  0
 22 32  2  0  0  0
 26 27  1  0  0  0
 28104  1  0  0  0
 28105  1  0  0  0
 29106  1  0  0  0
 29107  1  0  0  0
 33 34  1  0  0  0
 33 66  1  0  0  0
 33 70  2  0  0  0
 34 36  1  0  0  0
 34 59  1  0  0  0
 34108  1  0  0  0
 35 44  2  0  0  0
 35 45  1  0  0  0
 35 68  1  0  0  0
 36 56  1  0  0  0
 36109  1  0  0  0
 37 39  1  0  0  0
 37 47  1  0  0  0
 37 66  1  0  0  0
 37110  1  0  0  0
 38 43  2  0  0  0
 38 46  1  0  0  0
 38 47  1  0  0  0
 39 64  1  0  0  0
 39 67  2  0  0  0
 40 52  1  0  0  0
 40 53  2  0  0  0
 40 58  1  0  0  0
 41111  1  0  0  0
 41112  1  0  0  0
 41113  1  0  0  0
 41 48  1  0  0  0
 42 43  1  0  0  0
 42 66  1  0  0  0
 42114  1  0  0  0
 42115  1  0  0  0
 43 44  1  0  0  0
 44116  1  0  0  0
 45 46  2  0  0  0
 45117  1  0  0  0
 46118  1  0  0  0
 47119  1  0  0  0
 47120  1  0  0  0
 48 56  1  0  0  0
 48 65  1  0  0  0
 48121  1  0  0  0
 49 50  1  0  0  0
 49 53  1  0  0  0
 49 64  1  0  0  0
 49122  1  0  0  0
 50 51  1  0  0  0
 50123  1  0  0  0
 50124  1  0  0  0
 51 52  1  0  0  0
 51125  1  0  0  0
 51126  1  0  0  0
 52127  1  0  0  0
 52128  1  0  0  0
 53 54  1  0  0  0
 54 55  2  0  0  0
 54129  1  0  0  0
 55 57  1  0  0  0
 55130  1  0  0  0
 56 69  2  0  0  0
 57 58  2  0  0  0
 57131  1  0  0  0
 58132  1  0  0  0
 59 60  1  0  0  0
 59 61  1  0  0  0
 59 62  1  0  0  0
 60133  1  0  0  0
 60134  1  0  0  0
 60135  1  0  0  0
 61136  1  0  0  0
 61137  1  0  0  0
 61138  1  0  0  0
 62139  1  0  0  0
 62140  1  0  0  0
 62141  1  0  0  0
 63 65  1  0  0  0
 63142  1  0  0  0
 63143  1  0  0  0
 63144  1  0  0  0
 64145  1  0  0  0
 65146  1  0  0  0
 68 82  1  0  0  0
 71 72  2  0  0  0
 71 74  1  0  0  0
 71147  1  0  0  0
 72 75  1  0  0  0
 72148  1  0  0  0
 73 75  2  0  0  0
 73 76  1  0  0  0
 73149  1  0  0  0
 74 76  2  0  0  0
 74 77  1  0  0  0
 75 85  1  0  0  0
 76 84  1  0  0  0
 77 83  1  0  0  0
 77 86  2  0  0  0
 78 79  1  0  0  0
 78 80  1  0  0  0
 78 87  2  0  0  0
 79 81  1  0  0  0
 79150  1  0  0  0
 79151  1  0  0  0
 80 85  1  0  0  0
 80152  1  0  0  0
 80153  1  0  0  0
 81 82  1  0  0  0
 81154  1  0  0  0
 81155  1  0  0  0
 82156  1  0  0  0
 82157  1  0  0  0
 83158  1  0  0  0
 83159  1  0  0  0
 84160  1  0  0  0
 85161  1  0  0  0
M  ISO  4   1 100  68 101  82 101  84 100
M  END
> <chiral flag>
0

> <version>
0

> <s_m_source_file>
/data/baiqing/PycharmProjects/Reinvent-master-3.2/result/LINK_invent/BTK/process_docking_weight1_custom_product_contain_oxygen_bond_distance_aromatic_linkinvent_7_9_3/rearranged_h_0101.sdf

> <i_m_source_file_index>
73

> <r_mmod_Potential_Energy-OPLS-2005>
-137.481781005859

> <r_mmod_Stretch_Energy-OPLS-2005>
38.6879119873047

> <r_mmod_Bend_Energy-OPLS-2005>
106.940788269043

> <r_mmod_Torsional_Energy-OPLS-2005>
220.477279663086

> <r_mmod_Improper_Torsional_Energy-OPLS-2005>
7.40989017486572

> <r_mmod_Van_der_Waal_Energy-OPLS-2005>
166.693466186523

> <r_mmod_Electrostatic_Energy-OPLS-2005>
-420.824615478516

> <r_mmod_Solvation_Energy-OPLS-2005>
-267.059295654297

> <b_mmod_Minimization_Converged-OPLS-2005>
0

> <r_mmod_RMS_Derivative-OPLS-2005>
2.13170957565308

$$$$
73
                    3D
 Structure written by MMmdl.
158166  0  0  1  0            999 V2000
  -30.6456  -14.6141   20.4913 C   0  0  0  0  0  0
  -30.4295  -12.3654   19.4684 C   0  0  0  0  0  0
  -29.5022  -12.4539   18.2363 C   0  0  0  0  0  0
  -28.0236  -12.3281   18.6511 C   0  0  0  0  0  0
  -27.6499  -13.2172   19.8667 C   0  0  2  0  0  0
  -28.6892  -13.0859   21.0013 C   0  0  0  0  0  0
  -25.2523  -13.8190   20.5656 C   0  0  0  0  0  0
  -24.1806  -13.0438   20.9214 C   0  0  0  0  0  0
  -24.6383  -11.6924   20.8772 C   0  0  0  0  0  0
  -23.9060  -10.4297   21.0425 C   0  0  0  0  0  0
  -24.3605   -9.4214   21.9211 C   0  0  0  0  0  0
  -23.6289   -8.2240   22.0767 C   0  0  0  0  0  0
  -22.4287   -8.0272   21.3539 C   0  0  0  0  0  0
  -21.9913   -9.0260   20.4659 C   0  0  0  0  0  0
  -22.7230  -10.2145   20.3081 C   0  0  0  0  0  0
  -21.6844   -6.0741   22.5283 C   0  0  0  0  0  0
  -21.4014   -6.5638   23.8224 C   0  0  0  0  0  0
  -21.3660   -5.6789   24.9167 C   0  0  0  0  0  0
  -21.6034   -4.3062   24.7225 C   0  0  0  0  0  0
  -21.8817   -3.8149   23.4353 C   0  0  0  0  0  0
  -21.9196   -4.6962   22.3396 C   0  0  0  0  0  0
  -22.7834  -13.5224   21.1837 C   0  0  0  0  0  0
  -22.1660   -4.2136   21.0978 F   0  0  0  0  0  0
  -21.5627   -3.4545   25.7742 F   0  0  0  0  0  0
  -30.0106  -13.4004   20.4376 N   0  0  0  0  0  0
  -26.2969  -12.9362   20.3378 N   0  0  0  0  0  0
  -25.9311  -11.6529   20.5848 N   0  0  0  0  0  0
  -22.0456  -12.8235   22.0418 N   0  0  0  0  0  0
  -25.4253  -15.1883   20.3975 N   0  0  0  0  0  0
  -31.7995  -14.7567   20.0804 O   0  0  0  0  0  0
  -21.6638   -6.8877   21.4249 O   0  0  0  0  0  0
  -22.3514  -14.5522   20.6669 O   0  0  0  0  0  0
  -24.6264  -31.8639   23.2040 C   0  0  0  0  0  0
  -25.9131  -32.4798   23.8385 C   0  0  1  0  0  0
  -27.1986  -27.3422   20.1097 C   0  0  0  0  0  0
  -25.5944  -33.8614   24.2336 N   0  0  0  0  0  0
  -23.4162  -30.4932   21.5486 C   0  0  2  0  0  0
  -24.8537  -28.9490   20.1072 C   0  0  0  0  0  0
  -22.7446  -29.4722   22.4953 C   0  0  0  0  0  0
  -18.0262  -28.1239   22.8464 C   0  0  0  0  0  0
  -24.1491  -36.7329   23.2628 C   0  0  0  0  0  0
  -25.9520  -30.8010   21.3654 C   0  0  0  0  0  0
  -26.0220  -29.4259   20.7168 C   0  0  0  0  0  0
  -27.2026  -28.6304   20.7138 C   0  0  0  0  0  0
  -26.0226  -26.9169   19.4565 C   0  0  0  0  0  0
  -24.8577  -27.7036   19.4602 C   0  0  0  0  0  0
  -23.6230  -29.8294   20.1602 C   0  0  0  0  0  0
  -25.4095  -36.3112   24.0335 C   0  0  1  0  0  0
  -20.5857  -28.3599   23.1125 C   0  0  2  0  0  0
  -20.6870  -26.9384   22.5004 C   0  0  0  0  0  0
  -19.5680  -26.6175   21.5019 C   0  0  0  0  0  0
  -18.1903  -26.7732   22.1551 C   0  0  0  0  0  0
  -19.1501  -28.8688   23.2897 C   0  0  0  0  0  0
  -18.9458  -30.1269   23.8965 C   0  0  0  0  0  0
  -17.6488  -30.6429   24.0563 C   0  0  0  0  0  0
  -25.9025  -34.9463   23.5128 C   0  0  0  0  0  0
  -16.5373  -29.8965   23.6296 C   0  0  0  0  0  0
  -16.7263  -28.6413   23.0244 C   0  0  0  0  0  0
  -26.4487  -31.6574   25.0726 C   0  0  0  0  0  0
  -25.3722  -31.3699   26.1462 C   0  0  0  0  0  0
  -27.0318  -30.3023   24.6067 C   0  0  0  0  0  0
  -27.6052  -32.4271   25.7485 C   0  0  0  0  0  0
  -27.5584  -37.1800   24.8467 C   0  0  0  0  0  0
  -21.4152  -29.3131   22.3722 N   0  0  0  0  0  0
  -26.4290  -37.3785   23.9412 N   0  0  0  0  0  0
  -24.6874  -31.0668   22.0990 N   0  0  0  0  0  0
  -23.4185  -28.8161   23.2954 O   0  0  0  0  0  0
  -28.2910  -26.4803   20.1447 O   0  0  0  0  0  0
  -26.5603  -34.8895   22.4698 O   0  0  0  0  0  0
  -23.5421  -32.1454   23.7358 O   0  0  0  0  0  0
  -28.6212  -17.0382   17.5113 C   0  0  0  0  0  0
  -29.3657  -16.3388   18.4700 C   0  0  0  0  0  0
  -27.9422  -18.5982   19.2242 C   0  0  0  0  0  0
  -28.8035  -18.0040   20.1774 C   0  0  0  0  0  0
  -27.8530  -18.1375   17.9052 C   0  0  0  0  0  0
  -29.3982  -16.7197   19.8400 C   0  0  0  0  0  0
  -28.9702  -18.7486   21.4909 C   0  0  0  0  0  0
  -28.7681  -23.8949   20.1886 C   0  0  0  0  0  0
  -28.8286  -22.6378   21.1535 C   0  0  0  0  0  0
  -28.0295  -25.1698   20.7620 C   0  0  0  0  0  0
  -28.8547  -21.1894   20.5363 C   0  0  0  0  0  0
  -27.0250  -18.7777   16.9889 N   0  0  0  0  0  0
  -29.8863  -15.7177   20.7848 N   0  0  0  0  0  0
  -29.2797  -18.1473   22.5209 O   0  0  0  0  0  0
  -28.7700  -20.1585   21.5707 O   0  0  0  0  0  0
  -31.4658  -12.4861   19.1559 H   0  0  0  0  0  0
  -30.3749  -11.3767   19.9277 H   0  0  0  0  0  0
  -29.7491  -11.6688   17.5223 H   0  0  0  0  0  0
  -29.6639  -13.3887   17.7052 H   0  0  0  0  0  0
  -27.8540  -11.2804   18.9072 H   0  0  0  0  0  0
  -27.3666  -12.5422   17.8054 H   0  0  0  0  0  0
  -27.6654  -14.2471   19.5090 H   0  0  0  0  0  0
  -28.6887  -12.0766   21.4154 H   0  0  0  0  0  0
  -28.4446  -13.7566   21.8263 H   0  0  0  0  0  0
  -25.2749   -9.5672   22.4799 H   0  0  0  0  0  0
  -23.9979   -7.4633   22.7495 H   0  0  0  0  0  0
  -21.0832   -8.8777   19.8978 H   0  0  0  0  0  0
  -22.3687  -10.9680   19.6191 H   0  0  0  0  0  0
  -21.2010   -7.6147   23.9699 H   0  0  0  0  0  0
  -21.1484   -6.0532   25.9060 H   0  0  0  0  0  0
  -22.0602   -2.7613   23.2851 H   0  0  0  0  0  0
  -22.4051  -11.9890   22.4792 H   0  0  0  0  0  0
  -21.1092  -13.1323   22.2611 H   0  0  0  0  0  0
  -24.6529  -15.8410   20.4551 H   0  0  0  0  0  0
  -26.2654  -15.6082   20.0227 H   0  0  0  0  0  0
  -26.7259  -32.5507   23.1191 H   0  0  0  0  0  0
  -25.0172  -33.9805   25.0539 H   0  0  0  0  0  0
  -22.7143  -31.3211   21.4117 H   0  0  0  0  0  0
  -23.3736  -35.9688   23.3270 H   0  0  0  0  0  0
  -24.3621  -36.8948   22.2054 H   0  0  0  0  0  0
  -23.7255  -37.6515   23.6663 H   0  0  0  0  0  0
  -26.0636  -31.5517   20.5830 H   0  0  0  0  0  0
  -26.8477  -30.8692   21.9729 H   0  0  0  0  0  0
  -28.1012  -28.9771   21.2074 H   0  0  0  0  0  0
  -25.9960  -25.9612   18.9510 H   0  0  0  0  0  0
  -23.9658  -27.3434   18.9632 H   0  0  0  0  0  0
  -23.7535  -30.6026   19.4037 H   0  0  0  0  0  0
  -22.7433  -29.2570   19.8603 H   0  0  0  0  0  0
  -25.1254  -36.1969   25.0823 H   0  0  0  0  0  0
  -20.9940  -28.2991   24.1260 H   0  0  0  0  0  0
  -21.6671  -26.7855   22.0433 H   0  0  0  0  0  0
  -20.6330  -26.2084   23.3110 H   0  0  0  0  0  0
  -19.6711  -25.6038   21.1123 H   0  0  0  0  0  0
  -19.6517  -27.2832   20.6394 H   0  0  0  0  0  0
  -17.4248  -26.6414   21.3908 H   0  0  0  0  0  0
  -18.0281  -25.9825   22.8902 H   0  0  0  0  0  0
  -19.7911  -30.7069   24.2371 H   0  0  0  0  0  0
  -17.5040  -31.6055   24.5282 H   0  0  0  0  0  0
  -15.5387  -30.2891   23.7688 H   0  0  0  0  0  0
  -15.8628  -28.0800   22.6839 H   0  0  0  0  0  0
  -24.5942  -30.6972   25.7841 H   0  0  0  0  0  0
  -24.8868  -32.2852   26.4831 H   0  0  0  0  0  0
  -25.8055  -30.8962   27.0283 H   0  0  0  0  0  0
  -26.2879  -29.6776   24.1101 H   0  0  0  0  0  0
  -27.4120  -29.7201   25.4469 H   0  0  0  0  0  0
  -27.8682  -30.4378   23.9214 H   0  0  0  0  0  0
  -27.2706  -33.3596   26.2040 H   0  0  0  0  0  0
  -28.3860  -32.6767   25.0300 H   0  0  0  0  0  0
  -28.0732  -31.8421   26.5398 H   0  0  0  0  0  0
  -28.2538  -38.0140   24.7488 H   0  0  0  0  0  0
  -28.1098  -36.2638   24.6281 H   0  0  0  0  0  0
  -27.2315  -37.1450   25.8873 H   0  0  0  0  0  0
  -20.9298  -29.8923   21.7007 H   0  0  0  0  0  0
  -26.0153  -38.2845   24.1423 H   0  0  0  0  0  0
  -28.5981  -16.6919   16.4877 H   0  0  0  0  0  0
  -29.8700  -15.4507   18.1290 H   0  0  0  0  0  0
  -27.2958  -19.4072   19.5119 H   0  0  0  0  0  0
  -28.2756  -23.5996   19.2634 H   0  0  0  0  0  0
  -29.7861  -24.1596   19.9030 H   0  0  0  0  0  0
  -27.9742  -22.6928   21.8304 H   0  0  0  0  0  0
  -29.7040  -22.7433   21.7938 H   0  0  0  0  0  0
  -28.2911  -25.2891   21.8126 H   0  0  0  0  0  0
  -26.9621  -24.9392   20.7755 H   0  0  0  0  0  0
  -29.7552  -21.0302   19.9462 H   0  0  0  0  0  0
  -28.0132  -21.1510   19.8477 H   0  0  0  0  0  0
  -26.7791  -18.3556   16.1002 H   0  0  0  0  0  0
  -26.5306  -19.6359   17.2124 H   0  0  0  0  0  0
  -29.2789  -15.5883   21.5790 H   0  0  0  0  0  0
  1 25  1  0  0  0
  1 30  2  0  0  0
  1 83  1  0  0  0
  2  3  1  0  0  0
  2 25  1  0  0  0
  2 86  1  0  0  0
  2 87  1  0  0  0
  3  4  1  0  0  0
  3 88  1  0  0  0
  3 89  1  0  0  0
  4  5  1  0  0  0
  4 90  1  0  0  0
  4 91  1  0  0  0
  5  6  1  0  0  0
  5 26  1  0  0  0
  5 92  1  0  0  0
  6 25  1  0  0  0
  6 93  1  0  0  0
  6 94  1  0  0  0
  7  8  2  0  0  0
  7 26  1  0  0  0
  7 29  1  0  0  0
  8  9  1  0  0  0
  8 22  1  0  0  0
  9 10  1  0  0  0
  9 27  2  0  0  0
 10 11  2  0  0  0
 10 15  1  0  0  0
 11 12  1  0  0  0
 11 95  1  0  0  0
 12 13  2  0  0  0
 12 96  1  0  0  0
 13 14  1  0  0  0
 13 31  1  0  0  0
 14 15  2  0  0  0
 14 97  1  0  0  0
 15 98  1  0  0  0
 16 17  2  0  0  0
 16 21  1  0  0  0
 16 31  1  0  0  0
 17 18  1  0  0  0
 17 99  1  0  0  0
 18 19  2  0  0  0
 18100  1  0  0  0
 19 20  1  0  0  0
 19 24  1  0  0  0
 20 21  2  0  0  0
 20101  1  0  0  0
 21 23  1  0  0  0
 22 28  1  0  0  0
 22 32  2  0  0  0
 26 27  1  0  0  0
 28102  1  0  0  0
 28103  1  0  0  0
 29104  1  0  0  0
 29105  1  0  0  0
 33 34  1  0  0  0
 33 66  1  0  0  0
 33 70  2  0  0  0
 34 36  1  0  0  0
 34 59  1  0  0  0
 34106  1  0  0  0
 35 44  2  0  0  0
 35 45  1  0  0  0
 35 68  1  0  0  0
 36 56  1  0  0  0
 36107  1  0  0  0
 37 39  1  0  0  0
 37 47  1  0  0  0
 37 66  1  0  0  0
 37108  1  0  0  0
 38 43  2  0  0  0
 38 46  1  0  0  0
 38 47  1  0  0  0
 39 64  1  0  0  0
 39 67  2  0  0  0
 40 52  1  0  0  0
 40 53  2  0  0  0
 40 58  1  0  0  0
 41109  1  0  0  0
 41110  1  0  0  0
 41111  1  0  0  0
 41 48  1  0  0  0
 42 43  1  0  0  0
 42 66  1  0  0  0
 42112  1  0  0  0
 42113  1  0  0  0
 43 44  1  0  0  0
 44114  1  0  0  0
 45 46  2  0  0  0
 45115  1  0  0  0
 46116  1  0  0  0
 47117  1  0  0  0
 47118  1  0  0  0
 48 56  1  0  0  0
 48 65  1  0  0  0
 48119  1  0  0  0
 49 50  1  0  0  0
 49 53  1  0  0  0
 49 64  1  0  0  0
 49120  1  0  0  0
 50 51  1  0  0  0
 50121  1  0  0  0
 50122  1  0  0  0
 51 52  1  0  0  0
 51123  1  0  0  0
 51124  1  0  0  0
 52125  1  0  0  0
 52126  1  0  0  0
 53 54  1  0  0  0
 54 55  2  0  0  0
 54127  1  0  0  0
 55 57  1  0  0  0
 55128  1  0  0  0
 56 69  2  0  0  0
 57 58  2  0  0  0
 57129  1  0  0  0
 58130  1  0  0  0
 59 60  1  0  0  0
 59 61  1  0  0  0
 59 62  1  0  0  0
 60131  1  0  0  0
 60132  1  0  0  0
 60133  1  0  0  0
 61134  1  0  0  0
 61135  1  0  0  0
 61136  1  0  0  0
 62137  1  0  0  0
 62138  1  0  0  0
 62139  1  0  0  0
 63 65  1  0  0  0
 63140  1  0  0  0
 63141  1  0  0  0
 63142  1  0  0  0
 64143  1  0  0  0
 65144  1  0  0  0
 68 80  1  0  0  0
 71 72  2  0  0  0
 71 75  1  0  0  0
 71145  1  0  0  0
 72 76  1  0  0  0
 72146  1  0  0  0
 73 74  1  0  0  0
 73 75  2  0  0  0
 73147  1  0  0  0
 74 76  2  0  0  0
 74 77  1  0  0  0
 75 82  1  0  0  0
 76 83  1  0  0  0
 77 84  2  0  0  0
 77 85  1  0  0  0
 78 79  1  0  0  0
 78 80  1  0  0  0
 78148  1  0  0  0
 78149  1  0  0  0
 79 81  1  0  0  0
 79150  1  0  0  0
 79151  1  0  0  0
 80152  1  0  0  0
 80153  1  0  0  0
 81 85  1  0  0  0
 81154  1  0  0  0
 81155  1  0  0  0
 82156  1  0  0  0
 82157  1  0  0  0
 83158  1  0  0  0
M  ISO  4   1 100  68 101  80 101  83 100
M  END
> <chiral flag>
0

> <version>
0

> <s_m_source_file>
/data/baiqing/PycharmProjects/Reinvent-master-3.2/result/LINK_invent/BTK/process_docking_weight1_custom_product_contain_oxygen_bond_distance_aromatic_linkinvent_7_9_3/rearranged_h_0101.sdf

> <i_m_source_file_index>
74

> <r_mmod_Potential_Energy-OPLS-2005>
134.652496337891

> <r_mmod_Stretch_Energy-OPLS-2005>
79.5185546875

> <r_mmod_Bend_Energy-OPLS-2005>
159.218322753906

> <r_mmod_Torsional_Energy-OPLS-2005>
323.846923828125

> <r_mmod_Improper_Torsional_Energy-OPLS-2005>
8.97756290435791

> <r_mmod_Van_der_Waal_Energy-OPLS-2005>
149.757873535156

> <r_mmod_Electrostatic_Energy-OPLS-2005>
-405.182098388672

> <r_mmod_Solvation_Energy-OPLS-2005>
-225.89225769043

> <b_mmod_Minimization_Converged-OPLS-2005>
0

> <r_mmod_RMS_Derivative-OPLS-2005>
7.39097499847412

$$$$
74
                    3D
 Structure written by MMmdl.
161170  0  0  1  0            999 V2000
  -30.6789  -14.6212   20.5873 C   0  0  0  0  0  0
  -30.4296  -12.4089   19.4547 C   0  0  0  0  0  0
  -29.5039  -12.5280   18.2259 C   0  0  0  0  0  0
  -28.0274  -12.3574   18.6309 C   0  0  0  0  0  0
  -27.6502  -13.2212   19.8613 C   0  0  2  0  0  0
  -28.6881  -13.0633   20.9884 C   0  0  0  0  0  0
  -25.2529  -13.8186   20.5667 C   0  0  0  0  0  0
  -24.1803  -13.0436   20.9163 C   0  0  0  0  0  0
  -24.6391  -11.6910   20.8709 C   0  0  0  0  0  0
  -23.9074  -10.4290   21.0382 C   0  0  0  0  0  0
  -24.3621   -9.4209   21.9166 C   0  0  0  0  0  0
  -23.6300   -8.2242   22.0751 C   0  0  0  0  0  0
  -22.4281   -8.0278   21.3537 C   0  0  0  0  0  0
  -21.9918   -9.0248   20.4636 C   0  0  0  0  0  0
  -22.7246  -10.2126   20.3042 C   0  0  0  0  0  0
  -21.6851   -6.0737   22.5282 C   0  0  0  0  0  0
  -21.4007   -6.5639   23.8218 C   0  0  0  0  0  0
  -21.3660   -5.6794   24.9176 C   0  0  0  0  0  0
  -21.6051   -4.3059   24.7235 C   0  0  0  0  0  0
  -21.8818   -3.8150   23.4350 C   0  0  0  0  0  0
  -21.9187   -4.6965   22.3407 C   0  0  0  0  0  0
  -22.7828  -13.5217   21.1854 C   0  0  0  0  0  0
  -22.1655   -4.2154   21.0982 F   0  0  0  0  0  0
  -21.5635   -3.4538   25.7741 F   0  0  0  0  0  0
  -30.0096  -13.4255   20.4458 N   0  0  0  0  0  0
  -26.2959  -12.9374   20.3292 N   0  0  0  0  0  0
  -25.9315  -11.6516   20.5718 N   0  0  0  0  0  0
  -22.0503  -12.8189   22.0415 N   0  0  0  0  0  0
  -25.4225  -15.1918   20.4114 N   0  0  0  0  0  0
  -31.7857  -14.7780   20.0611 O   0  0  0  0  0  0
  -21.6641   -6.8882   21.4246 O   0  0  0  0  0  0
  -22.3495  -14.5528   20.6725 O   0  0  0  0  0  0
  -24.6277  -31.8590   23.2043 C   0  0  0  0  0  0
  -25.9127  -32.4773   23.8376 C   0  0  1  0  0  0
  -27.2262  -27.3286   20.1187 C   0  0  0  0  0  0
  -25.5940  -33.8575   24.2303 N   0  0  0  0  0  0
  -23.4201  -30.4831   21.5457 C   0  0  2  0  0  0
  -24.8654  -28.9371   20.1136 C   0  0  0  0  0  0
  -22.7473  -29.4633   22.4952 C   0  0  0  0  0  0
  -18.0279  -28.1397   22.8493 C   0  0  0  0  0  0
  -24.1473  -36.7278   23.2650 C   0  0  0  0  0  0
  -25.9597  -30.7956   21.3705 C   0  0  0  0  0  0
  -26.0347  -29.4229   20.7136 C   0  0  0  0  0  0
  -27.2214  -28.6329   20.6990 C   0  0  0  0  0  0
  -26.0362  -26.8910   19.4993 C   0  0  0  0  0  0
  -24.8686  -27.6769   19.4948 C   0  0  0  0  0  0
  -23.6326  -29.8161   20.1615 C   0  0  0  0  0  0
  -25.4106  -36.3086   24.0337 C   0  0  1  0  0  0
  -20.5877  -28.3702   23.1284 C   0  0  2  0  0  0
  -20.6758  -26.9424   22.5415 C   0  0  0  0  0  0
  -19.5728  -26.6394   21.5221 C   0  0  0  0  0  0
  -18.1907  -26.7942   22.1624 C   0  0  0  0  0  0
  -19.1532  -28.8870   23.2880 C   0  0  0  0  0  0
  -18.9457  -30.1474   23.8900 C   0  0  0  0  0  0
  -17.6453  -30.6596   24.0578 C   0  0  0  0  0  0
  -25.9045  -34.9453   23.5115 C   0  0  0  0  0  0
  -16.5350  -29.9095   23.6341 C   0  0  0  0  0  0
  -16.7267  -28.6513   23.0368 C   0  0  0  0  0  0
  -26.4515  -31.6589   25.0751 C   0  0  0  0  0  0
  -25.3761  -31.3686   26.1485 C   0  0  0  0  0  0
  -27.0388  -30.3033   24.6203 C   0  0  0  0  0  0
  -27.6075  -32.4334   25.7510 C   0  0  0  0  0  0
  -27.5567  -37.1800   24.8475 C   0  0  0  0  0  0
  -21.4188  -29.3047   22.3681 N   0  0  0  0  0  0
  -26.4281  -37.3785   23.9415 N   0  0  0  0  0  0
  -24.6879  -31.0622   22.0976 N   0  0  0  0  0  0
  -23.4197  -28.8175   23.3036 O   0  0  0  0  0  0
  -28.3501  -26.4931   20.1257 O   0  0  0  0  0  0
  -26.5605  -34.8921   22.4678 O   0  0  0  0  0  0
  -23.5438  -32.1381   23.7381 O   0  0  0  0  0  0
  -29.0189  -19.3844   21.2162 C   0  0  0  0  0  0
  -29.1976  -18.0221   21.6077 C   0  0  0  0  0  0
  -30.4358  -17.5823   19.6109 C   0  0  0  0  0  0
  -29.5336  -19.9001   19.9992 C   0  0  0  0  0  0
  -29.9056  -17.0603   20.8211 C   0  0  0  0  0  0
  -30.2784  -18.9472   19.2252 C   0  0  0  0  0  0
  -28.2260  -23.7846   18.3170 C   0  0  0  0  0  0
  -27.9942  -22.3931   17.7391 C   0  0  0  0  0  0
  -29.1341  -21.4346   18.1062 C   0  0  0  0  0  0
  -28.8554  -22.4199   20.4136 C   0  0  0  0  0  0
  -28.8374  -23.8781   19.7236 C   0  0  2  0  0  0
  -29.9681  -15.4465   22.7351 C   0  0  0  0  0  0
  -28.1741  -25.0801   20.5479 C   0  0  0  0  0  0
  -29.2945  -21.2623   19.5559 N   0  0  0  0  0  0
  -30.0793  -15.6584   21.2815 N   0  0  0  0  0  0
  -27.9429  -24.7861   17.6524 O   0  0  0  0  0  0
  -30.8871  -19.3326   18.0763 F   0  0  0  0  0  0
  -31.4715  -12.5272   19.1526 H   0  0  0  0  0  0
  -30.3636  -11.4101   19.8884 H   0  0  0  0  0  0
  -29.7716  -11.7836   17.4751 H   0  0  0  0  0  0
  -29.6458  -13.5023   17.7563 H   0  0  0  0  0  0
  -27.8654  -11.3030   18.8555 H   0  0  0  0  0  0
  -27.3742  -12.5934   17.7900 H   0  0  0  0  0  0
  -27.6747  -14.2618   19.5365 H   0  0  0  0  0  0
  -28.7042  -12.0344   21.3491 H   0  0  0  0  0  0
  -28.3887  -13.6620   21.8438 H   0  0  0  0  0  0
  -25.2770   -9.5680   22.4729 H   0  0  0  0  0  0
  -24.0016   -7.4634   22.7472 H   0  0  0  0  0  0
  -21.0851   -8.8763   19.8935 H   0  0  0  0  0  0
  -22.3714  -10.9657   19.6146 H   0  0  0  0  0  0
  -21.1993   -7.6141   23.9733 H   0  0  0  0  0  0
  -21.1480   -6.0513   25.9087 H   0  0  0  0  0  0
  -22.0591   -2.7612   23.2855 H   0  0  0  0  0  0
  -22.4139  -11.9854   22.4786 H   0  0  0  0  0  0
  -21.1114  -13.1166   22.2655 H   0  0  0  0  0  0
  -24.6570  -15.8468   20.5280 H   0  0  0  0  0  0
  -26.2826  -15.6347   20.1122 H   0  0  0  0  0  0
  -26.7205  -32.5440   23.1138 H   0  0  0  0  0  0
  -25.0139  -33.9724   25.0487 H   0  0  0  0  0  0
  -22.7158  -31.3050   21.4018 H   0  0  0  0  0  0
  -23.3740  -35.9602   23.3332 H   0  0  0  0  0  0
  -24.3558  -36.8880   22.2060 H   0  0  0  0  0  0
  -23.7219  -37.6481   23.6660 H   0  0  0  0  0  0
  -26.0876  -31.5591   20.6018 H   0  0  0  0  0  0
  -26.8418  -30.8462   21.9971 H   0  0  0  0  0  0
  -28.1231  -29.0071   21.1626 H   0  0  0  0  0  0
  -25.9998  -25.9266   19.0152 H   0  0  0  0  0  0
  -23.9752  -27.3011   19.0150 H   0  0  0  0  0  0
  -23.7498  -30.5920   19.4032 H   0  0  0  0  0  0
  -22.7524  -29.2450   19.8610 H   0  0  0  0  0  0
  -25.1284  -36.1943   25.0830 H   0  0  0  0  0  0
  -20.9972  -28.3280   24.1404 H   0  0  0  0  0  0
  -20.5658  -26.2322   23.3623 H   0  0  0  0  0  0
  -21.6625  -26.7447   22.1209 H   0  0  0  0  0  0
  -19.6882  -25.6306   21.1251 H   0  0  0  0  0  0
  -19.6660  -27.3209   20.6752 H   0  0  0  0  0  0
  -17.4182  -26.6738   21.4016 H   0  0  0  0  0  0
  -18.0278  -26.0083   22.9008 H   0  0  0  0  0  0
  -19.7930  -30.7300   24.2266 H   0  0  0  0  0  0
  -17.5001  -31.6270   24.5192 H   0  0  0  0  0  0
  -15.5351  -30.2998   23.7662 H   0  0  0  0  0  0
  -15.8670  -28.0834   22.7090 H   0  0  0  0  0  0
  -24.5956  -30.7011   25.7818 H   0  0  0  0  0  0
  -24.8930  -32.2824   26.4950 H   0  0  0  0  0  0
  -25.8117  -30.8853   27.0242 H   0  0  0  0  0  0
  -26.2972  -29.6739   24.1271 H   0  0  0  0  0  0
  -27.4156  -29.7333   25.4707 H   0  0  0  0  0  0
  -27.8797  -30.4355   23.9391 H   0  0  0  0  0  0
  -27.2705  -33.3652   26.2066 H   0  0  0  0  0  0
  -28.3889  -32.6867   25.0330 H   0  0  0  0  0  0
  -28.0742  -31.8475   26.5440 H   0  0  0  0  0  0
  -28.2604  -38.0080   24.7513 H   0  0  0  0  0  0
  -28.1044  -36.2612   24.6316 H   0  0  0  0  0  0
  -27.2282  -37.1475   25.8880 H   0  0  0  0  0  0
  -20.9387  -29.8773   21.6874 H   0  0  0  0  0  0
  -26.0155  -38.2851   24.1438 H   0  0  0  0  0  0
  -28.4464  -20.0299   21.8650 H   0  0  0  0  0  0
  -28.7540  -17.7274   22.5479 H   0  0  0  0  0  0
  -31.0099  -16.9471   18.9530 H   0  0  0  0  0  0
  -27.9086  -22.4720   16.6548 H   0  0  0  0  0  0
  -27.0414  -22.0105   18.1059 H   0  0  0  0  0  0
  -30.0747  -21.7906   17.6813 H   0  0  0  0  0  0
  -28.9096  -20.4850   17.6178 H   0  0  0  0  0  0
  -27.8580  -22.2031   20.7986 H   0  0  0  0  0  0
  -29.5100  -22.4618   21.2854 H   0  0  0  0  0  0
  -29.8798  -24.1532   19.5642 H   0  0  0  0  0  0
  -28.9291  -15.5071   23.0614 H   0  0  0  0  0  0
  -30.5367  -16.2030   23.2773 H   0  0  0  0  0  0
  -30.3560  -14.4806   23.0674 H   0  0  0  0  0  0
  -28.6029  -25.0420   21.5497 H   0  0  0  0  0  0
  -27.1213  -24.8444   20.7099 H   0  0  0  0  0  0
  1 25  1  0  0  0
  1 30  2  0  0  0
  1 85  1  0  0  0
  2  3  1  0  0  0
  2 25  1  0  0  0
  2 88  1  0  0  0
  2 89  1  0  0  0
  3  4  1  0  0  0
  3 90  1  0  0  0
  3 91  1  0  0  0
  4  5  1  0  0  0
  4 92  1  0  0  0
  4 93  1  0  0  0
  5  6  1  0  0  0
  5 26  1  0  0  0
  5 94  1  0  0  0
  6 25  1  0  0  0
  6 95  1  0  0  0
  6 96  1  0  0  0
  7  8  2  0  0  0
  7 26  1  0  0  0
  7 29  1  0  0  0
  8  9  1  0  0  0
  8 22  1  0  0  0
  9 10  1  0  0  0
  9 27  2  0  0  0
 10 11  2  0  0  0
 10 15  1  0  0  0
 11 12  1  0  0  0
 11 97  1  0  0  0
 12 13  2  0  0  0
 12 98  1  0  0  0
 13 14  1  0  0  0
 13 31  1  0  0  0
 14 15  2  0  0  0
 14 99  1  0  0  0
 15100  1  0  0  0
 16 17  2  0  0  0
 16 21  1  0  0  0
 16 31  1  0  0  0
 17 18  1  0  0  0
 17101  1  0  0  0
 18 19  2  0  0  0
 18102  1  0  0  0
 19 20  1  0  0  0
 19 24  1  0  0  0
 20 21  2  0  0  0
 20103  1  0  0  0
 21 23  1  0  0  0
 22 28  1  0  0  0
 22 32  2  0  0  0
 26 27  1  0  0  0
 28104  1  0  0  0
 28105  1  0  0  0
 29106  1  0  0  0
 29107  1  0  0  0
 33 34  1  0  0  0
 33 66  1  0  0  0
 33 70  2  0  0  0
 34 36  1  0  0  0
 34 59  1  0  0  0
 34108  1  0  0  0
 35 44  2  0  0  0
 35 45  1  0  0  0
 35 68  1  0  0  0
 36 56  1  0  0  0
 36109  1  0  0  0
 37 39  1  0  0  0
 37 47  1  0  0  0
 37 66  1  0  0  0
 37110  1  0  0  0
 38 43  2  0  0  0
 38 46  1  0  0  0
 38 47  1  0  0  0
 39 64  1  0  0  0
 39 67  2  0  0  0
 40 52  1  0  0  0
 40 53  2  0  0  0
 40 58  1  0  0  0
 41111  1  0  0  0
 41112  1  0  0  0
 41113  1  0  0  0
 41 48  1  0  0  0
 42 43  1  0  0  0
 42 66  1  0  0  0
 42114  1  0  0  0
 42115  1  0  0  0
 43 44  1  0  0  0
 44116  1  0  0  0
 45 46  2  0  0  0
 45117  1  0  0  0
 46118  1  0  0  0
 47119  1  0  0  0
 47120  1  0  0  0
 48 56  1  0  0  0
 48 65  1  0  0  0
 48121  1  0  0  0
 49 50  1  0  0  0
 49 53  1  0  0  0
 49 64  1  0  0  0
 49122  1  0  0  0
 50 51  1  0  0  0
 50123  1  0  0  0
 50124  1  0  0  0
 51 52  1  0  0  0
 51125  1  0  0  0
 51126  1  0  0  0
 52127  1  0  0  0
 52128  1  0  0  0
 53 54  1  0  0  0
 54 55  2  0  0  0
 54129  1  0  0  0
 55 57  1  0  0  0
 55130  1  0  0  0
 56 69  2  0  0  0
 57 58  2  0  0  0
 57131  1  0  0  0
 58132  1  0  0  0
 59 60  1  0  0  0
 59 61  1  0  0  0
 59 62  1  0  0  0
 60133  1  0  0  0
 60134  1  0  0  0
 60135  1  0  0  0
 61136  1  0  0  0
 61137  1  0  0  0
 61138  1  0  0  0
 62139  1  0  0  0
 62140  1  0  0  0
 62141  1  0  0  0
 63 65  1  0  0  0
 63142  1  0  0  0
 63143  1  0  0  0
 63144  1  0  0  0
 64145  1  0  0  0
 65146  1  0  0  0
 68 83  1  0  0  0
 71 72  2  0  0  0
 71 74  1  0  0  0
 71147  1  0  0  0
 72 75  1  0  0  0
 72148  1  0  0  0
 73 75  2  0  0  0
 73 76  1  0  0  0
 73149  1  0  0  0
 74 76  2  0  0  0
 74 84  1  0  0  0
 75 85  1  0  0  0
 76 87  1  0  0  0
 77 78  1  0  0  0
 77 81  1  0  0  0
 77 86  2  0  0  0
 78 79  1  0  0  0
 78150  1  0  0  0
 78151  1  0  0  0
 79 84  1  0  0  0
 79152  1  0  0  0
 79153  1  0  0  0
 80 81  1  0  0  0
 80 84  1  0  0  0
 80154  1  0  0  0
 80155  1  0  0  0
 81 83  1  0  0  0
 81156  1  0  0  0
 82 85  1  0  0  0
 82157  1  0  0  0
 82158  1  0  0  0
 82159  1  0  0  0
 83160  1  0  0  0
 83161  1  0  0  0
M  ISO  4   1 100  68 101  83 101  85 100
M  END
> <chiral flag>
0

> <version>
0

> <s_m_source_file>
/data/baiqing/PycharmProjects/Reinvent-master-3.2/result/LINK_invent/BTK/process_docking_weight1_custom_product_contain_oxygen_bond_distance_aromatic_linkinvent_7_9_3/rearranged_h_0101.sdf

> <i_m_source_file_index>
75

> <r_mmod_Potential_Energy-OPLS-2005>
250.976226806641

> <r_mmod_Stretch_Energy-OPLS-2005>
97.674934387207

> <r_mmod_Bend_Energy-OPLS-2005>
158.206527709961

> <r_mmod_Torsional_Energy-OPLS-2005>
272.347198486328

> <r_mmod_Improper_Torsional_Energy-OPLS-2005>
3.40184330940247

> <r_mmod_Van_der_Waal_Energy-OPLS-2005>
165.815185546875

> <r_mmod_Electrostatic_Energy-OPLS-2005>
-268.104522705078

> <r_mmod_Solvation_Energy-OPLS-2005>
-218.941680908203

> <b_mmod_Minimization_Converged-OPLS-2005>
0

> <r_mmod_RMS_Derivative-OPLS-2005>
1.61787962913513

$$$$
75
                    3D
 Structure written by MMmdl.
153161  0  0  1  0            999 V2000
  -30.4760  -14.9889   20.4211 C   0  0  0  0  0  0
  -30.4490  -12.6152   19.5165 C   0  0  0  0  0  0
  -29.5342  -12.5638   18.2681 C   0  0  0  0  0  0
  -28.0644  -12.3339   18.6734 C   0  0  0  0  0  0
  -27.6368  -13.2386   19.8585 C   0  0  2  0  0  0
  -28.6751  -13.2084   20.9966 C   0  0  0  0  0  0
  -25.2512  -13.8171   20.5738 C   0  0  0  0  0  0
  -24.1783  -13.0400   20.9144 C   0  0  0  0  0  0
  -24.6388  -11.6892   20.8709 C   0  0  0  0  0  0
  -23.9067  -10.4282   21.0379 C   0  0  0  0  0  0
  -24.3606   -9.4214   21.9177 C   0  0  0  0  0  0
  -23.6280   -8.2250   22.0762 C   0  0  0  0  0  0
  -22.4273   -8.0278   21.3538 C   0  0  0  0  0  0
  -21.9893   -9.0253   20.4647 C   0  0  0  0  0  0
  -22.7224  -10.2125   20.3051 C   0  0  0  0  0  0
  -21.6859   -6.0725   22.5276 C   0  0  0  0  0  0
  -21.4017   -6.5631   23.8205 C   0  0  0  0  0  0
  -21.3666   -5.6788   24.9167 C   0  0  0  0  0  0
  -21.6042   -4.3048   24.7223 C   0  0  0  0  0  0
  -21.8824   -3.8138   23.4343 C   0  0  0  0  0  0
  -21.9197   -4.6954   22.3398 C   0  0  0  0  0  0
  -22.7826  -13.5201   21.1850 C   0  0  0  0  0  0
  -22.1669   -4.2134   21.0978 F   0  0  0  0  0  0
  -21.5627   -3.4542   25.7741 F   0  0  0  0  0  0
  -29.9412  -13.6897   20.4253 N   0  0  0  0  0  0
  -26.2927  -12.9368   20.3322 N   0  0  0  0  0  0
  -25.9330  -11.6511   20.5723 N   0  0  0  0  0  0
  -22.0497  -12.8192   22.0410 N   0  0  0  0  0  0
  -25.4273  -15.1894   20.4351 N   0  0  0  0  0  0
  -31.6647  -15.0800   20.0820 O   0  0  0  0  0  0
  -21.6636   -6.8868   21.4233 O   0  0  0  0  0  0
  -22.3525  -14.5540   20.6745 O   0  0  0  0  0  0
  -24.6433  -31.8435   23.1919 C   0  0  0  0  0  0
  -25.9212  -32.4690   23.8281 C   0  0  1  0  0  0
  -27.2115  -27.1279   20.1627 C   0  0  0  0  0  0
  -25.5980  -33.8499   24.2182 N   0  0  0  0  0  0
  -23.4500  -30.4587   21.5384 C   0  0  2  0  0  0
  -24.8984  -28.8882   20.1125 C   0  0  0  0  0  0
  -22.7561  -29.4502   22.4902 C   0  0  0  0  0  0
  -18.0304  -28.1383   22.8477 C   0  0  0  0  0  0
  -24.1512  -36.7241   23.2640 C   0  0  0  0  0  0
  -26.0037  -30.7151   21.3955 C   0  0  0  0  0  0
  -26.0761  -29.3268   20.7323 C   0  0  0  0  0  0
  -27.2352  -28.4615   20.7420 C   0  0  0  0  0  0
  -26.0156  -26.7985   19.4916 C   0  0  0  0  0  0
  -24.8811  -27.6378   19.4754 C   0  0  0  0  0  0
  -23.6778  -29.7943   20.1562 C   0  0  0  0  0  0
  -25.4146  -36.3002   24.0298 C   0  0  1  0  0  0
  -20.5913  -28.3695   23.1266 C   0  0  2  0  0  0
  -20.6807  -26.9410   22.5423 C   0  0  0  0  0  0
  -19.5768  -26.6368   21.5249 C   0  0  0  0  0  0
  -18.1928  -26.7925   22.1623 C   0  0  0  0  0  0
  -19.1556  -28.8860   23.2853 C   0  0  0  0  0  0
  -18.9476  -30.1458   23.8858 C   0  0  0  0  0  0
  -17.6476  -30.6587   24.0537 C   0  0  0  0  0  0
  -25.9087  -34.9386   23.5041 C   0  0  0  0  0  0
  -16.5368  -29.9065   23.6340 C   0  0  0  0  0  0
  -16.7294  -28.6493   23.0352 C   0  0  0  0  0  0
  -26.4534  -31.6579   25.0731 C   0  0  0  0  0  0
  -25.3717  -31.3762   26.1417 C   0  0  0  0  0  0
  -27.0456  -30.2990   24.6344 C   0  0  0  0  0  0
  -27.6041  -32.4372   25.7517 C   0  0  0  0  0  0
  -27.5582  -37.1767   24.8454 C   0  0  0  0  0  0
  -21.4263  -29.3019   22.3641 N   0  0  0  0  0  0
  -26.4300  -37.3727   23.9391 N   0  0  0  0  0  0
  -24.7184  -31.0263   22.0974 N   0  0  0  0  0  0
  -23.4191  -28.8045   23.3062 O   0  0  0  0  0  0
  -28.2611  -26.1362   20.1986 O   0  0  0  0  0  0
  -26.5661  -34.8886   22.4614 O   0  0  0  0  0  0
  -23.5547  -32.1335   23.7120 O   0  0  0  0  0  0
  -30.7905  -18.1275   19.2219 C   0  0  0  0  0  0
  -31.0462  -19.4152   18.6957 C   0  0  0  0  0  0
  -29.1265  -19.1666   20.6291 C   0  0  0  0  0  0
  -29.8253  -17.9026   20.2253 C   0  0  0  0  0  0
  -30.3626  -20.5887   19.1085 C   0  0  0  0  0  0
  -29.3569  -20.5503   20.1116 C   0  0  0  0  0  0
  -29.5469  -16.3769   20.7232 C   0  0  0  0  0  0
  -30.4440  -21.8567   17.1362 C   0  0  0  0  0  0
  -27.9797  -24.6234   20.5001 C   0  0  0  0  0  0
  -28.8483  -23.2481   20.0211 C   0  0  0  0  0  0
  -28.4859  -16.2685   21.4054 N   0  0  0  0  0  0
  -30.7049  -21.7826   18.5313 O   0  0  0  0  0  0
  -28.6511  -21.7804   20.5249 O   0  0  0  0  0  0
  -31.4827  -12.7907   19.2175 H   0  0  0  0  0  0
  -30.4553  -11.6504   20.0257 H   0  0  0  0  0  0
  -29.8682  -11.7799   17.5882 H   0  0  0  0  0  0
  -29.6204  -13.5033   17.7193 H   0  0  0  0  0  0
  -27.9683  -11.2860   18.9625 H   0  0  0  0  0  0
  -27.4029  -12.4813   17.8190 H   0  0  0  0  0  0
  -27.6149  -14.2563   19.4672 H   0  0  0  0  0  0
  -28.7810  -12.1980   21.3979 H   0  0  0  0  0  0
  -28.3594  -13.8133   21.8446 H   0  0  0  0  0  0
  -25.2749   -9.5699   22.4748 H   0  0  0  0  0  0
  -23.9986   -7.4656   22.7506 H   0  0  0  0  0  0
  -21.0814   -8.8781   19.8963 H   0  0  0  0  0  0
  -22.3684  -10.9669   19.6165 H   0  0  0  0  0  0
  -21.2015   -7.6144   23.9697 H   0  0  0  0  0  0
  -21.1481   -6.0524   25.9066 H   0  0  0  0  0  0
  -22.0593   -2.7599   23.2855 H   0  0  0  0  0  0
  -22.4102  -11.9806   22.4716 H   0  0  0  0  0  0
  -21.1153  -13.1269   22.2702 H   0  0  0  0  0  0
  -24.6876  -15.8521   20.6370 H   0  0  0  0  0  0
  -26.3470  -15.6174   20.3832 H   0  0  0  0  0  0
  -26.7239  -32.5291   23.0964 H   0  0  0  0  0  0
  -25.0126  -33.9627   25.0328 H   0  0  0  0  0  0
  -22.7526  -31.2838   21.3848 H   0  0  0  0  0  0
  -23.3783  -35.9568   23.3285 H   0  0  0  0  0  0
  -24.3585  -36.8927   22.2061 H   0  0  0  0  0  0
  -23.7271  -37.6422   23.6716 H   0  0  0  0  0  0
  -26.1646  -31.4798   20.6347 H   0  0  0  0  0  0
  -26.8679  -30.7543   22.0463 H   0  0  0  0  0  0
  -28.1325  -28.7848   21.2513 H   0  0  0  0  0  0
  -25.9364  -25.8512   18.9797 H   0  0  0  0  0  0
  -23.9851  -27.2980   18.9724 H   0  0  0  0  0  0
  -23.8150  -30.5738   19.4055 H   0  0  0  0  0  0
  -22.7923  -29.2397   19.8410 H   0  0  0  0  0  0
  -25.1327  -36.1829   25.0788 H   0  0  0  0  0  0
  -20.9968  -28.3297   24.1413 H   0  0  0  0  0  0
  -20.5786  -26.2289   23.3630 H   0  0  0  0  0  0
  -21.6655  -26.7481   22.1163 H   0  0  0  0  0  0
  -19.6951  -25.6288   21.1273 H   0  0  0  0  0  0
  -19.6727  -27.3182   20.6775 H   0  0  0  0  0  0
  -17.4233  -26.6704   21.3995 H   0  0  0  0  0  0
  -18.0256  -26.0084   22.9015 H   0  0  0  0  0  0
  -19.7971  -30.7246   24.2235 H   0  0  0  0  0  0
  -17.5053  -31.6266   24.5112 H   0  0  0  0  0  0
  -15.5368  -30.2923   23.7735 H   0  0  0  0  0  0
  -15.8694  -28.0793   22.7082 H   0  0  0  0  0  0
  -24.5887  -30.7132   25.7701 H   0  0  0  0  0  0
  -24.8914  -32.2942   26.4803 H   0  0  0  0  0  0
  -25.7984  -30.8934   27.0222 H   0  0  0  0  0  0
  -26.3121  -29.6648   24.1338 H   0  0  0  0  0  0
  -27.4062  -29.7323   25.4940 H   0  0  0  0  0  0
  -27.9011  -30.4220   23.9699 H   0  0  0  0  0  0
  -27.2616  -33.3697   26.2007 H   0  0  0  0  0  0
  -28.3885  -32.6916   25.0380 H   0  0  0  0  0  0
  -28.0656  -31.8575   26.5513 H   0  0  0  0  0  0
  -28.2535  -38.0114   24.7502 H   0  0  0  0  0  0
  -28.1132  -36.2623   24.6278 H   0  0  0  0  0  0
  -27.2267  -37.1391   25.8848 H   0  0  0  0  0  0
  -20.9492  -29.8764   21.6834 H   0  0  0  0  0  0
  -26.0161  -38.2791   24.1443 H   0  0  0  0  0  0
  -31.3473  -17.2952   18.8162 H   0  0  0  0  0  0
  -31.8097  -19.4983   17.9371 H   0  0  0  0  0  0
  -28.3570  -19.0770   21.3814 H   0  0  0  0  0  0
  -30.4937  -22.8992   16.8218 H   0  0  0  0  0  0
  -29.4421  -21.4910   16.8976 H   0  0  0  0  0  0
  -31.1742  -21.2978   16.5507 H   0  0  0  0  0  0
  -27.9838  -24.5888   21.5892 H   0  0  0  0  0  0
  -26.9403  -24.4159   20.2511 H   0  0  0  0  0  0
  -29.8985  -23.4843   20.1937 H   0  0  0  0  0  0
  -28.7250  -23.2104   18.9386 H   0  0  0  0  0  0
  -28.0382  -17.1694   21.5158 H   0  0  0  0  0  0
  1 25  1  0  0  0
  1 30  2  0  0  0
  1 77  1  0  0  0
  2  3  1  0  0  0
  2 25  1  0  0  0
  2 84  1  0  0  0
  2 85  1  0  0  0
  3  4  1  0  0  0
  3 86  1  0  0  0
  3 87  1  0  0  0
  4  5  1  0  0  0
  4 88  1  0  0  0
  4 89  1  0  0  0
  5  6  1  0  0  0
  5 26  1  0  0  0
  5 90  1  0  0  0
  6 25  1  0  0  0
  6 91  1  0  0  0
  6 92  1  0  0  0
  7  8  2  0  0  0
  7 26  1  0  0  0
  7 29  1  0  0  0
  8  9  1  0  0  0
  8 22  1  0  0  0
  9 10  1  0  0  0
  9 27  2  0  0  0
 10 11  2  0  0  0
 10 15  1  0  0  0
 11 12  1  0  0  0
 11 93  1  0  0  0
 12 13  2  0  0  0
 12 94  1  0  0  0
 13 14  1  0  0  0
 13 31  1  0  0  0
 14 15  2  0  0  0
 14 95  1  0  0  0
 15 96  1  0  0  0
 16 17  2  0  0  0
 16 21  1  0  0  0
 16 31  1  0  0  0
 17 18  1  0  0  0
 17 97  1  0  0  0
 18 19  2  0  0  0
 18 98  1  0  0  0
 19 20  1  0  0  0
 19 24  1  0  0  0
 20 21  2  0  0  0
 20 99  1  0  0  0
 21 23  1  0  0  0
 22 28  1  0  0  0
 22 32  2  0  0  0
 26 27  1  0  0  0
 28100  1  0  0  0
 28101  1  0  0  0
 29102  1  0  0  0
 29103  1  0  0  0
 33 34  1  0  0  0
 33 66  1  0  0  0
 33 70  2  0  0  0
 34 36  1  0  0  0
 34 59  1  0  0  0
 34104  1  0  0  0
 35 44  2  0  0  0
 35 45  1  0  0  0
 35 68  1  0  0  0
 36 56  1  0  0  0
 36105  1  0  0  0
 37 39  1  0  0  0
 37 47  1  0  0  0
 37 66  1  0  0  0
 37106  1  0  0  0
 38 43  2  0  0  0
 38 46  1  0  0  0
 38 47  1  0  0  0
 39 64  1  0  0  0
 39 67  2  0  0  0
 40 52  1  0  0  0
 40 53  2  0  0  0
 40 58  1  0  0  0
 41107  1  0  0  0
 41108  1  0  0  0
 41109  1  0  0  0
 41 48  1  0  0  0
 42 43  1  0  0  0
 42 66  1  0  0  0
 42110  1  0  0  0
 42111  1  0  0  0
 43 44  1  0  0  0
 44112  1  0  0  0
 45 46  2  0  0  0
 45113  1  0  0  0
 46114  1  0  0  0
 47115  1  0  0  0
 47116  1  0  0  0
 48 56  1  0  0  0
 48 65  1  0  0  0
 48117  1  0  0  0
 49 50  1  0  0  0
 49 53  1  0  0  0
 49 64  1  0  0  0
 49118  1  0  0  0
 50 51  1  0  0  0
 50119  1  0  0  0
 50120  1  0  0  0
 51 52  1  0  0  0
 51121  1  0  0  0
 51122  1  0  0  0
 52123  1  0  0  0
 52124  1  0  0  0
 53 54  1  0  0  0
 54 55  2  0  0  0
 54125  1  0  0  0
 55 57  1  0  0  0
 55126  1  0  0  0
 56 69  2  0  0  0
 57 58  2  0  0  0
 57127  1  0  0  0
 58128  1  0  0  0
 59 60  1  0  0  0
 59 61  1  0  0  0
 59 62  1  0  0  0
 60129  1  0  0  0
 60130  1  0  0  0
 60131  1  0  0  0
 61132  1  0  0  0
 61133  1  0  0  0
 61134  1  0  0  0
 62135  1  0  0  0
 62136  1  0  0  0
 62137  1  0  0  0
 63 65  1  0  0  0
 63138  1  0  0  0
 63139  1  0  0  0
 63140  1  0  0  0
 64141  1  0  0  0
 65142  1  0  0  0
 68 79  1  0  0  0
 71 72  2  0  0  0
 71 74  1  0  0  0
 71143  1  0  0  0
 72 75  1  0  0  0
 72144  1  0  0  0
 73 74  2  0  0  0
 73 76  1  0  0  0
 73145  1  0  0  0
 74 77  1  0  0  0
 75 76  2  0  0  0
 75 82  1  0  0  0
 76 83  1  0  0  0
 77 81  2  0  0  0
 78 82  1  0  0  0
 78146  1  0  0  0
 78147  1  0  0  0
 78148  1  0  0  0
 79 80  1  0  0  0
 79149  1  0  0  0
 79150  1  0  0  0
 80 83  1  0  0  0
 80151  1  0  0  0
 80152  1  0  0  0
 81153  1  0  0  0
M  ISO  4   1 100  68 101  77 100  79 101
M  END
> <chiral flag>
0

> <version>
0

> <s_m_source_file>
/data/baiqing/PycharmProjects/Reinvent-master-3.2/result/LINK_invent/BTK/process_docking_weight1_custom_product_contain_oxygen_bond_distance_aromatic_linkinvent_7_9_3/rearranged_h_0101.sdf

> <i_m_source_file_index>
76

> <r_mmod_Potential_Energy-OPLS-2005>
712.896728515625

> <r_mmod_Stretch_Energy-OPLS-2005>
310.005706787109

> <r_mmod_Bend_Energy-OPLS-2005>
276.604064941406

> <r_mmod_Torsional_Energy-OPLS-2005>
222.074554443359

> <r_mmod_Improper_Torsional_Energy-OPLS-2005>
3.45935583114624

> <r_mmod_Van_der_Waal_Energy-OPLS-2005>
144.668563842773

> <r_mmod_Electrostatic_Energy-OPLS-2005>
-248.059921264648

> <r_mmod_Solvation_Energy-OPLS-2005>
-203.240417480469

> <b_mmod_Minimization_Converged-OPLS-2005>
0

> <r_mmod_RMS_Derivative-OPLS-2005>
3.25217008590698

$$$$
76
                    3D
 Structure written by MMmdl.
160169  0  0  1  0            999 V2000
  -30.6159  -14.6464   20.5040 C   0  0  0  0  0  0
  -30.4442  -12.4023   19.4407 C   0  0  0  0  0  0
  -29.5082  -12.5122   18.2162 C   0  0  0  0  0  0
  -28.0300  -12.3480   18.6260 C   0  0  0  0  0  0
  -27.6522  -13.2142   19.8570 C   0  0  2  0  0  0
  -28.6998  -13.0679   20.9837 C   0  0  0  0  0  0
  -25.2553  -13.8167   20.5660 C   0  0  0  0  0  0
  -24.1818  -13.0430   20.9167 C   0  0  0  0  0  0
  -24.6378  -11.6903   20.8716 C   0  0  0  0  0  0
  -23.9042  -10.4283   21.0393 C   0  0  0  0  0  0
  -24.3602   -9.4197   21.9180 C   0  0  0  0  0  0
  -23.6283   -8.2227   22.0755 C   0  0  0  0  0  0
  -22.4272   -8.0260   21.3542 C   0  0  0  0  0  0
  -21.9899   -9.0225   20.4646 C   0  0  0  0  0  0
  -22.7213  -10.2109   20.3045 C   0  0  0  0  0  0
  -21.6847   -6.0728   22.5287 C   0  0  0  0  0  0
  -21.4007   -6.5640   23.8216 C   0  0  0  0  0  0
  -21.3649   -5.6784   24.9175 C   0  0  0  0  0  0
  -21.6039   -4.3048   24.7221 C   0  0  0  0  0  0
  -21.8834   -3.8148   23.4342 C   0  0  0  0  0  0
  -21.9196   -4.6963   22.3400 C   0  0  0  0  0  0
  -22.7841  -13.5220   21.1836 C   0  0  0  0  0  0
  -22.1666   -4.2158   21.0976 F   0  0  0  0  0  0
  -21.5619   -3.4522   25.7724 F   0  0  0  0  0  0
  -30.0139  -13.4177   20.4207 N   0  0  0  0  0  0
  -26.2983  -12.9347   20.3281 N   0  0  0  0  0  0
  -25.9307  -11.6502   20.5722 N   0  0  0  0  0  0
  -22.0481  -12.8244   22.0416 N   0  0  0  0  0  0
  -25.4175  -15.1903   20.4122 N   0  0  0  0  0  0
  -31.7892  -14.8170   20.1586 O   0  0  0  0  0  0
  -21.6627   -6.8872   21.4254 O   0  0  0  0  0  0
  -22.3516  -14.5505   20.6643 O   0  0  0  0  0  0
  -24.6295  -31.8602   23.2050 C   0  0  0  0  0  0
  -25.9146  -32.4766   23.8372 C   0  0  1  0  0  0
  -27.2142  -27.3142   20.1019 C   0  0  0  0  0  0
  -25.5963  -33.8566   24.2306 N   0  0  0  0  0  0
  -23.4200  -30.4891   21.5483 C   0  0  2  0  0  0
  -24.8610  -28.9461   20.1098 C   0  0  0  0  0  0
  -22.7469  -29.4654   22.4946 C   0  0  0  0  0  0
  -18.0285  -28.1381   22.8487 C   0  0  0  0  0  0
  -24.1485  -36.7271   23.2641 C   0  0  0  0  0  0
  -25.9646  -30.7869   21.3776 C   0  0  0  0  0  0
  -26.0343  -29.4172   20.7131 C   0  0  0  0  0  0
  -27.2135  -28.6128   20.7001 C   0  0  0  0  0  0
  -26.0135  -26.9006   19.4755 C   0  0  0  0  0  0
  -24.8531  -27.6923   19.4835 C   0  0  0  0  0  0
  -23.6312  -29.8281   20.1622 C   0  0  0  0  0  0
  -25.4107  -36.3073   24.0346 C   0  0  1  0  0  0
  -20.5884  -28.3692   23.1267 C   0  0  2  0  0  0
  -20.6765  -26.9420   22.5397 C   0  0  0  0  0  0
  -19.5749  -26.6389   21.5195 C   0  0  0  0  0  0
  -18.1932  -26.7927   22.1607 C   0  0  0  0  0  0
  -19.1537  -28.8851   23.2872 C   0  0  0  0  0  0
  -18.9461  -30.1448   23.8900 C   0  0  0  0  0  0
  -17.6459  -30.6587   24.0555 C   0  0  0  0  0  0
  -25.9059  -34.9448   23.5119 C   0  0  0  0  0  0
  -16.5349  -29.9079   23.6337 C   0  0  0  0  0  0
  -16.7270  -28.6490   23.0371 C   0  0  0  0  0  0
  -26.4529  -31.6568   25.0744 C   0  0  0  0  0  0
  -25.3756  -31.3687   26.1458 C   0  0  0  0  0  0
  -27.0376  -30.2993   24.6207 C   0  0  0  0  0  0
  -27.6115  -32.4284   25.7498 C   0  0  0  0  0  0
  -27.5586  -37.1782   24.8467 C   0  0  0  0  0  0
  -21.4182  -29.3050   22.3664 N   0  0  0  0  0  0
  -26.4281  -37.3777   23.9435 N   0  0  0  0  0  0
  -24.6906  -31.0616   22.0998 N   0  0  0  0  0  0
  -23.4193  -28.8201   23.3028 O   0  0  0  0  0  0
  -28.3274  -26.4541   20.1497 O   0  0  0  0  0  0
  -26.5609  -34.8921   22.4678 O   0  0  0  0  0  0
  -23.5461  -32.1410   23.7376 O   0  0  0  0  0  0
  -28.8174  -19.2987   20.0551 C   0  0  0  0  0  0
  -30.9620  -17.9061   21.2077 C   0  0  0  0  0  0
  -29.8490  -20.0890   20.6329 C   0  0  0  0  0  0
  -28.8383  -17.8682   20.0763 C   0  0  0  0  0  0
  -30.9366  -19.3366   21.1926 C   0  0  0  0  0  0
  -29.9058  -17.1366   20.6612 C   0  0  0  0  0  0
  -29.4672  -23.6951   21.7332 C   0  0  0  0  0  0
  -30.1726  -22.3201   21.8303 C   0  0  0  0  0  0
  -28.9208  -22.4124   19.8259 C   0  0  0  0  0  0
  -29.1969  -23.9120   20.2426 C   0  0  1  0  0  0
  -28.0962  -25.0093   19.8945 C   0  0  0  0  0  0
  -29.8032  -21.5419   20.6431 N   0  0  0  0  0  0
  -27.7856  -17.1525   19.5010 N   0  0  0  0  0  0
  -32.0374  -20.0020   21.7317 N   0  0  0  0  0  0
  -29.7763  -15.6869   20.7901 N   0  0  0  0  0  0
  -31.4810  -12.5462   19.1317 H   0  0  0  0  0  0
  -30.3950  -11.4044   19.8785 H   0  0  0  0  0  0
  -29.7795  -11.7642   17.4702 H   0  0  0  0  0  0
  -29.6446  -13.4831   17.7362 H   0  0  0  0  0  0
  -27.8601  -11.2938   18.8468 H   0  0  0  0  0  0
  -27.3789  -12.5867   17.7838 H   0  0  0  0  0  0
  -27.6666  -14.2488   19.5176 H   0  0  0  0  0  0
  -28.7144  -12.0450   21.3612 H   0  0  0  0  0  0
  -28.4431  -13.6986   21.8360 H   0  0  0  0  0  0
  -25.2734   -9.5682   22.4770 H   0  0  0  0  0  0
  -23.9985   -7.4625   22.7489 H   0  0  0  0  0  0
  -21.0817   -8.8720   19.8971 H   0  0  0  0  0  0
  -22.3642  -10.9638   19.6153 H   0  0  0  0  0  0
  -21.2000   -7.6154   23.9712 H   0  0  0  0  0  0
  -21.1454   -6.0519   25.9075 H   0  0  0  0  0  0
  -22.0626   -2.7616   23.2820 H   0  0  0  0  0  0
  -22.4071  -11.9873   22.4782 H   0  0  0  0  0  0
  -21.1114  -13.1302   22.2629 H   0  0  0  0  0  0
  -24.6350  -15.8253   20.5208 H   0  0  0  0  0  0
  -26.2682  -15.6730   20.1316 H   0  0  0  0  0  0
  -26.7213  -32.5427   23.1115 H   0  0  0  0  0  0
  -25.0150  -33.9701   25.0477 H   0  0  0  0  0  0
  -22.7161  -31.3124   21.4097 H   0  0  0  0  0  0
  -23.3770  -35.9576   23.3264 H   0  0  0  0  0  0
  -24.3598  -36.8922   22.2068 H   0  0  0  0  0  0
  -23.7199  -37.6455   23.6664 H   0  0  0  0  0  0
  -26.1014  -31.5527   20.6131 H   0  0  0  0  0  0
  -26.8439  -30.8270   22.0094 H   0  0  0  0  0  0
  -28.1131  -28.9675   21.1822 H   0  0  0  0  0  0
  -25.9305  -25.9459   18.9780 H   0  0  0  0  0  0
  -23.9527  -27.3266   19.0082 H   0  0  0  0  0  0
  -23.7469  -30.6069   19.4070 H   0  0  0  0  0  0
  -22.7487  -29.2584   19.8639 H   0  0  0  0  0  0
  -25.1275  -36.1927   25.0837 H   0  0  0  0  0  0
  -20.9987  -28.3263   24.1377 H   0  0  0  0  0  0
  -20.5649  -26.2312   23.3595 H   0  0  0  0  0  0
  -21.6636  -26.7440   22.1198 H   0  0  0  0  0  0
  -19.6911  -25.6291   21.1245 H   0  0  0  0  0  0
  -19.6702  -27.3181   20.6709 H   0  0  0  0  0  0
  -17.4208  -26.6681   21.4003 H   0  0  0  0  0  0
  -18.0340  -26.0059   22.8994 H   0  0  0  0  0  0
  -19.7937  -30.7248   24.2290 H   0  0  0  0  0  0
  -17.5021  -31.6278   24.5132 H   0  0  0  0  0  0
  -15.5351  -30.2978   23.7662 H   0  0  0  0  0  0
  -15.8665  -28.0796   22.7109 H   0  0  0  0  0  0
  -24.5957  -30.7016   25.7766 H   0  0  0  0  0  0
  -24.8917  -32.2835   26.4888 H   0  0  0  0  0  0
  -25.8084  -30.8861   27.0227 H   0  0  0  0  0  0
  -26.2947  -29.6718   24.1269 H   0  0  0  0  0  0
  -27.4107  -29.7283   25.4720 H   0  0  0  0  0  0
  -27.8806  -30.4274   23.9412 H   0  0  0  0  0  0
  -27.2774  -33.3608   26.2050 H   0  0  0  0  0  0
  -28.3929  -32.6784   25.0310 H   0  0  0  0  0  0
  -28.0762  -31.8405   26.5419 H   0  0  0  0  0  0
  -28.2570  -38.0113   24.7574 H   0  0  0  0  0  0
  -28.1115  -36.2655   24.6201 H   0  0  0  0  0  0
  -27.2322  -37.1315   25.8871 H   0  0  0  0  0  0
  -20.9364  -29.8758   21.6859 H   0  0  0  0  0  0
  -26.0165  -38.2851   24.1456 H   0  0  0  0  0  0
  -27.9754  -19.7964   19.5997 H   0  0  0  0  0  0
  -31.7895  -17.3927   21.6762 H   0  0  0  0  0  0
  -30.0623  -24.4987   22.1673 H   0  0  0  0  0  0
  -28.5225  -23.6617   22.2781 H   0  0  0  0  0  0
  -29.9072  -21.8039   22.7546 H   0  0  0  0  0  0
  -31.2501  -22.4860   21.8387 H   0  0  0  0  0  0
  -29.1010  -22.2614   18.7605 H   0  0  0  0  0  0
  -27.8777  -22.1545   20.0190 H   0  0  0  0  0  0
  -30.1297  -24.2156   19.7656 H   0  0  0  0  0  0
  -27.1848  -24.7032   20.4120 H   0  0  0  0  0  0
  -27.8901  -24.9044   18.8279 H   0  0  0  0  0  0
  -27.1466  -17.7006   18.9335 H   0  0  0  0  0  0
  -28.0873  -16.3324   18.9895 H   0  0  0  0  0  0
  -32.9283  -19.5195   21.7154 H   0  0  0  0  0  0
  -32.1140  -20.9668   21.4297 H   0  0  0  0  0  0
  -28.8209  -15.3940   20.9259 H   0  0  0  0  0  0
  1 25  1  0  0  0
  1 30  2  0  0  0
  1 85  1  0  0  0
  2  3  1  0  0  0
  2 25  1  0  0  0
  2 86  1  0  0  0
  2 87  1  0  0  0
  3  4  1  0  0  0
  3 88  1  0  0  0
  3 89  1  0  0  0
  4  5  1  0  0  0
  4 90  1  0  0  0
  4 91  1  0  0  0
  5  6  1  0  0  0
  5 26  1  0  0  0
  5 92  1  0  0  0
  6 25  1  0  0  0
  6 93  1  0  0  0
  6 94  1  0  0  0
  7  8  2  0  0  0
  7 26  1  0  0  0
  7 29  1  0  0  0
  8  9  1  0  0  0
  8 22  1  0  0  0
  9 10  1  0  0  0
  9 27  2  0  0  0
 10 11  2  0  0  0
 10 15  1  0  0  0
 11 12  1  0  0  0
 11 95  1  0  0  0
 12 13  2  0  0  0
 12 96  1  0  0  0
 13 14  1  0  0  0
 13 31  1  0  0  0
 14 15  2  0  0  0
 14 97  1  0  0  0
 15 98  1  0  0  0
 16 17  2  0  0  0
 16 21  1  0  0  0
 16 31  1  0  0  0
 17 18  1  0  0  0
 17 99  1  0  0  0
 18 19  2  0  0  0
 18100  1  0  0  0
 19 20  1  0  0  0
 19 24  1  0  0  0
 20 21  2  0  0  0
 20101  1  0  0  0
 21 23  1  0  0  0
 22 28  1  0  0  0
 22 32  2  0  0  0
 26 27  1  0  0  0
 28102  1  0  0  0
 28103  1  0  0  0
 29104  1  0  0  0
 29105  1  0  0  0
 33 34  1  0  0  0
 33 66  1  0  0  0
 33 70  2  0  0  0
 34 36  1  0  0  0
 34 59  1  0  0  0
 34106  1  0  0  0
 35 44  2  0  0  0
 35 45  1  0  0  0
 35 68  1  0  0  0
 36 56  1  0  0  0
 36107  1  0  0  0
 37 39  1  0  0  0
 37 47  1  0  0  0
 37 66  1  0  0  0
 37108  1  0  0  0
 38 43  2  0  0  0
 38 46  1  0  0  0
 38 47  1  0  0  0
 39 64  1  0  0  0
 39 67  2  0  0  0
 40 52  1  0  0  0
 40 53  2  0  0  0
 40 58  1  0  0  0
 41109  1  0  0  0
 41110  1  0  0  0
 41111  1  0  0  0
 41 48  1  0  0  0
 42 43  1  0  0  0
 42 66  1  0  0  0
 42112  1  0  0  0
 42113  1  0  0  0
 43 44  1  0  0  0
 44114  1  0  0  0
 45 46  2  0  0  0
 45115  1  0  0  0
 46116  1  0  0  0
 47117  1  0  0  0
 47118  1  0  0  0
 48 56  1  0  0  0
 48 65  1  0  0  0
 48119  1  0  0  0
 49 50  1  0  0  0
 49 53  1  0  0  0
 49 64  1  0  0  0
 49120  1  0  0  0
 50 51  1  0  0  0
 50121  1  0  0  0
 50122  1  0  0  0
 51 52  1  0  0  0
 51123  1  0  0  0
 51124  1  0  0  0
 52125  1  0  0  0
 52126  1  0  0  0
 53 54  1  0  0  0
 54 55  2  0  0  0
 54127  1  0  0  0
 55 57  1  0  0  0
 55128  1  0  0  0
 56 69  2  0  0  0
 57 58  2  0  0  0
 57129  1  0  0  0
 58130  1  0  0  0
 59 60  1  0  0  0
 59 61  1  0  0  0
 59 62  1  0  0  0
 60131  1  0  0  0
 60132  1  0  0  0
 60133  1  0  0  0
 61134  1  0  0  0
 61135  1  0  0  0
 61136  1  0  0  0
 62137  1  0  0  0
 62138  1  0  0  0
 62139  1  0  0  0
 63 65  1  0  0  0
 63140  1  0  0  0
 63141  1  0  0  0
 63142  1  0  0  0
 64143  1  0  0  0
 65144  1  0  0  0
 68 81  1  0  0  0
 71 73  2  0  0  0
 71 74  1  0  0  0
 71145  1  0  0  0
 72 75  2  0  0  0
 72 76  1  0  0  0
 72146  1  0  0  0
 73 75  1  0  0  0
 73 82  1  0  0  0
 74 76  2  0  0  0
 74 83  1  0  0  0
 75 84  1  0  0  0
 76 85  1  0  0  0
 77 78  1  0  0  0
 77 80  1  0  0  0
 77147  1  0  0  0
 77148  1  0  0  0
 78 82  1  0  0  0
 78149  1  0  0  0
 78150  1  0  0  0
 79 80  1  0  0  0
 79 82  1  0  0  0
 79151  1  0  0  0
 79152  1  0  0  0
 80 81  1  0  0  0
 80153  1  0  0  0
 81154  1  0  0  0
 81155  1  0  0  0
 83156  1  0  0  0
 83157  1  0  0  0
 84158  1  0  0  0
 84159  1  0  0  0
 85160  1  0  0  0
M  ISO  4   1 100  68 101  81 101  85 100
M  END
> <chiral flag>
0

> <version>
0

> <s_m_source_file>
/data/baiqing/PycharmProjects/Reinvent-master-3.2/result/LINK_invent/BTK/process_docking_weight1_custom_product_contain_oxygen_bond_distance_aromatic_linkinvent_7_9_3/rearranged_h_0101.sdf

> <i_m_source_file_index>
77

> <r_mmod_Potential_Energy-OPLS-2005>
38.2591934204102

> <r_mmod_Stretch_Energy-OPLS-2005>
79.7545394897461

> <r_mmod_Bend_Energy-OPLS-2005>
180.257659912109

> <r_mmod_Torsional_Energy-OPLS-2005>
290.666076660156

> <r_mmod_Improper_Torsional_Energy-OPLS-2005>
16.896312713623

> <r_mmod_Van_der_Waal_Energy-OPLS-2005>
150.187484741211

> <r_mmod_Electrostatic_Energy-OPLS-2005>
-498.501312255859

> <r_mmod_Solvation_Energy-OPLS-2005>
-233.072158813477

> <b_mmod_Minimization_Converged-OPLS-2005>
0

> <r_mmod_RMS_Derivative-OPLS-2005>
2.0045473575592

$$$$
77
                    3D
 Structure written by MMmdl.
159167  0  0  1  0            999 V2000
  -30.7693  -14.4172   20.5950 C   0  0  0  0  0  0
  -30.3974  -12.2875   19.4122 C   0  0  0  0  0  0
  -29.4740  -12.4872   18.1968 C   0  0  0  0  0  0
  -27.9995  -12.3514   18.6206 C   0  0  0  0  0  0
  -27.6504  -13.2076   19.8670 C   0  0  2  0  0  0
  -28.6963  -13.0216   20.9890 C   0  0  0  0  0  0
  -25.2541  -13.8153   20.5695 C   0  0  0  0  0  0
  -24.1809  -13.0425   20.9203 C   0  0  0  0  0  0
  -24.6370  -11.6890   20.8756 C   0  0  0  0  0  0
  -23.9028  -10.4278   21.0411 C   0  0  0  0  0  0
  -24.3584   -9.4201   21.9189 C   0  0  0  0  0  0
  -23.6264   -8.2233   22.0756 C   0  0  0  0  0  0
  -22.4249   -8.0272   21.3549 C   0  0  0  0  0  0
  -21.9886   -9.0242   20.4654 C   0  0  0  0  0  0
  -22.7202  -10.2122   20.3067 C   0  0  0  0  0  0
  -21.6845   -6.0723   22.5286 C   0  0  0  0  0  0
  -21.4009   -6.5632   23.8218 C   0  0  0  0  0  0
  -21.3660   -5.6794   24.9189 C   0  0  0  0  0  0
  -21.6044   -4.3051   24.7241 C   0  0  0  0  0  0
  -21.8810   -3.8138   23.4363 C   0  0  0  0  0  0
  -21.9185   -4.6953   22.3414 C   0  0  0  0  0  0
  -22.7841  -13.5232   21.1855 C   0  0  0  0  0  0
  -22.1651   -4.2133   21.0991 F   0  0  0  0  0  0
  -21.5633   -3.4537   25.7749 F   0  0  0  0  0  0
  -30.0231  -13.2951   20.4165 N   0  0  0  0  0  0
  -26.2961  -12.9322   20.3370 N   0  0  0  0  0  0
  -25.9297  -11.6476   20.5795 N   0  0  0  0  0  0
  -22.0459  -12.8244   22.0415 N   0  0  0  0  0  0
  -25.4286  -15.1869   20.4081 N   0  0  0  0  0  0
  -31.9132  -14.5084   20.1390 O   0  0  0  0  0  0
  -21.6630   -6.8861   21.4242 O   0  0  0  0  0  0
  -22.3537  -14.5549   20.6711 O   0  0  0  0  0  0
  -24.6130  -31.8680   23.2123 C   0  0  0  0  0  0
  -25.9027  -32.4829   23.8401 C   0  0  1  0  0  0
  -27.2351  -27.4539   20.0930 C   0  0  0  0  0  0
  -25.5888  -33.8623   24.2337 N   0  0  0  0  0  0
  -23.3999  -30.4937   21.5522 C   0  0  2  0  0  0
  -24.8474  -28.9653   20.1125 C   0  0  0  0  0  0
  -22.7407  -29.4658   22.4999 C   0  0  0  0  0  0
  -18.0269  -28.1377   22.8496 C   0  0  0  0  0  0
  -24.1486  -36.7319   23.2638 C   0  0  0  0  0  0
  -25.9254  -30.8459   21.3571 C   0  0  0  0  0  0
  -26.0069  -29.4819   20.7036 C   0  0  0  0  0  0
  -27.2062  -28.7352   20.6864 C   0  0  0  0  0  0
  -26.0583  -26.9527   19.4892 C   0  0  0  0  0  0
  -24.8672  -27.7010   19.5010 C   0  0  0  0  0  0
  -23.6068  -29.8277   20.1656 C   0  0  0  0  0  0
  -25.4103  -36.3115   24.0343 C   0  0  1  0  0  0
  -20.5856  -28.3652   23.1325 C   0  0  2  0  0  0
  -20.6753  -26.9381   22.5423 C   0  0  0  0  0  0
  -19.5737  -26.6383   21.5212 C   0  0  0  0  0  0
  -18.1916  -26.7924   22.1626 C   0  0  0  0  0  0
  -19.1516  -28.8833   23.2912 C   0  0  0  0  0  0
  -18.9445  -30.1443   23.8914 C   0  0  0  0  0  0
  -17.6447  -30.6580   24.0567 C   0  0  0  0  0  0
  -25.9027  -34.9478   23.5140 C   0  0  0  0  0  0
  -16.5338  -29.9085   23.6321 C   0  0  0  0  0  0
  -16.7257  -28.6506   23.0336 C   0  0  0  0  0  0
  -26.4473  -31.6595   25.0708 C   0  0  0  0  0  0
  -25.3759  -31.3667   26.1475 C   0  0  0  0  0  0
  -27.0293  -30.3054   24.6023 C   0  0  0  0  0  0
  -27.6064  -32.4302   25.7461 C   0  0  0  0  0  0
  -27.5579  -37.1814   24.8466 C   0  0  0  0  0  0
  -21.4133  -29.3030   22.3744 N   0  0  0  0  0  0
  -26.4294  -37.3796   23.9413 N   0  0  0  0  0  0
  -24.6643  -31.0817   22.1008 N   0  0  0  0  0  0
  -23.4187  -28.8172   23.3012 O   0  0  0  0  0  0
  -28.4028  -26.7225   20.1192 O   0  0  0  0  0  0
  -26.5582  -34.8928   22.4697 O   0  0  0  0  0  0
  -23.5330  -32.1406   23.7545 O   0  0  0  0  0  0
  -29.4612  -19.5149   19.2574 C   0  0  0  0  0  0
  -29.7579  -20.6099   20.0870 C   0  0  0  0  0  0
  -30.4362  -19.0724   21.8374 C   0  0  0  0  0  0
  -30.2162  -17.9566   20.9939 C   0  0  0  0  0  0
  -29.6991  -18.1894   19.6834 C   0  0  0  0  0  0
  -30.2238  -20.3974   21.4009 C   0  0  0  0  0  0
  -30.7728  -16.6244   21.4491 C   0  0  0  0  0  0
  -30.3053  -22.7278   22.4135 C   0  0  0  0  0  0
  -29.4686  -17.0851   18.6609 C   0  0  0  0  0  0
  -29.0911  -23.3611   21.7138 C   0  0  0  0  0  0
  -29.4394  -24.7009   21.0220 C   0  0  0  0  0  0
  -28.2463  -25.3068   20.2646 C   0  0  0  0  0  0
  -30.6539  -21.4356   22.2722 N   0  0  0  0  0  0
  -30.1346  -15.4898   21.1094 N   0  0  0  0  0  0
  -31.8140  -16.6236   22.1187 O   0  0  0  0  0  0
  -30.9746  -23.4380   23.1646 O   0  0  0  0  0  0
  -31.4420  -12.3499   19.1020 H   0  0  0  0  0  0
  -30.2723  -11.2856   19.8264 H   0  0  0  0  0  0
  -29.7040  -11.7536   17.4221 H   0  0  0  0  0  0
  -29.6453  -13.4687   17.7534 H   0  0  0  0  0  0
  -27.8146  -11.2979   18.8351 H   0  0  0  0  0  0
  -27.3386  -12.6087   17.7924 H   0  0  0  0  0  0
  -27.6836  -14.2487   19.5483 H   0  0  0  0  0  0
  -28.6645  -12.0007   21.3728 H   0  0  0  0  0  0
  -28.4708  -13.6638   21.8419 H   0  0  0  0  0  0
  -25.2708   -9.5680   22.4788 H   0  0  0  0  0  0
  -23.9962   -7.4623   22.7487 H   0  0  0  0  0  0
  -21.0812   -8.8770   19.8960 H   0  0  0  0  0  0
  -22.3649  -10.9676   19.6201 H   0  0  0  0  0  0
  -21.2007   -7.6140   23.9714 H   0  0  0  0  0  0
  -21.1487   -6.0532   25.9092 H   0  0  0  0  0  0
  -22.0588   -2.7594   23.2882 H   0  0  0  0  0  0
  -22.4021  -11.9888   22.4812 H   0  0  0  0  0  0
  -21.1106  -13.1350   22.2610 H   0  0  0  0  0  0
  -24.6619  -15.8419   20.5184 H   0  0  0  0  0  0
  -26.2762  -15.6246   20.0711 H   0  0  0  0  0  0
  -26.7095  -32.5565   23.1171 H   0  0  0  0  0  0
  -25.0063  -33.9787   25.0499 H   0  0  0  0  0  0
  -22.6869  -31.3096   21.4147 H   0  0  0  0  0  0
  -23.3742  -35.9661   23.3315 H   0  0  0  0  0  0
  -24.3577  -36.8912   22.2048 H   0  0  0  0  0  0
  -23.7248  -37.6535   23.6637 H   0  0  0  0  0  0
  -26.0244  -31.6131   20.5875 H   0  0  0  0  0  0
  -26.8189  -30.9075   21.9667 H   0  0  0  0  0  0
  -28.1018  -29.1313   21.1443 H   0  0  0  0  0  0
  -26.0486  -25.9862   19.0058 H   0  0  0  0  0  0
  -23.9764  -27.3005   19.0376 H   0  0  0  0  0  0
  -23.7117  -30.6015   19.4053 H   0  0  0  0  0  0
  -22.7320  -29.2448   19.8713 H   0  0  0  0  0  0
  -25.1279  -36.1985   25.0837 H   0  0  0  0  0  0
  -20.9954  -28.3211   24.1448 H   0  0  0  0  0  0
  -20.5638  -26.2250   23.3605 H   0  0  0  0  0  0
  -21.6624  -26.7419   22.1218 H   0  0  0  0  0  0
  -19.6883  -25.6301   21.1225 H   0  0  0  0  0  0
  -19.6678  -27.3209   20.6751 H   0  0  0  0  0  0
  -17.4179  -26.6672   21.4034 H   0  0  0  0  0  0
  -18.0318  -26.0063   22.9018 H   0  0  0  0  0  0
  -19.7916  -30.7260   24.2284 H   0  0  0  0  0  0
  -17.4996  -31.6257   24.5169 H   0  0  0  0  0  0
  -15.5338  -30.2988   23.7640 H   0  0  0  0  0  0
  -15.8657  -28.0841   22.7023 H   0  0  0  0  0  0
  -24.5928  -30.7022   25.7804 H   0  0  0  0  0  0
  -24.8965  -32.2812   26.4978 H   0  0  0  0  0  0
  -25.8150  -30.8791   27.0191 H   0  0  0  0  0  0
  -26.2803  -29.6815   24.1133 H   0  0  0  0  0  0
  -27.4158  -29.7287   25.4436 H   0  0  0  0  0  0
  -27.8596  -30.4402   23.9085 H   0  0  0  0  0  0
  -27.2690  -33.3578   26.2100 H   0  0  0  0  0  0
  -28.3842  -32.6898   25.0265 H   0  0  0  0  0  0
  -28.0766  -31.8380   26.5325 H   0  0  0  0  0  0
  -28.2612  -38.0096   24.7502 H   0  0  0  0  0  0
  -28.1062  -36.2632   24.6311 H   0  0  0  0  0  0
  -27.2295  -37.1480   25.8869 H   0  0  0  0  0  0
  -20.9276  -29.8777   21.6998 H   0  0  0  0  0  0
  -26.0185  -38.2878   24.1420 H   0  0  0  0  0  0
  -29.1100  -19.7085   18.2529 H   0  0  0  0  0  0
  -29.6688  -21.5994   19.6663 H   0  0  0  0  0  0
  -30.8630  -18.9076   22.8182 H   0  0  0  0  0  0
  -29.1327  -17.4883   17.7056 H   0  0  0  0  0  0
  -28.6979  -16.3944   19.0007 H   0  0  0  0  0  0
  -30.3868  -16.5288   18.4689 H   0  0  0  0  0  0
  -28.3583  -23.5616   22.4968 H   0  0  0  0  0  0
  -28.5769  -22.6864   21.0387 H   0  0  0  0  0  0
  -29.7636  -25.4073   21.7879 H   0  0  0  0  0  0
  -30.2851  -24.5793   20.3440 H   0  0  0  0  0  0
  -27.3396  -25.0786   20.8291 H   0  0  0  0  0  0
  -28.1438  -24.8402   19.2828 H   0  0  0  0  0  0
  -31.3711  -21.1551   22.9270 H   0  0  0  0  0  0
  -29.1314  -15.5123   21.0391 H   0  0  0  0  0  0
  1 25  1  0  0  0
  1 30  2  0  0  0
  1 84  1  0  0  0
  2  3  1  0  0  0
  2 25  1  0  0  0
  2 87  1  0  0  0
  2 88  1  0  0  0
  3  4  1  0  0  0
  3 89  1  0  0  0
  3 90  1  0  0  0
  4  5  1  0  0  0
  4 91  1  0  0  0
  4 92  1  0  0  0
  5  6  1  0  0  0
  5 26  1  0  0  0
  5 93  1  0  0  0
  6 25  1  0  0  0
  6 94  1  0  0  0
  6 95  1  0  0  0
  7  8  2  0  0  0
  7 26  1  0  0  0
  7 29  1  0  0  0
  8  9  1  0  0  0
  8 22  1  0  0  0
  9 10  1  0  0  0
  9 27  2  0  0  0
 10 11  2  0  0  0
 10 15  1  0  0  0
 11 12  1  0  0  0
 11 96  1  0  0  0
 12 13  2  0  0  0
 12 97  1  0  0  0
 13 14  1  0  0  0
 13 31  1  0  0  0
 14 15  2  0  0  0
 14 98  1  0  0  0
 15 99  1  0  0  0
 16 17  2  0  0  0
 16 21  1  0  0  0
 16 31  1  0  0  0
 17 18  1  0  0  0
 17100  1  0  0  0
 18 19  2  0  0  0
 18101  1  0  0  0
 19 20  1  0  0  0
 19 24  1  0  0  0
 20 21  2  0  0  0
 20102  1  0  0  0
 21 23  1  0  0  0
 22 28  1  0  0  0
 22 32  2  0  0  0
 26 27  1  0  0  0
 28103  1  0  0  0
 28104  1  0  0  0
 29105  1  0  0  0
 29106  1  0  0  0
 33 34  1  0  0  0
 33 66  1  0  0  0
 33 70  2  0  0  0
 34 36  1  0  0  0
 34 59  1  0  0  0
 34107  1  0  0  0
 35 44  2  0  0  0
 35 45  1  0  0  0
 35 68  1  0  0  0
 36 56  1  0  0  0
 36108  1  0  0  0
 37 39  1  0  0  0
 37 47  1  0  0  0
 37 66  1  0  0  0
 37109  1  0  0  0
 38 43  2  0  0  0
 38 46  1  0  0  0
 38 47  1  0  0  0
 39 64  1  0  0  0
 39 67  2  0  0  0
 40 52  1  0  0  0
 40 53  2  0  0  0
 40 58  1  0  0  0
 41110  1  0  0  0
 41111  1  0  0  0
 41112  1  0  0  0
 41 48  1  0  0  0
 42 43  1  0  0  0
 42 66  1  0  0  0
 42113  1  0  0  0
 42114  1  0  0  0
 43 44  1  0  0  0
 44115  1  0  0  0
 45 46  2  0  0  0
 45116  1  0  0  0
 46117  1  0  0  0
 47118  1  0  0  0
 47119  1  0  0  0
 48 56  1  0  0  0
 48 65  1  0  0  0
 48120  1  0  0  0
 49 50  1  0  0  0
 49 53  1  0  0  0
 49 64  1  0  0  0
 49121  1  0  0  0
 50 51  1  0  0  0
 50122  1  0  0  0
 50123  1  0  0  0
 51 52  1  0  0  0
 51124  1  0  0  0
 51125  1  0  0  0
 52126  1  0  0  0
 52127  1  0  0  0
 53 54  1  0  0  0
 54 55  2  0  0  0
 54128  1  0  0  0
 55 57  1  0  0  0
 55129  1  0  0  0
 56 69  2  0  0  0
 57 58  2  0  0  0
 57130  1  0  0  0
 58131  1  0  0  0
 59 60  1  0  0  0
 59 61  1  0  0  0
 59 62  1  0  0  0
 60132  1  0  0  0
 60133  1  0  0  0
 60134  1  0  0  0
 61135  1  0  0  0
 61136  1  0  0  0
 61137  1  0  0  0
 62138  1  0  0  0
 62139  1  0  0  0
 62140  1  0  0  0
 63 65  1  0  0  0
 63141  1  0  0  0
 63142  1  0  0  0
 63143  1  0  0  0
 64144  1  0  0  0
 65145  1  0  0  0
 68 82  1  0  0  0
 71 72  2  0  0  0
 71 75  1  0  0  0
 71146  1  0  0  0
 72 76  1  0  0  0
 72147  1  0  0  0
 73 74  1  0  0  0
 73 76  2  0  0  0
 73148  1  0  0  0
 74 75  2  0  0  0
 74 77  1  0  0  0
 75 79  1  0  0  0
 76 83  1  0  0  0
 77 84  1  0  0  0
 77 85  2  0  0  0
 78 80  1  0  0  0
 78 83  1  0  0  0
 78 86  2  0  0  0
 79149  1  0  0  0
 79150  1  0  0  0
 79151  1  0  0  0
 80 81  1  0  0  0
 80152  1  0  0  0
 80153  1  0  0  0
 81 82  1  0  0  0
 81154  1  0  0  0
 81155  1  0  0  0
 82156  1  0  0  0
 82157  1  0  0  0
 83158  1  0  0  0
 84159  1  0  0  0
M  ISO  4   1 100  68 101  82 101  84 100
M  END
> <chiral flag>
0

> <version>
0

> <s_m_source_file>
/data/baiqing/PycharmProjects/Reinvent-master-3.2/result/LINK_invent/BTK/process_docking_weight1_custom_product_contain_oxygen_bond_distance_aromatic_linkinvent_7_9_3/rearranged_h_0101.sdf

> <i_m_source_file_index>
78

> <r_mmod_Potential_Energy-OPLS-2005>
-106.787467956543

> <r_mmod_Stretch_Energy-OPLS-2005>
35.6429786682129

> <r_mmod_Bend_Energy-OPLS-2005>
118.070678710938

> <r_mmod_Torsional_Energy-OPLS-2005>
288.385986328125

> <r_mmod_Improper_Torsional_Energy-OPLS-2005>
6.88213396072388

> <r_mmod_Van_der_Waal_Energy-OPLS-2005>
172.596649169922

> <r_mmod_Electrostatic_Energy-OPLS-2005>
-506.680450439453

> <r_mmod_Solvation_Energy-OPLS-2005>
-237.195953369141

> <b_mmod_Minimization_Converged-OPLS-2005>
0

> <r_mmod_RMS_Derivative-OPLS-2005>
2.22520685195923

$$$$
78
                    3D
 Structure written by MMmdl.
148156  0  0  1  0            999 V2000
  -30.5259  -14.9216   20.4134 C   0  0  0  0  0  0
  -30.4524  -12.5654   19.4816 C   0  0  0  0  0  0
  -29.5226  -12.5118   18.2461 C   0  0  0  0  0  0
  -28.0506  -12.3173   18.6630 C   0  0  0  0  0  0
  -27.6352  -13.2393   19.8388 C   0  0  2  0  0  0
  -28.6845  -13.2380   20.9706 C   0  0  0  0  0  0
  -25.2496  -13.8205   20.5704 C   0  0  0  0  0  0
  -24.1807  -13.0440   20.9244 C   0  0  0  0  0  0
  -24.6410  -11.6919   20.8767 C   0  0  0  0  0  0
  -23.9083  -10.4293   21.0422 C   0  0  0  0  0  0
  -24.3635   -9.4198   21.9190 C   0  0  0  0  0  0
  -23.6303   -8.2234   22.0754 C   0  0  0  0  0  0
  -22.4280   -8.0284   21.3544 C   0  0  0  0  0  0
  -21.9914   -9.0268   20.4656 C   0  0  0  0  0  0
  -22.7247  -10.2145   20.3073 C   0  0  0  0  0  0
  -21.6857   -6.0740   22.5276 C   0  0  0  0  0  0
  -21.4015   -6.5649   23.8207 C   0  0  0  0  0  0
  -21.3652   -5.6801   24.9174 C   0  0  0  0  0  0
  -21.6046   -4.3063   24.7225 C   0  0  0  0  0  0
  -21.8820   -3.8152   23.4345 C   0  0  0  0  0  0
  -21.9193   -4.6967   22.3400 C   0  0  0  0  0  0
  -22.7825  -13.5208   21.1894 C   0  0  0  0  0  0
  -22.1662   -4.2154   21.0977 F   0  0  0  0  0  0
  -21.5622   -3.4541   25.7731 F   0  0  0  0  0  0
  -29.9626  -13.6505   20.3723 N   0  0  0  0  0  0
  -26.2917  -12.9422   20.3241 N   0  0  0  0  0  0
  -25.9339  -11.6561   20.5754 N   0  0  0  0  0  0
  -22.0482  -12.8198   22.0465 N   0  0  0  0  0  0
  -25.4140  -15.1943   20.4105 N   0  0  0  0  0  0
  -31.7348  -15.0333   20.1803 O   0  0  0  0  0  0
  -21.6644   -6.8881   21.4237 O   0  0  0  0  0  0
  -22.3489  -14.5496   20.6725 O   0  0  0  0  0  0
  -24.6408  -31.8452   23.1889 C   0  0  0  0  0  0
  -25.9183  -32.4706   23.8278 C   0  0  1  0  0  0
  -27.2294  -27.1591   20.1574 C   0  0  0  0  0  0
  -25.5926  -33.8508   24.2191 N   0  0  0  0  0  0
  -23.4451  -30.4616   21.5342 C   0  0  2  0  0  0
  -24.8978  -28.8858   20.1178 C   0  0  0  0  0  0
  -22.7559  -29.4539   22.4878 C   0  0  0  0  0  0
  -18.0302  -28.1386   22.8484 C   0  0  0  0  0  0
  -24.1483  -36.7263   23.2638 C   0  0  0  0  0  0
  -25.9988  -30.7257   21.3851 C   0  0  0  0  0  0
  -26.0747  -29.3367   20.7310 C   0  0  0  0  0  0
  -27.2447  -28.4916   20.7289 C   0  0  0  0  0  0
  -26.0257  -26.7954   19.5190 C   0  0  0  0  0  0
  -24.8839  -27.6264   19.4971 C   0  0  0  0  0  0
  -23.6721  -29.7859   20.1556 C   0  0  0  0  0  0
  -25.4113  -36.3037   24.0315 C   0  0  1  0  0  0
  -20.5912  -28.3705   23.1245 C   0  0  2  0  0  0
  -20.6783  -26.9411   22.5404 C   0  0  0  0  0  0
  -19.5751  -26.6369   21.5218 C   0  0  0  0  0  0
  -18.1940  -26.7919   22.1644 C   0  0  0  0  0  0
  -19.1558  -28.8868   23.2852 C   0  0  0  0  0  0
  -18.9477  -30.1468   23.8869 C   0  0  0  0  0  0
  -17.6474  -30.6585   24.0555 C   0  0  0  0  0  0
  -25.9069  -34.9414   23.5067 C   0  0  0  0  0  0
  -16.5365  -29.9078   23.6335 C   0  0  0  0  0  0
  -16.7287  -28.6495   23.0359 C   0  0  0  0  0  0
  -26.4521  -31.6579   25.0719 C   0  0  0  0  0  0
  -25.3720  -31.3770   26.1428 C   0  0  0  0  0  0
  -27.0401  -30.2983   24.6291 C   0  0  0  0  0  0
  -27.6031  -32.4376   25.7500 C   0  0  0  0  0  0
  -27.5592  -37.1753   24.8447 C   0  0  0  0  0  0
  -21.4253  -29.3034   22.3624 N   0  0  0  0  0  0
  -26.4268  -37.3762   23.9440 N   0  0  0  0  0  0
  -24.7146  -31.0315   22.0916 N   0  0  0  0  0  0
  -23.4206  -28.8093   23.3032 O   0  0  0  0  0  0
  -28.2963  -26.1972   20.1458 O   0  0  0  0  0  0
  -26.5668  -34.8908   22.4654 O   0  0  0  0  0  0
  -23.5528  -32.1315   23.7122 O   0  0  0  0  0  0
  -28.5387  -19.7644   19.7244 C   0  0  0  0  0  0
  -28.7025  -18.3194   19.6828 C   0  0  0  0  0  0
  -30.5265  -18.4511   21.1644 C   0  0  0  0  0  0
  -29.3138  -20.6444   20.5470 C   0  0  0  0  0  0
  -29.6918  -17.5646   20.4074 C   0  0  0  0  0  0
  -30.3414  -19.8959   21.2352 C   0  0  0  0  0  0
  -29.0652  -22.2083   20.8061 C   0  0  0  0  0  0
  -28.4864  -23.3311   20.1676 C   0  0  0  0  0  0
  -28.1141  -24.8073   20.7924 C   0  0  0  0  0  0
  -29.6499  -16.0334   20.4612 N   0  0  0  0  0  0
  -31.1791  -20.5858   22.0468 F   0  0  0  0  0  0
  -31.4812  -12.7409   19.1636 H   0  0  0  0  0  0
  -30.4579  -11.6094   20.0078 H   0  0  0  0  0  0
  -29.8275  -11.7030   17.5797 H   0  0  0  0  0  0
  -29.6217  -13.4345   17.6724 H   0  0  0  0  0  0
  -27.9285  -11.2732   18.9542 H   0  0  0  0  0  0
  -27.3912  -12.4745   17.8086 H   0  0  0  0  0  0
  -27.6034  -14.2459   19.4225 H   0  0  0  0  0  0
  -28.7671  -12.2512   21.4290 H   0  0  0  0  0  0
  -28.3948  -13.9244   21.7679 H   0  0  0  0  0  0
  -25.2791   -9.5662   22.4750 H   0  0  0  0  0  0
  -24.0013   -7.4621   22.7469 H   0  0  0  0  0  0
  -21.0837   -8.8814   19.8964 H   0  0  0  0  0  0
  -22.3723  -10.9700   19.6190 H   0  0  0  0  0  0
  -21.2016   -7.6158   23.9715 H   0  0  0  0  0  0
  -21.1466   -6.0532   25.9075 H   0  0  0  0  0  0
  -22.0601   -2.7613   23.2857 H   0  0  0  0  0  0
  -22.4134  -11.9886   22.4877 H   0  0  0  0  0  0
  -21.1099  -13.1216   22.2673 H   0  0  0  0  0  0
  -24.6428  -15.8414   20.5337 H   0  0  0  0  0  0
  -26.2385  -15.6362   20.0277 H   0  0  0  0  0  0
  -26.7247  -32.5325   23.1006 H   0  0  0  0  0  0
  -25.0021  -33.9624   25.0301 H   0  0  0  0  0  0
  -22.7461  -31.2857   21.3783 H   0  0  0  0  0  0
  -23.3741  -35.9596   23.3281 H   0  0  0  0  0  0
  -24.3578  -36.8916   22.2059 H   0  0  0  0  0  0
  -23.7226  -37.6447   23.6688 H   0  0  0  0  0  0
  -26.1521  -31.4808   20.6129 H   0  0  0  0  0  0
  -26.8692  -30.7769   22.0276 H   0  0  0  0  0  0
  -28.1485  -28.8379   21.2112 H   0  0  0  0  0  0
  -25.9596  -25.8271   19.0426 H   0  0  0  0  0  0
  -23.9857  -27.2751   19.0079 H   0  0  0  0  0  0
  -23.8068  -30.5578   19.3972 H   0  0  0  0  0  0
  -22.7876  -29.2259   19.8466 H   0  0  0  0  0  0
  -25.1282  -36.1861   25.0799 H   0  0  0  0  0  0
  -20.9998  -28.3292   24.1369 H   0  0  0  0  0  0
  -20.5684  -26.2316   23.3619 H   0  0  0  0  0  0
  -21.6649  -26.7419   22.1201 H   0  0  0  0  0  0
  -19.6909  -25.6273   21.1264 H   0  0  0  0  0  0
  -19.6678  -27.3167   20.6739 H   0  0  0  0  0  0
  -17.4194  -26.6638   21.4067 H   0  0  0  0  0  0
  -18.0362  -26.0075   22.9060 H   0  0  0  0  0  0
  -19.7952  -30.7297   24.2220 H   0  0  0  0  0  0
  -17.5023  -31.6267   24.5152 H   0  0  0  0  0  0
  -15.5365  -30.2974   23.7667 H   0  0  0  0  0  0
  -15.8686  -28.0806   22.7091 H   0  0  0  0  0  0
  -24.5831  -30.7205   25.7740 H   0  0  0  0  0  0
  -24.8999  -32.2968   26.4889 H   0  0  0  0  0  0
  -25.8001  -30.8884   27.0189 H   0  0  0  0  0  0
  -26.3034  -29.6703   24.1266 H   0  0  0  0  0  0
  -27.3992  -29.7280   25.4868 H   0  0  0  0  0  0
  -27.8943  -30.4238   23.9633 H   0  0  0  0  0  0
  -27.2567  -33.3640   26.2095 H   0  0  0  0  0  0
  -28.3815  -32.7020   25.0331 H   0  0  0  0  0  0
  -28.0737  -31.8525   26.5409 H   0  0  0  0  0  0
  -28.2515  -38.0145   24.7627 H   0  0  0  0  0  0
  -28.1177  -36.2680   24.6090 H   0  0  0  0  0  0
  -27.2334  -37.1169   25.8848 H   0  0  0  0  0  0
  -20.9461  -29.8755   21.6810 H   0  0  0  0  0  0
  -26.0128  -38.2804   24.1537 H   0  0  0  0  0  0
  -27.7299  -20.1953   19.1524 H   0  0  0  0  0  0
  -27.9987  -17.7690   19.0751 H   0  0  0  0  0  0
  -31.3073  -18.0179   21.7718 H   0  0  0  0  0  0
  -29.3793  -22.4520   21.8118 H   0  0  0  0  0  0
  -28.1515  -23.1964   19.1497 H   0  0  0  0  0  0
  -28.6301  -24.8637   21.7511 H   0  0  0  0  0  0
  -27.0605  -24.7287   21.0606 H   0  0  0  0  0  0
  -28.7029  -15.6900   20.4565 H   0  0  0  0  0  0
  1 25  1  0  0  0
  1 30  2  0  0  0
  1 80  1  0  0  0
  2  3  1  0  0  0
  2 25  1  0  0  0
  2 82  1  0  0  0
  2 83  1  0  0  0
  3  4  1  0  0  0
  3 84  1  0  0  0
  3 85  1  0  0  0
  4  5  1  0  0  0
  4 86  1  0  0  0
  4 87  1  0  0  0
  5  6  1  0  0  0
  5 26  1  0  0  0
  5 88  1  0  0  0
  6 25  1  0  0  0
  6 89  1  0  0  0
  6 90  1  0  0  0
  7  8  2  0  0  0
  7 26  1  0  0  0
  7 29  1  0  0  0
  8  9  1  0  0  0
  8 22  1  0  0  0
  9 10  1  0  0  0
  9 27  2  0  0  0
 10 11  2  0  0  0
 10 15  1  0  0  0
 11 12  1  0  0  0
 11 91  1  0  0  0
 12 13  2  0  0  0
 12 92  1  0  0  0
 13 14  1  0  0  0
 13 31  1  0  0  0
 14 15  2  0  0  0
 14 93  1  0  0  0
 15 94  1  0  0  0
 16 17  2  0  0  0
 16 21  1  0  0  0
 16 31  1  0  0  0
 17 18  1  0  0  0
 17 95  1  0  0  0
 18 19  2  0  0  0
 18 96  1  0  0  0
 19 20  1  0  0  0
 19 24  1  0  0  0
 20 21  2  0  0  0
 20 97  1  0  0  0
 21 23  1  0  0  0
 22 28  1  0  0  0
 22 32  2  0  0  0
 26 27  1  0  0  0
 28 98  1  0  0  0
 28 99  1  0  0  0
 29100  1  0  0  0
 29101  1  0  0  0
 33 34  1  0  0  0
 33 66  1  0  0  0
 33 70  2  0  0  0
 34 36  1  0  0  0
 34 59  1  0  0  0
 34102  1  0  0  0
 35 44  2  0  0  0
 35 45  1  0  0  0
 35 68  1  0  0  0
 36 56  1  0  0  0
 36103  1  0  0  0
 37 39  1  0  0  0
 37 47  1  0  0  0
 37 66  1  0  0  0
 37104  1  0  0  0
 38 43  2  0  0  0
 38 46  1  0  0  0
 38 47  1  0  0  0
 39 64  1  0  0  0
 39 67  2  0  0  0
 40 52  1  0  0  0
 40 53  2  0  0  0
 40 58  1  0  0  0
 41105  1  0  0  0
 41106  1  0  0  0
 41107  1  0  0  0
 41 48  1  0  0  0
 42 43  1  0  0  0
 42 66  1  0  0  0
 42108  1  0  0  0
 42109  1  0  0  0
 43 44  1  0  0  0
 44110  1  0  0  0
 45 46  2  0  0  0
 45111  1  0  0  0
 46112  1  0  0  0
 47113  1  0  0  0
 47114  1  0  0  0
 48 56  1  0  0  0
 48 65  1  0  0  0
 48115  1  0  0  0
 49 50  1  0  0  0
 49 53  1  0  0  0
 49 64  1  0  0  0
 49116  1  0  0  0
 50 51  1  0  0  0
 50117  1  0  0  0
 50118  1  0  0  0
 51 52  1  0  0  0
 51119  1  0  0  0
 51120  1  0  0  0
 52121  1  0  0  0
 52122  1  0  0  0
 53 54  1  0  0  0
 54 55  2  0  0  0
 54123  1  0  0  0
 55 57  1  0  0  0
 55124  1  0  0  0
 56 69  2  0  0  0
 57 58  2  0  0  0
 57125  1  0  0  0
 58126  1  0  0  0
 59 60  1  0  0  0
 59 61  1  0  0  0
 59 62  1  0  0  0
 60127  1  0  0  0
 60128  1  0  0  0
 60129  1  0  0  0
 61130  1  0  0  0
 61131  1  0  0  0
 61132  1  0  0  0
 62133  1  0  0  0
 62134  1  0  0  0
 62135  1  0  0  0
 63 65  1  0  0  0
 63136  1  0  0  0
 63137  1  0  0  0
 63138  1  0  0  0
 64139  1  0  0  0
 65140  1  0  0  0
 68 79  1  0  0  0
 71 72  2  0  0  0
 71 74  1  0  0  0
 71141  1  0  0  0
 72 75  1  0  0  0
 72142  1  0  0  0
 73 75  2  0  0  0
 73 76  1  0  0  0
 73143  1  0  0  0
 74 76  2  0  0  0
 74 77  1  0  0  0
 75 80  1  0  0  0
 76 81  1  0  0  0
 77 78  2  0  0  0
 77144  1  0  0  0
 78 79  1  0  0  0
 78145  1  0  0  0
 79146  1  0  0  0
 79147  1  0  0  0
 80148  1  0  0  0
M  ISO  4   1 100  68 101  79 101  80 100
M  END
> <chiral flag>
0

> <version>
0

> <s_m_source_file>
/data/baiqing/PycharmProjects/Reinvent-master-3.2/result/LINK_invent/BTK/process_docking_weight1_custom_product_contain_oxygen_bond_distance_aromatic_linkinvent_7_9_3/rearranged_h_0101.sdf

> <i_m_source_file_index>
79

> <r_mmod_Potential_Energy-OPLS-2005>
476.982269287109

> <r_mmod_Stretch_Energy-OPLS-2005>
209.329864501953

> <r_mmod_Bend_Energy-OPLS-2005>
246.421142578125

> <r_mmod_Torsional_Energy-OPLS-2005>
259.275726318359

> <r_mmod_Improper_Torsional_Energy-OPLS-2005>
9.04186534881592

> <r_mmod_Van_der_Waal_Energy-OPLS-2005>
126.876556396484

> <r_mmod_Electrostatic_Energy-OPLS-2005>
-338.24462890625

> <r_mmod_Solvation_Energy-OPLS-2005>
-208.371688842773

> <b_mmod_Minimization_Converged-OPLS-2005>
0

> <r_mmod_RMS_Derivative-OPLS-2005>
1.40548706054688

$$$$
79
                    3D
 Structure written by MMmdl.
165174  0  0  1  0            999 V2000
  -30.6619  -14.6911   20.3736 C   0  0  0  0  0  0
  -30.4312  -12.3932   19.4542 C   0  0  0  0  0  0
  -29.4881  -12.3610   18.2283 C   0  0  0  0  0  0
  -28.0127  -12.2795   18.6572 C   0  0  0  0  0  0
  -27.6398  -13.2212   19.8350 C   0  0  2  0  0  0
  -28.6992  -13.1911   20.9568 C   0  0  0  0  0  0
  -25.2543  -13.8207   20.5726 C   0  0  0  0  0  0
  -24.1812  -13.0463   20.9224 C   0  0  0  0  0  0
  -24.6386  -11.6937   20.8792 C   0  0  0  0  0  0
  -23.9063  -10.4309   21.0433 C   0  0  0  0  0  0
  -24.3615   -9.4215   21.9198 C   0  0  0  0  0  0
  -23.6294   -8.2247   22.0757 C   0  0  0  0  0  0
  -22.4278   -8.0286   21.3545 C   0  0  0  0  0  0
  -21.9917   -9.0264   20.4651 C   0  0  0  0  0  0
  -22.7242  -10.2148   20.3072 C   0  0  0  0  0  0
  -21.6856   -6.0739   22.5276 C   0  0  0  0  0  0
  -21.4016   -6.5643   23.8209 C   0  0  0  0  0  0
  -21.3659   -5.6796   24.9171 C   0  0  0  0  0  0
  -21.6043   -4.3058   24.7222 C   0  0  0  0  0  0
  -21.8819   -3.8150   23.4344 C   0  0  0  0  0  0
  -21.9194   -4.6966   22.3399 C   0  0  0  0  0  0
  -22.7831  -13.5245   21.1863 C   0  0  0  0  0  0
  -22.1661   -4.2151   21.0977 F   0  0  0  0  0  0
  -21.5629   -3.4542   25.7735 F   0  0  0  0  0  0
  -29.9941  -13.4919   20.3372 N   0  0  0  0  0  0
  -26.2958  -12.9396   20.3325 N   0  0  0  0  0  0
  -25.9319  -11.6556   20.5857 N   0  0  0  0  0  0
  -22.0473  -12.8232   22.0414 N   0  0  0  0  0  0
  -25.4272  -15.1924   20.4138 N   0  0  0  0  0  0
  -31.8929  -14.7124   20.3030 O   0  0  0  0  0  0
  -21.6643   -6.8882   21.4238 O   0  0  0  0  0  0
  -22.3514  -14.5544   20.6701 O   0  0  0  0  0  0
  -24.6261  -31.8614   23.2049 C   0  0  0  0  0  0
  -25.9112  -32.4788   23.8371 C   0  0  1  0  0  0
  -27.2148  -27.3198   20.1188 C   0  0  0  0  0  0
  -25.5930  -33.8588   24.2293 N   0  0  0  0  0  0
  -23.4189  -30.4878   21.5481 C   0  0  2  0  0  0
  -24.8639  -28.9505   20.1091 C   0  0  0  0  0  0
  -22.7474  -29.4635   22.4940 C   0  0  0  0  0  0
  -18.0287  -28.1384   22.8490 C   0  0  0  0  0  0
  -24.1489  -36.7296   23.2638 C   0  0  0  0  0  0
  -25.9616  -30.7934   21.3772 C   0  0  0  0  0  0
  -26.0346  -29.4232   20.7160 C   0  0  0  0  0  0
  -27.2142  -28.6200   20.7117 C   0  0  0  0  0  0
  -26.0211  -26.9100   19.4761 C   0  0  0  0  0  0
  -24.8597  -27.6996   19.4792 C   0  0  0  0  0  0
  -23.6326  -29.8294   20.1613 C   0  0  0  0  0  0
  -25.4114  -36.3089   24.0330 C   0  0  1  0  0  0
  -20.5887  -28.3689   23.1284 C   0  0  2  0  0  0
  -20.6777  -26.9414   22.5409 C   0  0  0  0  0  0
  -19.5751  -26.6385   21.5214 C   0  0  0  0  0  0
  -18.1931  -26.7928   22.1626 C   0  0  0  0  0  0
  -19.1539  -28.8853   23.2883 C   0  0  0  0  0  0
  -18.9461  -30.1456   23.8898 C   0  0  0  0  0  0
  -17.6461  -30.6588   24.0563 C   0  0  0  0  0  0
  -25.9051  -34.9457   23.5109 C   0  0  0  0  0  0
  -16.5352  -29.9085   23.6332 C   0  0  0  0  0  0
  -16.7274  -28.6501   23.0356 C   0  0  0  0  0  0
  -26.4496  -31.6593   25.0737 C   0  0  0  0  0  0
  -25.3728  -31.3727   26.1460 C   0  0  0  0  0  0
  -27.0340  -30.3016   24.6191 C   0  0  0  0  0  0
  -27.6056  -32.4326   25.7507 C   0  0  0  0  0  0
  -27.5582  -37.1804   24.8464 C   0  0  0  0  0  0
  -21.4188  -29.3045   22.3679 N   0  0  0  0  0  0
  -26.4293  -37.3782   23.9408 N   0  0  0  0  0  0
  -24.6877  -31.0633   22.1001 N   0  0  0  0  0  0
  -23.4201  -28.8167   23.3010 O   0  0  0  0  0  0
  -28.3133  -26.4453   20.1923 O   0  0  0  0  0  0
  -26.5616  -34.8920   22.4673 O   0  0  0  0  0  0
  -23.5425  -32.1409   23.7380 O   0  0  0  0  0  0
  -29.1197  -19.5062   19.6330 C   0  0  0  0  0  0
  -29.1404  -18.0997   19.4297 C   0  0  0  0  0  0
  -30.2652  -19.1729   21.7023 C   0  0  0  0  0  0
  -30.3193  -17.7540   21.4906 C   0  0  0  0  0  0
  -29.7275  -20.1055   20.7598 C   0  0  0  0  0  0
  -29.8187  -17.1695   20.2831 C   0  0  0  0  0  0
  -29.0774  -23.9244   20.4860 C   0  0  0  0  0  0
  -28.8451  -22.5622   20.5989 C   0  0  0  0  0  0
  -31.1345  -22.0468   21.1953 C   0  0  0  0  0  0
  -30.4703  -24.4698   20.7096 C   0  0  0  0  0  0
  -31.3029  -23.5215   21.5798 C   0  0  0  0  0  0
  -30.9655  -16.9158   22.5807 C   0  0  0  0  0  0
  -27.4310  -22.0032   20.4488 C   0  0  0  0  0  0
  -30.0609  -15.6853   18.3273 C   0  0  0  0  0  0
  -28.0075  -24.9977   20.0810 C   0  0  0  0  0  0
  -29.8813  -21.5792   20.9067 N   0  0  0  0  0  0
  -29.9905  -15.7667   19.8070 N   0  0  0  0  0  0
  -32.1586  -21.3517   21.1768 O   0  0  0  0  0  0
  -31.4652  -12.5138   19.1256 H   0  0  0  0  0  0
  -30.3931  -11.4453   19.9932 H   0  0  0  0  0  0
  -29.7301  -11.4944   17.6114 H   0  0  0  0  0  0
  -29.6280  -13.2110   17.5702 H   0  0  0  0  0  0
  -27.8351  -11.2440   18.9491 H   0  0  0  0  0  0
  -27.3591  -12.4639   17.8037 H   0  0  0  0  0  0
  -27.6247  -14.2304   19.4246 H   0  0  0  0  0  0
  -28.7250  -12.2182   21.4495 H   0  0  0  0  0  0
  -28.4638  -13.9303   21.7246 H   0  0  0  0  0  0
  -25.2759   -9.5689   22.4776 H   0  0  0  0  0  0
  -24.0003   -7.4636   22.7474 H   0  0  0  0  0  0
  -21.0851   -8.8785   19.8952 H   0  0  0  0  0  0
  -22.3700  -10.9690   19.6185 H   0  0  0  0  0  0
  -21.2008   -7.6151   23.9711 H   0  0  0  0  0  0
  -21.1481   -6.0528   25.9073 H   0  0  0  0  0  0
  -22.0598   -2.7612   23.2846 H   0  0  0  0  0  0
  -22.4094  -11.9896   22.4803 H   0  0  0  0  0  0
  -21.1087  -13.1249   22.2613 H   0  0  0  0  0  0
  -24.6684  -15.8539   20.5363 H   0  0  0  0  0  0
  -26.2937  -15.6317   20.1285 H   0  0  0  0  0  0
  -26.7180  -32.5459   23.1120 H   0  0  0  0  0  0
  -25.0080  -33.9737   25.0440 H   0  0  0  0  0  0
  -22.7125  -31.3089   21.4089 H   0  0  0  0  0  0
  -23.3754  -35.9626   23.3300 H   0  0  0  0  0  0
  -24.3582  -36.8915   22.2052 H   0  0  0  0  0  0
  -23.7237  -37.6497   23.6658 H   0  0  0  0  0  0
  -26.0953  -31.5597   20.6125 H   0  0  0  0  0  0
  -26.8410  -30.8378   22.0079 H   0  0  0  0  0  0
  -28.1091  -28.9746   21.2037 H   0  0  0  0  0  0
  -25.9444  -25.9581   18.9737 H   0  0  0  0  0  0
  -23.9639  -27.3339   18.9962 H   0  0  0  0  0  0
  -23.7514  -30.6090   19.4079 H   0  0  0  0  0  0
  -22.7521  -29.2602   19.8574 H   0  0  0  0  0  0
  -25.1294  -36.1946   25.0823 H   0  0  0  0  0  0
  -20.9982  -28.3263   24.1403 H   0  0  0  0  0  0
  -20.5687  -26.2297   23.3606 H   0  0  0  0  0  0
  -21.6645  -26.7449   22.1198 H   0  0  0  0  0  0
  -19.6914  -25.6296   21.1243 H   0  0  0  0  0  0
  -19.6687  -27.3195   20.6744 H   0  0  0  0  0  0
  -17.4201  -26.6680   21.4028 H   0  0  0  0  0  0
  -18.0331  -26.0069   22.9021 H   0  0  0  0  0  0
  -19.7935  -30.7274   24.2269 H   0  0  0  0  0  0
  -17.5014  -31.6269   24.5163 H   0  0  0  0  0  0
  -15.5353  -30.2987   23.7654 H   0  0  0  0  0  0
  -15.8674  -28.0819   22.7073 H   0  0  0  0  0  0
  -24.5905  -30.7076   25.7785 H   0  0  0  0  0  0
  -24.8918  -32.2892   26.4887 H   0  0  0  0  0  0
  -25.8051  -30.8902   27.0235 H   0  0  0  0  0  0
  -26.2916  -29.6769   24.1210 H   0  0  0  0  0  0
  -27.4028  -29.7270   25.4699 H   0  0  0  0  0  0
  -27.8792  -30.4302   23.9425 H   0  0  0  0  0  0
  -27.2667  -33.3625   26.2087 H   0  0  0  0  0  0
  -28.3866  -32.6888   25.0335 H   0  0  0  0  0  0
  -28.0726  -31.8450   26.5421 H   0  0  0  0  0  0
  -28.2597  -38.0104   24.7520 H   0  0  0  0  0  0
  -28.1081  -36.2635   24.6282 H   0  0  0  0  0  0
  -27.2300  -37.1445   25.8867 H   0  0  0  0  0  0
  -20.9360  -29.8774   21.6899 H   0  0  0  0  0  0
  -26.0178  -38.2858   24.1410 H   0  0  0  0  0  0
  -28.6678  -20.1294   18.8746 H   0  0  0  0  0  0
  -28.6578  -17.7560   18.5266 H   0  0  0  0  0  0
  -30.7095  -19.5681   22.6056 H   0  0  0  0  0  0
  -30.4115  -25.4383   21.2070 H   0  0  0  0  0  0
  -30.9468  -24.6364   19.7427 H   0  0  0  0  0  0
  -32.3556  -23.8029   21.5396 H   0  0  0  0  0  0
  -30.9962  -23.6177   22.6218 H   0  0  0  0  0  0
  -31.0987  -17.4896   23.4981 H   0  0  0  0  0  0
  -31.9496  -16.5674   22.2682 H   0  0  0  0  0  0
  -30.3434  -16.0566   22.8314 H   0  0  0  0  0  0
  -26.7100  -22.6295   20.9727 H   0  0  0  0  0  0
  -27.3074  -21.0093   20.8763 H   0  0  0  0  0  0
  -27.1439  -21.9682   19.3975 H   0  0  0  0  0  0
  -29.0780  -15.4760   17.9051 H   0  0  0  0  0  0
  -30.7630  -14.9397   17.9503 H   0  0  0  0  0  0
  -30.4405  -16.6012   17.8737 H   0  0  0  0  0  0
  -27.1135  -24.7903   20.6695 H   0  0  0  0  0  0
  -27.7672  -24.7843   19.0390 H   0  0  0  0  0  0
  1 25  1  0  0  0
  1 30  2  0  0  0
  1 87  1  0  0  0
  2  3  1  0  0  0
  2 25  1  0  0  0
  2 89  1  0  0  0
  2 90  1  0  0  0
  3  4  1  0  0  0
  3 91  1  0  0  0
  3 92  1  0  0  0
  4  5  1  0  0  0
  4 93  1  0  0  0
  4 94  1  0  0  0
  5  6  1  0  0  0
  5 26  1  0  0  0
  5 95  1  0  0  0
  6 25  1  0  0  0
  6 96  1  0  0  0
  6 97  1  0  0  0
  7  8  2  0  0  0
  7 26  1  0  0  0
  7 29  1  0  0  0
  8  9  1  0  0  0
  8 22  1  0  0  0
  9 10  1  0  0  0
  9 27  2  0  0  0
 10 11  2  0  0  0
 10 15  1  0  0  0
 11 12  1  0  0  0
 11 98  1  0  0  0
 12 13  2  0  0  0
 12 99  1  0  0  0
 13 14  1  0  0  0
 13 31  1  0  0  0
 14 15  2  0  0  0
 14100  1  0  0  0
 15101  1  0  0  0
 16 17  2  0  0  0
 16 21  1  0  0  0
 16 31  1  0  0  0
 17 18  1  0  0  0
 17102  1  0  0  0
 18 19  2  0  0  0
 18103  1  0  0  0
 19 20  1  0  0  0
 19 24  1  0  0  0
 20 21  2  0  0  0
 20104  1  0  0  0
 21 23  1  0  0  0
 22 28  1  0  0  0
 22 32  2  0  0  0
 26 27  1  0  0  0
 28105  1  0  0  0
 28106  1  0  0  0
 29107  1  0  0  0
 29108  1  0  0  0
 33 34  1  0  0  0
 33 66  1  0  0  0
 33 70  2  0  0  0
 34 36  1  0  0  0
 34 59  1  0  0  0
 34109  1  0  0  0
 35 44  2  0  0  0
 35 45  1  0  0  0
 35 68  1  0  0  0
 36 56  1  0  0  0
 36110  1  0  0  0
 37 39  1  0  0  0
 37 47  1  0  0  0
 37 66  1  0  0  0
 37111  1  0  0  0
 38 43  2  0  0  0
 38 46  1  0  0  0
 38 47  1  0  0  0
 39 64  1  0  0  0
 39 67  2  0  0  0
 40 52  1  0  0  0
 40 53  2  0  0  0
 40 58  1  0  0  0
 41112  1  0  0  0
 41113  1  0  0  0
 41114  1  0  0  0
 41 48  1  0  0  0
 42 43  1  0  0  0
 42 66  1  0  0  0
 42115  1  0  0  0
 42116  1  0  0  0
 43 44  1  0  0  0
 44117  1  0  0  0
 45 46  2  0  0  0
 45118  1  0  0  0
 46119  1  0  0  0
 47120  1  0  0  0
 47121  1  0  0  0
 48 56  1  0  0  0
 48 65  1  0  0  0
 48122  1  0  0  0
 49 50  1  0  0  0
 49 53  1  0  0  0
 49 64  1  0  0  0
 49123  1  0  0  0
 50 51  1  0  0  0
 50124  1  0  0  0
 50125  1  0  0  0
 51 52  1  0  0  0
 51126  1  0  0  0
 51127  1  0  0  0
 52128  1  0  0  0
 52129  1  0  0  0
 53 54  1  0  0  0
 54 55  2  0  0  0
 54130  1  0  0  0
 55 57  1  0  0  0
 55131  1  0  0  0
 56 69  2  0  0  0
 57 58  2  0  0  0
 57132  1  0  0  0
 58133  1  0  0  0
 59 60  1  0  0  0
 59 61  1  0  0  0
 59 62  1  0  0  0
 60134  1  0  0  0
 60135  1  0  0  0
 60136  1  0  0  0
 61137  1  0  0  0
 61138  1  0  0  0
 61139  1  0  0  0
 62140  1  0  0  0
 62141  1  0  0  0
 62142  1  0  0  0
 63 65  1  0  0  0
 63143  1  0  0  0
 63144  1  0  0  0
 63145  1  0  0  0
 64146  1  0  0  0
 65147  1  0  0  0
 68 85  1  0  0  0
 71 72  2  0  0  0
 71 75  1  0  0  0
 71148  1  0  0  0
 72 76  1  0  0  0
 72149  1  0  0  0
 73 74  1  0  0  0
 73 75  2  0  0  0
 73150  1  0  0  0
 74 76  2  0  0  0
 74 82  1  0  0  0
 75 86  1  0  0  0
 76 87  1  0  0  0
 77 78  2  0  0  0
 77 80  1  0  0  0
 77 85  1  0  0  0
 78 83  1  0  0  0
 78 86  1  0  0  0
 79 81  1  0  0  0
 79 86  1  0  0  0
 79 88  2  0  0  0
 80 81  1  0  0  0
 80151  1  0  0  0
 80152  1  0  0  0
 81153  1  0  0  0
 81154  1  0  0  0
 82155  1  0  0  0
 82156  1  0  0  0
 82157  1  0  0  0
 83158  1  0  0  0
 83159  1  0  0  0
 83160  1  0  0  0
 84 87  1  0  0  0
 84161  1  0  0  0
 84162  1  0  0  0
 84163  1  0  0  0
 85164  1  0  0  0
 85165  1  0  0  0
M  ISO  4   1 100  68 101  85 101  87 100
M  END
> <chiral flag>
0

> <version>
0

> <s_m_source_file>
/data/baiqing/PycharmProjects/Reinvent-master-3.2/result/LINK_invent/BTK/process_docking_weight1_custom_product_contain_oxygen_bond_distance_aromatic_linkinvent_7_9_3/rearranged_h_0101.sdf

> <i_m_source_file_index>
80

> <r_mmod_Potential_Energy-OPLS-2005>
492.449981689453

> <r_mmod_Stretch_Energy-OPLS-2005>
107.182167053223

> <r_mmod_Bend_Energy-OPLS-2005>
160.807205200195

> <r_mmod_Torsional_Energy-OPLS-2005>
353.594329833984

> <r_mmod_Improper_Torsional_Energy-OPLS-2005>
28.1520900726318

> <r_mmod_Van_der_Waal_Energy-OPLS-2005>
197.391525268555

> <r_mmod_Electrostatic_Energy-OPLS-2005>
-234.019424438477

> <r_mmod_Solvation_Energy-OPLS-2005>
-199.466705322266

> <b_mmod_Minimization_Converged-OPLS-2005>
0

> <r_mmod_RMS_Derivative-OPLS-2005>
0.309407502412796

$$$$
80
                    3D
 Structure written by MMmdl.
158167  0  0  1  0            999 V2000
  -30.5597  -14.7491   20.4892 C   0  0  0  0  0  0
  -30.4533  -12.4622   19.4648 C   0  0  0  0  0  0
  -29.5166  -12.5104   18.2338 C   0  0  0  0  0  0
  -28.0419  -12.3277   18.6476 C   0  0  0  0  0  0
  -27.6481  -13.2161   19.8563 C   0  0  2  0  0  0
  -28.6937  -13.1100   20.9887 C   0  0  0  0  0  0
  -25.2547  -13.8154   20.5667 C   0  0  0  0  0  0
  -24.1827  -13.0424   20.9212 C   0  0  0  0  0  0
  -24.6396  -11.6896   20.8757 C   0  0  0  0  0  0
  -23.9065  -10.4282   21.0414 C   0  0  0  0  0  0
  -24.3621   -9.4192   21.9185 C   0  0  0  0  0  0
  -23.6289   -8.2235   22.0754 C   0  0  0  0  0  0
  -22.4268   -8.0283   21.3547 C   0  0  0  0  0  0
  -21.9904   -9.0257   20.4650 C   0  0  0  0  0  0
  -22.7238  -10.2133   20.3061 C   0  0  0  0  0  0
  -21.6850   -6.0734   22.5274 C   0  0  0  0  0  0
  -21.4015   -6.5638   23.8209 C   0  0  0  0  0  0
  -21.3655   -5.6789   24.9170 C   0  0  0  0  0  0
  -21.6043   -4.3051   24.7220 C   0  0  0  0  0  0
  -21.8821   -3.8142   23.4343 C   0  0  0  0  0  0
  -21.9192   -4.6960   22.3398 C   0  0  0  0  0  0
  -22.7850  -13.5224   21.1869 C   0  0  0  0  0  0
  -22.1660   -4.2143   21.0978 F   0  0  0  0  0  0
  -21.5624   -3.4538   25.7735 F   0  0  0  0  0  0
  -29.9963  -13.4935   20.4218 N   0  0  0  0  0  0
  -26.2961  -12.9325   20.3273 N   0  0  0  0  0  0
  -25.9323  -11.6490   20.5756 N   0  0  0  0  0  0
  -22.0492  -12.8225   22.0427 N   0  0  0  0  0  0
  -25.4234  -15.1872   20.4022 N   0  0  0  0  0  0
  -31.7342  -14.9362   20.1573 O   0  0  0  0  0  0
  -21.6635   -6.8880   21.4240 O   0  0  0  0  0  0
  -22.3536  -14.5521   20.6696 O   0  0  0  0  0  0
  -24.6307  -31.8545   23.1980 C   0  0  0  0  0  0
  -25.9128  -32.4749   23.8335 C   0  0  1  0  0  0
  -27.2256  -27.2689   20.1397 C   0  0  0  0  0  0
  -25.5919  -33.8548   24.2258 N   0  0  0  0  0  0
  -23.4294  -30.4754   21.5396 C   0  0  2  0  0  0
  -24.8815  -28.9199   20.1131 C   0  0  0  0  0  0
  -22.7505  -29.4592   22.4901 C   0  0  0  0  0  0
  -18.0298  -28.1388   22.8473 C   0  0  0  0  0  0
  -24.1493  -36.7291   23.2652 C   0  0  0  0  0  0
  -25.9745  -30.7697   21.3784 C   0  0  0  0  0  0
  -26.0519  -29.3908   20.7255 C   0  0  0  0  0  0
  -27.2310  -28.5764   20.7304 C   0  0  0  0  0  0
  -26.0371  -26.8597   19.5040 C   0  0  0  0  0  0
  -24.8781  -27.6610   19.4915 C   0  0  0  0  0  0
  -23.6506  -29.8061   20.1571 C   0  0  0  0  0  0
  -25.4126  -36.3068   24.0326 C   0  0  1  0  0  0
  -20.5899  -28.3699   23.1258 C   0  0  2  0  0  0
  -20.6779  -26.9414   22.5405 C   0  0  0  0  0  0
  -19.5760  -26.6380   21.5203 C   0  0  0  0  0  0
  -18.1942  -26.7927   22.1617 C   0  0  0  0  0  0
  -19.1549  -28.8862   23.2858 C   0  0  0  0  0  0
  -18.9470  -30.1457   23.8885 C   0  0  0  0  0  0
  -17.6470  -30.6583   24.0564 C   0  0  0  0  0  0
  -25.9044  -34.9432   23.5095 C   0  0  0  0  0  0
  -16.5361  -29.9081   23.6331 C   0  0  0  0  0  0
  -16.7283  -28.6500   23.0347 C   0  0  0  0  0  0
  -26.4497  -31.6575   25.0725 C   0  0  0  0  0  0
  -25.3721  -31.3744   26.1452 C   0  0  0  0  0  0
  -27.0349  -30.2990   24.6215 C   0  0  0  0  0  0
  -27.6054  -32.4322   25.7485 C   0  0  0  0  0  0
  -27.5554  -37.1844   24.8498 C   0  0  0  0  0  0
  -21.4214  -29.3040   22.3639 N   0  0  0  0  0  0
  -26.4324  -37.3737   23.9351 N   0  0  0  0  0  0
  -24.6966  -31.0513   22.0953 N   0  0  0  0  0  0
  -23.4200  -28.8144   23.3011 O   0  0  0  0  0  0
  -28.2835  -26.3368   20.1490 O   0  0  0  0  0  0
  -26.5617  -34.8901   22.4664 O   0  0  0  0  0  0
  -23.5453  -32.1362   23.7274 O   0  0  0  0  0  0
  -28.4746  -17.9644   20.3749 C   0  0  0  0  0  0
  -30.7748  -18.1464   20.9138 C   0  0  0  0  0  0
  -29.6875  -17.2689   20.6469 C   0  0  0  0  0  0
  -28.3738  -19.3964   20.3976 C   0  0  0  0  0  0
  -29.5135  -20.1885   20.7116 C   0  0  0  0  0  0
  -28.4969  -23.9345   21.1537 C   0  0  0  0  0  0
  -28.2302  -25.3057   21.1176 C   0  0  0  0  0  0
  -28.4040  -23.1951   22.4733 C   0  0  0  0  0  0
  -29.3534  -21.9844   22.3802 C   0  0  0  0  0  0
  -28.9555  -22.7988   20.1666 C   0  0  1  0  0  0
  -29.9988  -23.2917   19.1602 C   0  0  0  0  0  0
  -30.6820  -19.5260   20.9652 N   0  0  0  0  0  0
  -29.4644  -21.6222   20.9724 N   0  0  0  0  0  0
  -27.1337  -20.0071   20.1932 N   0  0  0  0  0  0
  -29.6723  -15.7818   20.7378 N   0  0  0  0  0  0
  -31.4872  -12.6257   19.1562 H   0  0  0  0  0  0
  -30.4300  -11.4750   19.9304 H   0  0  0  0  0  0
  -29.7985  -11.7388   17.5163 H   0  0  0  0  0  0
  -29.6366  -13.4649   17.7182 H   0  0  0  0  0  0
  -27.9011  -11.2768   18.9040 H   0  0  0  0  0  0
  -27.3832  -12.5244   17.8009 H   0  0  0  0  0  0
  -27.6511  -14.2422   19.4893 H   0  0  0  0  0  0
  -28.7343  -12.0918   21.3793 H   0  0  0  0  0  0
  -28.4208  -13.7429   21.8349 H   0  0  0  0  0  0
  -25.2774   -9.5654   22.4758 H   0  0  0  0  0  0
  -23.9985   -7.4622   22.7477 H   0  0  0  0  0  0
  -21.0827   -8.8788   19.8964 H   0  0  0  0  0  0
  -22.3703  -10.9679   19.6175 H   0  0  0  0  0  0
  -21.2017   -7.6149   23.9709 H   0  0  0  0  0  0
  -21.1470   -6.0523   25.9069 H   0  0  0  0  0  0
  -22.0606   -2.7603   23.2848 H   0  0  0  0  0  0
  -22.4108  -11.9894   22.4826 H   0  0  0  0  0  0
  -21.1112  -13.1265   22.2636 H   0  0  0  0  0  0
  -24.6439  -15.8304   20.4900 H   0  0  0  0  0  0
  -26.2355  -15.6080   19.9727 H   0  0  0  0  0  0
  -26.7200  -32.5411   23.1085 H   0  0  0  0  0  0
  -25.0062  -33.9684   25.0401 H   0  0  0  0  0  0
  -22.7260  -31.2972   21.3908 H   0  0  0  0  0  0
  -23.3688  -35.9707   23.3467 H   0  0  0  0  0  0
  -24.3536  -36.8745   22.2032 H   0  0  0  0  0  0
  -23.7356  -37.6587   23.6570 H   0  0  0  0  0  0
  -26.1119  -31.5281   20.6064 H   0  0  0  0  0  0
  -26.8524  -30.8221   22.0109 H   0  0  0  0  0  0
  -28.1285  -28.9284   21.2196 H   0  0  0  0  0  0
  -26.0015  -25.8853   19.0370 H   0  0  0  0  0  0
  -23.9824  -27.2932   19.0097 H   0  0  0  0  0  0
  -23.7751  -30.5807   19.3995 H   0  0  0  0  0  0
  -22.7699  -29.2381   19.8516 H   0  0  0  0  0  0
  -25.1327  -36.1946   25.0827 H   0  0  0  0  0  0
  -20.9990  -28.3284   24.1379 H   0  0  0  0  0  0
  -20.5657  -26.2315   23.3613 H   0  0  0  0  0  0
  -21.6651  -26.7419   22.1218 H   0  0  0  0  0  0
  -19.6922  -25.6289   21.1236 H   0  0  0  0  0  0
  -19.6696  -27.3183   20.6727 H   0  0  0  0  0  0
  -17.4205  -26.6658   21.4030 H   0  0  0  0  0  0
  -18.0352  -26.0074   22.9019 H   0  0  0  0  0  0
  -19.7947  -30.7274   24.2249 H   0  0  0  0  0  0
  -17.5025  -31.6259   24.5174 H   0  0  0  0  0  0
  -15.5362  -30.2981   23.7663 H   0  0  0  0  0  0
  -15.8682  -28.0818   22.7069 H   0  0  0  0  0  0
  -24.5889  -30.7093   25.7796 H   0  0  0  0  0  0
  -24.8925  -32.2926   26.4857 H   0  0  0  0  0  0
  -25.8041  -30.8942   27.0241 H   0  0  0  0  0  0
  -26.2942  -29.6728   24.1228 H   0  0  0  0  0  0
  -27.4017  -29.7261   25.4743 H   0  0  0  0  0  0
  -27.8821  -30.4265   23.9472 H   0  0  0  0  0  0
  -27.2658  -33.3618   26.2063 H   0  0  0  0  0  0
  -28.3853  -32.6888   25.0304 H   0  0  0  0  0  0
  -28.0731  -31.8452   26.5397 H   0  0  0  0  0  0
  -28.2738  -37.9963   24.7282 H   0  0  0  0  0  0
  -28.0873  -36.2494   24.6673 H   0  0  0  0  0  0
  -27.2230  -37.1924   25.8894 H   0  0  0  0  0  0
  -20.9406  -29.8754   21.6832 H   0  0  0  0  0  0
  -26.0218  -38.2851   24.1189 H   0  0  0  0  0  0
  -27.5841  -17.3859   20.1778 H   0  0  0  0  0  0
  -31.7437  -17.7397   21.1633 H   0  0  0  0  0  0
  -27.9252  -25.7569   22.0525 H   0  0  0  0  0  0
  -27.3777  -22.8431   22.5881 H   0  0  0  0  0  0
  -28.6327  -23.8312   23.3297 H   0  0  0  0  0  0
  -29.0062  -21.1564   23.0006 H   0  0  0  0  0  0
  -30.3467  -22.2620   22.7355 H   0  0  0  0  0  0
  -28.0704  -22.4732   19.6193 H   0  0  0  0  0  0
  -30.9007  -23.6396   19.6660 H   0  0  0  0  0  0
  -29.6078  -24.1202   18.5693 H   0  0  0  0  0  0
  -30.2851  -22.4976   18.4705 H   0  0  0  0  0  0
  -26.2951  -19.4569   20.3529 H   0  0  0  0  0  0
  -27.0459  -20.9605   20.5324 H   0  0  0  0  0  0
  -28.7533  -15.4045   20.9115 H   0  0  0  0  0  0
  1 25  1  0  0  0
  1 30  2  0  0  0
  1 85  1  0  0  0
  2  3  1  0  0  0
  2 25  1  0  0  0
  2 86  1  0  0  0
  2 87  1  0  0  0
  3  4  1  0  0  0
  3 88  1  0  0  0
  3 89  1  0  0  0
  4  5  1  0  0  0
  4 90  1  0  0  0
  4 91  1  0  0  0
  5  6  1  0  0  0
  5 26  1  0  0  0
  5 92  1  0  0  0
  6 25  1  0  0  0
  6 93  1  0  0  0
  6 94  1  0  0  0
  7  8  2  0  0  0
  7 26  1  0  0  0
  7 29  1  0  0  0
  8  9  1  0  0  0
  8 22  1  0  0  0
  9 10  1  0  0  0
  9 27  2  0  0  0
 10 11  2  0  0  0
 10 15  1  0  0  0
 11 12  1  0  0  0
 11 95  1  0  0  0
 12 13  2  0  0  0
 12 96  1  0  0  0
 13 14  1  0  0  0
 13 31  1  0  0  0
 14 15  2  0  0  0
 14 97  1  0  0  0
 15 98  1  0  0  0
 16 17  2  0  0  0
 16 21  1  0  0  0
 16 31  1  0  0  0
 17 18  1  0  0  0
 17 99  1  0  0  0
 18 19  2  0  0  0
 18100  1  0  0  0
 19 20  1  0  0  0
 19 24  1  0  0  0
 20 21  2  0  0  0
 20101  1  0  0  0
 21 23  1  0  0  0
 22 28  1  0  0  0
 22 32  2  0  0  0
 26 27  1  0  0  0
 28102  1  0  0  0
 28103  1  0  0  0
 29104  1  0  0  0
 29105  1  0  0  0
 33 34  1  0  0  0
 33 66  1  0  0  0
 33 70  2  0  0  0
 34 36  1  0  0  0
 34 59  1  0  0  0
 34106  1  0  0  0
 35 44  2  0  0  0
 35 45  1  0  0  0
 35 68  1  0  0  0
 36 56  1  0  0  0
 36107  1  0  0  0
 37 39  1  0  0  0
 37 47  1  0  0  0
 37 66  1  0  0  0
 37108  1  0  0  0
 38 43  2  0  0  0
 38 46  1  0  0  0
 38 47  1  0  0  0
 39 64  1  0  0  0
 39 67  2  0  0  0
 40 52  1  0  0  0
 40 53  2  0  0  0
 40 58  1  0  0  0
 41109  1  0  0  0
 41110  1  0  0  0
 41111  1  0  0  0
 41 48  1  0  0  0
 42 43  1  0  0  0
 42 66  1  0  0  0
 42112  1  0  0  0
 42113  1  0  0  0
 43 44  1  0  0  0
 44114  1  0  0  0
 45 46  2  0  0  0
 45115  1  0  0  0
 46116  1  0  0  0
 47117  1  0  0  0
 47118  1  0  0  0
 48 56  1  0  0  0
 48 65  1  0  0  0
 48119  1  0  0  0
 49 50  1  0  0  0
 49 53  1  0  0  0
 49 64  1  0  0  0
 49120  1  0  0  0
 50 51  1  0  0  0
 50121  1  0  0  0
 50122  1  0  0  0
 51 52  1  0  0  0
 51123  1  0  0  0
 51124  1  0  0  0
 52125  1  0  0  0
 52126  1  0  0  0
 53 54  1  0  0  0
 54 55  2  0  0  0
 54127  1  0  0  0
 55 57  1  0  0  0
 55128  1  0  0  0
 56 69  2  0  0  0
 57 58  2  0  0  0
 57129  1  0  0  0
 58130  1  0  0  0
 59 60  1  0  0  0
 59 61  1  0  0  0
 59 62  1  0  0  0
 60131  1  0  0  0
 60132  1  0  0  0
 60133  1  0  0  0
 61134  1  0  0  0
 61135  1  0  0  0
 61136  1  0  0  0
 62137  1  0  0  0
 62138  1  0  0  0
 62139  1  0  0  0
 63 65  1  0  0  0
 63140  1  0  0  0
 63141  1  0  0  0
 63142  1  0  0  0
 64143  1  0  0  0
 65144  1  0  0  0
 68 77  1  0  0  0
 71 73  2  0  0  0
 71 74  1  0  0  0
 71145  1  0  0  0
 72 73  1  0  0  0
 72 82  2  0  0  0
 72146  1  0  0  0
 73 85  1  0  0  0
 74 75  2  0  0  0
 74 84  1  0  0  0
 75 82  1  0  0  0
 75 83  1  0  0  0
 76 77  2  0  0  0
 76 78  1  0  0  0
 76 80  1  0  0  0
 77147  1  0  0  0
 78 79  1  0  0  0
 78148  1  0  0  0
 78149  1  0  0  0
 79 83  1  0  0  0
 79150  1  0  0  0
 79151  1  0  0  0
 80 81  1  0  0  0
 80 83  1  0  0  0
 80152  1  0  0  0
 81153  1  0  0  0
 81154  1  0  0  0
 81155  1  0  0  0
 84156  1  0  0  0
 84157  1  0  0  0
 85158  1  0  0  0
M  ISO  4   1 100  68 101  77 101  85 100
M  END
> <chiral flag>
0

> <version>
0

> <s_m_source_file>
/data/baiqing/PycharmProjects/Reinvent-master-3.2/result/LINK_invent/BTK/process_docking_weight1_custom_product_contain_oxygen_bond_distance_aromatic_linkinvent_7_9_3/rearranged_h_0101.sdf

> <i_m_source_file_index>
81

> <r_mmod_Potential_Energy-OPLS-2005>
98.773681640625

> <r_mmod_Stretch_Energy-OPLS-2005>
103.715965270996

> <r_mmod_Bend_Energy-OPLS-2005>
245.346923828125

> <r_mmod_Torsional_Energy-OPLS-2005>
283.704040527344

> <r_mmod_Improper_Torsional_Energy-OPLS-2005>
12.6641778945923

> <r_mmod_Van_der_Waal_Energy-OPLS-2005>
126.212371826172

> <r_mmod_Electrostatic_Energy-OPLS-2005>
-527.452880859375

> <r_mmod_Solvation_Energy-OPLS-2005>
-234.132339477539

> <b_mmod_Minimization_Converged-OPLS-2005>
0

> <r_mmod_RMS_Derivative-OPLS-2005>
1.11818623542786

$$$$
81
                    3D
 Structure written by MMmdl.
153161  0  0  1  0            999 V2000
  -30.6756  -14.6160   20.5060 C   0  0  0  0  0  0
  -30.4182  -12.3777   19.4698 C   0  0  0  0  0  0
  -29.4995  -12.4746   18.2342 C   0  0  0  0  0  0
  -28.0274  -12.3155   18.6525 C   0  0  0  0  0  0
  -27.6468  -13.2182   19.8565 C   0  0  2  0  0  0
  -28.6859  -13.1210   20.9948 C   0  0  0  0  0  0
  -25.2551  -13.8187   20.5682 C   0  0  0  0  0  0
  -24.1822  -13.0450   20.9208 C   0  0  0  0  0  0
  -24.6399  -11.6926   20.8780 C   0  0  0  0  0  0
  -23.9085  -10.4302   21.0445 C   0  0  0  0  0  0
  -24.3637   -9.4209   21.9216 C   0  0  0  0  0  0
  -23.6302   -8.2249   22.0769 C   0  0  0  0  0  0
  -22.4288   -8.0298   21.3551 C   0  0  0  0  0  0
  -21.9939   -9.0278   20.4655 C   0  0  0  0  0  0
  -22.7272  -10.2154   20.3074 C   0  0  0  0  0  0
  -21.6849   -6.0762   22.5285 C   0  0  0  0  0  0
  -21.4012   -6.5659   23.8221 C   0  0  0  0  0  0
  -21.3648   -5.6804   24.9177 C   0  0  0  0  0  0
  -21.6041   -4.3069   24.7221 C   0  0  0  0  0  0
  -21.8819   -3.8171   23.4338 C   0  0  0  0  0  0
  -21.9190   -4.6992   22.3399 C   0  0  0  0  0  0
  -22.7846  -13.5252   21.1844 C   0  0  0  0  0  0
  -22.1661   -4.2182   21.0973 F   0  0  0  0  0  0
  -21.5619   -3.4543   25.7728 F   0  0  0  0  0  0
  -29.9989  -13.4303   20.4191 N   0  0  0  0  0  0
  -26.2960  -12.9370   20.3303 N   0  0  0  0  0  0
  -25.9320  -11.6530   20.5803 N   0  0  0  0  0  0
  -22.0472  -12.8243   22.0387 N   0  0  0  0  0  0
  -25.4293  -15.1895   20.4063 N   0  0  0  0  0  0
  -31.8543  -14.6895   20.1492 O   0  0  0  0  0  0
  -21.6635   -6.8905   21.4248 O   0  0  0  0  0  0
  -22.3542  -14.5554   20.6689 O   0  0  0  0  0  0
  -24.6269  -31.8587   23.2036 C   0  0  0  0  0  0
  -25.9127  -32.4758   23.8347 C   0  0  1  0  0  0
  -27.2168  -27.3052   20.1169 C   0  0  0  0  0  0
  -25.5954  -33.8562   24.2262 N   0  0  0  0  0  0
  -23.4220  -30.4807   21.5478 C   0  0  2  0  0  0
  -24.8673  -28.9437   20.1058 C   0  0  0  0  0  0
  -22.7480  -29.4591   22.4953 C   0  0  0  0  0  0
  -18.0284  -28.1379   22.8475 C   0  0  0  0  0  0
  -24.1501  -36.7278   23.2638 C   0  0  0  0  0  0
  -25.9642  -30.7826   21.3817 C   0  0  0  0  0  0
  -26.0354  -29.4113   20.7207 C   0  0  0  0  0  0
  -27.2127  -28.6005   20.7241 C   0  0  0  0  0  0
  -26.0333  -26.9133   19.4470 C   0  0  0  0  0  0
  -24.8699  -27.7003   19.4594 C   0  0  0  0  0  0
  -23.6346  -29.8221   20.1605 C   0  0  0  0  0  0
  -25.4131  -36.3064   24.0314 C   0  0  1  0  0  0
  -20.5886  -28.3670   23.1287 C   0  0  2  0  0  0
  -20.6777  -26.9401   22.5406 C   0  0  0  0  0  0
  -19.5752  -26.6380   21.5210 C   0  0  0  0  0  0
  -18.1928  -26.7920   22.1622 C   0  0  0  0  0  0
  -19.1542  -28.8843   23.2863 C   0  0  0  0  0  0
  -18.9465  -30.1452   23.8862 C   0  0  0  0  0  0
  -17.6469  -30.6575   24.0556 C   0  0  0  0  0  0
  -25.9073  -34.9433   23.5085 C   0  0  0  0  0  0
  -16.5355  -29.9065   23.6341 C   0  0  0  0  0  0
  -16.7270  -28.6501   23.0336 C   0  0  0  0  0  0
  -26.4506  -31.6580   25.0726 C   0  0  0  0  0  0
  -25.3725  -31.3715   26.1443 C   0  0  0  0  0  0
  -27.0364  -30.3004   24.6201 C   0  0  0  0  0  0
  -27.6054  -32.4331   25.7483 C   0  0  0  0  0  0
  -27.5578  -37.1792   24.8459 C   0  0  0  0  0  0
  -21.4191  -29.3015   22.3686 N   0  0  0  0  0  0
  -26.4297  -37.3763   23.9388 N   0  0  0  0  0  0
  -24.6894  -31.0573   22.1007 N   0  0  0  0  0  0
  -23.4186  -28.8141   23.3059 O   0  0  0  0  0  0
  -28.3074  -26.4173   20.2054 O   0  0  0  0  0  0
  -26.5642  -34.8911   22.4651 O   0  0  0  0  0  0
  -23.5427  -32.1418   23.7340 O   0  0  0  0  0  0
  -30.7146  -19.6687   20.9525 C   0  0  0  0  0  0
  -30.1931  -20.9916   20.8565 C   0  0  0  0  0  0
  -28.5467  -18.7243   20.5148 C   0  0  0  0  0  0
  -29.9216  -18.5030   20.7688 C   0  0  0  0  0  0
  -28.0191  -20.0504   20.4237 C   0  0  0  0  0  0
  -28.8260  -21.2216   20.5701 C   0  0  0  0  0  0
  -30.6515  -17.1127   20.7877 C   0  0  0  0  0  0
  -28.0301  -24.9718   19.9720 C   0  0  0  0  0  0
  -28.9258  -23.7770   20.5283 C   0  0  0  0  0  0
  -26.6579  -20.2085   20.1739 N   0  0  0  0  0  0
  -29.9877  -15.7642   20.8064 N   0  0  0  0  0  0
  -28.2265  -22.4895   20.4108 O   0  0  0  0  0  0
  -31.4633  -12.4719   19.1695 H   0  0  0  0  0  0
  -30.3339  -11.3954   19.9359 H   0  0  0  0  0  0
  -29.7643  -11.7032   17.5094 H   0  0  0  0  0  0
  -29.6440  -13.4321   17.7334 H   0  0  0  0  0  0
  -27.8803  -11.2679   18.9204 H   0  0  0  0  0  0
  -27.3663  -12.5049   17.8072 H   0  0  0  0  0  0
  -27.6588  -14.2429   19.4845 H   0  0  0  0  0  0
  -28.6906  -12.1214   21.4331 H   0  0  0  0  0  0
  -28.4360  -13.8081   21.8048 H   0  0  0  0  0  0
  -25.2786   -9.5671   22.4795 H   0  0  0  0  0  0
  -24.0005   -7.4637   22.7490 H   0  0  0  0  0  0
  -21.0874   -8.8820   19.8948 H   0  0  0  0  0  0
  -22.3763  -10.9708   19.6180 H   0  0  0  0  0  0
  -21.2011   -7.6165   23.9736 H   0  0  0  0  0  0
  -21.1460   -6.0528   25.9079 H   0  0  0  0  0  0
  -22.0608   -2.7633   23.2825 H   0  0  0  0  0  0
  -22.4076  -11.9883   22.4751 H   0  0  0  0  0  0
  -21.1101  -13.1283   22.2588 H   0  0  0  0  0  0
  -24.6669  -15.8492   20.5137 H   0  0  0  0  0  0
  -26.2750  -15.6190   20.0532 H   0  0  0  0  0  0
  -26.7191  -32.5415   23.1077 H   0  0  0  0  0  0
  -25.0044  -33.9696   25.0369 H   0  0  0  0  0  0
  -22.7168  -31.3009   21.4072 H   0  0  0  0  0  0
  -23.3754  -35.9628   23.3313 H   0  0  0  0  0  0
  -24.3581  -36.8895   22.2053 H   0  0  0  0  0  0
  -23.7275  -37.6487   23.6665 H   0  0  0  0  0  0
  -26.1041  -31.5495   20.6192 H   0  0  0  0  0  0
  -26.8399  -30.8210   22.0173 H   0  0  0  0  0  0
  -28.1036  -28.9455   21.2307 H   0  0  0  0  0  0
  -25.9688  -25.9774   18.9126 H   0  0  0  0  0  0
  -23.9829  -27.3401   18.9580 H   0  0  0  0  0  0
  -23.7482  -30.6010   19.4047 H   0  0  0  0  0  0
  -22.7554  -29.2476   19.8614 H   0  0  0  0  0  0
  -25.1309  -36.1900   25.0805 H   0  0  0  0  0  0
  -20.9960  -28.3243   24.1418 H   0  0  0  0  0  0
  -20.5714  -26.2272   23.3597 H   0  0  0  0  0  0
  -21.6637  -26.7451   22.1182 H   0  0  0  0  0  0
  -19.6929  -25.6303   21.1220 H   0  0  0  0  0  0
  -19.6698  -27.3208   20.6752 H   0  0  0  0  0  0
  -17.4205  -26.6661   21.4015 H   0  0  0  0  0  0
  -18.0315  -26.0076   22.9029 H   0  0  0  0  0  0
  -19.7955  -30.7265   24.2219 H   0  0  0  0  0  0
  -17.5031  -31.6264   24.5147 H   0  0  0  0  0  0
  -15.5356  -30.2943   23.7712 H   0  0  0  0  0  0
  -15.8676  -28.0817   22.7039 H   0  0  0  0  0  0
  -24.5896  -30.7076   25.7749 H   0  0  0  0  0  0
  -24.8919  -32.2876   26.4883 H   0  0  0  0  0  0
  -25.8041  -30.8865   27.0207 H   0  0  0  0  0  0
  -26.2939  -29.6727   24.1250 H   0  0  0  0  0  0
  -27.4072  -29.7290   25.4719 H   0  0  0  0  0  0
  -27.8809  -30.4279   23.9425 H   0  0  0  0  0  0
  -27.2654  -33.3635   26.2044 H   0  0  0  0  0  0
  -28.3856  -32.6888   25.0301 H   0  0  0  0  0  0
  -28.0728  -31.8475   26.5409 H   0  0  0  0  0  0
  -28.2581  -38.0104   24.7503 H   0  0  0  0  0  0
  -28.1088  -36.2620   24.6290 H   0  0  0  0  0  0
  -27.2279  -37.1436   25.8862 H   0  0  0  0  0  0
  -20.9401  -29.8723   21.6870 H   0  0  0  0  0  0
  -26.0172  -38.2827   24.1420 H   0  0  0  0  0  0
  -31.7696  -19.5500   21.1563 H   0  0  0  0  0  0
  -30.8669  -21.8250   20.9940 H   0  0  0  0  0  0
  -27.8994  -17.8721   20.3641 H   0  0  0  0  0  0
  -31.3468  -17.1258   21.6286 H   0  0  0  0  0  0
  -31.2777  -17.1433   19.8945 H   0  0  0  0  0  0
  -27.0425  -24.7535   20.3811 H   0  0  0  0  0  0
  -27.9559  -24.8318   18.8932 H   0  0  0  0  0  0
  -29.1424  -23.9473   21.5838 H   0  0  0  0  0  0
  -29.8805  -23.7481   20.0014 H   0  0  0  0  0  0
  -26.0418  -19.4652   20.4849 H   0  0  0  0  0  0
  -26.2824  -21.1312   20.3701 H   0  0  0  0  0  0
  -29.0179  -15.6957   21.0755 H   0  0  0  0  0  0
  1 25  1  0  0  0
  1 30  2  0  0  0
  1 81  1  0  0  0
  2  3  1  0  0  0
  2 25  1  0  0  0
  2 83  1  0  0  0
  2 84  1  0  0  0
  3  4  1  0  0  0
  3 85  1  0  0  0
  3 86  1  0  0  0
  4  5  1  0  0  0
  4 87  1  0  0  0
  4 88  1  0  0  0
  5  6  1  0  0  0
  5 26  1  0  0  0
  5 89  1  0  0  0
  6 25  1  0  0  0
  6 90  1  0  0  0
  6 91  1  0  0  0
  7  8  2  0  0  0
  7 26  1  0  0  0
  7 29  1  0  0  0
  8  9  1  0  0  0
  8 22  1  0  0  0
  9 10  1  0  0  0
  9 27  2  0  0  0
 10 11  2  0  0  0
 10 15  1  0  0  0
 11 12  1  0  0  0
 11 92  1  0  0  0
 12 13  2  0  0  0
 12 93  1  0  0  0
 13 14  1  0  0  0
 13 31  1  0  0  0
 14 15  2  0  0  0
 14 94  1  0  0  0
 15 95  1  0  0  0
 16 17  2  0  0  0
 16 21  1  0  0  0
 16 31  1  0  0  0
 17 18  1  0  0  0
 17 96  1  0  0  0
 18 19  2  0  0  0
 18 97  1  0  0  0
 19 20  1  0  0  0
 19 24  1  0  0  0
 20 21  2  0  0  0
 20 98  1  0  0  0
 21 23  1  0  0  0
 22 28  1  0  0  0
 22 32  2  0  0  0
 26 27  1  0  0  0
 28 99  1  0  0  0
 28100  1  0  0  0
 29101  1  0  0  0
 29102  1  0  0  0
 33 34  1  0  0  0
 33 66  1  0  0  0
 33 70  2  0  0  0
 34 36  1  0  0  0
 34 59  1  0  0  0
 34103  1  0  0  0
 35 44  2  0  0  0
 35 45  1  0  0  0
 35 68  1  0  0  0
 36 56  1  0  0  0
 36104  1  0  0  0
 37 39  1  0  0  0
 37 47  1  0  0  0
 37 66  1  0  0  0
 37105  1  0  0  0
 38 43  2  0  0  0
 38 46  1  0  0  0
 38 47  1  0  0  0
 39 64  1  0  0  0
 39 67  2  0  0  0
 40 52  1  0  0  0
 40 53  2  0  0  0
 40 58  1  0  0  0
 41106  1  0  0  0
 41107  1  0  0  0
 41108  1  0  0  0
 41 48  1  0  0  0
 42 43  1  0  0  0
 42 66  1  0  0  0
 42109  1  0  0  0
 42110  1  0  0  0
 43 44  1  0  0  0
 44111  1  0  0  0
 45 46  2  0  0  0
 45112  1  0  0  0
 46113  1  0  0  0
 47114  1  0  0  0
 47115  1  0  0  0
 48 56  1  0  0  0
 48 65  1  0  0  0
 48116  1  0  0  0
 49 50  1  0  0  0
 49 53  1  0  0  0
 49 64  1  0  0  0
 49117  1  0  0  0
 50 51  1  0  0  0
 50118  1  0  0  0
 50119  1  0  0  0
 51 52  1  0  0  0
 51120  1  0  0  0
 51121  1  0  0  0
 52122  1  0  0  0
 52123  1  0  0  0
 53 54  1  0  0  0
 54 55  2  0  0  0
 54124  1  0  0  0
 55 57  1  0  0  0
 55125  1  0  0  0
 56 69  2  0  0  0
 57 58  2  0  0  0
 57126  1  0  0  0
 58127  1  0  0  0
 59 60  1  0  0  0
 59 61  1  0  0  0
 59 62  1  0  0  0
 60128  1  0  0  0
 60129  1  0  0  0
 60130  1  0  0  0
 61131  1  0  0  0
 61132  1  0  0  0
 61133  1  0  0  0
 62134  1  0  0  0
 62135  1  0  0  0
 62136  1  0  0  0
 63 65  1  0  0  0
 63137  1  0  0  0
 63138  1  0  0  0
 63139  1  0  0  0
 64140  1  0  0  0
 65141  1  0  0  0
 68 78  1  0  0  0
 71 72  2  0  0  0
 71 74  1  0  0  0
 71142  1  0  0  0
 72 76  1  0  0  0
 72143  1  0  0  0
 73 74  2  0  0  0
 73 75  1  0  0  0
 73144  1  0  0  0
 74 77  1  0  0  0
 75 76  2  0  0  0
 75 80  1  0  0  0
 76 82  1  0  0  0
 77 81  1  0  0  0
 77145  1  0  0  0
 77146  1  0  0  0
 78 79  1  0  0  0
 78147  1  0  0  0
 78148  1  0  0  0
 79 82  1  0  0  0
 79149  1  0  0  0
 79150  1  0  0  0
 80151  1  0  0  0
 80152  1  0  0  0
 81153  1  0  0  0
M  ISO  4   1 100  68 101  78 101  81 100
M  END
> <chiral flag>
0

> <version>
0

> <s_m_source_file>
/data/baiqing/PycharmProjects/Reinvent-master-3.2/result/LINK_invent/BTK/process_docking_weight1_custom_product_contain_oxygen_bond_distance_aromatic_linkinvent_7_9_3/rearranged_h_0101.sdf

> <i_m_source_file_index>
82

> <r_mmod_Potential_Energy-OPLS-2005>
-14.2336139678955

> <r_mmod_Stretch_Energy-OPLS-2005>
78.2895355224609

> <r_mmod_Bend_Energy-OPLS-2005>
163.683227539062

> <r_mmod_Torsional_Energy-OPLS-2005>
200.762466430664

> <r_mmod_Improper_Torsional_Energy-OPLS-2005>
8.30774688720703

> <r_mmod_Van_der_Waal_Energy-OPLS-2005>
152.842559814453

> <r_mmod_Electrostatic_Energy-OPLS-2005>
-449.775787353516

> <r_mmod_Solvation_Energy-OPLS-2005>
-223.406600952148

> <b_mmod_Minimization_Converged-OPLS-2005>
0

> <r_mmod_RMS_Derivative-OPLS-2005>
2.38428950309753

$$$$
82
                    3D
 Structure written by MMmdl.
159168  0  0  1  0            999 V2000
  -30.6182  -14.7138   20.3725 C   0  0  0  0  0  0
  -30.4430  -12.4089   19.4560 C   0  0  0  0  0  0
  -29.5033  -12.3647   18.2273 C   0  0  0  0  0  0
  -28.0231  -12.2858   18.6482 C   0  0  0  0  0  0
  -27.6417  -13.2175   19.8317 C   0  0  2  0  0  0
  -28.6959  -13.1774   20.9562 C   0  0  0  0  0  0
  -25.2579  -13.8194   20.5690 C   0  0  0  0  0  0
  -24.1841  -13.0457   20.9202 C   0  0  0  0  0  0
  -24.6396  -11.6921   20.8763 C   0  0  0  0  0  0
  -23.9061  -10.4308   21.0445 C   0  0  0  0  0  0
  -24.3607   -9.4223   21.9222 C   0  0  0  0  0  0
  -23.6278   -8.2265   22.0785 C   0  0  0  0  0  0
  -22.4267   -8.0309   21.3562 C   0  0  0  0  0  0
  -21.9891   -9.0295   20.4676 C   0  0  0  0  0  0
  -22.7232  -10.2167   20.3092 C   0  0  0  0  0  0
  -21.6859   -6.0758   22.5301 C   0  0  0  0  0  0
  -21.4017   -6.5665   23.8235 C   0  0  0  0  0  0
  -21.3630   -5.6819   24.9198 C   0  0  0  0  0  0
  -21.6027   -4.3082   24.7255 C   0  0  0  0  0  0
  -21.8810   -3.8170   23.4380 C   0  0  0  0  0  0
  -21.9191   -4.6981   22.3427 C   0  0  0  0  0  0
  -22.7876  -13.5270   21.1880 C   0  0  0  0  0  0
  -22.1662   -4.2156   21.1004 F   0  0  0  0  0  0
  -21.5596   -3.4558   25.7764 F   0  0  0  0  0  0
  -29.9880  -13.4954   20.3436 N   0  0  0  0  0  0
  -26.2969  -12.9359   20.3261 N   0  0  0  0  0  0
  -25.9321  -11.6526   20.5778 N   0  0  0  0  0  0
  -22.0501  -12.8245   22.0410 N   0  0  0  0  0  0
  -25.4348  -15.1904   20.4100 N   0  0  0  0  0  0
  -31.8497  -14.7733   20.3105 O   0  0  0  0  0  0
  -21.6650   -6.8893   21.4255 O   0  0  0  0  0  0
  -22.3573  -14.5596   20.6770 O   0  0  0  0  0  0
  -24.6231  -31.8594   23.2026 C   0  0  0  0  0  0
  -25.9077  -32.4761   23.8360 C   0  0  1  0  0  0
  -27.2164  -27.2947   20.1223 C   0  0  0  0  0  0
  -25.5934  -33.8587   24.2283 N   0  0  0  0  0  0
  -23.4200  -30.4832   21.5450 C   0  0  2  0  0  0
  -24.8615  -28.9344   20.1093 C   0  0  0  0  0  0
  -22.7431  -29.4643   22.4932 C   0  0  0  0  0  0
  -18.0268  -28.1381   22.8484 C   0  0  0  0  0  0
  -24.1488  -36.7289   23.2649 C   0  0  0  0  0  0
  -25.9602  -30.7797   21.3792 C   0  0  0  0  0  0
  -26.0295  -29.4066   20.7183 C   0  0  0  0  0  0
  -27.2028  -28.5965   20.7199 C   0  0  0  0  0  0
  -26.0217  -26.8783   19.4891 C   0  0  0  0  0  0
  -24.8610  -27.6768   19.4875 C   0  0  0  0  0  0
  -23.6326  -29.8183   20.1597 C   0  0  0  0  0  0
  -25.4113  -36.3097   24.0339 C   0  0  1  0  0  0
  -20.5871  -28.3720   23.1247 C   0  0  2  0  0  0
  -20.6784  -26.9446   22.5405 C   0  0  0  0  0  0
  -19.5752  -26.6389   21.5221 C   0  0  0  0  0  0
  -18.1917  -26.7916   22.1618 C   0  0  0  0  0  0
  -19.1531  -28.8857   23.2855 C   0  0  0  0  0  0
  -18.9488  -30.1465   23.8859 C   0  0  0  0  0  0
  -17.6498  -30.6588   24.0579 C   0  0  0  0  0  0
  -25.9056  -34.9459   23.5104 C   0  0  0  0  0  0
  -16.5373  -29.9111   23.6336 C   0  0  0  0  0  0
  -16.7260  -28.6525   23.0348 C   0  0  0  0  0  0
  -26.4472  -31.6574   25.0730 C   0  0  0  0  0  0
  -25.3716  -31.3708   26.1469 C   0  0  0  0  0  0
  -27.0332  -30.2998   24.6176 C   0  0  0  0  0  0
  -27.6006  -32.4350   25.7478 C   0  0  0  0  0  0
  -27.5554  -37.1797   24.8451 C   0  0  0  0  0  0
  -21.4152  -29.3069   22.3627 N   0  0  0  0  0  0
  -26.4271  -37.3809   23.9404 N   0  0  0  0  0  0
  -24.6868  -31.0580   22.0991 N   0  0  0  0  0  0
  -23.4119  -28.8212   23.3056 O   0  0  0  0  0  0
  -28.3539  -26.4678   20.1975 O   0  0  0  0  0  0
  -26.5610  -34.8921   22.4665 O   0  0  0  0  0  0
  -23.5380  -32.1422   23.7310 O   0  0  0  0  0  0
  -29.8891  -19.1652   21.6308 C   0  0  0  0  0  0
  -30.1531  -17.7794   21.3619 C   0  0  0  0  0  0
  -28.6858  -17.9194   19.4727 C   0  0  0  0  0  0
  -29.0473  -19.9783   20.8055 C   0  0  0  0  0  0
  -29.5813  -17.1139   20.2427 C   0  0  0  0  0  0
  -28.4303  -19.2964   19.7285 C   0  0  0  0  0  0
  -28.5074  -23.8648   20.7761 C   0  0  0  0  0  0
  -28.2813  -24.0638   22.1298 C   0  0  0  0  0  0
  -28.8942  -22.4827   20.2875 C   0  0  0  0  0  0
  -28.4044  -22.8933   23.0942 C   0  0  0  0  0  0
  -28.0398  -21.5723   22.4153 C   0  0  0  0  0  0
  -30.0051  -15.6916   18.2957 C   0  0  0  0  0  0
  -28.3944  -25.0520   19.7327 C   0  0  0  0  0  0
  -28.7209  -21.3854   21.1292 N   0  0  0  0  0  0
  -29.9069  -15.7457   19.7708 N   0  0  0  0  0  0
  -27.9628  -25.0812   22.7872 O   0  5  0  0  0  0
  -29.3935  -22.3365   19.1710 O   0  0  0  0  0  0
  -27.5446  -19.9489   18.9378 F   0  0  0  0  0  0
  -31.4775  -12.5456   19.1367 H   0  0  0  0  0  0
  -30.4145  -11.4592   19.9902 H   0  0  0  0  0  0
  -29.7503  -11.4920   17.6187 H   0  0  0  0  0  0
  -29.6543  -13.2095   17.5643 H   0  0  0  0  0  0
  -27.8432  -11.2485   18.9303 H   0  0  0  0  0  0
  -27.3778  -12.4817   17.7917 H   0  0  0  0  0  0
  -27.6261  -14.2291   19.4273 H   0  0  0  0  0  0
  -28.7295  -12.1967   21.4336 H   0  0  0  0  0  0
  -28.4564  -13.9055   21.7344 H   0  0  0  0  0  0
  -25.2749   -9.5709   22.4804 H   0  0  0  0  0  0
  -23.9993   -7.4654   22.7500 H   0  0  0  0  0  0
  -21.0831   -8.8839   19.8955 H   0  0  0  0  0  0
  -22.3722  -10.9733   19.6210 H   0  0  0  0  0  0
  -21.2028   -7.6177   23.9738 H   0  0  0  0  0  0
  -21.1427   -6.0557   25.9094 H   0  0  0  0  0  0
  -22.0590   -2.7626   23.2906 H   0  0  0  0  0  0
  -22.4065  -11.9839   22.4709 H   0  0  0  0  0  0
  -21.1140  -13.1312   22.2647 H   0  0  0  0  0  0
  -24.6789  -15.8572   20.5233 H   0  0  0  0  0  0
  -26.3053  -15.6206   20.1248 H   0  0  0  0  0  0
  -26.7140  -32.5398   23.1110 H   0  0  0  0  0  0
  -25.0181  -33.9767   25.0491 H   0  0  0  0  0  0
  -22.7163  -31.3071   21.3992 H   0  0  0  0  0  0
  -23.3771  -35.9600   23.3313 H   0  0  0  0  0  0
  -24.3565  -36.8896   22.2058 H   0  0  0  0  0  0
  -23.7232  -37.6492   23.6666 H   0  0  0  0  0  0
  -26.0918  -31.5420   20.6105 H   0  0  0  0  0  0
  -26.8415  -30.8272   22.0077 H   0  0  0  0  0  0
  -28.0912  -28.9502   21.2223 H   0  0  0  0  0  0
  -25.9327  -25.9190   19.0073 H   0  0  0  0  0  0
  -23.9643  -27.3078   19.0119 H   0  0  0  0  0  0
  -23.7568  -30.5968   19.4055 H   0  0  0  0  0  0
  -22.7501  -29.2526   19.8574 H   0  0  0  0  0  0
  -25.1303  -36.1977   25.0838 H   0  0  0  0  0  0
  -20.9961  -28.3339   24.1374 H   0  0  0  0  0  0
  -20.5731  -26.2349   23.3644 H   0  0  0  0  0  0
  -21.6645  -26.7502   22.1179 H   0  0  0  0  0  0
  -19.6959  -25.6317   21.1230 H   0  0  0  0  0  0
  -19.6663  -27.3221   20.6780 H   0  0  0  0  0  0
  -17.4209  -26.6666   21.4008 H   0  0  0  0  0  0
  -18.0295  -26.0047   22.8997 H   0  0  0  0  0  0
  -19.7992  -30.7279   24.2159 H   0  0  0  0  0  0
  -17.5090  -31.6256   24.5237 H   0  0  0  0  0  0
  -15.5392  -30.3045   23.7689 H   0  0  0  0  0  0
  -15.8640  -28.0881   22.7062 H   0  0  0  0  0  0
  -24.5885  -30.7062   25.7811 H   0  0  0  0  0  0
  -24.8923  -32.2886   26.4900 H   0  0  0  0  0  0
  -25.8065  -30.8893   27.0244 H   0  0  0  0  0  0
  -26.2915  -29.6723   24.1214 H   0  0  0  0  0  0
  -27.4089  -29.7248   25.4647 H   0  0  0  0  0  0
  -27.8748  -30.4288   23.9356 H   0  0  0  0  0  0
  -27.2574  -33.3670   26.1985 H   0  0  0  0  0  0
  -28.3812  -32.6904   25.0295 H   0  0  0  0  0  0
  -28.0682  -31.8557   26.5442 H   0  0  0  0  0  0
  -28.2594  -38.0079   24.7511 H   0  0  0  0  0  0
  -28.1035  -36.2615   24.6288 H   0  0  0  0  0  0
  -27.2230  -37.1432   25.8841 H   0  0  0  0  0  0
  -20.9339  -29.8770   21.6813 H   0  0  0  0  0  0
  -26.0147  -38.2873   24.1473 H   0  0  0  0  0  0
  -30.3619  -19.6108   22.4942 H   0  0  0  0  0  0
  -30.8395  -17.2477   22.0068 H   0  0  0  0  0  0
  -28.1792  -17.4901   18.6224 H   0  0  0  0  0  0
  -27.7761  -23.0157   23.9804 H   0  0  0  0  0  0
  -29.4308  -22.8364   23.4569 H   0  0  0  0  0  0
  -26.9665  -21.5559   22.2221 H   0  0  0  0  0  0
  -28.2349  -20.7495   23.1033 H   0  0  0  0  0  0
  -29.0465  -15.4177   17.8571 H   0  0  0  0  0  0
  -30.7652  -15.0009   17.9264 H   0  0  0  0  0  0
  -30.3026  -16.6518   17.8737 H   0  0  0  0  0  0
  -27.6180  -24.7975   19.0161 H   0  0  0  0  0  0
  -29.3076  -25.0029   19.1378 H   0  0  0  0  0  0
  1 25  1  0  0  0
  1 30  2  0  0  0
  1 85  1  0  0  0
  2  3  1  0  0  0
  2 25  1  0  0  0
  2 89  1  0  0  0
  2 90  1  0  0  0
  3  4  1  0  0  0
  3 91  1  0  0  0
  3 92  1  0  0  0
  4  5  1  0  0  0
  4 93  1  0  0  0
  4 94  1  0  0  0
  5  6  1  0  0  0
  5 26  1  0  0  0
  5 95  1  0  0  0
  6 25  1  0  0  0
  6 96  1  0  0  0
  6 97  1  0  0  0
  7  8  2  0  0  0
  7 26  1  0  0  0
  7 29  1  0  0  0
  8  9  1  0  0  0
  8 22  1  0  0  0
  9 10  1  0  0  0
  9 27  2  0  0  0
 10 11  2  0  0  0
 10 15  1  0  0  0
 11 12  1  0  0  0
 11 98  1  0  0  0
 12 13  2  0  0  0
 12 99  1  0  0  0
 13 14  1  0  0  0
 13 31  1  0  0  0
 14 15  2  0  0  0
 14100  1  0  0  0
 15101  1  0  0  0
 16 17  2  0  0  0
 16 21  1  0  0  0
 16 31  1  0  0  0
 17 18  1  0  0  0
 17102  1  0  0  0
 18 19  2  0  0  0
 18103  1  0  0  0
 19 20  1  0  0  0
 19 24  1  0  0  0
 20 21  2  0  0  0
 20104  1  0  0  0
 21 23  1  0  0  0
 22 28  1  0  0  0
 22 32  2  0  0  0
 26 27  1  0  0  0
 28105  1  0  0  0
 28106  1  0  0  0
 29107  1  0  0  0
 29108  1  0  0  0
 33 34  1  0  0  0
 33 66  1  0  0  0
 33 70  2  0  0  0
 34 36  1  0  0  0
 34 59  1  0  0  0
 34109  1  0  0  0
 35 44  2  0  0  0
 35 45  1  0  0  0
 35 68  1  0  0  0
 36 56  1  0  0  0
 36110  1  0  0  0
 37 39  1  0  0  0
 37 47  1  0  0  0
 37 66  1  0  0  0
 37111  1  0  0  0
 38 43  2  0  0  0
 38 46  1  0  0  0
 38 47  1  0  0  0
 39 64  1  0  0  0
 39 67  2  0  0  0
 40 52  1  0  0  0
 40 53  2  0  0  0
 40 58  1  0  0  0
 41112  1  0  0  0
 41113  1  0  0  0
 41114  1  0  0  0
 41 48  1  0  0  0
 42 43  1  0  0  0
 42 66  1  0  0  0
 42115  1  0  0  0
 42116  1  0  0  0
 43 44  1  0  0  0
 44117  1  0  0  0
 45 46  2  0  0  0
 45118  1  0  0  0
 46119  1  0  0  0
 47120  1  0  0  0
 47121  1  0  0  0
 48 56  1  0  0  0
 48 65  1  0  0  0
 48122  1  0  0  0
 49 50  1  0  0  0
 49 53  1  0  0  0
 49 64  1  0  0  0
 49123  1  0  0  0
 50 51  1  0  0  0
 50124  1  0  0  0
 50125  1  0  0  0
 51 52  1  0  0  0
 51126  1  0  0  0
 51127  1  0  0  0
 52128  1  0  0  0
 52129  1  0  0  0
 53 54  1  0  0  0
 54 55  2  0  0  0
 54130  1  0  0  0
 55 57  1  0  0  0
 55131  1  0  0  0
 56 69  2  0  0  0
 57 58  2  0  0  0
 57132  1  0  0  0
 58133  1  0  0  0
 59 60  1  0  0  0
 59 61  1  0  0  0
 59 62  1  0  0  0
 60134  1  0  0  0
 60135  1  0  0  0
 60136  1  0  0  0
 61137  1  0  0  0
 61138  1  0  0  0
 61139  1  0  0  0
 62140  1  0  0  0
 62141  1  0  0  0
 62142  1  0  0  0
 63 65  1  0  0  0
 63143  1  0  0  0
 63144  1  0  0  0
 63145  1  0  0  0
 64146  1  0  0  0
 65147  1  0  0  0
 68 83  1  0  0  0
 71 72  2  0  0  0
 71 74  1  0  0  0
 71148  1  0  0  0
 72 75  1  0  0  0
 72149  1  0  0  0
 73 75  2  0  0  0
 73 76  1  0  0  0
 73150  1  0  0  0
 74 76  2  0  0  0
 74 84  1  0  0  0
 75 85  1  0  0  0
 76 88  1  0  0  0
 77 78  2  0  0  0
 77 79  1  0  0  0
 77 83  1  0  0  0
 78 80  1  0  0  0
 78 86  1  0  0  0
 79 84  1  0  0  0
 79 87  2  0  0  0
 80 81  1  0  0  0
 80151  1  0  0  0
 80152  1  0  0  0
 81 84  1  0  0  0
 81153  1  0  0  0
 81154  1  0  0  0
 82 85  1  0  0  0
 82155  1  0  0  0
 82156  1  0  0  0
 82157  1  0  0  0
 83158  1  0  0  0
 83159  1  0  0  0
M  CHG  1  86  -1
M  ISO  4   1 100  68 101  83 101  85 100
M  END
> <chiral flag>
0

> <version>
0

> <s_m_source_file>
/data/baiqing/PycharmProjects/Reinvent-master-3.2/result/LINK_invent/BTK/process_docking_weight1_custom_product_contain_oxygen_bond_distance_aromatic_linkinvent_7_9_3/rearranged_h_0101.sdf

> <i_m_source_file_index>
83

> <r_mmod_Potential_Energy-OPLS-2005>
100.327690124512

> <r_mmod_Stretch_Energy-OPLS-2005>
105.785835266113

> <r_mmod_Bend_Energy-OPLS-2005>
176.748916625977

> <r_mmod_Torsional_Energy-OPLS-2005>
352.579223632812

> <r_mmod_Improper_Torsional_Energy-OPLS-2005>
29.1961917877197

> <r_mmod_Van_der_Waal_Energy-OPLS-2005>
166.400619506836

> <r_mmod_Electrostatic_Energy-OPLS-2005>
-324.132629394531

> <r_mmod_Solvation_Energy-OPLS-2005>
-489.138580322266

> <b_mmod_Minimization_Converged-OPLS-2005>
0

> <r_mmod_RMS_Derivative-OPLS-2005>
2.92790651321411

$$$$
83
                    3D
 Structure written by MMmdl.
162170  0  0  1  0            999 V2000
  -30.5720  -14.5000   20.5577 C   0  0  0  0  0  0
  -30.4510  -12.3151   19.4020 C   0  0  0  0  0  0
  -29.4921  -12.4603   18.1973 C   0  0  0  0  0  0
  -28.0187  -12.3002   18.6199 C   0  0  0  0  0  0
  -27.6547  -13.1548   19.8598 C   0  0  2  0  0  0
  -28.6941  -12.8960   20.9741 C   0  0  0  0  0  0
  -25.2604  -13.8046   20.5633 C   0  0  0  0  0  0
  -24.1814  -13.0403   20.9209 C   0  0  0  0  0  0
  -24.6283  -11.6857   20.8778 C   0  0  0  0  0  0
  -23.8958  -10.4266   21.0457 C   0  0  0  0  0  0
  -24.3557   -9.4185   21.9219 C   0  0  0  0  0  0
  -23.6255   -8.2199   22.0748 C   0  0  0  0  0  0
  -22.4251   -8.0239   21.3521 C   0  0  0  0  0  0
  -21.9855   -9.0219   20.4647 C   0  0  0  0  0  0
  -22.7151  -10.2116   20.3103 C   0  0  0  0  0  0
  -21.6840   -6.0715   22.5282 C   0  0  0  0  0  0
  -21.3962   -6.5626   23.8213 C   0  0  0  0  0  0
  -21.3660   -5.6776   24.9186 C   0  0  0  0  0  0
  -21.6080   -4.3032   24.7232 C   0  0  0  0  0  0
  -21.8831   -3.8121   23.4345 C   0  0  0  0  0  0
  -21.9166   -4.6941   22.3400 C   0  0  0  0  0  0
  -22.7880  -13.5287   21.1889 C   0  0  0  0  0  0
  -22.1680   -4.2143   21.0978 F   0  0  0  0  0  0
  -21.5651   -3.4500   25.7721 F   0  0  0  0  0  0
  -30.0156  -13.2639   20.4342 N   0  0  0  0  0  0
  -26.2943  -12.9094   20.3243 N   0  0  0  0  0  0
  -25.9181  -11.6337   20.5719 N   0  0  0  0  0  0
  -22.0452  -12.8316   22.0442 N   0  0  0  0  0  0
  -25.4437  -15.1757   20.4094 N   0  0  0  0  0  0
  -31.7334  -14.7648   20.2238 O   0  0  0  0  0  0
  -21.6643   -6.8832   21.4228 O   0  0  0  0  0  0
  -22.3651  -14.5651   20.6755 O   0  0  0  0  0  0
  -24.6123  -31.8742   23.2087 C   0  0  0  0  0  0
  -25.9026  -32.4868   23.8374 C   0  0  1  0  0  0
  -27.2149  -27.4875   20.0751 C   0  0  0  0  0  0
  -25.5887  -33.8646   24.2315 N   0  0  0  0  0  0
  -23.3869  -30.4994   21.5578 C   0  0  2  0  0  0
  -24.8221  -28.9695   20.1144 C   0  0  0  0  0  0
  -22.7380  -29.4659   22.5073 C   0  0  0  0  0  0
  -18.0253  -28.1351   22.8524 C   0  0  0  0  0  0
  -24.1479  -36.7326   23.2620 C   0  0  0  0  0  0
  -25.9039  -30.8636   21.3329 C   0  0  0  0  0  0
  -25.9816  -29.4956   20.6991 C   0  0  0  0  0  0
  -27.1793  -28.7552   20.6785 C   0  0  0  0  0  0
  -26.0376  -26.9649   19.4820 C   0  0  0  0  0  0
  -24.8436  -27.7055   19.5053 C   0  0  0  0  0  0
  -23.5827  -29.8305   20.1704 C   0  0  0  0  0  0
  -25.4089  -36.3137   24.0339 C   0  0  1  0  0  0
  -20.5836  -28.3599   23.1401 C   0  0  2  0  0  0
  -20.6724  -26.9348   22.5443 C   0  0  0  0  0  0
  -19.5700  -26.6379   21.5228 C   0  0  0  0  0  0
  -18.1881  -26.7903   22.1642 C   0  0  0  0  0  0
  -19.1503  -28.8796   23.2964 C   0  0  0  0  0  0
  -18.9427  -30.1390   23.8998 C   0  0  0  0  0  0
  -17.6432  -30.6569   24.0563 C   0  0  0  0  0  0
  -25.9027  -34.9507   23.5127 C   0  0  0  0  0  0
  -16.5325  -29.9078   23.6296 C   0  0  0  0  0  0
  -16.7242  -28.6472   23.0371 C   0  0  0  0  0  0
  -26.4467  -31.6605   25.0643 C   0  0  0  0  0  0
  -25.3746  -31.3737   26.1408 C   0  0  0  0  0  0
  -27.0207  -30.3068   24.5837 C   0  0  0  0  0  0
  -27.6093  -32.4262   25.7424 C   0  0  0  0  0  0
  -27.5581  -37.1803   24.8456 C   0  0  0  0  0  0
  -21.4104  -29.3008   22.3850 N   0  0  0  0  0  0
  -26.4283  -37.3818   23.9438 N   0  0  0  0  0  0
  -24.6556  -31.0891   22.0983 N   0  0  0  0  0  0
  -23.4206  -28.8195   23.3048 O   0  0  0  0  0  0
  -28.4092  -26.8181   20.0849 O   0  0  0  0  0  0
  -26.5592  -34.8976   22.4678 O   0  0  0  0  0  0
  -23.5317  -32.1457   23.7558 O   0  0  0  0  0  0
  -29.8997  -18.4417   22.9714 C   0  0  0  0  0  0
  -29.3556  -19.4337   22.1356 C   0  0  0  0  0  0
  -30.0469  -17.1227   22.5008 C   0  0  0  0  0  0
  -29.1120  -17.7918   20.3458 C   0  0  0  0  0  0
  -28.9551  -19.1250   20.8132 C   0  0  0  0  0  0
  -29.6726  -16.7919   21.1855 C   0  0  0  0  0  0
  -29.3336  -21.3680   19.7151 C   0  0  0  0  0  0
  -26.8402  -20.9441   17.9505 C   0  0  0  0  0  0
  -27.6524  -19.8229   18.6394 C   0  0  0  0  0  0
  -29.6847  -24.8779   20.4149 C   0  0  0  0  0  0
  -30.1216  -23.5443   19.8098 C   0  0  0  0  0  0
  -28.4073  -25.4378   19.7736 C   0  0  0  0  0  0
  -28.3347  -20.2472   19.9640 C   0  0  1  0  0  0
  -29.1352  -22.5456   20.1410 N   0  0  0  0  0  0
  -29.6192  -15.4291   20.7941 N   0  0  0  0  0  0
  -31.4850  -12.4894   19.0960 H   0  0  0  0  0  0
  -30.4144  -11.2926   19.7880 H   0  0  0  0  0  0
  -29.7454  -11.7288   17.4295 H   0  0  0  0  0  0
  -29.6162  -13.4394   17.7348 H   0  0  0  0  0  0
  -27.8479  -11.2452   18.8425 H   0  0  0  0  0  0
  -27.3647  -12.5408   17.7831 H   0  0  0  0  0  0
  -27.6948  -14.1979   19.5521 H   0  0  0  0  0  0
  -28.6934  -11.8360   21.2382 H   0  0  0  0  0  0
  -28.4440  -13.4227   21.8931 H   0  0  0  0  0  0
  -25.2712   -9.5675   22.4791 H   0  0  0  0  0  0
  -23.9943   -7.4598   22.7494 H   0  0  0  0  0  0
  -21.0765   -8.8796   19.8970 H   0  0  0  0  0  0
  -22.3632  -10.9696   19.6237 H   0  0  0  0  0  0
  -21.1943   -7.6139   23.9709 H   0  0  0  0  0  0
  -21.1511   -6.0519   25.9091 H   0  0  0  0  0  0
  -22.0607   -2.7579   23.2876 H   0  0  0  0  0  0
  -22.3972  -11.9915   22.4841 H   0  0  0  0  0  0
  -21.1107  -13.1445   22.2671 H   0  0  0  0  0  0
  -24.6773  -15.8296   20.5338 H   0  0  0  0  0  0
  -26.2693  -15.6069   20.0131 H   0  0  0  0  0  0
  -26.7096  -32.5639   23.1160 H   0  0  0  0  0  0
  -25.0043  -33.9782   25.0472 H   0  0  0  0  0  0
  -22.6706  -31.3138   21.4297 H   0  0  0  0  0  0
  -23.3751  -35.9647   23.3255 H   0  0  0  0  0  0
  -24.3572  -36.8950   22.2034 H   0  0  0  0  0  0
  -23.7213  -37.6521   23.6634 H   0  0  0  0  0  0
  -25.9531  -31.6102   20.5405 H   0  0  0  0  0  0
  -26.8184  -30.9678   21.9040 H   0  0  0  0  0  0
  -28.0801  -29.1560   21.1246 H   0  0  0  0  0  0
  -26.0244  -26.0050   18.9892 H   0  0  0  0  0  0
  -23.9484  -27.3030   19.0484 H   0  0  0  0  0  0
  -23.6769  -30.6040   19.4099 H   0  0  0  0  0  0
  -22.7074  -29.2441   19.8847 H   0  0  0  0  0  0
  -25.1254  -36.1985   25.0828 H   0  0  0  0  0  0
  -20.9901  -28.3119   24.1535 H   0  0  0  0  0  0
  -20.5597  -26.2188   23.3597 H   0  0  0  0  0  0
  -21.6604  -26.7388   22.1267 H   0  0  0  0  0  0
  -19.6840  -25.6317   21.1188 H   0  0  0  0  0  0
  -19.6627  -27.3259   20.6820 H   0  0  0  0  0  0
  -17.4141  -26.6687   21.4046 H   0  0  0  0  0  0
  -18.0260  -26.0032   22.9023 H   0  0  0  0  0  0
  -19.7900  -30.7160   24.2452 H   0  0  0  0  0  0
  -17.4993  -31.6277   24.5112 H   0  0  0  0  0  0
  -15.5327  -30.3017   23.7553 H   0  0  0  0  0  0
  -15.8638  -28.0792   22.7081 H   0  0  0  0  0  0
  -24.5934  -30.7019   25.7791 H   0  0  0  0  0  0
  -24.8893  -32.2905   26.4788 H   0  0  0  0  0  0
  -25.8121  -30.8993   27.0196 H   0  0  0  0  0  0
  -26.2639  -29.6918   24.0931 H   0  0  0  0  0  0
  -27.4093  -29.7199   25.4164 H   0  0  0  0  0  0
  -27.8429  -30.4433   23.8808 H   0  0  0  0  0  0
  -27.2760  -33.3567   26.2033 H   0  0  0  0  0  0
  -28.3936  -32.6781   25.0278 H   0  0  0  0  0  0
  -28.0699  -31.8312   26.5318 H   0  0  0  0  0  0
  -28.2621  -38.0097   24.7556 H   0  0  0  0  0  0
  -28.1070  -36.2635   24.6220 H   0  0  0  0  0  0
  -27.2299  -37.1384   25.8864 H   0  0  0  0  0  0
  -20.9206  -29.8811   21.7192 H   0  0  0  0  0  0
  -26.0164  -38.2883   24.1508 H   0  0  0  0  0  0
  -30.1804  -18.6897   23.9869 H   0  0  0  0  0  0
  -29.2274  -20.4370   22.5258 H   0  0  0  0  0  0
  -30.4013  -16.3578   23.1796 H   0  0  0  0  0  0
  -28.7727  -17.5221   19.3569 H   0  0  0  0  0  0
  -30.2145  -21.0913   19.1255 H   0  0  0  0  0  0
  -26.5242  -20.6397   16.9494 H   0  0  0  0  0  0
  -27.4149  -21.8623   17.8255 H   0  0  0  0  0  0
  -25.9424  -21.1998   18.5183 H   0  0  0  0  0  0
  -28.4030  -19.4425   17.9467 H   0  0  0  0  0  0
  -26.9641  -19.0010   18.8343 H   0  0  0  0  0  0
  -30.4965  -25.5956   20.3010 H   0  0  0  0  0  0
  -29.5297  -24.7771   21.4901 H   0  0  0  0  0  0
  -31.1037  -23.2653   20.1998 H   0  0  0  0  0  0
  -30.2324  -23.6567   18.7275 H   0  0  0  0  0  0
  -27.5450  -24.9181   20.1977 H   0  0  0  0  0  0
  -28.3851  -25.3075   18.6902 H   0  0  0  0  0  0
  -27.5390  -20.6560   20.5923 H   0  0  0  0  0  0
  -28.6930  -15.0256   20.8189 H   0  0  0  0  0  0
  1 25  1  0  0  0
  1 30  2  0  0  0
  1 85  1  0  0  0
  2  3  1  0  0  0
  2 25  1  0  0  0
  2 86  1  0  0  0
  2 87  1  0  0  0
  3  4  1  0  0  0
  3 88  1  0  0  0
  3 89  1  0  0  0
  4  5  1  0  0  0
  4 90  1  0  0  0
  4 91  1  0  0  0
  5  6  1  0  0  0
  5 26  1  0  0  0
  5 92  1  0  0  0
  6 25  1  0  0  0
  6 93  1  0  0  0
  6 94  1  0  0  0
  7  8  2  0  0  0
  7 26  1  0  0  0
  7 29  1  0  0  0
  8  9  1  0  0  0
  8 22  1  0  0  0
  9 10  1  0  0  0
  9 27  2  0  0  0
 10 11  2  0  0  0
 10 15  1  0  0  0
 11 12  1  0  0  0
 11 95  1  0  0  0
 12 13  2  0  0  0
 12 96  1  0  0  0
 13 14  1  0  0  0
 13 31  1  0  0  0
 14 15  2  0  0  0
 14 97  1  0  0  0
 15 98  1  0  0  0
 16 17  2  0  0  0
 16 21  1  0  0  0
 16 31  1  0  0  0
 17 18  1  0  0  0
 17 99  1  0  0  0
 18 19  2  0  0  0
 18100  1  0  0  0
 19 20  1  0  0  0
 19 24  1  0  0  0
 20 21  2  0  0  0
 20101  1  0  0  0
 21 23  1  0  0  0
 22 28  1  0  0  0
 22 32  2  0  0  0
 26 27  1  0  0  0
 28102  1  0  0  0
 28103  1  0  0  0
 29104  1  0  0  0
 29105  1  0  0  0
 33 34  1  0  0  0
 33 66  1  0  0  0
 33 70  2  0  0  0
 34 36  1  0  0  0
 34 59  1  0  0  0
 34106  1  0  0  0
 35 44  2  0  0  0
 35 45  1  0  0  0
 35 68  1  0  0  0
 36 56  1  0  0  0
 36107  1  0  0  0
 37 39  1  0  0  0
 37 47  1  0  0  0
 37 66  1  0  0  0
 37108  1  0  0  0
 38 43  2  0  0  0
 38 46  1  0  0  0
 38 47  1  0  0  0
 39 64  1  0  0  0
 39 67  2  0  0  0
 40 52  1  0  0  0
 40 53  2  0  0  0
 40 58  1  0  0  0
 41109  1  0  0  0
 41110  1  0  0  0
 41111  1  0  0  0
 41 48  1  0  0  0
 42 43  1  0  0  0
 42 66  1  0  0  0
 42112  1  0  0  0
 42113  1  0  0  0
 43 44  1  0  0  0
 44114  1  0  0  0
 45 46  2  0  0  0
 45115  1  0  0  0
 46116  1  0  0  0
 47117  1  0  0  0
 47118  1  0  0  0
 48 56  1  0  0  0
 48 65  1  0  0  0
 48119  1  0  0  0
 49 50  1  0  0  0
 49 53  1  0  0  0
 49 64  1  0  0  0
 49120  1  0  0  0
 50 51  1  0  0  0
 50121  1  0  0  0
 50122  1  0  0  0
 51 52  1  0  0  0
 51123  1  0  0  0
 51124  1  0  0  0
 52125  1  0  0  0
 52126  1  0  0  0
 53 54  1  0  0  0
 54 55  2  0  0  0
 54127  1  0  0  0
 55 57  1  0  0  0
 55128  1  0  0  0
 56 69  2  0  0  0
 57 58  2  0  0  0
 57129  1  0  0  0
 58130  1  0  0  0
 59 60  1  0  0  0
 59 61  1  0  0  0
 59 62  1  0  0  0
 60131  1  0  0  0
 60132  1  0  0  0
 60133  1  0  0  0
 61134  1  0  0  0
 61135  1  0  0  0
 61136  1  0  0  0
 62137  1  0  0  0
 62138  1  0  0  0
 62139  1  0  0  0
 63 65  1  0  0  0
 63140  1  0  0  0
 63141  1  0  0  0
 63142  1  0  0  0
 64143  1  0  0  0
 65144  1  0  0  0
 68 82  1  0  0  0
 71 72  2  0  0  0
 71 73  1  0  0  0
 71145  1  0  0  0
 72 75  1  0  0  0
 72146  1  0  0  0
 73 76  2  0  0  0
 73147  1  0  0  0
 74 75  2  0  0  0
 74 76  1  0  0  0
 74148  1  0  0  0
 75 83  1  0  0  0
 76 85  1  0  0  0
 77 83  1  0  0  0
 77 84  2  0  0  0
 77149  1  0  0  0
 78 79  1  0  0  0
 78150  1  0  0  0
 78151  1  0  0  0
 78152  1  0  0  0
 79153  1  0  0  0
 79154  1  0  0  0
 79 83  1  0  0  0
 80 81  1  0  0  0
 80 82  1  0  0  0
 80155  1  0  0  0
 80156  1  0  0  0
 81 84  1  0  0  0
 81157  1  0  0  0
 81158  1  0  0  0
 82159  1  0  0  0
 82160  1  0  0  0
 83161  1  0  0  0
 85162  1  0  0  0
M  ISO  4   1 100  68 101  82 101  85 100
M  END
> <chiral flag>
0

> <version>
0

> <s_m_source_file>
/data/baiqing/PycharmProjects/Reinvent-master-3.2/result/LINK_invent/BTK/process_docking_weight1_custom_product_contain_oxygen_bond_distance_aromatic_linkinvent_7_9_3/rearranged_h_0101.sdf

> <i_m_source_file_index>
84

> <r_mmod_Potential_Energy-OPLS-2005>
60.0988464355469

> <r_mmod_Stretch_Energy-OPLS-2005>
34.0986251831055

> <r_mmod_Bend_Energy-OPLS-2005>
109.097244262695

> <r_mmod_Torsional_Energy-OPLS-2005>
246.267395019531

> <r_mmod_Improper_Torsional_Energy-OPLS-2005>
9.42928218841553

> <r_mmod_Van_der_Waal_Energy-OPLS-2005>
161.641632080078

> <r_mmod_Electrostatic_Energy-OPLS-2005>
-313.592407226562

> <r_mmod_Solvation_Energy-OPLS-2005>
-209.353759765625

> <b_mmod_Minimization_Converged-OPLS-2005>
0

> <r_mmod_RMS_Derivative-OPLS-2005>
7.246666431427

$$$$
84
                    3D
 Structure written by MMmdl.
162171  0  0  1  0            999 V2000
  -30.6262  -14.6470   20.4685 C   0  0  0  0  0  0
  -30.4410  -12.3880   19.4509 C   0  0  0  0  0  0
  -29.5082  -12.4968   18.2233 C   0  0  0  0  0  0
  -28.0303  -12.3416   18.6386 C   0  0  0  0  0  0
  -27.6520  -13.2180   19.8631 C   0  0  2  0  0  0
  -28.7038  -13.0870   20.9885 C   0  0  0  0  0  0
  -25.2535  -13.8162   20.5730 C   0  0  0  0  0  0
  -24.1799  -13.0404   20.9159 C   0  0  0  0  0  0
  -24.6388  -11.6889   20.8731 C   0  0  0  0  0  0
  -23.9061  -10.4272   21.0404 C   0  0  0  0  0  0
  -24.3609   -9.4194   21.9193 C   0  0  0  0  0  0
  -23.6284   -8.2233   22.0763 C   0  0  0  0  0  0
  -22.4269   -8.0276   21.3547 C   0  0  0  0  0  0
  -21.9894   -9.0248   20.4648 C   0  0  0  0  0  0
  -22.7229  -10.2123   20.3060 C   0  0  0  0  0  0
  -21.6841   -6.0729   22.5275 C   0  0  0  0  0  0
  -21.4011   -6.5634   23.8212 C   0  0  0  0  0  0
  -21.3661   -5.6786   24.9173 C   0  0  0  0  0  0
  -21.6052   -4.3053   24.7223 C   0  0  0  0  0  0
  -21.8816   -3.8140   23.4344 C   0  0  0  0  0  0
  -21.9193   -4.6958   22.3400 C   0  0  0  0  0  0
  -22.7818  -13.5202   21.1823 C   0  0  0  0  0  0
  -22.1661   -4.2142   21.0975 F   0  0  0  0  0  0
  -21.5630   -3.4540   25.7736 F   0  0  0  0  0  0
  -30.0176  -13.4204   20.4138 N   0  0  0  0  0  0
  -26.2989  -12.9366   20.3362 N   0  0  0  0  0  0
  -25.9329  -11.6513   20.5781 N   0  0  0  0  0  0
  -22.0457  -12.8237   22.0408 N   0  0  0  0  0  0
  -25.4110  -15.1914   20.4308 N   0  0  0  0  0  0
  -31.8099  -14.7961   20.1500 O   0  0  0  0  0  0
  -21.6638   -6.8872   21.4237 O   0  0  0  0  0  0
  -22.3498  -14.5496   20.6652 O   0  0  0  0  0  0
  -24.6263  -31.8605   23.2042 C   0  0  0  0  0  0
  -25.9110  -32.4784   23.8366 C   0  0  1  0  0  0
  -27.2219  -27.3186   20.1011 C   0  0  0  0  0  0
  -25.5921  -33.8585   24.2292 N   0  0  0  0  0  0
  -23.4204  -30.4864   21.5470 C   0  0  2  0  0  0
  -24.8657  -28.9475   20.1109 C   0  0  0  0  0  0
  -22.7480  -29.4627   22.4930 C   0  0  0  0  0  0
  -18.0288  -28.1389   22.8489 C   0  0  0  0  0  0
  -24.1487  -36.7297   23.2634 C   0  0  0  0  0  0
  -25.9646  -30.7895   21.3786 C   0  0  0  0  0  0
  -26.0377  -29.4187   20.7161 C   0  0  0  0  0  0
  -27.2186  -28.6159   20.7034 C   0  0  0  0  0  0
  -26.0215  -26.9064   19.4725 C   0  0  0  0  0  0
  -24.8600  -27.6964   19.4817 C   0  0  0  0  0  0
  -23.6356  -29.8274   20.1611 C   0  0  0  0  0  0
  -25.4106  -36.3084   24.0329 C   0  0  1  0  0  0
  -20.5889  -28.3694   23.1278 C   0  0  2  0  0  0
  -20.6777  -26.9417   22.5404 C   0  0  0  0  0  0
  -19.5749  -26.6383   21.5209 C   0  0  0  0  0  0
  -18.1929  -26.7934   22.1624 C   0  0  0  0  0  0
  -19.1543  -28.8857   23.2881 C   0  0  0  0  0  0
  -18.9465  -30.1457   23.8901 C   0  0  0  0  0  0
  -17.6465  -30.6590   24.0561 C   0  0  0  0  0  0
  -25.9045  -34.9455   23.5110 C   0  0  0  0  0  0
  -16.5357  -29.9089   23.6325 C   0  0  0  0  0  0
  -16.7274  -28.6505   23.0351 C   0  0  0  0  0  0
  -26.4482  -31.6592   25.0739 C   0  0  0  0  0  0
  -25.3712  -31.3751   26.1470 C   0  0  0  0  0  0
  -27.0309  -30.3004   24.6206 C   0  0  0  0  0  0
  -27.6053  -32.4318   25.7495 C   0  0  0  0  0  0
  -27.5580  -37.1796   24.8452 C   0  0  0  0  0  0
  -21.4193  -29.3052   22.3678 N   0  0  0  0  0  0
  -26.4281  -37.3781   23.9411 N   0  0  0  0  0  0
  -24.6889  -31.0618   22.0993 N   0  0  0  0  0  0
  -23.4207  -28.8152   23.2994 O   0  0  0  0  0  0
  -28.3361  -26.4593   20.1420 O   0  0  0  0  0  0
  -26.5619  -34.8914   22.4679 O   0  0  0  0  0  0
  -23.5425  -32.1407   23.7367 O   0  0  0  0  0  0
  -31.0875  -17.9025   20.7719 C   0  0  0  0  0  0
  -28.7738  -19.3174   20.0932 C   0  0  0  0  0  0
  -31.1185  -19.3338   20.6891 C   0  0  0  0  0  0
  -29.9243  -20.0968   20.4022 C   0  0  0  0  0  0
  -29.9213  -17.1486   20.5062 C   0  0  0  0  0  0
  -28.7757  -17.8904   20.1265 C   0  0  0  0  0  0
  -32.4730  -19.9650   20.8959 C   0  0  0  0  0  0
  -29.5702  -23.6477   21.6092 C   0  0  0  0  0  0
  -30.3107  -22.2880   21.6036 C   0  0  0  0  0  0
  -28.9040  -22.4279   19.7048 C   0  0  0  0  0  0
  -29.2134  -23.9136   20.1433 C   0  0  1  0  0  0
  -28.0985  -25.0181   19.8817 C   0  0  0  0  0  0
  -29.8549  -21.5451   20.4244 N   0  0  0  0  0  0
  -27.6316  -17.1832   19.7488 N   0  0  0  0  0  0
  -32.8353  -20.9015   20.0280 N   0  0  0  0  0  0
  -29.7836  -15.7035   20.6649 N   0  0  0  0  0  0
  -33.2450  -19.5639   21.7668 O   0  0  0  0  0  0
  -31.4832  -12.5073   19.1488 H   0  0  0  0  0  0
  -30.3702  -11.3979   19.9039 H   0  0  0  0  0  0
  -29.7691  -11.7413   17.4811 H   0  0  0  0  0  0
  -29.6525  -13.4637   17.7374 H   0  0  0  0  0  0
  -27.8617  -11.2892   18.8718 H   0  0  0  0  0  0
  -27.3778  -12.5747   17.7964 H   0  0  0  0  0  0
  -27.6598  -14.2492   19.5128 H   0  0  0  0  0  0
  -28.7156  -12.0710   21.3863 H   0  0  0  0  0  0
  -28.4589  -13.7363   21.8310 H   0  0  0  0  0  0
  -25.2760   -9.5668   22.4764 H   0  0  0  0  0  0
  -23.9991   -7.4624   22.7486 H   0  0  0  0  0  0
  -21.0822   -8.8775   19.8954 H   0  0  0  0  0  0
  -22.3703  -10.9665   19.6165 H   0  0  0  0  0  0
  -21.2000   -7.6141   23.9715 H   0  0  0  0  0  0
  -21.1486   -6.0515   25.9077 H   0  0  0  0  0  0
  -22.0593   -2.7600   23.2851 H   0  0  0  0  0  0
  -22.4068  -11.9908   22.4822 H   0  0  0  0  0  0
  -21.1083  -13.1303   22.2613 H   0  0  0  0  0  0
  -24.6255  -15.8208   20.5529 H   0  0  0  0  0  0
  -26.2782  -15.6964   20.2553 H   0  0  0  0  0  0
  -26.7183  -32.5453   23.1119 H   0  0  0  0  0  0
  -25.0037  -33.9732   25.0415 H   0  0  0  0  0  0
  -22.7140  -31.3068   21.4055 H   0  0  0  0  0  0
  -23.3753  -35.9624   23.3276 H   0  0  0  0  0  0
  -24.3589  -36.8943   22.2054 H   0  0  0  0  0  0
  -23.7236  -37.6488   23.6677 H   0  0  0  0  0  0
  -26.1019  -31.5562   20.6146 H   0  0  0  0  0  0
  -26.8429  -30.8333   22.0115 H   0  0  0  0  0  0
  -28.1172  -28.9724   21.1878 H   0  0  0  0  0  0
  -25.9394  -25.9558   18.9686 H   0  0  0  0  0  0
  -23.9625  -27.3332   19.0001 H   0  0  0  0  0  0
  -23.7586  -30.6055   19.4070 H   0  0  0  0  0  0
  -22.7551  -29.2599   19.8547 H   0  0  0  0  0  0
  -25.1284  -36.1930   25.0821 H   0  0  0  0  0  0
  -20.9982  -28.3266   24.1397 H   0  0  0  0  0  0
  -20.5662  -26.2305   23.3601 H   0  0  0  0  0  0
  -21.6646  -26.7430   22.1205 H   0  0  0  0  0  0
  -19.6901  -25.6290   21.1242 H   0  0  0  0  0  0
  -19.6674  -27.3186   20.6732 H   0  0  0  0  0  0
  -17.4188  -26.6677   21.4036 H   0  0  0  0  0  0
  -18.0330  -26.0075   22.9019 H   0  0  0  0  0  0
  -19.7935  -30.7275   24.2272 H   0  0  0  0  0  0
  -17.5013  -31.6269   24.5163 H   0  0  0  0  0  0
  -15.5358  -30.2992   23.7639 H   0  0  0  0  0  0
  -15.8674  -28.0816   22.7076 H   0  0  0  0  0  0
  -24.5858  -30.7134   25.7799 H   0  0  0  0  0  0
  -24.8937  -32.2930   26.4909 H   0  0  0  0  0  0
  -25.8021  -30.8899   27.0238 H   0  0  0  0  0  0
  -26.2882  -29.6773   24.1210 H   0  0  0  0  0  0
  -27.3966  -29.7250   25.4721 H   0  0  0  0  0  0
  -27.8776  -30.4272   23.9457 H   0  0  0  0  0  0
  -27.2683  -33.3630   26.2060 H   0  0  0  0  0  0
  -28.3860  -32.6858   25.0314 H   0  0  0  0  0  0
  -28.0719  -31.8449   26.5416 H   0  0  0  0  0  0
  -28.2574  -38.0118   24.7536 H   0  0  0  0  0  0
  -28.1103  -36.2655   24.6223 H   0  0  0  0  0  0
  -27.2313  -37.1375   25.8857 H   0  0  0  0  0  0
  -20.9367  -29.8806   21.6920 H   0  0  0  0  0  0
  -26.0161  -38.2847   24.1442 H   0  0  0  0  0  0
  -31.9926  -17.3746   21.0389 H   0  0  0  0  0  0
  -27.8580  -19.8252   19.8314 H   0  0  0  0  0  0
  -30.1661  -24.4484   22.0485 H   0  0  0  0  0  0
  -28.6558  -23.5612   22.1983 H   0  0  0  0  0  0
  -30.1409  -21.7341   22.5288 H   0  0  0  0  0  0
  -31.3817  -22.4735   21.5266 H   0  0  0  0  0  0
  -28.9979  -22.3091   18.6245 H   0  0  0  0  0  0
  -27.8812  -22.1604   19.9757 H   0  0  0  0  0  0
  -30.1195  -24.2270   19.6225 H   0  0  0  0  0  0
  -27.2136  -24.7074   20.4395 H   0  0  0  0  0  0
  -27.8451  -24.9308   18.8244 H   0  0  0  0  0  0
  -26.8967  -17.7622   19.3560 H   0  0  0  0  0  0
  -27.8397  -16.4316   19.1025 H   0  0  0  0  0  0
  -32.1547  -21.2310   19.3576 H   0  0  0  0  0  0
  -33.7434  -21.3378   20.0827 H   0  0  0  0  0  0
  -28.8226  -15.4229   20.7896 H   0  0  0  0  0  0
  1 25  1  0  0  0
  1 30  2  0  0  0
  1 86  1  0  0  0
  2  3  1  0  0  0
  2 25  1  0  0  0
  2 88  1  0  0  0
  2 89  1  0  0  0
  3  4  1  0  0  0
  3 90  1  0  0  0
  3 91  1  0  0  0
  4  5  1  0  0  0
  4 92  1  0  0  0
  4 93  1  0  0  0
  5  6  1  0  0  0
  5 26  1  0  0  0
  5 94  1  0  0  0
  6 25  1  0  0  0
  6 95  1  0  0  0
  6 96  1  0  0  0
  7  8  2  0  0  0
  7 26  1  0  0  0
  7 29  1  0  0  0
  8  9  1  0  0  0
  8 22  1  0  0  0
  9 10  1  0  0  0
  9 27  2  0  0  0
 10 11  2  0  0  0
 10 15  1  0  0  0
 11 12  1  0  0  0
 11 97  1  0  0  0
 12 13  2  0  0  0
 12 98  1  0  0  0
 13 14  1  0  0  0
 13 31  1  0  0  0
 14 15  2  0  0  0
 14 99  1  0  0  0
 15100  1  0  0  0
 16 17  2  0  0  0
 16 21  1  0  0  0
 16 31  1  0  0  0
 17 18  1  0  0  0
 17101  1  0  0  0
 18 19  2  0  0  0
 18102  1  0  0  0
 19 20  1  0  0  0
 19 24  1  0  0  0
 20 21  2  0  0  0
 20103  1  0  0  0
 21 23  1  0  0  0
 22 28  1  0  0  0
 22 32  2  0  0  0
 26 27  1  0  0  0
 28104  1  0  0  0
 28105  1  0  0  0
 29106  1  0  0  0
 29107  1  0  0  0
 33 34  1  0  0  0
 33 66  1  0  0  0
 33 70  2  0  0  0
 34 36  1  0  0  0
 34 59  1  0  0  0
 34108  1  0  0  0
 35 44  2  0  0  0
 35 45  1  0  0  0
 35 68  1  0  0  0
 36 56  1  0  0  0
 36109  1  0  0  0
 37 39  1  0  0  0
 37 47  1  0  0  0
 37 66  1  0  0  0
 37110  1  0  0  0
 38 43  2  0  0  0
 38 46  1  0  0  0
 38 47  1  0  0  0
 39 64  1  0  0  0
 39 67  2  0  0  0
 40 52  1  0  0  0
 40 53  2  0  0  0
 40 58  1  0  0  0
 41111  1  0  0  0
 41112  1  0  0  0
 41113  1  0  0  0
 41 48  1  0  0  0
 42 43  1  0  0  0
 42 66  1  0  0  0
 42114  1  0  0  0
 42115  1  0  0  0
 43 44  1  0  0  0
 44116  1  0  0  0
 45 46  2  0  0  0
 45117  1  0  0  0
 46118  1  0  0  0
 47119  1  0  0  0
 47120  1  0  0  0
 48 56  1  0  0  0
 48 65  1  0  0  0
 48121  1  0  0  0
 49 50  1  0  0  0
 49 53  1  0  0  0
 49 64  1  0  0  0
 49122  1  0  0  0
 50 51  1  0  0  0
 50123  1  0  0  0
 50124  1  0  0  0
 51 52  1  0  0  0
 51125  1  0  0  0
 51126  1  0  0  0
 52127  1  0  0  0
 52128  1  0  0  0
 53 54  1  0  0  0
 54 55  2  0  0  0
 54129  1  0  0  0
 55 57  1  0  0  0
 55130  1  0  0  0
 56 69  2  0  0  0
 57 58  2  0  0  0
 57131  1  0  0  0
 58132  1  0  0  0
 59 60  1  0  0  0
 59 61  1  0  0  0
 59 62  1  0  0  0
 60133  1  0  0  0
 60134  1  0  0  0
 60135  1  0  0  0
 61136  1  0  0  0
 61137  1  0  0  0
 61138  1  0  0  0
 62139  1  0  0  0
 62140  1  0  0  0
 62141  1  0  0  0
 63 65  1  0  0  0
 63142  1  0  0  0
 63143  1  0  0  0
 63144  1  0  0  0
 64145  1  0  0  0
 65146  1  0  0  0
 68 82  1  0  0  0
 71 73  2  0  0  0
 71 75  1  0  0  0
 71147  1  0  0  0
 72 74  2  0  0  0
 72 76  1  0  0  0
 72148  1  0  0  0
 73 74  1  0  0  0
 73 77  1  0  0  0
 74 83  1  0  0  0
 75 76  2  0  0  0
 75 86  1  0  0  0
 76 84  1  0  0  0
 77 85  1  0  0  0
 77 87  2  0  0  0
 78 79  1  0  0  0
 78 81  1  0  0  0
 78149  1  0  0  0
 78150  1  0  0  0
 79 83  1  0  0  0
 79151  1  0  0  0
 79152  1  0  0  0
 80 81  1  0  0  0
 80 83  1  0  0  0
 80153  1  0  0  0
 80154  1  0  0  0
 81 82  1  0  0  0
 81155  1  0  0  0
 82156  1  0  0  0
 82157  1  0  0  0
 84158  1  0  0  0
 84159  1  0  0  0
 85160  1  0  0  0
 85161  1  0  0  0
 86162  1  0  0  0
M  ISO  4   1 100  68 101  82 101  86 100
M  END
> <chiral flag>
0

> <version>
0

> <s_m_source_file>
/data/baiqing/PycharmProjects/Reinvent-master-3.2/result/LINK_invent/BTK/process_docking_weight1_custom_product_contain_oxygen_bond_distance_aromatic_linkinvent_7_9_3/rearranged_h_0101.sdf

> <i_m_source_file_index>
85

> <r_mmod_Potential_Energy-OPLS-2005>
3.28585529327393

> <r_mmod_Stretch_Energy-OPLS-2005>
79.6803131103516

> <r_mmod_Bend_Energy-OPLS-2005>
189.261383056641

> <r_mmod_Torsional_Energy-OPLS-2005>
302.896270751953

> <r_mmod_Improper_Torsional_Energy-OPLS-2005>
14.0169143676758

> <r_mmod_Van_der_Waal_Energy-OPLS-2005>
153.472427368164

> <r_mmod_Electrostatic_Energy-OPLS-2005>
-538.524719238281

> <r_mmod_Solvation_Energy-OPLS-2005>
-249.408767700195

> <b_mmod_Minimization_Converged-OPLS-2005>
0

> <r_mmod_RMS_Derivative-OPLS-2005>
1.72325491905212

$$$$
85
                    3D
 Structure written by MMmdl.
159167  0  0  1  0            999 V2000
  -30.7157  -14.5442   20.5005 C   0  0  0  0  0  0
  -30.4144  -12.3371   19.4381 C   0  0  0  0  0  0
  -29.4922  -12.4966   18.2128 C   0  0  0  0  0  0
  -28.0149  -12.3573   18.6288 C   0  0  0  0  0  0
  -27.6514  -13.2251   19.8651 C   0  0  2  0  0  0
  -28.7024  -13.0800   20.9900 C   0  0  0  0  0  0
  -25.2489  -13.8168   20.5636 C   0  0  0  0  0  0
  -24.1772  -13.0411   20.9105 C   0  0  0  0  0  0
  -24.6386  -11.6901   20.8701 C   0  0  0  0  0  0
  -23.9066  -10.4280   21.0376 C   0  0  0  0  0  0
  -24.3611   -9.4207   21.9164 C   0  0  0  0  0  0
  -23.6288   -8.2243   22.0747 C   0  0  0  0  0  0
  -22.4266   -8.0275   21.3540 C   0  0  0  0  0  0
  -21.9904   -9.0248   20.4645 C   0  0  0  0  0  0
  -22.7232  -10.2124   20.3037 C   0  0  0  0  0  0
  -21.6860   -6.0731   22.5278 C   0  0  0  0  0  0
  -21.4026   -6.5628   23.8211 C   0  0  0  0  0  0
  -21.3656   -5.6783   24.9174 C   0  0  0  0  0  0
  -21.6037   -4.3048   24.7226 C   0  0  0  0  0  0
  -21.8821   -3.8142   23.4349 C   0  0  0  0  0  0
  -21.9203   -4.6959   22.3405 C   0  0  0  0  0  0
  -22.7808  -13.5203   21.1814 C   0  0  0  0  0  0
  -22.1663   -4.2142   21.0981 F   0  0  0  0  0  0
  -21.5624   -3.4532   25.7741 F   0  0  0  0  0  0
  -30.0235  -13.3701   20.4131 N   0  0  0  0  0  0
  -26.2988  -12.9404   20.3400 N   0  0  0  0  0  0
  -25.9337  -11.6540   20.5803 N   0  0  0  0  0  0
  -22.0474  -12.8193   22.0387 N   0  0  0  0  0  0
  -25.4107  -15.1877   20.4053 N   0  0  0  0  0  0
  -31.8929  -14.6087   20.1395 O   0  0  0  0  0  0
  -21.6639   -6.8867   21.4238 O   0  0  0  0  0  0
  -22.3482  -14.5527   20.6704 O   0  0  0  0  0  0
  -24.6206  -31.8656   23.2073 C   0  0  0  0  0  0
  -25.9093  -32.4804   23.8371 C   0  0  1  0  0  0
  -27.2168  -27.3765   20.0987 C   0  0  0  0  0  0
  -25.5940  -33.8601   24.2309 N   0  0  0  0  0  0
  -23.4091  -30.4928   21.5488 C   0  0  2  0  0  0
  -24.8521  -28.9575   20.1100 C   0  0  0  0  0  0
  -22.7444  -29.4662   22.4959 C   0  0  0  0  0  0
  -18.0289  -28.1381   22.8488 C   0  0  0  0  0  0
  -24.1492  -36.7295   23.2632 C   0  0  0  0  0  0
  -25.9455  -30.8141   21.3686 C   0  0  0  0  0  0
  -26.0192  -29.4468   20.7099 C   0  0  0  0  0  0
  -27.2060  -28.6662   20.6974 C   0  0  0  0  0  0
  -26.0258  -26.9256   19.4823 C   0  0  0  0  0  0
  -24.8531  -27.6992   19.4919 C   0  0  0  0  0  0
  -23.6192  -29.8318   20.1611 C   0  0  0  0  0  0
  -25.4108  -36.3087   24.0336 C   0  0  1  0  0  0
  -20.5885  -28.3679   23.1302 C   0  0  2  0  0  0
  -20.6780  -26.9413   22.5409 C   0  0  0  0  0  0
  -19.5759  -26.6388   21.5206 C   0  0  0  0  0  0
  -18.1935  -26.7929   22.1617 C   0  0  0  0  0  0
  -19.1539  -28.8843   23.2894 C   0  0  0  0  0  0
  -18.9461  -30.1445   23.8920 C   0  0  0  0  0  0
  -17.6463  -30.6590   24.0557 C   0  0  0  0  0  0
  -25.9047  -34.9463   23.5111 C   0  0  0  0  0  0
  -16.5355  -29.9087   23.6323 C   0  0  0  0  0  0
  -16.7273  -28.6495   23.0355 C   0  0  0  0  0  0
  -26.4495  -31.6591   25.0716 C   0  0  0  0  0  0
  -25.3757  -31.3746   26.1470 C   0  0  0  0  0  0
  -27.0289  -30.3009   24.6119 C   0  0  0  0  0  0
  -27.6064  -32.4310   25.7485 C   0  0  0  0  0  0
  -27.5587  -37.1789   24.8455 C   0  0  0  0  0  0
  -21.4165  -29.3048   22.3702 N   0  0  0  0  0  0
  -26.4282  -37.3782   23.9424 N   0  0  0  0  0  0
  -24.6771  -31.0726   22.0990 N   0  0  0  0  0  0
  -23.4202  -28.8191   23.3003 O   0  0  0  0  0  0
  -28.3493  -26.5669   20.1386 O   0  0  0  0  0  0
  -26.5591  -34.8931   22.4667 O   0  0  0  0  0  0
  -23.5394  -32.1429   23.7451 O   0  0  0  0  0  0
  -29.6432  -19.3767   20.5143 C   0  0  0  0  0  0
  -27.0398  -18.8479   21.3394 C   0  0  0  0  0  0
  -29.3204  -18.0429   20.9190 C   0  0  0  0  0  0
  -27.9986  -17.8133   21.3994 C   0  0  0  0  0  0
  -28.7030  -20.4443   20.5320 C   0  0  0  0  0  0
  -27.3639  -20.1526   20.8889 C   0  0  0  0  0  0
  -30.3962  -16.9542   20.8371 C   0  0  0  0  0  0
  -25.0521  -20.8314   20.9184 C   0  0  0  0  0  0
  -29.2965  -24.2415   20.6061 C   0  0  0  0  0  0
  -28.1185  -25.1257   20.0984 C   0  0  0  0  0  0
  -28.9400  -22.7908   21.0915 C   0  0  0  0  0  0
  -27.5730  -16.5950   21.9434 N   0  0  0  0  0  0
  -29.9880  -15.6556   20.7845 N   0  0  0  0  0  0
  -31.5802  -17.3096   20.7732 O   0  0  0  0  0  0
  -26.4267  -21.1591   20.7589 O   0  0  0  0  0  0
  -29.0803  -21.7239   20.1237 O   0  0  0  0  0  0
  -31.4595  -12.4122   19.1322 H   0  0  0  0  0  0
  -30.3045  -11.3443   19.8759 H   0  0  0  0  0  0
  -29.7377  -11.7525   17.4536 H   0  0  0  0  0  0
  -29.6569  -13.4711   17.7507 H   0  0  0  0  0  0
  -27.8350  -11.3045   18.8494 H   0  0  0  0  0  0
  -27.3621  -12.6057   17.7912 H   0  0  0  0  0  0
  -27.6686  -14.2627   19.5295 H   0  0  0  0  0  0
  -28.6908  -12.0691   21.3999 H   0  0  0  0  0  0
  -28.4711  -13.7459   21.8231 H   0  0  0  0  0  0
  -25.2758   -9.5699   22.4733 H   0  0  0  0  0  0
  -24.0009   -7.4645   22.7465 H   0  0  0  0  0  0
  -21.0841   -8.8765   19.8949 H   0  0  0  0  0  0
  -22.3685  -10.9656   19.6139 H   0  0  0  0  0  0
  -21.2013   -7.6134   23.9715 H   0  0  0  0  0  0
  -21.1469   -6.0508   25.9075 H   0  0  0  0  0  0
  -22.0603   -2.7606   23.2855 H   0  0  0  0  0  0
  -22.4100  -11.9848   22.4755 H   0  0  0  0  0  0
  -21.1103  -13.1233   22.2623 H   0  0  0  0  0  0
  -24.6500  -15.8271   20.6011 H   0  0  0  0  0  0
  -26.3241  -15.6310   20.4774 H   0  0  0  0  0  0
  -26.7152  -32.5493   23.1114 H   0  0  0  0  0  0
  -25.0135  -33.9753   25.0486 H   0  0  0  0  0  0
  -22.6990  -31.3114   21.4117 H   0  0  0  0  0  0
  -23.3765  -35.9612   23.3259 H   0  0  0  0  0  0
  -24.3603  -36.8949   22.2056 H   0  0  0  0  0  0
  -23.7234  -37.6489   23.6662 H   0  0  0  0  0  0
  -26.0701  -31.5810   20.6029 H   0  0  0  0  0  0
  -26.8287  -30.8624   21.9925 H   0  0  0  0  0  0
  -28.1026  -29.0332   21.1768 H   0  0  0  0  0  0
  -25.9734  -25.9653   18.9921 H   0  0  0  0  0  0
  -23.9562  -27.3185   19.0228 H   0  0  0  0  0  0
  -23.7365  -30.6092   19.4050 H   0  0  0  0  0  0
  -22.7395  -29.2606   19.8588 H   0  0  0  0  0  0
  -25.1285  -36.1924   25.0824 H   0  0  0  0  0  0
  -20.9987  -28.3247   24.1419 H   0  0  0  0  0  0
  -20.5689  -26.2288   23.3598 H   0  0  0  0  0  0
  -21.6649  -26.7461   22.1198 H   0  0  0  0  0  0
  -19.6917  -25.6293   21.1248 H   0  0  0  0  0  0
  -19.6696  -27.3190   20.6728 H   0  0  0  0  0  0
  -17.4204  -26.6685   21.4015 H   0  0  0  0  0  0
  -18.0334  -26.0074   22.9017 H   0  0  0  0  0  0
  -19.7935  -30.7247   24.2315 H   0  0  0  0  0  0
  -17.5018  -31.6282   24.5140 H   0  0  0  0  0  0
  -15.5354  -30.2987   23.7638 H   0  0  0  0  0  0
  -15.8672  -28.0808   22.7081 H   0  0  0  0  0  0
  -24.5882  -30.7143   25.7822 H   0  0  0  0  0  0
  -24.9016  -32.2935   26.4927 H   0  0  0  0  0  0
  -25.8109  -30.8895   27.0218 H   0  0  0  0  0  0
  -26.2814  -29.6805   24.1157 H   0  0  0  0  0  0
  -27.4013  -29.7221   25.4583 H   0  0  0  0  0  0
  -27.8687  -30.4292   23.9286 H   0  0  0  0  0  0
  -27.2674  -33.3612   26.2058 H   0  0  0  0  0  0
  -28.3874  -32.6874   25.0314 H   0  0  0  0  0  0
  -28.0715  -31.8438   26.5414 H   0  0  0  0  0  0
  -28.2561  -38.0125   24.7547 H   0  0  0  0  0  0
  -28.1126  -36.2663   24.6201 H   0  0  0  0  0  0
  -27.2326  -37.1355   25.8861 H   0  0  0  0  0  0
  -20.9322  -29.8780   21.6936 H   0  0  0  0  0  0
  -26.0167  -38.2852   24.1448 H   0  0  0  0  0  0
  -30.6468  -19.5924   20.1759 H   0  0  0  0  0  0
  -26.0355  -18.6182   21.6599 H   0  0  0  0  0  0
  -24.4437  -21.7161   20.7301 H   0  0  0  0  0  0
  -24.8329  -20.4969   21.9331 H   0  0  0  0  0  0
  -24.7403  -20.0622   20.2097 H   0  0  0  0  0  0
  -29.7128  -24.7619   21.4691 H   0  0  0  0  0  0
  -30.0997  -24.2116   19.8699 H   0  0  0  0  0  0
  -27.2511  -24.8976   20.7199 H   0  0  0  0  0  0
  -27.8714  -24.8198   19.0806 H   0  0  0  0  0  0
  -27.9551  -22.8041   21.5542 H   0  0  0  0  0  0
  -29.6261  -22.5425   21.9024 H   0  0  0  0  0  0
  -26.6209  -16.5958   22.2980 H   0  0  0  0  0  0
  -28.1726  -16.2200   22.6729 H   0  0  0  0  0  0
  -28.9942  -15.5429   20.9362 H   0  0  0  0  0  0
  1 25  1  0  0  0
  1 30  2  0  0  0
  1 83  1  0  0  0
  2  3  1  0  0  0
  2 25  1  0  0  0
  2 87  1  0  0  0
  2 88  1  0  0  0
  3  4  1  0  0  0
  3 89  1  0  0  0
  3 90  1  0  0  0
  4  5  1  0  0  0
  4 91  1  0  0  0
  4 92  1  0  0  0
  5  6  1  0  0  0
  5 26  1  0  0  0
  5 93  1  0  0  0
  6 25  1  0  0  0
  6 94  1  0  0  0
  6 95  1  0  0  0
  7  8  2  0  0  0
  7 26  1  0  0  0
  7 29  1  0  0  0
  8  9  1  0  0  0
  8 22  1  0  0  0
  9 10  1  0  0  0
  9 27  2  0  0  0
 10 11  2  0  0  0
 10 15  1  0  0  0
 11 12  1  0  0  0
 11 96  1  0  0  0
 12 13  2  0  0  0
 12 97  1  0  0  0
 13 14  1  0  0  0
 13 31  1  0  0  0
 14 15  2  0  0  0
 14 98  1  0  0  0
 15 99  1  0  0  0
 16 17  2  0  0  0
 16 21  1  0  0  0
 16 31  1  0  0  0
 17 18  1  0  0  0
 17100  1  0  0  0
 18 19  2  0  0  0
 18101  1  0  0  0
 19 20  1  0  0  0
 19 24  1  0  0  0
 20 21  2  0  0  0
 20102  1  0  0  0
 21 23  1  0  0  0
 22 28  1  0  0  0
 22 32  2  0  0  0
 26 27  1  0  0  0
 28103  1  0  0  0
 28104  1  0  0  0
 29105  1  0  0  0
 29106  1  0  0  0
 33 34  1  0  0  0
 33 66  1  0  0  0
 33 70  2  0  0  0
 34 36  1  0  0  0
 34 59  1  0  0  0
 34107  1  0  0  0
 35 44  2  0  0  0
 35 45  1  0  0  0
 35 68  1  0  0  0
 36 56  1  0  0  0
 36108  1  0  0  0
 37 39  1  0  0  0
 37 47  1  0  0  0
 37 66  1  0  0  0
 37109  1  0  0  0
 38 43  2  0  0  0
 38 46  1  0  0  0
 38 47  1  0  0  0
 39 64  1  0  0  0
 39 67  2  0  0  0
 40 52  1  0  0  0
 40 53  2  0  0  0
 40 58  1  0  0  0
 41110  1  0  0  0
 41111  1  0  0  0
 41112  1  0  0  0
 41 48  1  0  0  0
 42 43  1  0  0  0
 42 66  1  0  0  0
 42113  1  0  0  0
 42114  1  0  0  0
 43 44  1  0  0  0
 44115  1  0  0  0
 45 46  2  0  0  0
 45116  1  0  0  0
 46117  1  0  0  0
 47118  1  0  0  0
 47119  1  0  0  0
 48 56  1  0  0  0
 48 65  1  0  0  0
 48120  1  0  0  0
 49 50  1  0  0  0
 49 53  1  0  0  0
 49 64  1  0  0  0
 49121  1  0  0  0
 50 51  1  0  0  0
 50122  1  0  0  0
 50123  1  0  0  0
 51 52  1  0  0  0
 51124  1  0  0  0
 51125  1  0  0  0
 52126  1  0  0  0
 52127  1  0  0  0
 53 54  1  0  0  0
 54 55  2  0  0  0
 54128  1  0  0  0
 55 57  1  0  0  0
 55129  1  0  0  0
 56 69  2  0  0  0
 57 58  2  0  0  0
 57130  1  0  0  0
 58131  1  0  0  0
 59 60  1  0  0  0
 59 61  1  0  0  0
 59 62  1  0  0  0
 60132  1  0  0  0
 60133  1  0  0  0
 60134  1  0  0  0
 61135  1  0  0  0
 61136  1  0  0  0
 61137  1  0  0  0
 62138  1  0  0  0
 62139  1  0  0  0
 62140  1  0  0  0
 63 65  1  0  0  0
 63141  1  0  0  0
 63142  1  0  0  0
 63143  1  0  0  0
 64144  1  0  0  0
 65145  1  0  0  0
 68 80  1  0  0  0
 71 73  2  0  0  0
 71 75  1  0  0  0
 71146  1  0  0  0
 72 74  2  0  0  0
 72 76  1  0  0  0
 72147  1  0  0  0
 73 74  1  0  0  0
 73 77  1  0  0  0
 74 82  1  0  0  0
 75 76  2  0  0  0
 75 86  1  0  0  0
 76 85  1  0  0  0
 77 83  1  0  0  0
 77 84  2  0  0  0
 78 85  1  0  0  0
 78148  1  0  0  0
 78149  1  0  0  0
 78150  1  0  0  0
 79 80  1  0  0  0
 79 81  1  0  0  0
 79151  1  0  0  0
 79152  1  0  0  0
 80153  1  0  0  0
 80154  1  0  0  0
 81 86  1  0  0  0
 81155  1  0  0  0
 81156  1  0  0  0
 82157  1  0  0  0
 82158  1  0  0  0
 83159  1  0  0  0
M  ISO  4   1 100  68 101  80 101  83 100
M  END
> <chiral flag>
0

> <version>
0

> <s_m_source_file>
/data/baiqing/PycharmProjects/Reinvent-master-3.2/result/LINK_invent/BTK/process_docking_weight1_custom_product_contain_oxygen_bond_distance_aromatic_linkinvent_7_9_3/rearranged_h_0101.sdf

> <i_m_source_file_index>
86

> <r_mmod_Potential_Energy-OPLS-2005>
29.3006782531738

> <r_mmod_Stretch_Energy-OPLS-2005>
55.2371139526367

> <r_mmod_Bend_Energy-OPLS-2005>
118.758163452148

> <r_mmod_Torsional_Energy-OPLS-2005>
260.835784912109

> <r_mmod_Improper_Torsional_Energy-OPLS-2005>
12.2448568344116

> <r_mmod_Van_der_Waal_Energy-OPLS-2005>
176.925201416016

> <r_mmod_Electrostatic_Energy-OPLS-2005>
-393.409332275391

> <r_mmod_Solvation_Energy-OPLS-2005>
-231.319412231445

> <b_mmod_Minimization_Converged-OPLS-2005>
0

> <r_mmod_RMS_Derivative-OPLS-2005>
1.4723185300827

$$$$
86
                    3D
 Structure written by MMmdl.
158166  0  0  1  0            999 V2000
  -29.7998  -17.1276   20.1279 C   0  0  0  0  0  0
  -30.2936  -14.2101   19.4065 C   0  0  0  0  0  0
  -29.6111  -13.1652   18.4046 C   0  0  0  0  0  0
  -28.3573  -12.4983   18.9807 C   0  0  0  0  0  0
  -27.6222  -13.5546   19.8156 C   0  0  2  0  0  0
  -28.5152  -14.5082   20.7325 C   0  0  0  0  0  0
  -25.2309  -13.8867   20.6097 C   0  0  0  0  0  0
  -24.1878  -13.0630   20.9402 C   0  0  0  0  0  0
  -24.6855  -11.7233   20.8681 C   0  0  0  0  0  0
  -23.9531  -10.4417   21.0226 C   0  0  0  0  0  0
  -24.3899   -9.4311   21.9082 C   0  0  0  0  0  0
  -23.6446   -8.2399   22.0721 C   0  0  0  0  0  0
  -22.4436   -8.0407   21.3543 C   0  0  0  0  0  0
  -22.0187   -9.0412   20.4628 C   0  0  0  0  0  0
  -22.7621  -10.2248   20.2962 C   0  0  0  0  0  0
  -21.6919   -6.0791   22.5253 C   0  0  0  0  0  0
  -21.4049   -6.5647   23.8196 C   0  0  0  0  0  0
  -21.3690   -5.6793   24.9165 C   0  0  0  0  0  0
  -21.6059   -4.3055   24.7219 C   0  0  0  0  0  0
  -21.8807   -3.8150   23.4335 C   0  0  0  0  0  0
  -21.9201   -4.6989   22.3386 C   0  0  0  0  0  0
  -22.7789  -13.5095   21.1985 C   0  0  0  0  0  0
  -22.1648   -4.2139   21.0969 F   0  0  0  0  0  0
  -21.5645   -3.4540   25.7733 F   0  0  0  0  0  0
  -29.4276  -15.5121   19.9567 N   0  0  0  0  0  0
  -26.3291  -13.0789   20.3748 N   0  0  0  0  0  0
  -25.9963  -11.7544   20.5596 N   0  0  0  0  0  0
  -22.0496  -12.7952   22.0465 N   0  0  0  0  0  0
  -25.3420  -15.2661   20.4410 N   0  0  0  0  0  0
  -31.0487  -16.7904   20.2060 O   0  0  0  0  0  0
  -21.6764   -6.9002   21.4248 O   0  0  0  0  0  0
  -22.3335  -14.5335   20.6826 O   0  0  0  0  0  0
  -24.7134  -31.7178   23.1362 C   0  0  0  0  0  0
  -25.9496  -32.4201   23.8237 C   0  0  1  0  0  0
  -27.1084  -25.8289   20.3653 C   0  0  0  0  0  0
  -25.5848  -33.8304   24.1750 N   0  0  0  0  0  0
  -23.5467  -30.3404   21.4979 C   0  0  2  0  0  0
  -24.9264  -28.4719   20.1633 C   0  0  0  0  0  0
  -22.7701  -29.3948   22.4390 C   0  0  0  0  0  0
  -18.0330  -28.1405   22.8412 C   0  0  0  0  0  0
  -24.1424  -36.7141   23.2662 C   0  0  0  0  0  0
  -26.1085  -30.1645   21.5070 C   0  0  0  0  0  0
  -26.0180  -28.6034   21.0043 C   0  0  0  0  0  0
  -26.9434  -27.3304   21.1224 C   0  0  0  0  0  0
  -25.7516  -26.0485   19.6993 C   0  0  0  0  0  0
  -24.8392  -27.2168   19.4848 C   0  0  0  0  0  0
  -23.8439  -29.6381   20.1277 C   0  0  0  0  0  0
  -25.4164  -36.2877   24.0208 C   0  0  1  0  0  0
  -20.5982  -28.3817   23.1072 C   0  0  2  0  0  0
  -20.6762  -26.9383   22.5481 C   0  0  0  0  0  0
  -19.5784  -26.6330   21.5226 C   0  0  0  0  0  0
  -18.1955  -26.7941   22.1543 C   0  0  0  0  0  0
  -19.1596  -28.8921   23.2759 C   0  0  0  0  0  0
  -18.9535  -30.1507   23.8859 C   0  0  0  0  0  0
  -17.6526  -30.6604   24.0600 C   0  0  0  0  0  0
  -25.9204  -34.9364   23.4910 C   0  0  0  0  0  0
  -16.5425  -29.9131   23.6312 C   0  0  0  0  0  0
  -16.7342  -28.6539   23.0359 C   0  0  0  0  0  0
  -26.4722  -31.6642   25.1156 C   0  0  0  0  0  0
  -25.3573  -31.4083   26.1448 C   0  0  0  0  0  0
  -27.0898  -30.3056   24.7601 C   0  0  0  0  0  0
  -27.5895  -32.4802   25.7530 C   0  0  0  0  0  0
  -27.5544  -37.1738   24.8432 C   0  0  0  0  0  0
  -21.4312  -29.3002   22.3339 N   0  0  0  0  0  0
  -26.4212  -37.3764   23.9438 N   0  0  0  0  0  0
  -24.8354  -30.7998   22.0879 N   0  0  0  0  0  0
  -23.4165  -28.7783   23.2769 O   0  0  0  0  0  0
  -29.2005  -25.0249   19.4345 O   0  0  0  0  0  0
  -26.5928  -34.8987   22.4628 O   0  0  0  0  0  0
  -23.6153  -32.1070   23.6134 O   0  0  0  0  0  0
  -29.2717  -26.2156   21.1304 C   0  0  0  0  0  0
  -27.7621  -25.7821   18.1357 C   0  0  0  0  0  0
  -28.4402  -22.9139   20.0923 C   0  0  0  0  0  0
  -28.8957  -24.2818   21.3797 C   0  0  0  0  0  0
  -28.6796  -27.0445   19.3609 C   0  0  0  0  0  0
  -27.5774  -23.8809   18.6743 C   0  0  0  0  0  0
  -31.1694  -27.9138   17.0056 C   0  0  0  0  0  0
  -29.1513  -20.8123   20.1380 C   0  0  0  0  0  0
  -30.7374  -27.2790   18.1355 C   0  0  0  0  0  0
  -29.3117  -23.8573   22.8110 C   0  0  0  0  0  0
  -30.3034  -28.3263   19.2273 C   0  0  0  0  0  0
  -30.3874  -25.6297   18.3719 C   0  0  0  0  0  0
  -28.8952  -28.3877   19.1959 N   0  0  0  0  0  0
  -29.0958  -18.9006   20.0465 N   0  0  0  0  0  0
  -30.3445  -21.0042   20.4060 O   0  0  0  0  0  0
  -26.8915  -23.1444   17.8107 F   0  0  0  0  0  0
  -31.1264  -14.6288   18.8374 H   0  0  0  0  0  0
  -30.7970  -13.6746   20.2140 H   0  0  0  0  0  0
  -30.3065  -12.3980   18.0555 H   0  0  0  0  0  0
  -29.3341  -13.7201   17.5032 H   0  0  0  0  0  0
  -28.6525  -11.6914   19.6527 H   0  0  0  0  0  0
  -27.7103  -12.0918   18.1912 H   0  0  0  0  0  0
  -27.2961  -14.2668   19.0433 H   0  0  0  0  0  0
  -29.0408  -14.0053   21.5406 H   0  0  0  0  0  0
  -27.8640  -15.2247   21.2316 H   0  0  0  0  0  0
  -25.3012   -9.5745   22.4747 H   0  0  0  0  0  0
  -24.0075   -7.4822   22.7501 H   0  0  0  0  0  0
  -21.1104   -8.9008   19.8934 H   0  0  0  0  0  0
  -22.4058  -10.9800   19.6081 H   0  0  0  0  0  0
  -21.2027   -7.6146   23.9711 H   0  0  0  0  0  0
  -21.1537   -6.0516   25.9080 H   0  0  0  0  0  0
  -22.0554   -2.7596   23.2857 H   0  0  0  0  0  0
  -22.4121  -11.9596   22.4834 H   0  0  0  0  0  0
  -21.1054  -13.0837   22.2565 H   0  0  0  0  0  0
  -24.5521  -15.8969   20.5095 H   0  0  0  0  0  0
  -26.1771  -15.7285   20.1087 H   0  0  0  0  0  0
  -26.7306  -32.4572   23.0576 H   0  0  0  0  0  0
  -24.9451  -33.9291   24.9511 H   0  0  0  0  0  0
  -22.9101  -31.2524   21.3512 H   0  0  0  0  0  0
  -23.3814  -35.9335   23.3066 H   0  0  0  0  0  0
  -24.3452  -36.9172   22.2128 H   0  0  0  0  0  0
  -23.6933  -37.6156   23.6952 H   0  0  0  0  0  0
  -26.5231  -30.9240   20.8265 H   0  0  0  0  0  0
  -26.8902  -30.1541   22.2283 H   0  0  0  0  0  0
  -27.7856  -27.7032   21.7189 H   0  0  0  0  0  0
  -25.3870  -25.2412   19.0977 H   0  0  0  0  0  0
  -24.0495  -27.0645   18.7461 H   0  0  0  0  0  0
  -24.0574  -30.4732   19.4363 H   0  0  0  0  0  0
  -22.9509  -29.2429   19.7078 H   0  0  0  0  0  0
  -25.1289  -36.1653   25.0683 H   0  0  0  0  0  0
  -21.0106  -28.3577   24.1214 H   0  0  0  0  0  0
  -20.5504  -26.2459   23.3873 H   0  0  0  0  0  0
  -21.6643  -26.7233   22.1400 H   0  0  0  0  0  0
  -19.6932  -25.6225   21.1348 H   0  0  0  0  0  0
  -19.6784  -27.3095   20.6745 H   0  0  0  0  0  0
  -17.4271  -26.6858   21.3914 H   0  0  0  0  0  0
  -18.0214  -26.0101   22.8917 H   0  0  0  0  0  0
  -19.8090  -30.7281   24.2242 H   0  0  0  0  0  0
  -17.5165  -31.6273   24.5204 H   0  0  0  0  0  0
  -15.5467  -30.3061   23.7634 H   0  0  0  0  0  0
  -15.8769  -28.0904   22.7032 H   0  0  0  0  0  0
  -24.5910  -30.7177   25.7756 H   0  0  0  0  0  0
  -24.8544  -32.3317   26.4364 H   0  0  0  0  0  0
  -25.7746  -30.9631   27.0450 H   0  0  0  0  0  0
  -26.3703  -29.5950   24.3536 H   0  0  0  0  0  0
  -27.4876  -29.8305   25.6600 H   0  0  0  0  0  0
  -27.9486  -30.4096   24.1014 H   0  0  0  0  0  0
  -27.2435  -33.4383   26.1254 H   0  0  0  0  0  0
  -28.3910  -32.6844   25.0451 H   0  0  0  0  0  0
  -28.0235  -31.9582   26.5888 H   0  0  0  0  0  0
  -28.2450  -38.0124   24.7655 H   0  0  0  0  0  0
  -28.1093  -36.2673   24.5986 H   0  0  0  0  0  0
  -27.2288  -37.1115   25.8832 H   0  0  0  0  0  0
  -20.9742  -29.8767   21.6506 H   0  0  0  0  0  0
  -25.9960  -38.2768   24.1726 H   0  0  0  0  0  0
  -29.6548  -26.8476   21.9135 H   0  0  0  0  0  0
  -27.2940  -26.1270   17.1957 H   0  0  0  0  0  0
  -31.2750  -29.0162   17.0388 H   0  0  0  0  0  0
  -31.4291  -27.4589   16.0578 H   0  0  0  0  0  0
  -30.3370  -23.5357   22.9484 H   0  0  0  0  0  0
  -28.7118  -23.0601   23.2746 H   0  0  0  0  0  0
  -29.1069  -24.6467   23.5553 H   0  0  0  0  0  0
  -30.6430  -29.3602   19.0943 H   0  0  0  0  0  0
  -30.5870  -28.0492   20.2515 H   0  0  0  0  0  0
  -31.3780  -25.2289   18.5233 H   0  0  0  0  0  0
  -30.1380  -25.2331   17.3763 H   0  0  0  0  0  0
  -28.4553  -29.0142   18.5380 H   0  0  0  0  0  0
  -28.1660  -18.7396   19.7083 H   0  0  0  0  0  0
  1 25  1  0  0  0
  1 30  2  0  0  0
  1 84  1  0  0  0
  2  3  1  0  0  0
  2 25  1  0  0  0
  2 87  1  0  0  0
  2 88  1  0  0  0
  3  4  1  0  0  0
  3 89  1  0  0  0
  3 90  1  0  0  0
  4  5  1  0  0  0
  4 91  1  0  0  0
  4 92  1  0  0  0
  5  6  1  0  0  0
  5 26  1  0  0  0
  5 93  1  0  0  0
  6 25  1  0  0  0
  6 94  1  0  0  0
  6 95  1  0  0  0
  7  8  2  0  0  0
  7 26  1  0  0  0
  7 29  1  0  0  0
  8  9  1  0  0  0
  8 22  1  0  0  0
  9 10  1  0  0  0
  9 27  2  0  0  0
 10 11  2  0  0  0
 10 15  1  0  0  0
 11 12  1  0  0  0
 11 96  1  0  0  0
 12 13  2  0  0  0
 12 97  1  0  0  0
 13 14  1  0  0  0
 13 31  1  0  0  0
 14 15  2  0  0  0
 14 98  1  0  0  0
 15 99  1  0  0  0
 16 17  2  0  0  0
 16 21  1  0  0  0
 16 31  1  0  0  0
 17 18  1  0  0  0
 17100  1  0  0  0
 18 19  2  0  0  0
 18101  1  0  0  0
 19 20  1  0  0  0
 19 24  1  0  0  0
 20 21  2  0  0  0
 20102  1  0  0  0
 21 23  1  0  0  0
 22 28  1  0  0  0
 22 32  2  0  0  0
 26 27  1  0  0  0
 28103  1  0  0  0
 28104  1  0  0  0
 29105  1  0  0  0
 29106  1  0  0  0
 33 34  1  0  0  0
 33 66  1  0  0  0
 33 70  2  0  0  0
 34 36  1  0  0  0
 34 59  1  0  0  0
 34107  1  0  0  0
 35 44  2  0  0  0
 35 45  1  0  0  0
 35 68  1  0  0  0
 36 56  1  0  0  0
 36108  1  0  0  0
 37 39  1  0  0  0
 37 47  1  0  0  0
 37 66  1  0  0  0
 37109  1  0  0  0
 38 43  2  0  0  0
 38 46  1  0  0  0
 38 47  1  0  0  0
 39 64  1  0  0  0
 39 67  2  0  0  0
 40 52  1  0  0  0
 40 53  2  0  0  0
 40 58  1  0  0  0
 41110  1  0  0  0
 41111  1  0  0  0
 41112  1  0  0  0
 41 48  1  0  0  0
 42 43  1  0  0  0
 42 66  1  0  0  0
 42113  1  0  0  0
 42114  1  0  0  0
 43 44  1  0  0  0
 44115  1  0  0  0
 45 46  2  0  0  0
 45116  1  0  0  0
 46117  1  0  0  0
 47118  1  0  0  0
 47119  1  0  0  0
 48 56  1  0  0  0
 48 65  1  0  0  0
 48120  1  0  0  0
 49 50  1  0  0  0
 49 53  1  0  0  0
 49 64  1  0  0  0
 49121  1  0  0  0
 50 51  1  0  0  0
 50122  1  0  0  0
 50123  1  0  0  0
 51 52  1  0  0  0
 51124  1  0  0  0
 51125  1  0  0  0
 52126  1  0  0  0
 52127  1  0  0  0
 53 54  1  0  0  0
 54 55  2  0  0  0
 54128  1  0  0  0
 55 57  1  0  0  0
 55129  1  0  0  0
 56 69  2  0  0  0
 57 58  2  0  0  0
 57130  1  0  0  0
 58131  1  0  0  0
 59 60  1  0  0  0
 59 61  1  0  0  0
 59 62  1  0  0  0
 60132  1  0  0  0
 60133  1  0  0  0
 60134  1  0  0  0
 61135  1  0  0  0
 61136  1  0  0  0
 61137  1  0  0  0
 62138  1  0  0  0
 62139  1  0  0  0
 62140  1  0  0  0
 63 65  1  0  0  0
 63141  1  0  0  0
 63142  1  0  0  0
 63143  1  0  0  0
 64144  1  0  0  0
 65145  1  0  0  0
 68 82  1  0  0  0
 71 74  2  0  0  0
 71 75  1  0  0  0
 71146  1  0  0  0
 72 75  2  0  0  0
 72 76  1  0  0  0
 72147  1  0  0  0
 73 74  1  0  0  0
 73 76  2  0  0  0
 73 78  1  0  0  0
 74 80  1  0  0  0
 75 83  1  0  0  0
 76 86  1  0  0  0
 77 79  2  0  0  0
 77148  1  0  0  0
 77149  1  0  0  0
 78 84  1  0  0  0
 78 85  2  0  0  0
 79 81  1  0  0  0
 79 82  1  0  0  0
 80150  1  0  0  0
 80151  1  0  0  0
 80152  1  0  0  0
 81 83  1  0  0  0
 81153  1  0  0  0
 81154  1  0  0  0
 82155  1  0  0  0
 82156  1  0  0  0
 83157  1  0  0  0
 84158  1  0  0  0
M  ISO  4   1 100  68 101  82 101  84 100
M  END
> <chiral flag>
0

> <version>
0

> <s_m_source_file>
/data/baiqing/PycharmProjects/Reinvent-master-3.2/result/LINK_invent/BTK/process_docking_weight1_custom_product_contain_oxygen_bond_distance_aromatic_linkinvent_7_9_3/rearranged_h_0101.sdf

> <i_m_source_file_index>
87

> <r_mmod_Potential_Energy-OPLS-2005>
16912.697265625

> <r_mmod_Stretch_Energy-OPLS-2005>
9173.4931640625

> <r_mmod_Bend_Energy-OPLS-2005>
1312.50354003906

> <r_mmod_Torsional_Energy-OPLS-2005>
411.065246582031

> <r_mmod_Improper_Torsional_Energy-OPLS-2005>
47.8159828186035

> <r_mmod_Van_der_Waal_Energy-OPLS-2005>
2581.56787109375

> <r_mmod_Electrostatic_Energy-OPLS-2005>
-346.612518310547

> <r_mmod_Solvation_Energy-OPLS-2005>
-236.21110534668

> <b_mmod_Minimization_Converged-OPLS-2005>
0

> <r_mmod_RMS_Derivative-OPLS-2005>
85.0275955200195

$$$$
87
                    3D
 Structure written by MMmdl.
163172  0  0  1  0            999 V2000
  -30.6425  -14.6196   20.6055 C   0  0  0  0  0  0
  -30.4540  -12.4058   19.4653 C   0  0  0  0  0  0
  -29.5236  -12.5287   18.2359 C   0  0  0  0  0  0
  -28.0449  -12.3442   18.6329 C   0  0  0  0  0  0
  -27.6609  -13.1974   19.8700 C   0  0  2  0  0  0
  -28.6942  -12.9707   20.9902 C   0  0  0  0  0  0
  -25.2617  -13.8130   20.5616 C   0  0  0  0  0  0
  -24.1845  -13.0419   20.9114 C   0  0  0  0  0  0
  -24.6362  -11.6883   20.8657 C   0  0  0  0  0  0
  -23.9016  -10.4286   21.0358 C   0  0  0  0  0  0
  -24.3580   -9.4238   21.9161 C   0  0  0  0  0  0
  -23.6278   -8.2270   22.0757 C   0  0  0  0  0  0
  -22.4265   -8.0277   21.3538 C   0  0  0  0  0  0
  -21.9876   -9.0233   20.4639 C   0  0  0  0  0  0
  -22.7180  -10.2122   20.3035 C   0  0  0  0  0  0
  -21.6873   -6.0730   22.5265 C   0  0  0  0  0  0
  -21.4012   -6.5631   23.8193 C   0  0  0  0  0  0
  -21.3657   -5.6790   24.9155 C   0  0  0  0  0  0
  -21.6065   -4.3060   24.7213 C   0  0  0  0  0  0
  -21.8824   -3.8144   23.4332 C   0  0  0  0  0  0
  -21.9197   -4.6956   22.3385 C   0  0  0  0  0  0
  -22.7888  -13.5241   21.1780 C   0  0  0  0  0  0
  -22.1660   -4.2146   21.0966 F   0  0  0  0  0  0
  -21.5644   -3.4538   25.7722 F   0  0  0  0  0  0
  -30.0155  -13.3926   20.4823 N   0  0  0  0  0  0
  -26.3011  -12.9243   20.3282 N   0  0  0  0  0  0
  -25.9287  -11.6419   20.5672 N   0  0  0  0  0  0
  -22.0536  -12.8209   22.0338 N   0  0  0  0  0  0
  -25.4373  -15.1828   20.4051 N   0  0  0  0  0  0
  -31.7372  -14.8185   20.0645 O   0  0  0  0  0  0
  -21.6671   -6.8857   21.4224 O   0  0  0  0  0  0
  -22.3558  -14.5544   20.6640 O   0  0  0  0  0  0
  -24.6262  -31.8607   23.2029 C   0  0  0  0  0  0
  -25.9109  -32.4768   23.8358 C   0  0  1  0  0  0
  -27.2393  -27.3425   20.0822 C   0  0  0  0  0  0
  -25.5921  -33.8567   24.2306 N   0  0  0  0  0  0
  -23.4196  -30.4838   21.5472 C   0  0  2  0  0  0
  -24.8674  -28.9446   20.1107 C   0  0  0  0  0  0
  -22.7468  -29.4628   22.4935 C   0  0  0  0  0  0
  -18.0300  -28.1382   22.8447 C   0  0  0  0  0  0
  -24.1480  -36.7268   23.2650 C   0  0  0  0  0  0
  -25.9590  -30.7953   21.3726 C   0  0  0  0  0  0
  -26.0371  -29.4246   20.7129 C   0  0  0  0  0  0
  -27.2235  -28.6342   20.6940 C   0  0  0  0  0  0
  -26.0375  -26.9099   19.4688 C   0  0  0  0  0  0
  -24.8687  -27.6903   19.4866 C   0  0  0  0  0  0
  -23.6351  -29.8220   20.1627 C   0  0  0  0  0  0
  -25.4090  -36.3068   24.0362 C   0  0  1  0  0  0
  -20.5891  -28.3677   23.1269 C   0  0  2  0  0  0
  -20.6782  -26.9400   22.5391 C   0  0  0  0  0  0
  -19.5772  -26.6389   21.5179 C   0  0  0  0  0  0
  -18.1947  -26.7918   22.1595 C   0  0  0  0  0  0
  -19.1547  -28.8851   23.2854 C   0  0  0  0  0  0
  -18.9487  -30.1462   23.8857 C   0  0  0  0  0  0
  -17.6485  -30.6569   24.0576 C   0  0  0  0  0  0
  -25.9030  -34.9443   23.5122 C   0  0  0  0  0  0
  -16.5375  -29.9069   23.6340 C   0  0  0  0  0  0
  -16.7293  -28.6519   23.0299 C   0  0  0  0  0  0
  -26.4526  -31.6533   25.0689 C   0  0  0  0  0  0
  -25.3758  -31.3638   26.1415 C   0  0  0  0  0  0
  -27.0409  -30.2979   24.6098 C   0  0  0  0  0  0
  -27.6080  -32.4292   25.7447 C   0  0  0  0  0  0
  -27.5574  -37.1781   24.8476 C   0  0  0  0  0  0
  -21.4178  -29.3045   22.3675 N   0  0  0  0  0  0
  -26.4264  -37.3757   23.9443 N   0  0  0  0  0  0
  -24.6869  -31.0625   22.0987 N   0  0  0  0  0  0
  -23.4196  -28.8143   23.2993 O   0  0  0  0  0  0
  -28.3759  -26.5195   20.0975 O   0  0  0  0  0  0
  -26.5596  -34.8920   22.4687 O   0  0  0  0  0  0
  -23.5433  -32.1421   23.7344 O   0  0  0  0  0  0
  -29.9862  -17.6262   19.6085 C   0  0  0  0  0  0
  -29.8929  -18.9735   19.1581 C   0  0  0  0  0  0
  -29.9497  -19.7433   21.4159 C   0  0  0  0  0  0
  -30.0551  -17.2712   20.9806 C   0  0  0  0  0  0
  -30.0715  -18.3944   21.8923 C   0  0  0  0  0  0
  -29.8506  -20.0875   20.0448 C   0  0  0  0  0  0
  -30.3552  -24.1309   18.8543 C   0  0  0  0  0  0
  -29.7407  -19.0332   24.3246 C   0  0  0  0  0  0
  -30.1789  -18.2010   23.3619 C   0  0  0  0  0  0
  -29.9513  -15.7859   21.4255 C   0  0  0  0  0  0
  -30.1227  -23.1535   17.7022 C   0  0  0  0  0  0
  -29.9156  -21.6784   18.1364 C   0  0  0  0  0  0
  -28.9558  -22.5146   20.2742 C   0  0  0  0  0  0
  -29.3812  -24.0402   20.0319 C   0  0  2  0  0  0
  -28.1851  -25.0748   19.8487 C   0  0  0  0  0  0
  -29.3046  -15.5325   22.4852 N   0  0  0  0  0  0
  -29.7665  -21.4593   19.5844 N   0  0  0  0  0  0
  -31.2692  -24.9603   18.8225 O   0  0  0  0  0  0
  -31.4947  -12.5466   19.1717 H   0  0  0  0  0  0
  -30.4146  -11.3959   19.8754 H   0  0  0  0  0  0
  -29.8013  -11.7935   17.4805 H   0  0  0  0  0  0
  -29.6622  -13.5069   17.7768 H   0  0  0  0  0  0
  -27.8961  -11.2876   18.8593 H   0  0  0  0  0  0
  -27.3884  -12.5635   17.7909 H   0  0  0  0  0  0
  -27.7040  -14.2428   19.5683 H   0  0  0  0  0  0
  -28.7272  -11.9105   21.2484 H   0  0  0  0  0  0
  -28.3701  -13.4356   21.9139 H   0  0  0  0  0  0
  -25.2726   -9.5766   22.4715 H   0  0  0  0  0  0
  -24.0012   -7.4688   22.7471 H   0  0  0  0  0  0
  -21.0826   -8.8703   19.8937 H   0  0  0  0  0  0
  -22.3612  -10.9634   19.6125 H   0  0  0  0  0  0
  -21.2003   -7.6134   23.9679 H   0  0  0  0  0  0
  -21.1470   -6.0528   25.9055 H   0  0  0  0  0  0
  -22.0612   -2.7609   23.2825 H   0  0  0  0  0  0
  -22.4144  -11.9836   22.4644 H   0  0  0  0  0  0
  -21.1157  -13.1203   22.2544 H   0  0  0  0  0  0
  -24.6793  -15.8461   20.5220 H   0  0  0  0  0  0
  -26.3090  -15.6191   20.1313 H   0  0  0  0  0  0
  -26.7155  -32.5473   23.1093 H   0  0  0  0  0  0
  -25.0068  -33.9702   25.0462 H   0  0  0  0  0  0
  -22.7157  -31.3070   21.4058 H   0  0  0  0  0  0
  -23.3754  -35.9583   23.3260 H   0  0  0  0  0  0
  -24.3601  -36.8925   22.2079 H   0  0  0  0  0  0
  -23.7210  -37.6452   23.6678 H   0  0  0  0  0  0
  -26.0910  -31.5612   20.6067 H   0  0  0  0  0  0
  -26.8387  -30.8448   22.0019 H   0  0  0  0  0  0
  -28.1192  -29.0002   21.1755 H   0  0  0  0  0  0
  -25.9657  -25.9591   18.9628 H   0  0  0  0  0  0
  -23.9721  -27.3140   19.0131 H   0  0  0  0  0  0
  -23.7552  -30.6050   19.4130 H   0  0  0  0  0  0
  -22.7543  -29.2534   19.8563 H   0  0  0  0  0  0
  -25.1254  -36.1905   25.0849 H   0  0  0  0  0  0
  -21.0019  -28.3247   24.1378 H   0  0  0  0  0  0
  -20.5662  -26.2282   23.3581 H   0  0  0  0  0  0
  -21.6648  -26.7411   22.1189 H   0  0  0  0  0  0
  -19.6934  -25.6311   21.1179 H   0  0  0  0  0  0
  -19.6713  -27.3234   20.6731 H   0  0  0  0  0  0
  -17.4215  -26.6686   21.3994 H   0  0  0  0  0  0
  -18.0357  -26.0055   22.8993 H   0  0  0  0  0  0
  -19.7973  -30.7306   24.2161 H   0  0  0  0  0  0
  -17.5045  -31.6229   24.5213 H   0  0  0  0  0  0
  -15.5379  -30.2970   23.7667 H   0  0  0  0  0  0
  -15.8704  -28.0867   22.6944 H   0  0  0  0  0  0
  -24.5973  -30.6944   25.7725 H   0  0  0  0  0  0
  -24.8900  -32.2790   26.4812 H   0  0  0  0  0  0
  -25.8096  -30.8835   27.0197 H   0  0  0  0  0  0
  -26.2992  -29.6663   24.1195 H   0  0  0  0  0  0
  -27.4263  -29.7280   25.4561 H   0  0  0  0  0  0
  -27.8755  -30.4318   23.9217 H   0  0  0  0  0  0
  -27.2692  -33.3641   26.1924 H   0  0  0  0  0  0
  -28.3901  -32.6771   25.0253 H   0  0  0  0  0  0
  -28.0701  -31.8464   26.5432 H   0  0  0  0  0  0
  -28.2538  -38.0125   24.7555 H   0  0  0  0  0  0
  -28.1125  -36.2663   24.6220 H   0  0  0  0  0  0
  -27.2329  -37.1317   25.8889 H   0  0  0  0  0  0
  -20.9374  -29.8774   21.6878 H   0  0  0  0  0  0
  -26.0143  -38.2821   24.1469 H   0  0  0  0  0  0
  -29.9640  -16.8404   18.8679 H   0  0  0  0  0  0
  -29.8383  -19.1190   18.0889 H   0  0  0  0  0  0
  -29.9742  -20.5517   22.1302 H   0  0  0  0  0  0
  -29.8904  -18.7927   25.3697 H   0  0  0  0  0  0
  -29.2272  -19.9590   24.1120 H   0  0  0  0  0  0
  -30.6904  -17.3084   23.6960 H   0  0  0  0  0  0
  -30.9543  -23.2204   17.0003 H   0  0  0  0  0  0
  -29.2450  -23.5015   17.1571 H   0  0  0  0  0  0
  -30.7682  -21.1052   17.7706 H   0  0  0  0  0  0
  -29.0373  -21.2824   17.6233 H   0  0  0  0  0  0
  -27.9225  -22.3931   19.9463 H   0  0  0  0  0  0
  -28.9411  -22.3297   21.3486 H   0  0  0  0  0  0
  -29.9488  -24.3441   20.9103 H   0  0  0  0  0  0
  -27.3604  -24.7359   20.4781 H   0  0  0  0  0  0
  -27.8447  -24.9665   18.8178 H   0  0  0  0  0  0
  -28.9311  -16.3821   22.8920 H   0  0  0  0  0  0
  1 25  1  0  0  0
  1 30  2  0  0  0
  1 80  1  0  0  0
  2  3  1  0  0  0
  2 25  1  0  0  0
  2 89  1  0  0  0
  2 90  1  0  0  0
  3  4  1  0  0  0
  3 91  1  0  0  0
  3 92  1  0  0  0
  4  5  1  0  0  0
  4 93  1  0  0  0
  4 94  1  0  0  0
  5  6  1  0  0  0
  5 26  1  0  0  0
  5 95  1  0  0  0
  6 25  1  0  0  0
  6 96  1  0  0  0
  6 97  1  0  0  0
  7  8  2  0  0  0
  7 26  1  0  0  0
  7 29  1  0  0  0
  8  9  1  0  0  0
  8 22  1  0  0  0
  9 10  1  0  0  0
  9 27  2  0  0  0
 10 11  2  0  0  0
 10 15  1  0  0  0
 11 12  1  0  0  0
 11 98  1  0  0  0
 12 13  2  0  0  0
 12 99  1  0  0  0
 13 14  1  0  0  0
 13 31  1  0  0  0
 14 15  2  0  0  0
 14100  1  0  0  0
 15101  1  0  0  0
 16 17  2  0  0  0
 16 21  1  0  0  0
 16 31  1  0  0  0
 17 18  1  0  0  0
 17102  1  0  0  0
 18 19  2  0  0  0
 18103  1  0  0  0
 19 20  1  0  0  0
 19 24  1  0  0  0
 20 21  2  0  0  0
 20104  1  0  0  0
 21 23  1  0  0  0
 22 28  1  0  0  0
 22 32  2  0  0  0
 26 27  1  0  0  0
 28105  1  0  0  0
 28106  1  0  0  0
 29107  1  0  0  0
 29108  1  0  0  0
 33 34  1  0  0  0
 33 66  1  0  0  0
 33 70  2  0  0  0
 34 36  1  0  0  0
 34 59  1  0  0  0
 34109  1  0  0  0
 35 44  2  0  0  0
 35 45  1  0  0  0
 35 68  1  0  0  0
 36 56  1  0  0  0
 36110  1  0  0  0
 37 39  1  0  0  0
 37 47  1  0  0  0
 37 66  1  0  0  0
 37111  1  0  0  0
 38 43  2  0  0  0
 38 46  1  0  0  0
 38 47  1  0  0  0
 39 64  1  0  0  0
 39 67  2  0  0  0
 40 52  1  0  0  0
 40 53  2  0  0  0
 40 58  1  0  0  0
 41112  1  0  0  0
 41113  1  0  0  0
 41114  1  0  0  0
 41 48  1  0  0  0
 42 43  1  0  0  0
 42 66  1  0  0  0
 42115  1  0  0  0
 42116  1  0  0  0
 43 44  1  0  0  0
 44117  1  0  0  0
 45 46  2  0  0  0
 45118  1  0  0  0
 46119  1  0  0  0
 47120  1  0  0  0
 47121  1  0  0  0
 48 56  1  0  0  0
 48 65  1  0  0  0
 48122  1  0  0  0
 49 50  1  0  0  0
 49 53  1  0  0  0
 49 64  1  0  0  0
 49123  1  0  0  0
 50 51  1  0  0  0
 50124  1  0  0  0
 50125  1  0  0  0
 51 52  1  0  0  0
 51126  1  0  0  0
 51127  1  0  0  0
 52128  1  0  0  0
 52129  1  0  0  0
 53 54  1  0  0  0
 54 55  2  0  0  0
 54130  1  0  0  0
 55 57  1  0  0  0
 55131  1  0  0  0
 56 69  2  0  0  0
 57 58  2  0  0  0
 57132  1  0  0  0
 58133  1  0  0  0
 59 60  1  0  0  0
 59 61  1  0  0  0
 59 62  1  0  0  0
 60134  1  0  0  0
 60135  1  0  0  0
 60136  1  0  0  0
 61137  1  0  0  0
 61138  1  0  0  0
 61139  1  0  0  0
 62140  1  0  0  0
 62141  1  0  0  0
 62142  1  0  0  0
 63 65  1  0  0  0
 63143  1  0  0  0
 63144  1  0  0  0
 63145  1  0  0  0
 64146  1  0  0  0
 65147  1  0  0  0
 68 85  1  0  0  0
 71 72  2  0  0  0
 71 74  1  0  0  0
 71148  1  0  0  0
 72 76  1  0  0  0
 72149  1  0  0  0
 73 75  1  0  0  0
 73 76  2  0  0  0
 73150  1  0  0  0
 74 75  2  0  0  0
 74 80  1  0  0  0
 75 79  1  0  0  0
 76 87  1  0  0  0
 77 81  1  0  0  0
 77 84  1  0  0  0
 77 88  2  0  0  0
 78 79  2  0  0  0
 78151  1  0  0  0
 78152  1  0  0  0
 79153  1  0  0  0
 80 86  2  0  0  0
 81 82  1  0  0  0
 81154  1  0  0  0
 81155  1  0  0  0
 82 87  1  0  0  0
 82156  1  0  0  0
 82157  1  0  0  0
 83 84  1  0  0  0
 83 87  1  0  0  0
 83158  1  0  0  0
 83159  1  0  0  0
 84 85  1  0  0  0
 84160  1  0  0  0
 85161  1  0  0  0
 85162  1  0  0  0
 86163  1  0  0  0
M  ISO  4   1 100  68 101  80 100  85 101
M  END
> <chiral flag>
0

> <version>
0

> <s_m_source_file>
/data/baiqing/PycharmProjects/Reinvent-master-3.2/result/LINK_invent/BTK/process_docking_weight1_custom_product_contain_oxygen_bond_distance_aromatic_linkinvent_7_9_3/rearranged_h_0101.sdf

> <i_m_source_file_index>
88

> <r_mmod_Potential_Energy-OPLS-2005>
236.034240722656

> <r_mmod_Stretch_Energy-OPLS-2005>
101.069625854492

> <r_mmod_Bend_Energy-OPLS-2005>
161.257659912109

> <r_mmod_Torsional_Energy-OPLS-2005>
190.05810546875

> <r_mmod_Improper_Torsional_Energy-OPLS-2005>
4.73113250732422

> <r_mmod_Van_der_Waal_Energy-OPLS-2005>
187.713668823242

> <r_mmod_Electrostatic_Energy-OPLS-2005>
-215.560836791992

> <r_mmod_Solvation_Energy-OPLS-2005>
-231.303527832031

> <b_mmod_Minimization_Converged-OPLS-2005>
0

> <r_mmod_RMS_Derivative-OPLS-2005>
3.69949507713318

$$$$
88
                    3D
 Structure written by MMmdl.
160169  0  0  1  0            999 V2000
  -30.6984  -14.4501   20.6140 C   0  0  0  0  0  0
  -30.4275  -12.2982   19.4382 C   0  0  0  0  0  0
  -29.5044  -12.5102   18.2190 C   0  0  0  0  0  0
  -28.0246  -12.3732   18.6223 C   0  0  0  0  0  0
  -27.6697  -13.2005   19.8872 C   0  0  2  0  0  0
  -28.7033  -12.9596   21.0106 C   0  0  0  0  0  0
  -25.2644  -13.8144   20.5718 C   0  0  0  0  0  0
  -24.1861  -13.0439   20.9157 C   0  0  0  0  0  0
  -24.6397  -11.6904   20.8717 C   0  0  0  0  0  0
  -23.9068  -10.4300   21.0407 C   0  0  0  0  0  0
  -24.3625   -9.4217   21.9185 C   0  0  0  0  0  0
  -23.6290   -8.2259   22.0763 C   0  0  0  0  0  0
  -22.4266   -8.0299   21.3563 C   0  0  0  0  0  0
  -21.9920   -9.0264   20.4653 C   0  0  0  0  0  0
  -22.7255  -10.2145   20.3052 C   0  0  0  0  0  0
  -21.6859   -6.0744   22.5280 C   0  0  0  0  0  0
  -21.4017   -6.5639   23.8209 C   0  0  0  0  0  0
  -21.3658   -5.6795   24.9170 C   0  0  0  0  0  0
  -21.6036   -4.3054   24.7226 C   0  0  0  0  0  0
  -21.8808   -3.8155   23.4354 C   0  0  0  0  0  0
  -21.9192   -4.6969   22.3406 C   0  0  0  0  0  0
  -22.7889  -13.5261   21.1829 C   0  0  0  0  0  0
  -22.1655   -4.2158   21.0980 F   0  0  0  0  0  0
  -21.5647   -3.4542   25.7744 F   0  0  0  0  0  0
  -30.0464  -13.2632   20.4797 N   0  0  0  0  0  0
  -26.3052  -12.9296   20.3390 N   0  0  0  0  0  0
  -25.9312  -11.6458   20.5749 N   0  0  0  0  0  0
  -22.0529  -12.8224   22.0358 N   0  0  0  0  0  0
  -25.4453  -15.1870   20.4223 N   0  0  0  0  0  0
  -31.7629  -14.7063   20.0415 O   0  0  0  0  0  0
  -21.6642   -6.8890   21.4244 O   0  0  0  0  0  0
  -22.3561  -14.5564   20.6679 O   0  0  0  0  0  0
  -24.6160  -31.8657   23.2099 C   0  0  0  0  0  0
  -25.9024  -32.4829   23.8414 C   0  0  1  0  0  0
  -27.2421  -27.4175   20.0959 C   0  0  0  0  0  0
  -25.5850  -33.8627   24.2337 N   0  0  0  0  0  0
  -23.4060  -30.4892   21.5496 C   0  0  2  0  0  0
  -24.8518  -28.9521   20.1160 C   0  0  0  0  0  0
  -22.7416  -29.4636   22.4978 C   0  0  0  0  0  0
  -18.0265  -28.1367   22.8502 C   0  0  0  0  0  0
  -24.1458  -36.7313   23.2650 C   0  0  0  0  0  0
  -25.9364  -30.8271   21.3639 C   0  0  0  0  0  0
  -26.0120  -29.4601   20.7114 C   0  0  0  0  0  0
  -27.2044  -28.7005   20.6958 C   0  0  0  0  0  0
  -26.0519  -26.9184   19.5130 C   0  0  0  0  0  0
  -24.8680  -27.6814   19.5159 C   0  0  0  0  0  0
  -23.6165  -29.8238   20.1636 C   0  0  0  0  0  0
  -25.4079  -36.3126   24.0351 C   0  0  1  0  0  0
  -20.5858  -28.3643   23.1320 C   0  0  2  0  0  0
  -20.6743  -26.9371   22.5420 C   0  0  0  0  0  0
  -19.5725  -26.6369   21.5211 C   0  0  0  0  0  0
  -18.1909  -26.7910   22.1632 C   0  0  0  0  0  0
  -19.1518  -28.8822   23.2910 C   0  0  0  0  0  0
  -18.9440  -30.1427   23.8919 C   0  0  0  0  0  0
  -17.6448  -30.6582   24.0551 C   0  0  0  0  0  0
  -25.9013  -34.9487   23.5149 C   0  0  0  0  0  0
  -16.5339  -29.9087   23.6317 C   0  0  0  0  0  0
  -16.7256  -28.6498   23.0353 C   0  0  0  0  0  0
  -26.4448  -31.6628   25.0757 C   0  0  0  0  0  0
  -25.3724  -31.3726   26.1519 C   0  0  0  0  0  0
  -27.0277  -30.3078   24.6131 C   0  0  0  0  0  0
  -27.6034  -32.4352   25.7503 C   0  0  0  0  0  0
  -27.5568  -37.1805   24.8465 C   0  0  0  0  0  0
  -21.4140  -29.3016   22.3729 N   0  0  0  0  0  0
  -26.4269  -37.3808   23.9428 N   0  0  0  0  0  0
  -24.6718  -31.0756   22.0995 N   0  0  0  0  0  0
  -23.4183  -28.8157   23.3011 O   0  0  0  0  0  0
  -28.4407  -26.7215   20.1219 O   0  0  0  0  0  0
  -26.5596  -34.8932   22.4727 O   0  0  0  0  0  0
  -23.5344  -32.1389   23.7489 O   0  0  0  0  0  0
  -28.9533  -18.3421   19.4158 C   0  0  0  0  0  0
  -29.4790  -17.0661   19.7086 C   0  0  0  0  0  0
  -29.4676  -17.6336   22.0677 C   0  0  0  0  0  0
  -28.6697  -19.2901   20.4285 C   0  0  0  0  0  0
  -29.7251  -16.6883   21.0465 C   0  0  0  0  0  0
  -28.9481  -18.9223   21.7823 C   0  0  0  0  0  0
  -27.9510  -20.5597   20.0019 C   0  0  0  0  0  0
  -30.0634  -23.5575   20.4219 C   0  0  0  0  0  0
  -29.7956  -22.0939   20.8046 C   0  0  0  0  0  0
  -27.8039  -23.0297   19.8400 C   0  0  0  0  0  0
  -28.6764  -24.2114   20.3131 C   0  0  2  0  0  0
  -28.6177  -25.4836   19.4086 C   0  0  0  0  0  0
  -28.4675  -21.7869   20.2734 N   0  0  0  0  0  0
  -28.6770  -19.7480   22.8798 N   0  0  0  0  0  0
  -30.0941  -15.3539   21.4054 N   0  0  0  0  0  0
  -26.8990  -20.4424   19.3604 O   0  0  0  0  0  0
  -31.4741  -12.3939   19.1487 H   0  0  0  0  0  0
  -30.3223  -11.2845   19.8275 H   0  0  0  0  0  0
  -29.7478  -11.7863   17.4398 H   0  0  0  0  0  0
  -29.6775  -13.4985   17.7899 H   0  0  0  0  0  0
  -27.8301  -11.3165   18.8054 H   0  0  0  0  0  0
  -27.3807  -12.6621   17.7906 H   0  0  0  0  0  0
  -27.7234  -14.2517   19.6042 H   0  0  0  0  0  0
  -28.6709  -11.9178   21.3375 H   0  0  0  0  0  0
  -28.4478  -13.5406   21.8971 H   0  0  0  0  0  0
  -25.2782   -9.5683   22.4746 H   0  0  0  0  0  0
  -24.0004   -7.4645   22.7471 H   0  0  0  0  0  0
  -21.0880   -8.8768   19.8946 H   0  0  0  0  0  0
  -22.3727  -10.9667   19.6141 H   0  0  0  0  0  0
  -21.1988   -7.6144   23.9713 H   0  0  0  0  0  0
  -21.1497   -6.0538   25.9075 H   0  0  0  0  0  0
  -22.0592   -2.7617   23.2857 H   0  0  0  0  0  0
  -22.4158  -11.9868   22.4680 H   0  0  0  0  0  0
  -21.1150  -13.1251   22.2571 H   0  0  0  0  0  0
  -24.7004  -15.8601   20.5729 H   0  0  0  0  0  0
  -26.3206  -15.6214   20.1568 H   0  0  0  0  0  0
  -26.7095  -32.5537   23.1184 H   0  0  0  0  0  0
  -24.9961  -33.9790   25.0454 H   0  0  0  0  0  0
  -22.6956  -31.3061   21.4115 H   0  0  0  0  0  0
  -23.3734  -35.9632   23.3311 H   0  0  0  0  0  0
  -24.3547  -36.8929   22.2060 H   0  0  0  0  0  0
  -23.7185  -37.6507   23.6655 H   0  0  0  0  0  0
  -26.0481  -31.5925   20.5946 H   0  0  0  0  0  0
  -26.8241  -30.8830   21.9816 H   0  0  0  0  0  0
  -28.1050  -29.0936   21.1456 H   0  0  0  0  0  0
  -26.0025  -25.9383   19.0631 H   0  0  0  0  0  0
  -23.9713  -27.2824   19.0630 H   0  0  0  0  0  0
  -23.7303  -30.6013   19.4068 H   0  0  0  0  0  0
  -22.7390  -29.2495   19.8642 H   0  0  0  0  0  0
  -25.1254  -36.2003   25.0846 H   0  0  0  0  0  0
  -20.9955  -28.3192   24.1437 H   0  0  0  0  0  0
  -20.5614  -26.2244   23.3596 H   0  0  0  0  0  0
  -21.6613  -26.7389   22.1227 H   0  0  0  0  0  0
  -19.6871  -25.6284   21.1233 H   0  0  0  0  0  0
  -19.6673  -27.3188   20.6741 H   0  0  0  0  0  0
  -17.4162  -26.6650   21.4043 H   0  0  0  0  0  0
  -18.0318  -26.0052   22.9031 H   0  0  0  0  0  0
  -19.7911  -30.7230   24.2312 H   0  0  0  0  0  0
  -17.4999  -31.6271   24.5131 H   0  0  0  0  0  0
  -15.5342  -30.2999   23.7612 H   0  0  0  0  0  0
  -15.8650  -28.0820   22.7070 H   0  0  0  0  0  0
  -24.5867  -30.7109   25.7859 H   0  0  0  0  0  0
  -24.8951  -32.2880   26.5031 H   0  0  0  0  0  0
  -25.8088  -30.8845   27.0245 H   0  0  0  0  0  0
  -26.2827  -29.6861   24.1160 H   0  0  0  0  0  0
  -27.4020  -29.7302   25.4596 H   0  0  0  0  0  0
  -27.8671  -30.4416   23.9303 H   0  0  0  0  0  0
  -27.2669  -33.3657   26.2081 H   0  0  0  0  0  0
  -28.3826  -32.6906   25.0309 H   0  0  0  0  0  0
  -28.0708  -31.8474   26.5407 H   0  0  0  0  0  0
  -28.2594  -38.0099   24.7530 H   0  0  0  0  0  0
  -28.1056  -36.2640   24.6266 H   0  0  0  0  0  0
  -27.2294  -37.1434   25.8870 H   0  0  0  0  0  0
  -20.9276  -29.8780   21.7004 H   0  0  0  0  0  0
  -26.0170  -38.2884   24.1455 H   0  0  0  0  0  0
  -28.7238  -18.5817   18.3868 H   0  0  0  0  0  0
  -29.6336  -16.3751   18.8907 H   0  0  0  0  0  0
  -29.6413  -17.3384   23.0937 H   0  0  0  0  0  0
  -30.5600  -23.5714   19.4487 H   0  0  0  0  0  0
  -30.7236  -24.0621   21.1298 H   0  0  0  0  0  0
  -29.7888  -21.9836   21.8895 H   0  0  0  0  0  0
  -30.5627  -21.4302   20.4030 H   0  0  0  0  0  0
  -27.7198  -23.0190   18.7517 H   0  0  0  0  0  0
  -26.7912  -23.0973   20.2434 H   0  0  0  0  0  0
  -28.3535  -24.4755   21.3208 H   0  0  0  0  0  0
  -27.9307  -25.3578   18.5731 H   0  0  0  0  0  0
  -29.5835  -25.5877   18.9128 H   0  0  0  0  0  0
  -28.9724  -19.4982   23.8190 H   0  0  0  0  0  0
  -28.2728  -20.6740   22.7970 H   0  0  0  0  0  0
  -29.5303  -14.9487   22.1369 H   0  0  0  0  0  0
  1 25  1  0  0  0
  1 30  2  0  0  0
  1 85  1  0  0  0
  2  3  1  0  0  0
  2 25  1  0  0  0
  2 87  1  0  0  0
  2 88  1  0  0  0
  3  4  1  0  0  0
  3 89  1  0  0  0
  3 90  1  0  0  0
  4  5  1  0  0  0
  4 91  1  0  0  0
  4 92  1  0  0  0
  5  6  1  0  0  0
  5 26  1  0  0  0
  5 93  1  0  0  0
  6 25  1  0  0  0
  6 94  1  0  0  0
  6 95  1  0  0  0
  7  8  2  0  0  0
  7 26  1  0  0  0
  7 29  1  0  0  0
  8  9  1  0  0  0
  8 22  1  0  0  0
  9 10  1  0  0  0
  9 27  2  0  0  0
 10 11  2  0  0  0
 10 15  1  0  0  0
 11 12  1  0  0  0
 11 96  1  0  0  0
 12 13  2  0  0  0
 12 97  1  0  0  0
 13 14  1  0  0  0
 13 31  1  0  0  0
 14 15  2  0  0  0
 14 98  1  0  0  0
 15 99  1  0  0  0
 16 17  2  0  0  0
 16 21  1  0  0  0
 16 31  1  0  0  0
 17 18  1  0  0  0
 17100  1  0  0  0
 18 19  2  0  0  0
 18101  1  0  0  0
 19 20  1  0  0  0
 19 24  1  0  0  0
 20 21  2  0  0  0
 20102  1  0  0  0
 21 23  1  0  0  0
 22 28  1  0  0  0
 22 32  2  0  0  0
 26 27  1  0  0  0
 28103  1  0  0  0
 28104  1  0  0  0
 29105  1  0  0  0
 29106  1  0  0  0
 33 34  1  0  0  0
 33 66  1  0  0  0
 33 70  2  0  0  0
 34 36  1  0  0  0
 34 59  1  0  0  0
 34107  1  0  0  0
 35 44  2  0  0  0
 35 45  1  0  0  0
 35 68  1  0  0  0
 36 56  1  0  0  0
 36108  1  0  0  0
 37 39  1  0  0  0
 37 47  1  0  0  0
 37 66  1  0  0  0
 37109  1  0  0  0
 38 43  2  0  0  0
 38 46  1  0  0  0
 38 47  1  0  0  0
 39 64  1  0  0  0
 39 67  2  0  0  0
 40 52  1  0  0  0
 40 53  2  0  0  0
 40 58  1  0  0  0
 41110  1  0  0  0
 41111  1  0  0  0
 41112  1  0  0  0
 41 48  1  0  0  0
 42 43  1  0  0  0
 42 66  1  0  0  0
 42113  1  0  0  0
 42114  1  0  0  0
 43 44  1  0  0  0
 44115  1  0  0  0
 45 46  2  0  0  0
 45116  1  0  0  0
 46117  1  0  0  0
 47118  1  0  0  0
 47119  1  0  0  0
 48 56  1  0  0  0
 48 65  1  0  0  0
 48120  1  0  0  0
 49 50  1  0  0  0
 49 53  1  0  0  0
 49 64  1  0  0  0
 49121  1  0  0  0
 50 51  1  0  0  0
 50122  1  0  0  0
 50123  1  0  0  0
 51 52  1  0  0  0
 51124  1  0  0  0
 51125  1  0  0  0
 52126  1  0  0  0
 52127  1  0  0  0
 53 54  1  0  0  0
 54 55  2  0  0  0
 54128  1  0  0  0
 55 57  1  0  0  0
 55129  1  0  0  0
 56 69  2  0  0  0
 57 58  2  0  0  0
 57130  1  0  0  0
 58131  1  0  0  0
 59 60  1  0  0  0
 59 61  1  0  0  0
 59 62  1  0  0  0
 60132  1  0  0  0
 60133  1  0  0  0
 60134  1  0  0  0
 61135  1  0  0  0
 61136  1  0  0  0
 61137  1  0  0  0
 62138  1  0  0  0
 62139  1  0  0  0
 62140  1  0  0  0
 63 65  1  0  0  0
 63141  1  0  0  0
 63142  1  0  0  0
 63143  1  0  0  0
 64144  1  0  0  0
 65145  1  0  0  0
 68 82  1  0  0  0
 71 72  2  0  0  0
 71 74  1  0  0  0
 71146  1  0  0  0
 72 75  1  0  0  0
 72147  1  0  0  0
 73 75  2  0  0  0
 73 76  1  0  0  0
 73148  1  0  0  0
 74 76  2  0  0  0
 74 77  1  0  0  0
 75 85  1  0  0  0
 76 84  1  0  0  0
 77 83  1  0  0  0
 77 86  2  0  0  0
 78 79  1  0  0  0
 78 81  1  0  0  0
 78149  1  0  0  0
 78150  1  0  0  0
 79 83  1  0  0  0
 79151  1  0  0  0
 79152  1  0  0  0
 80 81  1  0  0  0
 80 83  1  0  0  0
 80153  1  0  0  0
 80154  1  0  0  0
 81 82  1  0  0  0
 81155  1  0  0  0
 82156  1  0  0  0
 82157  1  0  0  0
 84158  1  0  0  0
 84159  1  0  0  0
 85160  1  0  0  0
M  ISO  4   1 100  68 101  82 101  85 100
M  END
> <chiral flag>
0

> <version>
0

> <s_m_source_file>
/data/baiqing/PycharmProjects/Reinvent-master-3.2/result/LINK_invent/BTK/process_docking_weight1_custom_product_contain_oxygen_bond_distance_aromatic_linkinvent_7_9_3/rearranged_h_0101.sdf

> <i_m_source_file_index>
89

> <r_mmod_Potential_Energy-OPLS-2005>
215.191528320312

> <r_mmod_Stretch_Energy-OPLS-2005>
43.1219139099121

> <r_mmod_Bend_Energy-OPLS-2005>
147.648315429688

> <r_mmod_Torsional_Energy-OPLS-2005>
339.22412109375

> <r_mmod_Improper_Torsional_Energy-OPLS-2005>
5.30002117156982

> <r_mmod_Van_der_Waal_Energy-OPLS-2005>
149.968597412109

> <r_mmod_Electrostatic_Energy-OPLS-2005>
-248.221008300781

> <r_mmod_Solvation_Energy-OPLS-2005>
-234.033203125

> <b_mmod_Minimization_Converged-OPLS-2005>
0

> <r_mmod_RMS_Derivative-OPLS-2005>
2.75233149528503

$$$$
89
                    3D
 Structure written by MMmdl.
155163  0  0  1  0            999 V2000
  -30.7268  -14.4550   20.5888 C   0  0  0  0  0  0
  -30.3945  -12.3101   19.4090 C   0  0  0  0  0  0
  -29.4746  -12.5028   18.1875 C   0  0  0  0  0  0
  -27.9866  -12.4023   18.5874 C   0  0  0  0  0  0
  -27.6474  -13.2203   19.8606 C   0  0  2  0  0  0
  -28.6894  -12.9926   20.9796 C   0  0  0  0  0  0
  -25.2482  -13.8280   20.5525 C   0  0  0  0  0  0
  -24.1778  -13.0533   20.9092 C   0  0  0  0  0  0
  -24.6339  -11.6993   20.8640 C   0  0  0  0  0  0
  -23.9044  -10.4377   21.0321 C   0  0  0  0  0  0
  -24.3633   -9.4306   21.9098 C   0  0  0  0  0  0
  -23.6318   -8.2339   22.0705 C   0  0  0  0  0  0
  -22.4291   -8.0339   21.3520 C   0  0  0  0  0  0
  -21.9904   -9.0299   20.4597 C   0  0  0  0  0  0
  -22.7221  -10.2189   20.2974 C   0  0  0  0  0  0
  -21.6894   -6.0773   22.5271 C   0  0  0  0  0  0
  -21.4062   -6.5660   23.8204 C   0  0  0  0  0  0
  -21.3683   -5.6794   24.9154 C   0  0  0  0  0  0
  -21.6066   -4.3051   24.7209 C   0  0  0  0  0  0
  -21.8818   -3.8164   23.4314 C   0  0  0  0  0  0
  -21.9194   -4.6995   22.3379 C   0  0  0  0  0  0
  -22.7815  -13.5271   21.1876 C   0  0  0  0  0  0
  -22.1621   -4.2186   21.0944 F   0  0  0  0  0  0
  -21.5663   -3.4514   25.7708 F   0  0  0  0  0  0
  -30.0139  -13.3078   20.4202 N   0  0  0  0  0  0
  -26.2917  -12.9452   20.3229 N   0  0  0  0  0  0
  -25.9250  -11.6585   20.5618 N   0  0  0  0  0  0
  -22.0537  -12.8199   22.0409 N   0  0  0  0  0  0
  -25.4309  -15.2012   20.3871 N   0  0  0  0  0  0
  -31.8646  -14.5915   20.1298 O   0  0  0  0  0  0
  -21.6679   -6.8931   21.4238 O   0  0  0  0  0  0
  -22.3456  -14.5624   20.6847 O   0  0  0  0  0  0
  -24.6129  -31.8675   23.2158 C   0  0  0  0  0  0
  -25.9044  -32.4830   23.8445 C   0  0  1  0  0  0
  -27.2325  -27.4139   20.0829 C   0  0  0  0  0  0
  -25.5939  -33.8620   24.2392 N   0  0  0  0  0  0
  -23.4016  -30.4912   21.5521 C   0  0  2  0  0  0
  -24.8489  -28.9661   20.1110 C   0  0  0  0  0  0
  -22.7452  -29.4596   22.4928 C   0  0  0  0  0  0
  -18.0261  -28.1369   22.8586 C   0  0  0  0  0  0
  -24.1473  -36.7290   23.2628 C   0  0  0  0  0  0
  -25.9356  -30.8229   21.3766 C   0  0  0  0  0  0
  -26.0097  -29.4548   20.7274 C   0  0  0  0  0  0
  -27.1969  -28.6811   20.7216 C   0  0  0  0  0  0
  -26.0538  -26.9748   19.4286 C   0  0  0  0  0  0
  -24.8656  -27.7256   19.4562 C   0  0  0  0  0  0
  -23.6180  -29.8461   20.1571 C   0  0  0  0  0  0
  -25.4104  -36.3114   24.0342 C   0  0  1  0  0  0
  -20.5899  -28.3653   23.1295 C   0  0  2  0  0  0
  -20.6709  -26.9282   22.5613 C   0  0  0  0  0  0
  -19.5722  -26.6140   21.5482 C   0  0  0  0  0  0
  -18.1806  -26.7965   22.1590 C   0  0  0  0  0  0
  -19.1572  -28.8828   23.2853 C   0  0  0  0  0  0
  -18.9608  -30.1525   23.8641 C   0  0  0  0  0  0
  -17.6614  -30.6694   24.0438 C   0  0  0  0  0  0
  -25.9038  -34.9488   23.5154 C   0  0  0  0  0  0
  -16.5440  -29.9109   23.6502 C   0  0  0  0  0  0
  -16.7280  -28.6458   23.0663 C   0  0  0  0  0  0
  -26.4479  -31.6583   25.0771 C   0  0  0  0  0  0
  -25.3749  -31.3692   26.1544 C   0  0  0  0  0  0
  -27.0310  -30.3023   24.6148 C   0  0  0  0  0  0
  -27.6050  -32.4246   25.7559 C   0  0  0  0  0  0
  -27.5575  -37.1816   24.8494 C   0  0  0  0  0  0
  -21.4178  -29.3023   22.3713 N   0  0  0  0  0  0
  -26.4291  -37.3801   23.9420 N   0  0  0  0  0  0
  -24.6667  -31.0783   22.1054 N   0  0  0  0  0  0
  -23.4297  -28.8094   23.2897 O   0  0  0  0  0  0
  -28.3868  -26.6435   20.1274 O   0  0  0  0  0  0
  -26.5588  -34.8936   22.4708 O   0  0  0  0  0  0
  -23.5318  -32.1465   23.7556 O   0  0  0  0  0  0
  -30.7633  -19.2659   21.7516 C   0  0  0  0  0  0
  -30.2088  -20.5382   21.5099 C   0  0  0  0  0  0
  -28.7194  -18.2073   20.9919 C   0  0  0  0  0  0
  -30.0488  -18.0854   21.4474 C   0  0  0  0  0  0
  -28.9094  -20.6667   20.9759 C   0  0  0  0  0  0
  -28.1487  -19.4878   20.7772 C   0  0  0  0  0  0
  -30.7925  -16.7467   21.5699 C   0  0  0  0  0  0
  -29.3065  -24.2903   20.3251 C   0  0  0  0  0  0
  -29.1855  -22.8257   19.8060 C   0  0  0  0  0  0
  -28.3090  -25.2765   19.6638 C   0  0  0  0  0  0
  -28.3700  -21.9293   20.6433 N   0  0  0  0  0  0
  -30.1057  -15.4911   21.1981 N   0  0  0  0  0  0
  -26.8678  -19.5873   20.3435 F   0  0  0  0  0  0
  -31.4434  -12.3862   19.1191 H   0  0  0  0  0  0
  -30.2775  -11.2999   19.8047 H   0  0  0  0  0  0
  -29.6925  -11.7599   17.4190 H   0  0  0  0  0  0
  -29.6726  -13.4790   17.7359 H   0  0  0  0  0  0
  -27.7270  -11.3524   18.7182 H   0  0  0  0  0  0
  -27.3637  -12.7474   17.7599 H   0  0  0  0  0  0
  -27.6951  -14.2698   19.5656 H   0  0  0  0  0  0
  -28.6608  -11.9503   21.2991 H   0  0  0  0  0  0
  -28.4553  -13.5737   21.8707 H   0  0  0  0  0  0
  -25.2807   -9.5853   22.4609 H   0  0  0  0  0  0
  -24.0077   -7.4784   22.7421 H   0  0  0  0  0  0
  -21.0852   -8.8832   19.8875 H   0  0  0  0  0  0
  -22.3691  -10.9728   19.6050 H   0  0  0  0  0  0
  -21.2067   -7.6169   23.9721 H   0  0  0  0  0  0
  -21.1473   -6.0505   25.9057 H   0  0  0  0  0  0
  -22.0555   -2.7623   23.2788 H   0  0  0  0  0  0
  -22.4132  -11.9800   22.4737 H   0  0  0  0  0  0
  -21.1141  -13.1173   22.2662 H   0  0  0  0  0  0
  -24.7011  -15.8941   20.5180 H   0  0  0  0  0  0
  -26.2963  -15.6019   20.0565 H   0  0  0  0  0  0
  -26.7104  -32.5549   23.1176 H   0  0  0  0  0  0
  -25.0217  -33.9766   25.0632 H   0  0  0  0  0  0
  -22.6875  -31.3091   21.4246 H   0  0  0  0  0  0
  -23.3736  -35.9609   23.3312 H   0  0  0  0  0  0
  -24.3570  -36.8876   22.2029 H   0  0  0  0  0  0
  -23.7202  -37.6496   23.6628 H   0  0  0  0  0  0
  -26.0478  -31.5821   20.6019 H   0  0  0  0  0  0
  -26.8241  -30.8830   21.9914 H   0  0  0  0  0  0
  -28.0832  -29.0442   21.2238 H   0  0  0  0  0  0
  -26.0177  -26.0601   18.8610 H   0  0  0  0  0  0
  -23.9846  -27.3556   18.9466 H   0  0  0  0  0  0
  -23.7630  -30.6355   19.4202 H   0  0  0  0  0  0
  -22.7338  -29.2946   19.8360 H   0  0  0  0  0  0
  -25.1242  -36.1975   25.0825 H   0  0  0  0  0  0
  -20.9917  -28.3241   24.1455 H   0  0  0  0  0  0
  -20.5478  -26.2302   23.3933 H   0  0  0  0  0  0
  -21.6559  -26.7152   22.1424 H   0  0  0  0  0  0
  -19.6834  -27.2403   20.6584 H   0  0  0  0  0  0
  -19.6816  -25.5824   21.2099 H   0  0  0  0  0  0
  -17.4345  -26.7053   21.3686 H   0  0  0  0  0  0
  -17.9696  -26.0080   22.8775 H   0  0  0  0  0  0
  -19.8126  -30.7511   24.1466 H   0  0  0  0  0  0
  -17.5173  -31.6545   24.4660 H   0  0  0  0  0  0
  -15.5498  -30.3136   23.7710 H   0  0  0  0  0  0
  -15.8561  -28.0845   22.7669 H   0  0  0  0  0  0
  -24.5964  -30.6963   25.7960 H   0  0  0  0  0  0
  -24.8920  -32.2850   26.4954 H   0  0  0  0  0  0
  -25.8155  -30.8963   27.0341 H   0  0  0  0  0  0
  -26.2888  -29.6781   24.1190 H   0  0  0  0  0  0
  -27.4078  -29.7248   25.4604 H   0  0  0  0  0  0
  -27.8716  -30.4356   23.9333 H   0  0  0  0  0  0
  -27.2696  -33.3541   26.2167 H   0  0  0  0  0  0
  -28.3905  -32.6764   25.0421 H   0  0  0  0  0  0
  -28.0673  -31.8344   26.5481 H   0  0  0  0  0  0
  -28.2623  -38.0089   24.7524 H   0  0  0  0  0  0
  -28.1043  -36.2623   24.6331 H   0  0  0  0  0  0
  -27.2324  -37.1486   25.8915 H   0  0  0  0  0  0
  -20.9282  -29.8913   21.7114 H   0  0  0  0  0  0
  -26.0166  -38.2874   24.1421 H   0  0  0  0  0  0
  -31.7709  -19.1965   22.1338 H   0  0  0  0  0  0
  -30.8048  -21.4177   21.7070 H   0  0  0  0  0  0
  -28.1408  -17.3229   20.7769 H   0  0  0  0  0  0
  -31.6637  -16.8806   20.9235 H   0  0  0  0  0  0
  -31.1890  -16.6519   22.5832 H   0  0  0  0  0  0
  -30.3122  -24.6428   20.0855 H   0  0  0  0  0  0
  -29.2305  -24.3117   21.4118 H   0  0  0  0  0  0
  -30.1894  -22.4092   19.6945 H   0  0  0  0  0  0
  -28.7692  -22.8497   18.7956 H   0  0  0  0  0  0
  -27.3307  -24.8330   19.8487 H   0  0  0  0  0  0
  -28.4619  -25.2952   18.5831 H   0  0  0  0  0  0
  -27.4196  -21.8054   20.2996 H   0  0  0  0  0  0
  -29.1523  -15.3532   21.4946 H   0  0  0  0  0  0
  1 25  1  0  0  0
  1 30  2  0  0  0
  1 82  1  0  0  0
  2  3  1  0  0  0
  2 25  1  0  0  0
  2 84  1  0  0  0
  2 85  1  0  0  0
  3  4  1  0  0  0
  3 86  1  0  0  0
  3 87  1  0  0  0
  4  5  1  0  0  0
  4 88  1  0  0  0
  4 89  1  0  0  0
  5  6  1  0  0  0
  5 26  1  0  0  0
  5 90  1  0  0  0
  6 25  1  0  0  0
  6 91  1  0  0  0
  6 92  1  0  0  0
  7  8  2  0  0  0
  7 26  1  0  0  0
  7 29  1  0  0  0
  8  9  1  0  0  0
  8 22  1  0  0  0
  9 10  1  0  0  0
  9 27  2  0  0  0
 10 11  2  0  0  0
 10 15  1  0  0  0
 11 12  1  0  0  0
 11 93  1  0  0  0
 12 13  2  0  0  0
 12 94  1  0  0  0
 13 14  1  0  0  0
 13 31  1  0  0  0
 14 15  2  0  0  0
 14 95  1  0  0  0
 15 96  1  0  0  0
 16 17  2  0  0  0
 16 21  1  0  0  0
 16 31  1  0  0  0
 17 18  1  0  0  0
 17 97  1  0  0  0
 18 19  2  0  0  0
 18 98  1  0  0  0
 19 20  1  0  0  0
 19 24  1  0  0  0
 20 21  2  0  0  0
 20 99  1  0  0  0
 21 23  1  0  0  0
 22 28  1  0  0  0
 22 32  2  0  0  0
 26 27  1  0  0  0
 28100  1  0  0  0
 28101  1  0  0  0
 29102  1  0  0  0
 29103  1  0  0  0
 33 34  1  0  0  0
 33 66  1  0  0  0
 33 70  2  0  0  0
 34 36  1  0  0  0
 34 59  1  0  0  0
 34104  1  0  0  0
 35 44  2  0  0  0
 35 45  1  0  0  0
 35 68  1  0  0  0
 36 56  1  0  0  0
 36105  1  0  0  0
 37 39  1  0  0  0
 37 47  1  0  0  0
 37 66  1  0  0  0
 37106  1  0  0  0
 38 43  2  0  0  0
 38 46  1  0  0  0
 38 47  1  0  0  0
 39 64  1  0  0  0
 39 67  2  0  0  0
 40 52  1  0  0  0
 40 53  2  0  0  0
 40 58  1  0  0  0
 41107  1  0  0  0
 41108  1  0  0  0
 41109  1  0  0  0
 41 48  1  0  0  0
 42 43  1  0  0  0
 42 66  1  0  0  0
 42110  1  0  0  0
 42111  1  0  0  0
 43 44  1  0  0  0
 44112  1  0  0  0
 45 46  2  0  0  0
 45113  1  0  0  0
 46114  1  0  0  0
 47115  1  0  0  0
 47116  1  0  0  0
 48 56  1  0  0  0
 48 65  1  0  0  0
 48117  1  0  0  0
 49 50  1  0  0  0
 49 53  1  0  0  0
 49 64  1  0  0  0
 49118  1  0  0  0
 50 51  1  0  0  0
 50119  1  0  0  0
 50120  1  0  0  0
 51 52  1  0  0  0
 51121  1  0  0  0
 51122  1  0  0  0
 52123  1  0  0  0
 52124  1  0  0  0
 53 54  1  0  0  0
 54 55  2  0  0  0
 54125  1  0  0  0
 55 57  1  0  0  0
 55126  1  0  0  0
 56 69  2  0  0  0
 57 58  2  0  0  0
 57127  1  0  0  0
 58128  1  0  0  0
 59 60  1  0  0  0
 59 61  1  0  0  0
 59 62  1  0  0  0
 60129  1  0  0  0
 60130  1  0  0  0
 60131  1  0  0  0
 61132  1  0  0  0
 61133  1  0  0  0
 61134  1  0  0  0
 62135  1  0  0  0
 62136  1  0  0  0
 62137  1  0  0  0
 63 65  1  0  0  0
 63138  1  0  0  0
 63139  1  0  0  0
 63140  1  0  0  0
 64141  1  0  0  0
 65142  1  0  0  0
 68 80  1  0  0  0
 71 72  2  0  0  0
 71 74  1  0  0  0
 71143  1  0  0  0
 72 75  1  0  0  0
 72144  1  0  0  0
 73 74  2  0  0  0
 73 76  1  0  0  0
 73145  1  0  0  0
 74 77  1  0  0  0
 75 76  2  0  0  0
 75 81  1  0  0  0
 76 83  1  0  0  0
 77 82  1  0  0  0
 77146  1  0  0  0
 77147  1  0  0  0
 78 79  1  0  0  0
 78 80  1  0  0  0
 78148  1  0  0  0
 78149  1  0  0  0
 79 81  1  0  0  0
 79150  1  0  0  0
 79151  1  0  0  0
 80152  1  0  0  0
 80153  1  0  0  0
 81154  1  0  0  0
 82155  1  0  0  0
M  ISO  4   1 100  68 101  80 101  82 100
M  END
> <chiral flag>
0

> <version>
0

> <s_m_source_file>
/data/baiqing/PycharmProjects/Reinvent-master-3.2/result/LINK_invent/BTK/process_docking_weight1_custom_product_contain_oxygen_bond_distance_aromatic_linkinvent_7_9_3/rearranged_h_0101.sdf

> <i_m_source_file_index>
90

> <r_mmod_Potential_Energy-OPLS-2005>
-48.7114868164062

> <r_mmod_Stretch_Energy-OPLS-2005>
41.9642715454102

> <r_mmod_Bend_Energy-OPLS-2005>
112.627853393555

> <r_mmod_Torsional_Energy-OPLS-2005>
208.553894042969

> <r_mmod_Improper_Torsional_Energy-OPLS-2005>
7.16741371154785

> <r_mmod_Van_der_Waal_Energy-OPLS-2005>
160.329498291016

> <r_mmod_Electrostatic_Energy-OPLS-2005>
-383.29931640625

> <r_mmod_Solvation_Energy-OPLS-2005>
-214.292785644531

> <b_mmod_Minimization_Converged-OPLS-2005>
0

> <r_mmod_RMS_Derivative-OPLS-2005>
8.87106513977051

$$$$
90
                    3D
 Structure written by MMmdl.
156165  0  0  1  0            999 V2000
  -30.6158  -14.6824   20.4708 C   0  0  0  0  0  0
  -30.4437  -12.4149   19.4531 C   0  0  0  0  0  0
  -29.5086  -12.5071   18.2261 C   0  0  0  0  0  0
  -28.0323  -12.3423   18.6417 C   0  0  0  0  0  0
  -27.6501  -13.2220   19.8626 C   0  0  2  0  0  0
  -28.7028  -13.1030   20.9888 C   0  0  0  0  0  0
  -25.2504  -13.8136   20.5755 C   0  0  0  0  0  0
  -24.1783  -13.0373   20.9172 C   0  0  0  0  0  0
  -24.6396  -11.6870   20.8726 C   0  0  0  0  0  0
  -23.9076  -10.4258   21.0390 C   0  0  0  0  0  0
  -24.3622   -9.4183   21.9177 C   0  0  0  0  0  0
  -23.6288   -8.2228   22.0755 C   0  0  0  0  0  0
  -22.4269   -8.0272   21.3545 C   0  0  0  0  0  0
  -21.9907   -9.0243   20.4644 C   0  0  0  0  0  0
  -22.7246  -10.2111   20.3044 C   0  0  0  0  0  0
  -21.6848   -6.0730   22.5281 C   0  0  0  0  0  0
  -21.4012   -6.5636   23.8213 C   0  0  0  0  0  0
  -21.3656   -5.6789   24.9175 C   0  0  0  0  0  0
  -21.6043   -4.3052   24.7226 C   0  0  0  0  0  0
  -21.8821   -3.8143   23.4349 C   0  0  0  0  0  0
  -21.9192   -4.6958   22.3404 C   0  0  0  0  0  0
  -22.7806  -13.5166   21.1842 C   0  0  0  0  0  0
  -22.1661   -4.2145   21.0981 F   0  0  0  0  0  0
  -21.5627   -3.4536   25.7740 F   0  0  0  0  0  0
  -30.0134  -13.4496   20.4141 N   0  0  0  0  0  0
  -26.2983  -12.9369   20.3375 N   0  0  0  0  0  0
  -25.9339  -11.6506   20.5774 N   0  0  0  0  0  0
  -22.0460  -12.8174   22.0418 N   0  0  0  0  0  0
  -25.4007  -15.1878   20.4375 N   0  0  0  0  0  0
  -31.7968  -14.8340   20.1451 O   0  0  0  0  0  0
  -21.6631   -6.8872   21.4243 O   0  0  0  0  0  0
  -22.3487  -14.5477   20.6700 O   0  0  0  0  0  0
  -24.6271  -31.8590   23.2032 C   0  0  0  0  0  0
  -25.9113  -32.4775   23.8363 C   0  0  1  0  0  0
  -27.2263  -27.3064   20.1200 C   0  0  0  0  0  0
  -25.5924  -33.8578   24.2285 N   0  0  0  0  0  0
  -23.4228  -30.4825   21.5452 C   0  0  2  0  0  0
  -24.8724  -28.9394   20.1089 C   0  0  0  0  0  0
  -22.7488  -29.4613   22.4928 C   0  0  0  0  0  0
  -18.0289  -28.1386   22.8485 C   0  0  0  0  0  0
  -24.1488  -36.7292   23.2638 C   0  0  0  0  0  0
  -25.9661  -30.7829   21.3810 C   0  0  0  0  0  0
  -26.0405  -29.4092   20.7242 C   0  0  0  0  0  0
  -27.2194  -28.6014   20.7277 C   0  0  0  0  0  0
  -26.0427  -26.9081   19.4556 C   0  0  0  0  0  0
  -24.8755  -27.6930   19.4661 C   0  0  0  0  0  0
  -23.6403  -29.8202   20.1596 C   0  0  0  0  0  0
  -25.4113  -36.3082   24.0329 C   0  0  1  0  0  0
  -20.5891  -28.3691   23.1277 C   0  0  2  0  0  0
  -20.6776  -26.9412   22.5409 C   0  0  0  0  0  0
  -19.5751  -26.6384   21.5212 C   0  0  0  0  0  0
  -18.1933  -26.7929   22.1625 C   0  0  0  0  0  0
  -19.1542  -28.8857   23.2876 C   0  0  0  0  0  0
  -18.9465  -30.1458   23.8896 C   0  0  0  0  0  0
  -17.6463  -30.6588   24.0565 C   0  0  0  0  0  0
  -25.9051  -34.9449   23.5109 C   0  0  0  0  0  0
  -16.5355  -29.9086   23.6329 C   0  0  0  0  0  0
  -16.7276  -28.6502   23.0351 C   0  0  0  0  0  0
  -26.4493  -31.6587   25.0736 C   0  0  0  0  0  0
  -25.3723  -31.3728   26.1461 C   0  0  0  0  0  0
  -27.0337  -30.3007   24.6204 C   0  0  0  0  0  0
  -27.6055  -32.4321   25.7503 C   0  0  0  0  0  0
  -27.5578  -37.1803   24.8464 C   0  0  0  0  0  0
  -21.4198  -29.3040   22.3670 N   0  0  0  0  0  0
  -26.4291  -37.3776   23.9405 N   0  0  0  0  0  0
  -24.6905  -31.0585   22.0996 N   0  0  0  0  0  0
  -23.4204  -28.8149   23.3012 O   0  0  0  0  0  0
  -28.3168  -26.4153   20.1664 O   0  0  0  0  0  0
  -26.5623  -34.8912   22.4678 O   0  0  0  0  0  0
  -23.5430  -32.1399   23.7345 O   0  0  0  0  0  0
  -30.9433  -19.4388   20.7141 C   0  0  0  0  0  0
  -31.0113  -18.0070   20.7765 C   0  0  0  0  0  0
  -28.6039  -19.3290   20.2051 C   0  0  0  0  0  0
  -29.7355  -20.1538   20.4435 C   0  0  0  0  0  0
  -29.8676  -17.1972   20.5456 C   0  0  0  0  0  0
  -28.6747  -17.9014   20.2289 C   0  0  0  0  0  0
  -28.8725  -23.9375   20.2645 C   0  0  0  0  0  0
  -28.0440  -25.0351   20.3526 C   0  0  0  0  0  0
  -30.3618  -23.9107   19.9976 C   0  0  0  0  0  0
  -28.4523  -22.4522   20.4258 C   0  0  0  0  0  0
  -30.8446  -22.4678   20.3338 C   0  0  0  0  0  0
  -29.6663  -21.6001   20.3900 N   0  0  0  0  0  0
  -27.5453  -17.1568   19.8881 N   0  0  0  0  0  0
  -29.7720  -15.7396   20.6949 N   0  0  0  0  0  0
  -31.4827  -12.5477   19.1465 H   0  0  0  0  0  0
  -30.3883  -11.4258   19.9103 H   0  0  0  0  0  0
  -29.7761  -11.7473   17.4905 H   0  0  0  0  0  0
  -29.6444  -13.4708   17.7322 H   0  0  0  0  0  0
  -27.8742  -11.2903   18.8821 H   0  0  0  0  0  0
  -27.3760  -12.5618   17.7989 H   0  0  0  0  0  0
  -27.6523  -14.2517   19.5073 H   0  0  0  0  0  0
  -28.7240  -12.0891   21.3907 H   0  0  0  0  0  0
  -28.4502  -13.7528   21.8283 H   0  0  0  0  0  0
  -25.2768   -9.5657   22.4751 H   0  0  0  0  0  0
  -23.9991   -7.4620   22.7479 H   0  0  0  0  0  0
  -21.0835   -8.8769   19.8953 H   0  0  0  0  0  0
  -22.3714  -10.9652   19.6150 H   0  0  0  0  0  0
  -21.2006   -7.6145   23.9717 H   0  0  0  0  0  0
  -21.1474   -6.0518   25.9077 H   0  0  0  0  0  0
  -22.0603   -2.7605   23.2852 H   0  0  0  0  0  0
  -22.4079  -11.9839   22.4811 H   0  0  0  0  0  0
  -21.1083  -13.1210   22.2633 H   0  0  0  0  0  0
  -24.6180  -15.8130   20.5913 H   0  0  0  0  0  0
  -26.2714  -15.7005   20.2971 H   0  0  0  0  0  0
  -26.7181  -32.5444   23.1111 H   0  0  0  0  0  0
  -25.0057  -33.9724   25.0418 H   0  0  0  0  0  0
  -22.7170  -31.3035   21.4026 H   0  0  0  0  0  0
  -23.3745  -35.9630   23.3311 H   0  0  0  0  0  0
  -24.3579  -36.8904   22.2052 H   0  0  0  0  0  0
  -23.7245  -37.6499   23.6654 H   0  0  0  0  0  0
  -26.1018  -31.5452   20.6127 H   0  0  0  0  0  0
  -26.8450  -30.8314   22.0123 H   0  0  0  0  0  0
  -28.1116  -28.9516   21.2274 H   0  0  0  0  0  0
  -26.0024  -25.9601   18.9387 H   0  0  0  0  0  0
  -23.9846  -27.3314   18.9707 H   0  0  0  0  0  0
  -23.7612  -30.5990   19.4058 H   0  0  0  0  0  0
  -22.7602  -29.2512   19.8541 H   0  0  0  0  0  0
  -25.1291  -36.1941   25.0821 H   0  0  0  0  0  0
  -20.9982  -28.3268   24.1397 H   0  0  0  0  0  0
  -20.5676  -26.2301   23.3610 H   0  0  0  0  0  0
  -21.6646  -26.7437   22.1205 H   0  0  0  0  0  0
  -19.6912  -25.6296   21.1240 H   0  0  0  0  0  0
  -19.6686  -27.3196   20.6743 H   0  0  0  0  0  0
  -17.4200  -26.6676   21.4029 H   0  0  0  0  0  0
  -18.0333  -26.0072   22.9023 H   0  0  0  0  0  0
  -19.7941  -30.7277   24.2263 H   0  0  0  0  0  0
  -17.5017  -31.6266   24.5169 H   0  0  0  0  0  0
  -15.5355  -30.2988   23.7653 H   0  0  0  0  0  0
  -15.8676  -28.0822   22.7064 H   0  0  0  0  0  0
  -24.5898  -30.7077   25.7789 H   0  0  0  0  0  0
  -24.8914  -32.2894   26.4886 H   0  0  0  0  0  0
  -25.8045  -30.8905   27.0238 H   0  0  0  0  0  0
  -26.2916  -29.6759   24.1218 H   0  0  0  0  0  0
  -27.4014  -29.7262   25.4717 H   0  0  0  0  0  0
  -27.8796  -30.4288   23.9448 H   0  0  0  0  0  0
  -27.2668  -33.3620   26.2082 H   0  0  0  0  0  0
  -28.3861  -32.6882   25.0326 H   0  0  0  0  0  0
  -28.0725  -31.8444   26.5417 H   0  0  0  0  0  0
  -28.2600  -38.0096   24.7506 H   0  0  0  0  0  0
  -28.1070  -36.2629   24.6294 H   0  0  0  0  0  0
  -27.2297  -37.1458   25.8867 H   0  0  0  0  0  0
  -20.9381  -29.8771   21.6885 H   0  0  0  0  0  0
  -26.0175  -38.2852   24.1403 H   0  0  0  0  0  0
  -31.8529  -19.9897   20.9046 H   0  0  0  0  0  0
  -31.9524  -17.5388   21.0261 H   0  0  0  0  0  0
  -27.6614  -19.7991   19.9674 H   0  0  0  0  0  0
  -27.0050  -24.8630   20.5961 H   0  0  0  0  0  0
  -30.8879  -24.6704   20.5768 H   0  0  0  0  0  0
  -30.5250  -24.1247   18.9408 H   0  0  0  0  0  0
  -27.7781  -22.1797   19.6124 H   0  0  0  0  0  0
  -27.9146  -22.3163   21.3654 H   0  0  0  0  0  0
  -31.3392  -22.4554   21.3065 H   0  0  0  0  0  0
  -31.5646  -22.1138   19.5939 H   0  0  0  0  0  0
  -26.7638  -17.7210   19.5703 H   0  0  0  0  0  0
  -27.7517  -16.4599   19.1812 H   0  0  0  0  0  0
  -28.8177  -15.4481   20.8437 H   0  0  0  0  0  0
  1 25  1  0  0  0
  1 30  2  0  0  0
  1 84  1  0  0  0
  2  3  1  0  0  0
  2 25  1  0  0  0
  2 85  1  0  0  0
  2 86  1  0  0  0
  3  4  1  0  0  0
  3 87  1  0  0  0
  3 88  1  0  0  0
  4  5  1  0  0  0
  4 89  1  0  0  0
  4 90  1  0  0  0
  5  6  1  0  0  0
  5 26  1  0  0  0
  5 91  1  0  0  0
  6 25  1  0  0  0
  6 92  1  0  0  0
  6 93  1  0  0  0
  7  8  2  0  0  0
  7 26  1  0  0  0
  7 29  1  0  0  0
  8  9  1  0  0  0
  8 22  1  0  0  0
  9 10  1  0  0  0
  9 27  2  0  0  0
 10 11  2  0  0  0
 10 15  1  0  0  0
 11 12  1  0  0  0
 11 94  1  0  0  0
 12 13  2  0  0  0
 12 95  1  0  0  0
 13 14  1  0  0  0
 13 31  1  0  0  0
 14 15  2  0  0  0
 14 96  1  0  0  0
 15 97  1  0  0  0
 16 17  2  0  0  0
 16 21  1  0  0  0
 16 31  1  0  0  0
 17 18  1  0  0  0
 17 98  1  0  0  0
 18 19  2  0  0  0
 18 99  1  0  0  0
 19 20  1  0  0  0
 19 24  1  0  0  0
 20 21  2  0  0  0
 20100  1  0  0  0
 21 23  1  0  0  0
 22 28  1  0  0  0
 22 32  2  0  0  0
 26 27  1  0  0  0
 28101  1  0  0  0
 28102  1  0  0  0
 29103  1  0  0  0
 29104  1  0  0  0
 33 34  1  0  0  0
 33 66  1  0  0  0
 33 70  2  0  0  0
 34 36  1  0  0  0
 34 59  1  0  0  0
 34105  1  0  0  0
 35 44  2  0  0  0
 35 45  1  0  0  0
 35 68  1  0  0  0
 36 56  1  0  0  0
 36106  1  0  0  0
 37 39  1  0  0  0
 37 47  1  0  0  0
 37 66  1  0  0  0
 37107  1  0  0  0
 38 43  2  0  0  0
 38 46  1  0  0  0
 38 47  1  0  0  0
 39 64  1  0  0  0
 39 67  2  0  0  0
 40 52  1  0  0  0
 40 53  2  0  0  0
 40 58  1  0  0  0
 41108  1  0  0  0
 41109  1  0  0  0
 41110  1  0  0  0
 41 48  1  0  0  0
 42 43  1  0  0  0
 42 66  1  0  0  0
 42111  1  0  0  0
 42112  1  0  0  0
 43 44  1  0  0  0
 44113  1  0  0  0
 45 46  2  0  0  0
 45114  1  0  0  0
 46115  1  0  0  0
 47116  1  0  0  0
 47117  1  0  0  0
 48 56  1  0  0  0
 48 65  1  0  0  0
 48118  1  0  0  0
 49 50  1  0  0  0
 49 53  1  0  0  0
 49 64  1  0  0  0
 49119  1  0  0  0
 50 51  1  0  0  0
 50120  1  0  0  0
 50121  1  0  0  0
 51 52  1  0  0  0
 51122  1  0  0  0
 51123  1  0  0  0
 52124  1  0  0  0
 52125  1  0  0  0
 53 54  1  0  0  0
 54 55  2  0  0  0
 54126  1  0  0  0
 55 57  1  0  0  0
 55127  1  0  0  0
 56 69  2  0  0  0
 57 58  2  0  0  0
 57128  1  0  0  0
 58129  1  0  0  0
 59 60  1  0  0  0
 59 61  1  0  0  0
 59 62  1  0  0  0
 60130  1  0  0  0
 60131  1  0  0  0
 60132  1  0  0  0
 61133  1  0  0  0
 61134  1  0  0  0
 61135  1  0  0  0
 62136  1  0  0  0
 62137  1  0  0  0
 62138  1  0  0  0
 63 65  1  0  0  0
 63139  1  0  0  0
 63140  1  0  0  0
 63141  1  0  0  0
 64142  1  0  0  0
 65143  1  0  0  0
 68 78  1  0  0  0
 71 72  2  0  0  0
 71 74  1  0  0  0
 71144  1  0  0  0
 72 75  1  0  0  0
 72145  1  0  0  0
 73 74  2  0  0  0
 73 76  1  0  0  0
 73146  1  0  0  0
 74 82  1  0  0  0
 75 76  2  0  0  0
 75 84  1  0  0  0
 76 83  1  0  0  0
 77 78  2  0  0  0
 77 79  1  0  0  0
 77 80  1  0  0  0
 78147  1  0  0  0
 79 81  1  0  0  0
 79148  1  0  0  0
 79149  1  0  0  0
 80 82  1  0  0  0
 80150  1  0  0  0
 80151  1  0  0  0
 81 82  1  0  0  0
 81152  1  0  0  0
 81153  1  0  0  0
 83154  1  0  0  0
 83155  1  0  0  0
 84156  1  0  0  0
M  ISO  4   1 100  68 101  78 101  84 100
M  END
> <chiral flag>
0

> <version>
0

> <s_m_source_file>
/data/baiqing/PycharmProjects/Reinvent-master-3.2/result/LINK_invent/BTK/process_docking_weight1_custom_product_contain_oxygen_bond_distance_aromatic_linkinvent_7_9_3/rearranged_h_0101.sdf

> <i_m_source_file_index>
91

> <r_mmod_Potential_Energy-OPLS-2005>
29.807559967041

> <r_mmod_Stretch_Energy-OPLS-2005>
78.3794326782227

> <r_mmod_Bend_Energy-OPLS-2005>
183.405380249023

> <r_mmod_Torsional_Energy-OPLS-2005>
243.632827758789

> <r_mmod_Improper_Torsional_Energy-OPLS-2005>
11.3209314346313

> <r_mmod_Van_der_Waal_Energy-OPLS-2005>
147.533111572266

> <r_mmod_Electrostatic_Energy-OPLS-2005>
-473.304809570312

> <r_mmod_Solvation_Energy-OPLS-2005>
-223.829772949219

> <b_mmod_Minimization_Converged-OPLS-2005>
0

> <r_mmod_RMS_Derivative-OPLS-2005>
0.450537979602814

$$$$
91
                    3D
 Structure written by MMmdl.
163172  0  0  1  0            999 V2000
  -30.7541  -14.4750   20.5302 C   0  0  0  0  0  0
  -30.4017  -12.3013   19.4394 C   0  0  0  0  0  0
  -29.4863  -12.4850   18.2140 C   0  0  0  0  0  0
  -28.0099  -12.3516   18.6295 C   0  0  0  0  0  0
  -27.6514  -13.2212   19.8642 C   0  0  2  0  0  0
  -28.6977  -13.0726   20.9926 C   0  0  0  0  0  0
  -25.2537  -13.8207   20.5709 C   0  0  0  0  0  0
  -24.1810  -13.0461   20.9207 C   0  0  0  0  0  0
  -24.6386  -11.6933   20.8754 C   0  0  0  0  0  0
  -23.9059  -10.4307   21.0410 C   0  0  0  0  0  0
  -24.3609   -9.4214   21.9179 C   0  0  0  0  0  0
  -23.6291   -8.2242   22.0748 C   0  0  0  0  0  0
  -22.4273   -8.0277   21.3538 C   0  0  0  0  0  0
  -21.9908   -9.0252   20.4638 C   0  0  0  0  0  0
  -22.7235  -10.2134   20.3053 C   0  0  0  0  0  0
  -21.6849   -6.0726   22.5275 C   0  0  0  0  0  0
  -21.4016   -6.5637   23.8208 C   0  0  0  0  0  0
  -21.3664   -5.6792   24.9173 C   0  0  0  0  0  0
  -21.6043   -4.3054   24.7226 C   0  0  0  0  0  0
  -21.8818   -3.8143   23.4351 C   0  0  0  0  0  0
  -21.9195   -4.6955   22.3404 C   0  0  0  0  0  0
  -22.7821  -13.5229   21.1860 C   0  0  0  0  0  0
  -22.1657   -4.2145   21.0979 F   0  0  0  0  0  0
  -21.5634   -3.4538   25.7739 F   0  0  0  0  0  0
  -30.0229  -13.3342   20.4186 N   0  0  0  0  0  0
  -26.2977  -12.9400   20.3360 N   0  0  0  0  0  0
  -25.9320  -11.6544   20.5802 N   0  0  0  0  0  0
  -22.0472  -12.8210   22.0419 N   0  0  0  0  0  0
  -25.4250  -15.1919   20.4091 N   0  0  0  0  0  0
  -31.9358  -14.5161   20.1876 O   0  0  0  0  0  0
  -21.6637   -6.8870   21.4235 O   0  0  0  0  0  0
  -22.3500  -14.5528   20.6706 O   0  0  0  0  0  0
  -24.6105  -31.8711   23.2124 C   0  0  0  0  0  0
  -25.9009  -32.4837   23.8413 C   0  0  1  0  0  0
  -27.2419  -27.4568   20.1114 C   0  0  0  0  0  0
  -25.5893  -33.8633   24.2360 N   0  0  0  0  0  0
  -23.3977  -30.4928   21.5501 C   0  0  2  0  0  0
  -24.8501  -28.9595   20.1185 C   0  0  0  0  0  0
  -22.7405  -29.4660   22.4996 C   0  0  0  0  0  0
  -18.0281  -28.1358   22.8482 C   0  0  0  0  0  0
  -24.1496  -36.7304   23.2636 C   0  0  0  0  0  0
  -25.9227  -30.8432   21.3623 C   0  0  0  0  0  0
  -26.0036  -29.4750   20.7223 C   0  0  0  0  0  0
  -27.2018  -28.7286   20.7256 C   0  0  0  0  0  0
  -26.0804  -26.9583   19.4885 C   0  0  0  0  0  0
  -24.8796  -27.6965   19.5015 C   0  0  0  0  0  0
  -23.6088  -29.8218   20.1655 C   0  0  0  0  0  0
  -25.4109  -36.3120   24.0361 C   0  0  1  0  0  0
  -20.5871  -28.3617   23.1343 C   0  0  2  0  0  0
  -20.6767  -26.9359   22.5424 C   0  0  0  0  0  0
  -19.5752  -26.6372   21.5206 C   0  0  0  0  0  0
  -18.1926  -26.7904   22.1611 C   0  0  0  0  0  0
  -19.1528  -28.8803   23.2895 C   0  0  0  0  0  0
  -18.9458  -30.1411   23.8892 C   0  0  0  0  0  0
  -17.6471  -30.6557   24.0554 C   0  0  0  0  0  0
  -25.9030  -34.9489   23.5155 C   0  0  0  0  0  0
  -16.5349  -29.9058   23.6327 C   0  0  0  0  0  0
  -16.7272  -28.6487   23.0333 C   0  0  0  0  0  0
  -26.4453  -31.6604   25.0719 C   0  0  0  0  0  0
  -25.3738  -31.3699   26.1480 C   0  0  0  0  0  0
  -27.0285  -30.3080   24.6021 C   0  0  0  0  0  0
  -27.6041  -32.4308   25.7476 C   0  0  0  0  0  0
  -27.5586  -37.1805   24.8467 C   0  0  0  0  0  0
  -21.4139  -29.3001   22.3752 N   0  0  0  0  0  0
  -26.4298  -37.3811   23.9423 N   0  0  0  0  0  0
  -24.6609  -31.0853   22.1003 N   0  0  0  0  0  0
  -23.4200  -28.8206   23.3022 O   0  0  0  0  0  0
  -28.3820  -26.6902   20.0462 O   0  0  0  0  0  0
  -26.5587  -34.8946   22.4707 O   0  0  0  0  0  0
  -23.5316  -32.1449   23.7548 O   0  0  0  0  0  0
  -29.0698  -18.8898   20.5046 C   0  0  0  0  0  0
  -28.6918  -20.1949   20.8907 C   0  0  0  0  0  0
  -30.4550  -18.7137   22.4809 C   0  0  0  0  0  0
  -30.0216  -18.1648   21.2555 C   0  0  0  0  0  0
  -29.2237  -20.8086   22.0519 C   0  0  0  0  0  0
  -30.0585  -20.0086   22.8821 C   0  0  0  0  0  0
  -27.8227  -24.2755   21.5979 C   0  0  0  0  0  0
  -28.9587  -24.9915   21.7158 C   0  0  0  0  0  0
  -27.6843  -22.8111   21.9896 C   0  0  0  0  0  0
  -30.2163  -24.3616   22.2988 C   0  0  0  0  0  0
  -29.9753  -23.0072   23.0024 C   0  0  0  0  0  0
  -31.1438  -17.2683   19.1887 C   0  0  0  0  0  0
  -29.0827  -26.4468   21.2675 C   0  0  0  0  0  0
  -30.7500  -16.9515   20.6572 C   0  0  2  0  0  0
  -28.9675  -22.1824   22.3245 N   0  0  0  0  0  0
  -30.0988  -15.6275   20.8001 N   0  0  0  0  0  0
  -30.5243  -20.4791   24.0668 F   0  0  0  0  0  0
  -31.4493  -12.3612   19.1381 H   0  0  0  0  0  0
  -30.2747  -11.3079   19.8738 H   0  0  0  0  0  0
  -29.7280  -11.7485   17.4460 H   0  0  0  0  0  0
  -29.6572  -13.4654   17.7663 H   0  0  0  0  0  0
  -27.8258  -11.3001   18.8519 H   0  0  0  0  0  0
  -27.3586  -12.6031   17.7919 H   0  0  0  0  0  0
  -27.6764  -14.2583   19.5271 H   0  0  0  0  0  0
  -28.6720  -12.0653   21.4111 H   0  0  0  0  0  0
  -28.4807  -13.7524   21.8181 H   0  0  0  0  0  0
  -25.2752   -9.5688   22.4757 H   0  0  0  0  0  0
  -24.0006   -7.4626   22.7459 H   0  0  0  0  0  0
  -21.0844   -8.8761   19.8938 H   0  0  0  0  0  0
  -22.3688  -10.9668   19.6162 H   0  0  0  0  0  0
  -21.2002   -7.6144   23.9713 H   0  0  0  0  0  0
  -21.1489   -6.0519   25.9075 H   0  0  0  0  0  0
  -22.0595   -2.7608   23.2851 H   0  0  0  0  0  0
  -22.4100  -11.9875   22.4813 H   0  0  0  0  0  0
  -21.1077  -13.1211   22.2611 H   0  0  0  0  0  0
  -24.6618  -15.8519   20.5148 H   0  0  0  0  0  0
  -26.2777  -15.6265   20.0801 H   0  0  0  0  0  0
  -26.7077  -32.5591   23.1176 H   0  0  0  0  0  0
  -25.0081  -33.9801   25.0536 H   0  0  0  0  0  0
  -22.6824  -31.3065   21.4108 H   0  0  0  0  0  0
  -23.3772  -35.9617   23.3310 H   0  0  0  0  0  0
  -24.3589  -36.8906   22.2044 H   0  0  0  0  0  0
  -23.7257  -37.6523   23.6634 H   0  0  0  0  0  0
  -26.0292  -31.6038   20.5874 H   0  0  0  0  0  0
  -26.8129  -30.9059   21.9761 H   0  0  0  0  0  0
  -28.0899  -29.1356   21.1874 H   0  0  0  0  0  0
  -26.1013  -25.9918   19.0046 H   0  0  0  0  0  0
  -23.9939  -27.2927   19.0293 H   0  0  0  0  0  0
  -23.7126  -30.5950   19.4043 H   0  0  0  0  0  0
  -22.7353  -29.2382   19.8698 H   0  0  0  0  0  0
  -25.1284  -36.1973   25.0860 H   0  0  0  0  0  0
  -20.9945  -28.3154   24.1468 H   0  0  0  0  0  0
  -20.5686  -26.2192   23.3584 H   0  0  0  0  0  0
  -21.6631  -26.7417   22.1198 H   0  0  0  0  0  0
  -19.6914  -25.6297   21.1194 H   0  0  0  0  0  0
  -19.6712  -27.3203   20.6761 H   0  0  0  0  0  0
  -17.4205  -26.6661   21.4003 H   0  0  0  0  0  0
  -18.0309  -26.0038   22.8998 H   0  0  0  0  0  0
  -19.7939  -30.7220   24.2254 H   0  0  0  0  0  0
  -17.5029  -31.6247   24.5125 H   0  0  0  0  0  0
  -15.5346  -30.2955   23.7667 H   0  0  0  0  0  0
  -15.8673  -28.0816   22.7031 H   0  0  0  0  0  0
  -24.5899  -30.7058   25.7822 H   0  0  0  0  0  0
  -24.8924  -32.2849   26.4948 H   0  0  0  0  0  0
  -25.8099  -30.8862   27.0226 H   0  0  0  0  0  0
  -26.2806  -29.6861   24.1088 H   0  0  0  0  0  0
  -27.4146  -29.7292   25.4419 H   0  0  0  0  0  0
  -27.8597  -30.4461   23.9101 H   0  0  0  0  0  0
  -27.2657  -33.3593   26.2079 H   0  0  0  0  0  0
  -28.3821  -32.6889   25.0282 H   0  0  0  0  0  0
  -28.0716  -31.8409   26.5369 H   0  0  0  0  0  0
  -28.2588  -38.0116   24.7533 H   0  0  0  0  0  0
  -28.1104  -36.2660   24.6253 H   0  0  0  0  0  0
  -27.2304  -37.1386   25.8868 H   0  0  0  0  0  0
  -20.9281  -29.8729   21.6992 H   0  0  0  0  0  0
  -26.0199  -38.2892   24.1444 H   0  0  0  0  0  0
  -28.6971  -18.5052   19.5671 H   0  0  0  0  0  0
  -28.0463  -20.7371   20.2186 H   0  0  0  0  0  0
  -31.1651  -18.1797   23.0949 H   0  0  0  0  0  0
  -26.9359  -24.7444   21.1939 H   0  0  0  0  0  0
  -27.1644  -22.3076   21.1786 H   0  0  0  0  0  0
  -27.0253  -22.7497   22.8554 H   0  0  0  0  0  0
  -30.6864  -25.0547   22.9991 H   0  0  0  0  0  0
  -30.9269  -24.2301   21.4802 H   0  0  0  0  0  0
  -29.6333  -23.1848   24.0248 H   0  0  0  0  0  0
  -30.9369  -22.5004   23.0766 H   0  0  0  0  0  0
  -31.6785  -18.2178   19.1351 H   0  0  0  0  0  0
  -30.2806  -17.3393   18.5278 H   0  0  0  0  0  0
  -31.8128  -16.5280   18.7530 H   0  0  0  0  0  0
  -30.1334  -26.6646   21.0736 H   0  0  0  0  0  0
  -28.7841  -27.0974   22.0910 H   0  0  0  0  0  0
  -31.6893  -16.8833   21.2128 H   0  0  0  0  0  0
  -29.1176  -15.5905   21.0317 H   0  0  0  0  0  0
  1 25  1  0  0  0
  1 30  2  0  0  0
  1 86  1  0  0  0
  2  3  1  0  0  0
  2 25  1  0  0  0
  2 88  1  0  0  0
  2 89  1  0  0  0
  3  4  1  0  0  0
  3 90  1  0  0  0
  3 91  1  0  0  0
  4  5  1  0  0  0
  4 92  1  0  0  0
  4 93  1  0  0  0
  5  6  1  0  0  0
  5 26  1  0  0  0
  5 94  1  0  0  0
  6 25  1  0  0  0
  6 95  1  0  0  0
  6 96  1  0  0  0
  7  8  2  0  0  0
  7 26  1  0  0  0
  7 29  1  0  0  0
  8  9  1  0  0  0
  8 22  1  0  0  0
  9 10  1  0  0  0
  9 27  2  0  0  0
 10 11  2  0  0  0
 10 15  1  0  0  0
 11 12  1  0  0  0
 11 97  1  0  0  0
 12 13  2  0  0  0
 12 98  1  0  0  0
 13 14  1  0  0  0
 13 31  1  0  0  0
 14 15  2  0  0  0
 14 99  1  0  0  0
 15100  1  0  0  0
 16 17  2  0  0  0
 16 21  1  0  0  0
 16 31  1  0  0  0
 17 18  1  0  0  0
 17101  1  0  0  0
 18 19  2  0  0  0
 18102  1  0  0  0
 19 20  1  0  0  0
 19 24  1  0  0  0
 20 21  2  0  0  0
 20103  1  0  0  0
 21 23  1  0  0  0
 22 28  1  0  0  0
 22 32  2  0  0  0
 26 27  1  0  0  0
 28104  1  0  0  0
 28105  1  0  0  0
 29106  1  0  0  0
 29107  1  0  0  0
 33 34  1  0  0  0
 33 66  1  0  0  0
 33 70  2  0  0  0
 34 36  1  0  0  0
 34 59  1  0  0  0
 34108  1  0  0  0
 35 44  2  0  0  0
 35 45  1  0  0  0
 35 68  1  0  0  0
 36 56  1  0  0  0
 36109  1  0  0  0
 37 39  1  0  0  0
 37 47  1  0  0  0
 37 66  1  0  0  0
 37110  1  0  0  0
 38 43  2  0  0  0
 38 46  1  0  0  0
 38 47  1  0  0  0
 39 64  1  0  0  0
 39 67  2  0  0  0
 40 52  1  0  0  0
 40 53  2  0  0  0
 40 58  1  0  0  0
 41111  1  0  0  0
 41112  1  0  0  0
 41113  1  0  0  0
 41 48  1  0  0  0
 42 43  1  0  0  0
 42 66  1  0  0  0
 42114  1  0  0  0
 42115  1  0  0  0
 43 44  1  0  0  0
 44116  1  0  0  0
 45 46  2  0  0  0
 45117  1  0  0  0
 46118  1  0  0  0
 47119  1  0  0  0
 47120  1  0  0  0
 48 56  1  0  0  0
 48 65  1  0  0  0
 48121  1  0  0  0
 49 50  1  0  0  0
 49 53  1  0  0  0
 49 64  1  0  0  0
 49122  1  0  0  0
 50 51  1  0  0  0
 50123  1  0  0  0
 50124  1  0  0  0
 51 52  1  0  0  0
 51125  1  0  0  0
 51126  1  0  0  0
 52127  1  0  0  0
 52128  1  0  0  0
 53 54  1  0  0  0
 54 55  2  0  0  0
 54129  1  0  0  0
 55 57  1  0  0  0
 55130  1  0  0  0
 56 69  2  0  0  0
 57 58  2  0  0  0
 57131  1  0  0  0
 58132  1  0  0  0
 59 60  1  0  0  0
 59 61  1  0  0  0
 59 62  1  0  0  0
 60133  1  0  0  0
 60134  1  0  0  0
 60135  1  0  0  0
 61136  1  0  0  0
 61137  1  0  0  0
 61138  1  0  0  0
 62139  1  0  0  0
 62140  1  0  0  0
 62141  1  0  0  0
 63 65  1  0  0  0
 63142  1  0  0  0
 63143  1  0  0  0
 63144  1  0  0  0
 64145  1  0  0  0
 65146  1  0  0  0
 68 83  1  0  0  0
 71 72  2  0  0  0
 71 74  1  0  0  0
 71147  1  0  0  0
 72 75  1  0  0  0
 72148  1  0  0  0
 73 74  2  0  0  0
 73 76  1  0  0  0
 73149  1  0  0  0
 74 84  1  0  0  0
 75 76  2  0  0  0
 75 85  1  0  0  0
 76 87  1  0  0  0
 77 78  2  0  0  0
 77 79  1  0  0  0
 77150  1  0  0  0
 78 80  1  0  0  0
 78 83  1  0  0  0
 79 85  1  0  0  0
 79151  1  0  0  0
 79152  1  0  0  0
 80 81  1  0  0  0
 80153  1  0  0  0
 80154  1  0  0  0
 81 85  1  0  0  0
 81155  1  0  0  0
 81156  1  0  0  0
 82157  1  0  0  0
 82158  1  0  0  0
 82159  1  0  0  0
 82 84  1  0  0  0
 83160  1  0  0  0
 83161  1  0  0  0
 84 86  1  0  0  0
 84162  1  0  0  0
 86163  1  0  0  0
M  ISO  4   1 100  68 101  83 101  86 100
M  END
> <chiral flag>
0

> <version>
0

> <s_m_source_file>
/data/baiqing/PycharmProjects/Reinvent-master-3.2/result/LINK_invent/BTK/process_docking_weight1_custom_product_contain_oxygen_bond_distance_aromatic_linkinvent_7_9_3/rearranged_h_0101.sdf

> <i_m_source_file_index>
92

> <r_mmod_Potential_Energy-OPLS-2005>
-6.44527530670166

> <r_mmod_Stretch_Energy-OPLS-2005>
40.040153503418

> <r_mmod_Bend_Energy-OPLS-2005>
118.670776367188

> <r_mmod_Torsional_Energy-OPLS-2005>
237.383544921875

> <r_mmod_Improper_Torsional_Energy-OPLS-2005>
6.77393102645874

> <r_mmod_Van_der_Waal_Energy-OPLS-2005>
173.255172729492

> <r_mmod_Electrostatic_Energy-OPLS-2005>
-389.952941894531

> <r_mmod_Solvation_Energy-OPLS-2005>
-212.847686767578

> <b_mmod_Minimization_Converged-OPLS-2005>
0

> <r_mmod_RMS_Derivative-OPLS-2005>
2.53968644142151

$$$$
92
                    3D
 Structure written by MMmdl.
171180  0  0  1  0            999 V2000
  -30.7571  -14.4186   20.6267 C   0  0  0  0  0  0
  -30.4134  -12.2977   19.4115 C   0  0  0  0  0  0
  -29.4864  -12.5076   18.1996 C   0  0  0  0  0  0
  -28.0115  -12.3608   18.6173 C   0  0  0  0  0  0
  -27.6609  -13.2009   19.8732 C   0  0  2  0  0  0
  -28.7025  -12.9902   20.9961 C   0  0  0  0  0  0
  -25.2608  -13.8146   20.5685 C   0  0  0  0  0  0
  -24.1855  -13.0438   20.9168 C   0  0  0  0  0  0
  -24.6387  -11.6898   20.8722 C   0  0  0  0  0  0
  -23.9050  -10.4295   21.0404 C   0  0  0  0  0  0
  -24.3606   -9.4211   21.9179 C   0  0  0  0  0  0
  -23.6283   -8.2248   22.0754 C   0  0  0  0  0  0
  -22.4261   -8.0290   21.3547 C   0  0  0  0  0  0
  -21.9894   -9.0257   20.4642 C   0  0  0  0  0  0
  -22.7224  -10.2135   20.3047 C   0  0  0  0  0  0
  -21.6840   -6.0727   22.5272 C   0  0  0  0  0  0
  -21.4000   -6.5632   23.8204 C   0  0  0  0  0  0
  -21.3659   -5.6791   24.9169 C   0  0  0  0  0  0
  -21.6045   -4.3058   24.7229 C   0  0  0  0  0  0
  -21.8820   -3.8138   23.4358 C   0  0  0  0  0  0
  -21.9193   -4.6950   22.3404 C   0  0  0  0  0  0
  -22.7879  -13.5240   21.1840 C   0  0  0  0  0  0
  -22.1664   -4.2140   21.0981 F   0  0  0  0  0  0
  -21.5638   -3.4553   25.7753 F   0  0  0  0  0  0
  -30.0395  -13.2753   20.4461 N   0  0  0  0  0  0
  -26.3028  -12.9301   20.3370 N   0  0  0  0  0  0
  -25.9312  -11.6470   20.5758 N   0  0  0  0  0  0
  -22.0512  -12.8238   22.0387 N   0  0  0  0  0  0
  -25.4365  -15.1863   20.4103 N   0  0  0  0  0  0
  -31.8487  -14.6152   20.0817 O   0  0  0  0  0  0
  -21.6622   -6.8881   21.4241 O   0  0  0  0  0  0
  -22.3565  -14.5560   20.6702 O   0  0  0  0  0  0
  -24.6148  -31.8692   23.2118 C   0  0  0  0  0  0
  -25.9047  -32.4824   23.8408 C   0  0  1  0  0  0
  -27.2374  -27.4436   20.1046 C   0  0  0  0  0  0
  -25.5923  -33.8626   24.2351 N   0  0  0  0  0  0
  -23.4016  -30.4932   21.5527 C   0  0  2  0  0  0
  -24.8487  -28.9597   20.1154 C   0  0  0  0  0  0
  -22.7395  -29.4688   22.5014 C   0  0  0  0  0  0
  -18.0265  -28.1392   22.8498 C   0  0  0  0  0  0
  -24.1487  -36.7302   23.2638 C   0  0  0  0  0  0
  -25.9300  -30.8367   21.3647 C   0  0  0  0  0  0
  -26.0081  -29.4732   20.7100 C   0  0  0  0  0  0
  -27.2061  -28.7242   20.6986 C   0  0  0  0  0  0
  -26.0648  -26.9463   19.4928 C   0  0  0  0  0  0
  -24.8724  -27.6958   19.5008 C   0  0  0  0  0  0
  -23.6088  -29.8245   20.1671 C   0  0  0  0  0  0
  -25.4110  -36.3113   24.0342 C   0  0  1  0  0  0
  -20.5856  -28.3685   23.1319 C   0  0  2  0  0  0
  -20.6767  -26.9418   22.5426 C   0  0  0  0  0  0
  -19.5745  -26.6394   21.5223 C   0  0  0  0  0  0
  -18.1913  -26.7946   22.1609 C   0  0  0  0  0  0
  -19.1514  -28.8851   23.2906 C   0  0  0  0  0  0
  -18.9446  -30.1454   23.8921 C   0  0  0  0  0  0
  -17.6453  -30.6594   24.0584 C   0  0  0  0  0  0
  -25.9034  -34.9479   23.5137 C   0  0  0  0  0  0
  -16.5343  -29.9098   23.6343 C   0  0  0  0  0  0
  -16.7256  -28.6513   23.0368 C   0  0  0  0  0  0
  -26.4474  -31.6593   25.0725 C   0  0  0  0  0  0
  -25.3746  -31.3671   26.1472 C   0  0  0  0  0  0
  -27.0295  -30.3039   24.6087 C   0  0  0  0  0  0
  -27.6072  -32.4297   25.7466 C   0  0  0  0  0  0
  -27.5590  -37.1795   24.8461 C   0  0  0  0  0  0
  -21.4126  -29.3052   22.3718 N   0  0  0  0  0  0
  -26.4296  -37.3804   23.9423 N   0  0  0  0  0  0
  -24.6672  -31.0791   22.1024 N   0  0  0  0  0  0
  -23.4159  -28.8245   23.3075 O   0  0  0  0  0  0
  -28.3935  -26.6942   20.1385 O   0  0  0  0  0  0
  -26.5577  -34.8926   22.4690 O   0  0  0  0  0  0
  -23.5345  -32.1448   23.7523 O   0  0  0  0  0  0
  -29.2637  -19.2461   23.0090 C   0  0  0  0  0  0
  -29.2806  -20.5897   22.5894 C   0  0  0  0  0  0
  -31.6015  -19.0262   22.3968 C   0  0  0  0  0  0
  -30.4205  -18.4472   22.9146 C   0  0  0  0  0  0
  -30.4579  -21.1726   22.0580 C   0  0  0  0  0  0
  -31.6296  -20.3813   21.9675 C   0  0  0  0  0  0
  -31.6664  -15.4764   24.8830 C   0  0  0  0  0  0
  -31.0563  -16.8776   24.7962 C   0  0  0  0  0  0
  -31.4016  -14.7992   23.5388 C   0  0  0  0  0  0
  -30.3784  -16.9991   23.4219 C   0  0  2  0  0  0
  -31.0425  -15.9097   22.5284 C   0  0  2  0  0  0
  -29.4083  -16.3709   20.7182 C   0  0  0  0  0  0
  -33.9350  -20.2172   21.2877 C   0  0  0  0  0  0
  -29.5529  -24.6356   20.9123 C   0  0  0  0  0  0
  -28.2238  -25.3981   20.7296 C   0  0  0  0  0  0
  -29.3327  -23.2600   21.5796 C   0  0  0  0  0  0
  -30.2099  -15.3643   21.4274 N   0  0  0  0  0  0
  -32.7566  -20.9953   21.4596 O   0  0  0  0  0  0
  -30.5327  -22.4850   21.6159 O   0  0  0  0  0  0
  -31.4586  -12.3809   19.1063 H   0  0  0  0  0  0
  -30.3001  -11.2854   19.8037 H   0  0  0  0  0  0
  -29.7253  -11.7849   17.4178 H   0  0  0  0  0  0
  -29.6530  -13.4951   17.7674 H   0  0  0  0  0  0
  -27.8268  -11.3031   18.8134 H   0  0  0  0  0  0
  -27.3565  -12.6307   17.7887 H   0  0  0  0  0  0
  -27.6976  -14.2444   19.5662 H   0  0  0  0  0  0
  -28.6703  -11.9606   21.3574 H   0  0  0  0  0  0
  -28.4605  -13.6093   21.8609 H   0  0  0  0  0  0
  -25.2754   -9.5709   22.4748 H   0  0  0  0  0  0
  -23.9999   -7.4635   22.7472 H   0  0  0  0  0  0
  -21.0827   -8.8774   19.8946 H   0  0  0  0  0  0
  -22.3681  -10.9671   19.6157 H   0  0  0  0  0  0
  -21.1977   -7.6136   23.9700 H   0  0  0  0  0  0
  -21.1476   -6.0523   25.9063 H   0  0  0  0  0  0
  -22.0595   -2.7600   23.2854 H   0  0  0  0  0  0
  -22.4129  -11.9908   22.4795 H   0  0  0  0  0  0
  -21.1135  -13.1275   22.2578 H   0  0  0  0  0  0
  -24.6752  -15.8478   20.5127 H   0  0  0  0  0  0
  -26.3005  -15.6180   20.1088 H   0  0  0  0  0  0
  -26.7119  -32.5535   23.1179 H   0  0  0  0  0  0
  -25.0142  -33.9806   25.0540 H   0  0  0  0  0  0
  -22.6922  -31.3114   21.4139 H   0  0  0  0  0  0
  -23.3768  -35.9612   23.3288 H   0  0  0  0  0  0
  -24.3587  -36.8929   22.2056 H   0  0  0  0  0  0
  -23.7206  -37.6494   23.6652 H   0  0  0  0  0  0
  -26.0429  -31.6029   20.5956 H   0  0  0  0  0  0
  -26.8176  -30.8881   21.9833 H   0  0  0  0  0  0
  -28.1004  -29.1141   21.1655 H   0  0  0  0  0  0
  -26.0628  -25.9827   19.0039 H   0  0  0  0  0  0
  -23.9828  -27.2974   19.0327 H   0  0  0  0  0  0
  -23.7150  -30.5996   19.4078 H   0  0  0  0  0  0
  -22.7317  -29.2440   19.8744 H   0  0  0  0  0  0
  -25.1283  -36.1988   25.0839 H   0  0  0  0  0  0
  -20.9944  -28.3272   24.1442 H   0  0  0  0  0  0
  -20.5705  -26.2302   23.3622 H   0  0  0  0  0  0
  -21.6651  -26.7492   22.1213 H   0  0  0  0  0  0
  -19.6933  -25.6305   21.1259 H   0  0  0  0  0  0
  -19.6707  -27.3211   20.6755 H   0  0  0  0  0  0
  -17.4210  -26.6726   21.3975 H   0  0  0  0  0  0
  -18.0286  -26.0061   22.8967 H   0  0  0  0  0  0
  -19.7920  -30.7260   24.2305 H   0  0  0  0  0  0
  -17.5005  -31.6284   24.5175 H   0  0  0  0  0  0
  -15.5350  -30.3013   23.7650 H   0  0  0  0  0  0
  -15.8655  -28.0837   22.7097 H   0  0  0  0  0  0
  -24.6004  -30.6911   25.7823 H   0  0  0  0  0  0
  -24.8833  -32.2797   26.4860 H   0  0  0  0  0  0
  -25.8133  -30.8925   27.0263 H   0  0  0  0  0  0
  -26.2822  -29.6786   24.1190 H   0  0  0  0  0  0
  -27.4123  -29.7284   25.4527 H   0  0  0  0  0  0
  -27.8632  -30.4356   23.9187 H   0  0  0  0  0  0
  -27.2742  -33.3622   26.2037 H   0  0  0  0  0  0
  -28.3877  -32.6815   25.0270 H   0  0  0  0  0  0
  -28.0738  -31.8413   26.5379 H   0  0  0  0  0  0
  -28.2600  -38.0102   24.7558 H   0  0  0  0  0  0
  -28.1099  -36.2647   24.6228 H   0  0  0  0  0  0
  -27.2313  -37.1374   25.8861 H   0  0  0  0  0  0
  -20.9294  -29.8718   21.6880 H   0  0  0  0  0  0
  -26.0186  -38.2878   24.1458 H   0  0  0  0  0  0
  -28.3507  -18.8328   23.4156 H   0  0  0  0  0  0
  -28.3667  -21.1553   22.6948 H   0  0  0  0  0  0
  -32.4894  -18.4157   22.3470 H   0  0  0  0  0  0
  -31.2419  -14.9005   25.7075 H   0  0  0  0  0  0
  -32.7400  -15.5483   25.0642 H   0  0  0  0  0  0
  -31.8667  -17.6023   24.8873 H   0  0  0  0  0  0
  -30.3605  -17.0842   25.6105 H   0  0  0  0  0  0
  -30.5550  -14.1206   23.6632 H   0  0  0  0  0  0
  -32.2500  -14.1944   23.2168 H   0  0  0  0  0  0
  -29.3352  -16.7109   23.5639 H   0  0  0  0  0  0
  -31.9797  -16.2900   22.1206 H   0  0  0  0  0  0
  -28.5322  -16.6504   21.3046 H   0  0  0  0  0  0
  -29.0465  -16.0233   19.7499 H   0  0  0  0  0  0
  -29.9951  -17.2672   20.5145 H   0  0  0  0  0  0
  -34.7321  -20.8527   20.9025 H   0  0  0  0  0  0
  -33.7783  -19.4137   20.5667 H   0  0  0  0  0  0
  -34.2869  -19.7932   22.2291 H   0  0  0  0  0  0
  -30.2444  -25.2281   21.5134 H   0  0  0  0  0  0
  -30.0252  -24.4964   19.9394 H   0  0  0  0  0  0
  -27.7449  -25.5118   21.7046 H   0  0  0  0  0  0
  -27.5547  -24.7835   20.1253 H   0  0  0  0  0  0
  -28.5695  -22.7185   21.0193 H   0  0  0  0  0  0
  -28.9589  -23.4049   22.5950 H   0  0  0  0  0  0
  1 25  1  0  0  0
  1 30  2  0  0  0
  1 87  1  0  0  0
  2  3  1  0  0  0
  2 25  1  0  0  0
  2 90  1  0  0  0
  2 91  1  0  0  0
  3  4  1  0  0  0
  3 92  1  0  0  0
  3 93  1  0  0  0
  4  5  1  0  0  0
  4 94  1  0  0  0
  4 95  1  0  0  0
  5  6  1  0  0  0
  5 26  1  0  0  0
  5 96  1  0  0  0
  6 25  1  0  0  0
  6 97  1  0  0  0
  6 98  1  0  0  0
  7  8  2  0  0  0
  7 26  1  0  0  0
  7 29  1  0  0  0
  8  9  1  0  0  0
  8 22  1  0  0  0
  9 10  1  0  0  0
  9 27  2  0  0  0
 10 11  2  0  0  0
 10 15  1  0  0  0
 11 12  1  0  0  0
 11 99  1  0  0  0
 12 13  2  0  0  0
 12100  1  0  0  0
 13 14  1  0  0  0
 13 31  1  0  0  0
 14 15  2  0  0  0
 14101  1  0  0  0
 15102  1  0  0  0
 16 17  2  0  0  0
 16 21  1  0  0  0
 16 31  1  0  0  0
 17 18  1  0  0  0
 17103  1  0  0  0
 18 19  2  0  0  0
 18104  1  0  0  0
 19 20  1  0  0  0
 19 24  1  0  0  0
 20 21  2  0  0  0
 20105  1  0  0  0
 21 23  1  0  0  0
 22 28  1  0  0  0
 22 32  2  0  0  0
 26 27  1  0  0  0
 28106  1  0  0  0
 28107  1  0  0  0
 29108  1  0  0  0
 29109  1  0  0  0
 33 34  1  0  0  0
 33 66  1  0  0  0
 33 70  2  0  0  0
 34 36  1  0  0  0
 34 59  1  0  0  0
 34110  1  0  0  0
 35 44  2  0  0  0
 35 45  1  0  0  0
 35 68  1  0  0  0
 36 56  1  0  0  0
 36111  1  0  0  0
 37 39  1  0  0  0
 37 47  1  0  0  0
 37 66  1  0  0  0
 37112  1  0  0  0
 38 43  2  0  0  0
 38 46  1  0  0  0
 38 47  1  0  0  0
 39 64  1  0  0  0
 39 67  2  0  0  0
 40 52  1  0  0  0
 40 53  2  0  0  0
 40 58  1  0  0  0
 41113  1  0  0  0
 41114  1  0  0  0
 41115  1  0  0  0
 41 48  1  0  0  0
 42 43  1  0  0  0
 42 66  1  0  0  0
 42116  1  0  0  0
 42117  1  0  0  0
 43 44  1  0  0  0
 44118  1  0  0  0
 45 46  2  0  0  0
 45119  1  0  0  0
 46120  1  0  0  0
 47121  1  0  0  0
 47122  1  0  0  0
 48 56  1  0  0  0
 48 65  1  0  0  0
 48123  1  0  0  0
 49 50  1  0  0  0
 49 53  1  0  0  0
 49 64  1  0  0  0
 49124  1  0  0  0
 50 51  1  0  0  0
 50125  1  0  0  0
 50126  1  0  0  0
 51 52  1  0  0  0
 51127  1  0  0  0
 51128  1  0  0  0
 52129  1  0  0  0
 52130  1  0  0  0
 53 54  1  0  0  0
 54 55  2  0  0  0
 54131  1  0  0  0
 55 57  1  0  0  0
 55132  1  0  0  0
 56 69  2  0  0  0
 57 58  2  0  0  0
 57133  1  0  0  0
 58134  1  0  0  0
 59 60  1  0  0  0
 59 61  1  0  0  0
 59 62  1  0  0  0
 60135  1  0  0  0
 60136  1  0  0  0
 60137  1  0  0  0
 61138  1  0  0  0
 61139  1  0  0  0
 61140  1  0  0  0
 62141  1  0  0  0
 62142  1  0  0  0
 62143  1  0  0  0
 63 65  1  0  0  0
 63144  1  0  0  0
 63145  1  0  0  0
 63146  1  0  0  0
 64147  1  0  0  0
 65148  1  0  0  0
 68 85  1  0  0  0
 71 72  2  0  0  0
 71 74  1  0  0  0
 71149  1  0  0  0
 72 75  1  0  0  0
 72150  1  0  0  0
 73 74  2  0  0  0
 73 76  1  0  0  0
 73151  1  0  0  0
 74 80  1  0  0  0
 75 76  2  0  0  0
 75 89  1  0  0  0
 76 88  1  0  0  0
 77 78  1  0  0  0
 77 79  1  0  0  0
 77152  1  0  0  0
 77153  1  0  0  0
 78 80  1  0  0  0
 78154  1  0  0  0
 78155  1  0  0  0
 79 81  1  0  0  0
 79156  1  0  0  0
 79157  1  0  0  0
 80 81  1  0  0  0
 80158  1  0  0  0
 81 87  1  0  0  0
 81159  1  0  0  0
 82 87  1  0  0  0
 82160  1  0  0  0
 82161  1  0  0  0
 82162  1  0  0  0
 83 88  1  0  0  0
 83163  1  0  0  0
 83164  1  0  0  0
 83165  1  0  0  0
 84 85  1  0  0  0
 84 86  1  0  0  0
 84166  1  0  0  0
 84167  1  0  0  0
 85168  1  0  0  0
 85169  1  0  0  0
 86 89  1  0  0  0
 86170  1  0  0  0
 86171  1  0  0  0
M  ISO  4   1 100  68 101  85 101  87 100
M  END
> <chiral flag>
0

> <version>
0

> <s_m_source_file>
/data/baiqing/PycharmProjects/Reinvent-master-3.2/result/LINK_invent/BTK/process_docking_weight1_custom_product_contain_oxygen_bond_distance_aromatic_linkinvent_7_9_3/rearranged_h_0101.sdf

> <i_m_source_file_index>
93

> <r_mmod_Potential_Energy-OPLS-2005>
205.19775390625

> <r_mmod_Stretch_Energy-OPLS-2005>
40.6884574890137

> <r_mmod_Bend_Energy-OPLS-2005>
129.801742553711

> <r_mmod_Torsional_Energy-OPLS-2005>
355.248046875

> <r_mmod_Improper_Torsional_Energy-OPLS-2005>
5.34117221832275

> <r_mmod_Van_der_Waal_Energy-OPLS-2005>
163.322280883789

> <r_mmod_Electrostatic_Energy-OPLS-2005>
-298.458282470703

> <r_mmod_Solvation_Energy-OPLS-2005>
-201.480682373047

> <b_mmod_Minimization_Converged-OPLS-2005>
0

> <r_mmod_RMS_Derivative-OPLS-2005>
2.05240416526794

$$$$
93
                    3D
 Structure written by MMmdl.
165174  0  0  1  0            999 V2000
  -30.6058  -15.0776   20.3220 C   0  0  0  0  0  0
  -30.4260  -12.6833   19.4808 C   0  0  0  0  0  0
  -29.5145  -12.5396   18.2445 C   0  0  0  0  0  0
  -28.0573  -12.2988   18.6773 C   0  0  0  0  0  0
  -27.6149  -13.2633   19.8130 C   0  0  2  0  0  0
  -28.6699  -13.4050   20.9291 C   0  0  0  0  0  0
  -25.2467  -13.8303   20.5802 C   0  0  0  0  0  0
  -24.1745  -13.0542   20.9297 C   0  0  0  0  0  0
  -24.6334  -11.7005   20.8769 C   0  0  0  0  0  0
  -23.9022  -10.4395   21.0514 C   0  0  0  0  0  0
  -24.3585   -9.4261   21.9260 C   0  0  0  0  0  0
  -23.6314   -8.2252   22.0789 C   0  0  0  0  0  0
  -22.4282   -8.0274   21.3575 C   0  0  0  0  0  0
  -21.9909   -9.0226   20.4663 C   0  0  0  0  0  0
  -22.7213  -10.2152   20.3084 C   0  0  0  0  0  0
  -21.6750   -6.0757   22.5322 C   0  0  0  0  0  0
  -21.3885   -6.5632   23.8271 C   0  0  0  0  0  0
  -21.3601   -5.6772   24.9243 C   0  0  0  0  0  0
  -21.6023   -4.3054   24.7279 C   0  0  0  0  0  0
  -21.8781   -3.8166   23.4375 C   0  0  0  0  0  0
  -21.9138   -4.7001   22.3426 C   0  0  0  0  0  0
  -22.7712  -13.5315   21.1883 C   0  0  0  0  0  0
  -22.1647   -4.2197   21.1034 F   0  0  0  0  0  0
  -21.5638   -3.4498   25.7810 F   0  0  0  0  0  0
  -29.9187  -13.8455   20.2754 N   0  0  0  0  0  0
  -26.2822  -12.9501   20.3174 N   0  0  0  0  0  0
  -25.9229  -11.6613   20.5655 N   0  0  0  0  0  0
  -22.0491  -12.8459   22.0703 N   0  0  0  0  0  0
  -25.4405  -15.1993   20.4204 N   0  0  0  0  0  0
  -31.8343  -14.9674   20.1789 O   0  0  0  0  0  0
  -21.6555   -6.8900   21.4309 O   0  0  0  0  0  0
  -22.3331  -14.5501   20.6610 O   0  0  0  0  0  0
  -24.6550  -31.8320   23.1791 C   0  0  0  0  0  0
  -25.9303  -32.4619   23.8196 C   0  0  1  0  0  0
  -27.2078  -27.0106   20.1822 C   0  0  0  0  0  0
  -25.6000  -33.8424   24.2105 N   0  0  0  0  0  0
  -23.4624  -30.4461   21.5287 C   0  0  2  0  0  0
  -24.9112  -28.8509   20.1114 C   0  0  0  0  0  0
  -22.7629  -29.4468   22.4850 C   0  0  0  0  0  0
  -18.0315  -28.1414   22.8476 C   0  0  0  0  0  0
  -24.1502  -36.7198   23.2636 C   0  0  0  0  0  0
  -26.0262  -30.6651   21.3955 C   0  0  0  0  0  0
  -26.0936  -29.2603   20.7433 C   0  0  0  0  0  0
  -27.2394  -28.3603   20.7603 C   0  0  0  0  0  0
  -25.9977  -26.7285   19.5093 C   0  0  0  0  0  0
  -24.8839  -27.6028   19.4721 C   0  0  0  0  0  0
  -23.6909  -29.7645   20.1512 C   0  0  0  0  0  0
  -25.4152  -36.2955   24.0280 C   0  0  1  0  0  0
  -20.5938  -28.3746   23.1247 C   0  0  2  0  0  0
  -20.6802  -26.9448   22.5415 C   0  0  0  0  0  0
  -19.5770  -26.6385   21.5229 C   0  0  0  0  0  0
  -18.1948  -26.7953   22.1631 C   0  0  0  0  0  0
  -19.1578  -28.8904   23.2832 C   0  0  0  0  0  0
  -18.9477  -30.1506   23.8845 C   0  0  0  0  0  0
  -17.6454  -30.6599   24.0571 C   0  0  0  0  0  0
  -25.9117  -34.9345   23.5000 C   0  0  0  0  0  0
  -16.5350  -29.9074   23.6351 C   0  0  0  0  0  0
  -16.7290  -28.6502   23.0364 C   0  0  0  0  0  0
  -26.4555  -31.6540   25.0697 C   0  0  0  0  0  0
  -25.3684  -31.3790   26.1361 C   0  0  0  0  0  0
  -27.0444  -30.2911   24.6386 C   0  0  0  0  0  0
  -27.6053  -32.4355   25.7495 C   0  0  0  0  0  0
  -27.5572  -37.1755   24.8468 C   0  0  0  0  0  0
  -21.4314  -29.3003   22.3568 N   0  0  0  0  0  0
  -26.4286  -37.3700   23.9386 N   0  0  0  0  0  0
  -24.7361  -31.0061   22.0883 N   0  0  0  0  0  0
  -23.4226  -28.8036   23.3055 O   0  0  0  0  0  0
  -28.2291  -25.9546   20.2045 O   0  0  0  0  0  0
  -26.5697  -34.8869   22.4576 O   0  0  0  0  0  0
  -23.5626  -32.1240   23.6942 O   0  0  0  0  0  0
  -27.7443  -19.0369   21.8612 C   0  0  0  0  0  0
  -28.4559  -17.2456   23.3034 C   0  0  0  0  0  0
  -27.4701  -18.1716   22.9500 C   0  0  0  0  0  0
  -28.8700  -18.9070   21.0047 C   0  0  0  0  0  0
  -29.5161  -17.4950   21.0975 C   0  0  0  0  0  0
  -29.4545  -16.9172   22.3983 C   0  0  0  0  0  0
  -25.2588  -19.0955   23.7152 C   0  0  0  0  0  0
  -31.0563  -18.0929   18.6402 C   0  0  0  0  0  0
  -28.7278  -23.2668   20.2629 C   0  0  0  0  0  0
  -30.4139  -16.9292   18.8551 C   0  0  0  0  0  0
  -27.9645  -24.4890   20.4251 C   0  0  0  0  0  0
  -23.9846  -18.5379   24.3323 C   0  0  0  0  0  0
  -24.2518  -17.0338   24.4057 C   0  0  0  0  0  0
  -25.7825  -16.9388   24.3495 C   0  0  0  0  0  0
  -28.3636  -21.6467   20.6073 C   0  0  0  0  0  0
  -26.2293  -18.1594   23.6689 N   0  0  0  0  0  0
  -29.1023  -20.2397   20.3008 N   0  0  0  0  0  0
  -30.0340  -16.4135   20.1063 N   0  0  0  0  0  0
  -25.3312  -20.2771   23.3593 O   0  0  0  0  0  0
  -30.2973  -15.9346   22.7933 F   0  0  0  0  0  0
  -31.4528  -12.8077   19.1398 H   0  0  0  0  0  0
  -30.4223  -11.7636   20.0728 H   0  0  0  0  0  0
  -29.8674  -11.7249   17.6070 H   0  0  0  0  0  0
  -29.5596  -13.4468   17.6398 H   0  0  0  0  0  0
  -27.9723  -11.2668   19.0242 H   0  0  0  0  0  0
  -27.3910  -12.3947   17.8241 H   0  0  0  0  0  0
  -27.5361  -14.2469   19.3395 H   0  0  0  0  0  0
  -28.7860  -12.4733   21.4873 H   0  0  0  0  0  0
  -28.3479  -14.1595   21.6465 H   0  0  0  0  0  0
  -25.2686   -9.5630   22.4969 H   0  0  0  0  0  0
  -23.9881   -7.4677   22.7615 H   0  0  0  0  0  0
  -21.0810   -8.8696   19.9055 H   0  0  0  0  0  0
  -22.3667  -10.9586   19.6080 H   0  0  0  0  0  0
  -21.1804   -7.6118   23.9806 H   0  0  0  0  0  0
  -21.1507   -6.0532   25.9169 H   0  0  0  0  0  0
  -22.0640   -2.7621   23.2864 H   0  0  0  0  0  0
  -22.4507  -12.0779   22.5853 H   0  0  0  0  0  0
  -21.1086  -13.1491   22.2895 H   0  0  0  0  0  0
  -26.2827  -15.5948   20.0190 H   0  0  0  0  0  0
  -24.6893  -15.8732   20.5216 H   0  0  0  0  0  0
  -26.7379  -32.5148   23.0913 H   0  0  0  0  0  0
  -25.0143  -33.9543   25.0243 H   0  0  0  0  0  0
  -22.7674  -31.2735   21.3682 H   0  0  0  0  0  0
  -23.3767  -35.9529   23.3290 H   0  0  0  0  0  0
  -24.3568  -36.8857   22.2053 H   0  0  0  0  0  0
  -23.7277  -37.6382   23.6716 H   0  0  0  0  0  0
  -26.2030  -31.4135   20.6214 H   0  0  0  0  0  0
  -26.8877  -30.7113   22.0486 H   0  0  0  0  0  0
  -28.1380  -28.6753   21.2747 H   0  0  0  0  0  0
  -25.8869  -25.7668   19.0277 H   0  0  0  0  0  0
  -23.9898  -27.2907   18.9522 H   0  0  0  0  0  0
  -23.8144  -30.5300   19.3847 H   0  0  0  0  0  0
  -22.8049  -29.2041   19.8556 H   0  0  0  0  0  0
  -25.1357  -36.1737   25.0769 H   0  0  0  0  0  0
  -21.0017  -28.3326   24.1387 H   0  0  0  0  0  0
  -20.5766  -26.2324   23.3611 H   0  0  0  0  0  0
  -21.6660  -26.7468   22.1180 H   0  0  0  0  0  0
  -19.6946  -25.6285   21.1280 H   0  0  0  0  0  0
  -19.6752  -27.3185   20.6748 H   0  0  0  0  0  0
  -17.4236  -26.6719   21.4011 H   0  0  0  0  0  0
  -18.0346  -26.0105   22.9039 H   0  0  0  0  0  0
  -19.7948  -30.7371   24.2180 H   0  0  0  0  0  0
  -17.4999  -31.6306   24.5169 H   0  0  0  0  0  0
  -15.5356  -30.2959   23.7731 H   0  0  0  0  0  0
  -15.8688  -28.0820   22.7096 H   0  0  0  0  0  0
  -24.5879  -30.7128   25.7655 H   0  0  0  0  0  0
  -24.8852  -32.2998   26.4654 H   0  0  0  0  0  0
  -25.7912  -30.9031   27.0222 H   0  0  0  0  0  0
  -26.3090  -29.6615   24.1353 H   0  0  0  0  0  0
  -27.3955  -29.7257   25.5030 H   0  0  0  0  0  0
  -27.9048  -30.4112   23.9794 H   0  0  0  0  0  0
  -27.2624  -33.3712   26.1943 H   0  0  0  0  0  0
  -28.3929  -32.6847   25.0362 H   0  0  0  0  0  0
  -28.0657  -31.8570   26.5521 H   0  0  0  0  0  0
  -28.2575  -38.0055   24.7490 H   0  0  0  0  0  0
  -28.1075  -36.2582   24.6340 H   0  0  0  0  0  0
  -27.2267  -37.1442   25.8860 H   0  0  0  0  0  0
  -20.9556  -29.8616   21.6635 H   0  0  0  0  0  0
  -26.0125  -38.2737   24.1416 H   0  0  0  0  0  0
  -27.0478  -19.8372   21.6794 H   0  0  0  0  0  0
  -28.4045  -16.6624   24.2136 H   0  0  0  0  0  0
  -31.3674  -18.7459   19.4419 H   0  0  0  0  0  0
  -31.2977  -18.4105   17.6308 H   0  0  0  0  0  0
  -29.7304  -23.3931   19.8841 H   0  0  0  0  0  0
  -30.1236  -16.2941   18.0321 H   0  0  0  0  0  0
  -26.9643  -24.3814   20.8228 H   0  0  0  0  0  0
  -23.1249  -18.7755   23.7045 H   0  0  0  0  0  0
  -23.8431  -18.9791   25.3194 H   0  0  0  0  0  0
  -23.8042  -16.5393   23.5404 H   0  0  0  0  0  0
  -23.8403  -16.5615   25.3000 H   0  0  0  0  0  0
  -26.0993  -16.0319   23.8336 H   0  0  0  0  0  0
  -26.2063  -16.9077   25.3550 H   0  0  0  0  0  0
  -27.3441  -21.5290   20.2380 H   0  0  0  0  0  0
  -28.2506  -21.6605   21.6934 H   0  0  0  0  0  0
  -29.8194  -20.2434   19.5810 H   0  0  0  0  0  0
  1 25  1  0  0  0
  1 30  2  0  0  0
  1 88  1  0  0  0
  2  3  1  0  0  0
  2 25  1  0  0  0
  2 91  1  0  0  0
  2 92  1  0  0  0
  3  4  1  0  0  0
  3 93  1  0  0  0
  3 94  1  0  0  0
  4  5  1  0  0  0
  4 95  1  0  0  0
  4 96  1  0  0  0
  5  6  1  0  0  0
  5 26  1  0  0  0
  5 97  1  0  0  0
  6 25  1  0  0  0
  6 98  1  0  0  0
  6 99  1  0  0  0
  7  8  2  0  0  0
  7 26  1  0  0  0
  7 29  1  0  0  0
  8  9  1  0  0  0
  8 22  1  0  0  0
  9 10  1  0  0  0
  9 27  2  0  0  0
 10 11  2  0  0  0
 10 15  1  0  0  0
 11 12  1  0  0  0
 11100  1  0  0  0
 12 13  2  0  0  0
 12101  1  0  0  0
 13 14  1  0  0  0
 13 31  1  0  0  0
 14 15  2  0  0  0
 14102  1  0  0  0
 15103  1  0  0  0
 16 17  2  0  0  0
 16 21  1  0  0  0
 16 31  1  0  0  0
 17 18  1  0  0  0
 17104  1  0  0  0
 18 19  2  0  0  0
 18105  1  0  0  0
 19 20  1  0  0  0
 19 24  1  0  0  0
 20 21  2  0  0  0
 20106  1  0  0  0
 21 23  1  0  0  0
 22 28  1  0  0  0
 22 32  2  0  0  0
 26 27  1  0  0  0
 28107  1  0  0  0
 28108  1  0  0  0
 29109  1  0  0  0
 29110  1  0  0  0
 33 34  1  0  0  0
 33 66  1  0  0  0
 33 70  2  0  0  0
 34 36  1  0  0  0
 34 59  1  0  0  0
 34111  1  0  0  0
 35 44  2  0  0  0
 35 45  1  0  0  0
 35 68  1  0  0  0
 36 56  1  0  0  0
 36112  1  0  0  0
 37 39  1  0  0  0
 37 47  1  0  0  0
 37 66  1  0  0  0
 37113  1  0  0  0
 38 43  2  0  0  0
 38 46  1  0  0  0
 38 47  1  0  0  0
 39 64  1  0  0  0
 39 67  2  0  0  0
 40 52  1  0  0  0
 40 53  2  0  0  0
 40 58  1  0  0  0
 41114  1  0  0  0
 41115  1  0  0  0
 41116  1  0  0  0
 41 48  1  0  0  0
 42 43  1  0  0  0
 42 66  1  0  0  0
 42117  1  0  0  0
 42118  1  0  0  0
 43 44  1  0  0  0
 44119  1  0  0  0
 45 46  2  0  0  0
 45120  1  0  0  0
 46121  1  0  0  0
 47122  1  0  0  0
 47123  1  0  0  0
 48 56  1  0  0  0
 48 65  1  0  0  0
 48124  1  0  0  0
 49 50  1  0  0  0
 49 53  1  0  0  0
 49 64  1  0  0  0
 49125  1  0  0  0
 50 51  1  0  0  0
 50126  1  0  0  0
 50127  1  0  0  0
 51 52  1  0  0  0
 51128  1  0  0  0
 51129  1  0  0  0
 52130  1  0  0  0
 52131  1  0  0  0
 53 54  1  0  0  0
 54 55  2  0  0  0
 54132  1  0  0  0
 55 57  1  0  0  0
 55133  1  0  0  0
 56 69  2  0  0  0
 57 58  2  0  0  0
 57134  1  0  0  0
 58135  1  0  0  0
 59 60  1  0  0  0
 59 61  1  0  0  0
 59 62  1  0  0  0
 60136  1  0  0  0
 60137  1  0  0  0
 60138  1  0  0  0
 61139  1  0  0  0
 61140  1  0  0  0
 61141  1  0  0  0
 62142  1  0  0  0
 62143  1  0  0  0
 62144  1  0  0  0
 63 65  1  0  0  0
 63145  1  0  0  0
 63146  1  0  0  0
 63147  1  0  0  0
 64148  1  0  0  0
 65149  1  0  0  0
 68 81  1  0  0  0
 71 73  2  0  0  0
 71 74  1  0  0  0
 71150  1  0  0  0
 72 73  1  0  0  0
 72 76  2  0  0  0
 72151  1  0  0  0
 73 86  1  0  0  0
 74 75  2  0  0  0
 74 87  1  0  0  0
 75 76  1  0  0  0
 75 88  1  0  0  0
 76 90  1  0  0  0
 77 82  1  0  0  0
 77 86  1  0  0  0
 77 89  2  0  0  0
 78 80  2  0  0  0
 78152  1  0  0  0
 78153  1  0  0  0
 79 81  2  0  0  0
 79 85  1  0  0  0
 79154  1  0  0  0
 80 88  1  0  0  0
 80155  1  0  0  0
 81156  1  0  0  0
 82 83  1  0  0  0
 82157  1  0  0  0
 82158  1  0  0  0
 83 84  1  0  0  0
 83159  1  0  0  0
 83160  1  0  0  0
 84 86  1  0  0  0
 84161  1  0  0  0
 84162  1  0  0  0
 85 87  1  0  0  0
 85163  1  0  0  0
 85164  1  0  0  0
 87165  1  0  0  0
M  ISO  4   1 100  68 101  81 101  88 100
M  END
> <chiral flag>
0

> <version>
0

> <s_m_source_file>
/data/baiqing/PycharmProjects/Reinvent-master-3.2/result/LINK_invent/BTK/process_docking_weight1_custom_product_contain_oxygen_bond_distance_aromatic_linkinvent_7_9_3/rearranged_h_0101.sdf

> <i_m_source_file_index>
94

> <r_mmod_Potential_Energy-OPLS-2005>
1227.22937011719

> <r_mmod_Stretch_Energy-OPLS-2005>
406.795989990234

> <r_mmod_Bend_Energy-OPLS-2005>
421.494903564453

> <r_mmod_Torsional_Energy-OPLS-2005>
454.954010009766

> <r_mmod_Improper_Torsional_Energy-OPLS-2005>
16.4696826934814

> <r_mmod_Van_der_Waal_Energy-OPLS-2005>
149.488235473633

> <r_mmod_Electrostatic_Energy-OPLS-2005>
-318.378051757812

> <r_mmod_Solvation_Energy-OPLS-2005>
-213.853378295898

> <b_mmod_Minimization_Converged-OPLS-2005>
0

> <r_mmod_RMS_Derivative-OPLS-2005>
10.5873279571533

$$$$
94
                    3D
 Structure written by MMmdl.
161170  0  0  1  0            999 V2000
  -30.6789  -14.6212   20.5873 C   0  0  0  0  0  0
  -30.4296  -12.4089   19.4547 C   0  0  0  0  0  0
  -29.5039  -12.5280   18.2259 C   0  0  0  0  0  0
  -28.0274  -12.3574   18.6309 C   0  0  0  0  0  0
  -27.6502  -13.2212   19.8613 C   0  0  2  0  0  0
  -28.6881  -13.0633   20.9884 C   0  0  0  0  0  0
  -25.2529  -13.8186   20.5667 C   0  0  0  0  0  0
  -24.1803  -13.0436   20.9163 C   0  0  0  0  0  0
  -24.6391  -11.6910   20.8709 C   0  0  0  0  0  0
  -23.9074  -10.4290   21.0382 C   0  0  0  0  0  0
  -24.3621   -9.4209   21.9166 C   0  0  0  0  0  0
  -23.6300   -8.2242   22.0751 C   0  0  0  0  0  0
  -22.4281   -8.0278   21.3537 C   0  0  0  0  0  0
  -21.9918   -9.0248   20.4636 C   0  0  0  0  0  0
  -22.7246  -10.2126   20.3042 C   0  0  0  0  0  0
  -21.6851   -6.0737   22.5282 C   0  0  0  0  0  0
  -21.4007   -6.5639   23.8218 C   0  0  0  0  0  0
  -21.3660   -5.6794   24.9176 C   0  0  0  0  0  0
  -21.6051   -4.3059   24.7235 C   0  0  0  0  0  0
  -21.8818   -3.8150   23.4350 C   0  0  0  0  0  0
  -21.9187   -4.6965   22.3407 C   0  0  0  0  0  0
  -22.7828  -13.5217   21.1854 C   0  0  0  0  0  0
  -22.1655   -4.2154   21.0982 F   0  0  0  0  0  0
  -21.5635   -3.4538   25.7741 F   0  0  0  0  0  0
  -30.0096  -13.4255   20.4458 N   0  0  0  0  0  0
  -26.2959  -12.9374   20.3292 N   0  0  0  0  0  0
  -25.9315  -11.6516   20.5718 N   0  0  0  0  0  0
  -22.0503  -12.8189   22.0415 N   0  0  0  0  0  0
  -25.4225  -15.1918   20.4114 N   0  0  0  0  0  0
  -31.7857  -14.7780   20.0611 O   0  0  0  0  0  0
  -21.6641   -6.8882   21.4246 O   0  0  0  0  0  0
  -22.3495  -14.5528   20.6725 O   0  0  0  0  0  0
  -24.6277  -31.8590   23.2043 C   0  0  0  0  0  0
  -25.9127  -32.4773   23.8376 C   0  0  1  0  0  0
  -27.2262  -27.3286   20.1187 C   0  0  0  0  0  0
  -25.5940  -33.8575   24.2303 N   0  0  0  0  0  0
  -23.4201  -30.4831   21.5457 C   0  0  2  0  0  0
  -24.8654  -28.9371   20.1136 C   0  0  0  0  0  0
  -22.7473  -29.4633   22.4952 C   0  0  0  0  0  0
  -18.0279  -28.1397   22.8493 C   0  0  0  0  0  0
  -24.1473  -36.7278   23.2650 C   0  0  0  0  0  0
  -25.9597  -30.7956   21.3705 C   0  0  0  0  0  0
  -26.0347  -29.4229   20.7136 C   0  0  0  0  0  0
  -27.2214  -28.6329   20.6990 C   0  0  0  0  0  0
  -26.0362  -26.8910   19.4993 C   0  0  0  0  0  0
  -24.8686  -27.6769   19.4948 C   0  0  0  0  0  0
  -23.6326  -29.8161   20.1615 C   0  0  0  0  0  0
  -25.4106  -36.3086   24.0337 C   0  0  1  0  0  0
  -20.5877  -28.3702   23.1284 C   0  0  2  0  0  0
  -20.6758  -26.9424   22.5415 C   0  0  0  0  0  0
  -19.5728  -26.6394   21.5221 C   0  0  0  0  0  0
  -18.1907  -26.7942   22.1624 C   0  0  0  0  0  0
  -19.1532  -28.8870   23.2880 C   0  0  0  0  0  0
  -18.9457  -30.1474   23.8900 C   0  0  0  0  0  0
  -17.6453  -30.6596   24.0578 C   0  0  0  0  0  0
  -25.9045  -34.9453   23.5115 C   0  0  0  0  0  0
  -16.5350  -29.9095   23.6341 C   0  0  0  0  0  0
  -16.7267  -28.6513   23.0368 C   0  0  0  0  0  0
  -26.4515  -31.6589   25.0751 C   0  0  0  0  0  0
  -25.3761  -31.3686   26.1485 C   0  0  0  0  0  0
  -27.0388  -30.3033   24.6203 C   0  0  0  0  0  0
  -27.6075  -32.4334   25.7510 C   0  0  0  0  0  0
  -27.5567  -37.1800   24.8475 C   0  0  0  0  0  0
  -21.4188  -29.3047   22.3681 N   0  0  0  0  0  0
  -26.4281  -37.3785   23.9415 N   0  0  0  0  0  0
  -24.6879  -31.0622   22.0976 N   0  0  0  0  0  0
  -23.4197  -28.8175   23.3036 O   0  0  0  0  0  0
  -28.3501  -26.4931   20.1257 O   0  0  0  0  0  0
  -26.5605  -34.8921   22.4678 O   0  0  0  0  0  0
  -23.5438  -32.1381   23.7381 O   0  0  0  0  0  0
  -29.0189  -19.3844   21.2162 C   0  0  0  0  0  0
  -29.1976  -18.0221   21.6077 C   0  0  0  0  0  0
  -30.4358  -17.5823   19.6109 C   0  0  0  0  0  0
  -29.5336  -19.9001   19.9992 C   0  0  0  0  0  0
  -29.9056  -17.0603   20.8211 C   0  0  0  0  0  0
  -30.2784  -18.9472   19.2252 C   0  0  0  0  0  0
  -28.2260  -23.7846   18.3170 C   0  0  0  0  0  0
  -27.9942  -22.3931   17.7391 C   0  0  0  0  0  0
  -29.1341  -21.4346   18.1062 C   0  0  0  0  0  0
  -28.8554  -22.4199   20.4136 C   0  0  0  0  0  0
  -28.8374  -23.8781   19.7236 C   0  0  2  0  0  0
  -29.9681  -15.4465   22.7351 C   0  0  0  0  0  0
  -28.1741  -25.0801   20.5479 C   0  0  0  0  0  0
  -29.2945  -21.2623   19.5559 N   0  0  0  0  0  0
  -30.0793  -15.6584   21.2815 N   0  0  0  0  0  0
  -27.9429  -24.7861   17.6524 O   0  0  0  0  0  0
  -30.8871  -19.3326   18.0763 F   0  0  0  0  0  0
  -31.4715  -12.5272   19.1526 H   0  0  0  0  0  0
  -30.3636  -11.4101   19.8884 H   0  0  0  0  0  0
  -29.7716  -11.7836   17.4751 H   0  0  0  0  0  0
  -29.6458  -13.5023   17.7563 H   0  0  0  0  0  0
  -27.8654  -11.3030   18.8555 H   0  0  0  0  0  0
  -27.3742  -12.5934   17.7900 H   0  0  0  0  0  0
  -27.6747  -14.2618   19.5365 H   0  0  0  0  0  0
  -28.7042  -12.0344   21.3491 H   0  0  0  0  0  0
  -28.3887  -13.6620   21.8438 H   0  0  0  0  0  0
  -25.2770   -9.5680   22.4729 H   0  0  0  0  0  0
  -24.0016   -7.4634   22.7472 H   0  0  0  0  0  0
  -21.0851   -8.8763   19.8935 H   0  0  0  0  0  0
  -22.3714  -10.9657   19.6146 H   0  0  0  0  0  0
  -21.1993   -7.6141   23.9733 H   0  0  0  0  0  0
  -21.1480   -6.0513   25.9087 H   0  0  0  0  0  0
  -22.0591   -2.7612   23.2855 H   0  0  0  0  0  0
  -22.4139  -11.9854   22.4786 H   0  0  0  0  0  0
  -21.1114  -13.1166   22.2655 H   0  0  0  0  0  0
  -24.6570  -15.8468   20.5280 H   0  0  0  0  0  0
  -26.2826  -15.6347   20.1122 H   0  0  0  0  0  0
  -26.7205  -32.5440   23.1138 H   0  0  0  0  0  0
  -25.0139  -33.9724   25.0487 H   0  0  0  0  0  0
  -22.7158  -31.3050   21.4018 H   0  0  0  0  0  0
  -23.3740  -35.9602   23.3332 H   0  0  0  0  0  0
  -24.3558  -36.8880   22.2060 H   0  0  0  0  0  0
  -23.7219  -37.6481   23.6660 H   0  0  0  0  0  0
  -26.0876  -31.5591   20.6018 H   0  0  0  0  0  0
  -26.8418  -30.8462   21.9971 H   0  0  0  0  0  0
  -28.1231  -29.0071   21.1626 H   0  0  0  0  0  0
  -25.9998  -25.9266   19.0152 H   0  0  0  0  0  0
  -23.9752  -27.3011   19.0150 H   0  0  0  0  0  0
  -23.7498  -30.5920   19.4032 H   0  0  0  0  0  0
  -22.7524  -29.2450   19.8610 H   0  0  0  0  0  0
  -25.1284  -36.1943   25.0830 H   0  0  0  0  0  0
  -20.9972  -28.3280   24.1404 H   0  0  0  0  0  0
  -20.5658  -26.2322   23.3623 H   0  0  0  0  0  0
  -21.6625  -26.7447   22.1209 H   0  0  0  0  0  0
  -19.6882  -25.6306   21.1251 H   0  0  0  0  0  0
  -19.6660  -27.3209   20.6752 H   0  0  0  0  0  0
  -17.4182  -26.6738   21.4016 H   0  0  0  0  0  0
  -18.0278  -26.0083   22.9008 H   0  0  0  0  0  0
  -19.7930  -30.7300   24.2266 H   0  0  0  0  0  0
  -17.5001  -31.6270   24.5192 H   0  0  0  0  0  0
  -15.5351  -30.2998   23.7662 H   0  0  0  0  0  0
  -15.8670  -28.0834   22.7090 H   0  0  0  0  0  0
  -24.5956  -30.7011   25.7818 H   0  0  0  0  0  0
  -24.8930  -32.2824   26.4950 H   0  0  0  0  0  0
  -25.8117  -30.8853   27.0242 H   0  0  0  0  0  0
  -26.2972  -29.6739   24.1271 H   0  0  0  0  0  0
  -27.4156  -29.7333   25.4707 H   0  0  0  0  0  0
  -27.8797  -30.4355   23.9391 H   0  0  0  0  0  0
  -27.2705  -33.3652   26.2066 H   0  0  0  0  0  0
  -28.3889  -32.6867   25.0330 H   0  0  0  0  0  0
  -28.0742  -31.8475   26.5440 H   0  0  0  0  0  0
  -28.2604  -38.0080   24.7513 H   0  0  0  0  0  0
  -28.1044  -36.2612   24.6316 H   0  0  0  0  0  0
  -27.2282  -37.1475   25.8880 H   0  0  0  0  0  0
  -20.9387  -29.8773   21.6874 H   0  0  0  0  0  0
  -26.0155  -38.2851   24.1438 H   0  0  0  0  0  0
  -28.4464  -20.0299   21.8650 H   0  0  0  0  0  0
  -28.7540  -17.7274   22.5479 H   0  0  0  0  0  0
  -31.0099  -16.9471   18.9530 H   0  0  0  0  0  0
  -27.9086  -22.4720   16.6548 H   0  0  0  0  0  0
  -27.0414  -22.0105   18.1059 H   0  0  0  0  0  0
  -30.0747  -21.7906   17.6813 H   0  0  0  0  0  0
  -28.9096  -20.4850   17.6178 H   0  0  0  0  0  0
  -27.8580  -22.2031   20.7986 H   0  0  0  0  0  0
  -29.5100  -22.4618   21.2854 H   0  0  0  0  0  0
  -29.8798  -24.1532   19.5642 H   0  0  0  0  0  0
  -28.9291  -15.5071   23.0614 H   0  0  0  0  0  0
  -30.5367  -16.2030   23.2773 H   0  0  0  0  0  0
  -30.3560  -14.4806   23.0674 H   0  0  0  0  0  0
  -28.6029  -25.0420   21.5497 H   0  0  0  0  0  0
  -27.1213  -24.8444   20.7099 H   0  0  0  0  0  0
  1 25  1  0  0  0
  1 30  2  0  0  0
  1 85  1  0  0  0
  2  3  1  0  0  0
  2 25  1  0  0  0
  2 88  1  0  0  0
  2 89  1  0  0  0
  3  4  1  0  0  0
  3 90  1  0  0  0
  3 91  1  0  0  0
  4  5  1  0  0  0
  4 92  1  0  0  0
  4 93  1  0  0  0
  5  6  1  0  0  0
  5 26  1  0  0  0
  5 94  1  0  0  0
  6 25  1  0  0  0
  6 95  1  0  0  0
  6 96  1  0  0  0
  7  8  2  0  0  0
  7 26  1  0  0  0
  7 29  1  0  0  0
  8  9  1  0  0  0
  8 22  1  0  0  0
  9 10  1  0  0  0
  9 27  2  0  0  0
 10 11  2  0  0  0
 10 15  1  0  0  0
 11 12  1  0  0  0
 11 97  1  0  0  0
 12 13  2  0  0  0
 12 98  1  0  0  0
 13 14  1  0  0  0
 13 31  1  0  0  0
 14 15  2  0  0  0
 14 99  1  0  0  0
 15100  1  0  0  0
 16 17  2  0  0  0
 16 21  1  0  0  0
 16 31  1  0  0  0
 17 18  1  0  0  0
 17101  1  0  0  0
 18 19  2  0  0  0
 18102  1  0  0  0
 19 20  1  0  0  0
 19 24  1  0  0  0
 20 21  2  0  0  0
 20103  1  0  0  0
 21 23  1  0  0  0
 22 28  1  0  0  0
 22 32  2  0  0  0
 26 27  1  0  0  0
 28104  1  0  0  0
 28105  1  0  0  0
 29106  1  0  0  0
 29107  1  0  0  0
 33 34  1  0  0  0
 33 66  1  0  0  0
 33 70  2  0  0  0
 34 36  1  0  0  0
 34 59  1  0  0  0
 34108  1  0  0  0
 35 44  2  0  0  0
 35 45  1  0  0  0
 35 68  1  0  0  0
 36 56  1  0  0  0
 36109  1  0  0  0
 37 39  1  0  0  0
 37 47  1  0  0  0
 37 66  1  0  0  0
 37110  1  0  0  0
 38 43  2  0  0  0
 38 46  1  0  0  0
 38 47  1  0  0  0
 39 64  1  0  0  0
 39 67  2  0  0  0
 40 52  1  0  0  0
 40 53  2  0  0  0
 40 58  1  0  0  0
 41111  1  0  0  0
 41112  1  0  0  0
 41113  1  0  0  0
 41 48  1  0  0  0
 42 43  1  0  0  0
 42 66  1  0  0  0
 42114  1  0  0  0
 42115  1  0  0  0
 43 44  1  0  0  0
 44116  1  0  0  0
 45 46  2  0  0  0
 45117  1  0  0  0
 46118  1  0  0  0
 47119  1  0  0  0
 47120  1  0  0  0
 48 56  1  0  0  0
 48 65  1  0  0  0
 48121  1  0  0  0
 49 50  1  0  0  0
 49 53  1  0  0  0
 49 64  1  0  0  0
 49122  1  0  0  0
 50 51  1  0  0  0
 50123  1  0  0  0
 50124  1  0  0  0
 51 52  1  0  0  0
 51125  1  0  0  0
 51126  1  0  0  0
 52127  1  0  0  0
 52128  1  0  0  0
 53 54  1  0  0  0
 54 55  2  0  0  0
 54129  1  0  0  0
 55 57  1  0  0  0
 55130  1  0  0  0
 56 69  2  0  0  0
 57 58  2  0  0  0
 57131  1  0  0  0
 58132  1  0  0  0
 59 60  1  0  0  0
 59 61  1  0  0  0
 59 62  1  0  0  0
 60133  1  0  0  0
 60134  1  0  0  0
 60135  1  0  0  0
 61136  1  0  0  0
 61137  1  0  0  0
 61138  1  0  0  0
 62139  1  0  0  0
 62140  1  0  0  0
 62141  1  0  0  0
 63 65  1  0  0  0
 63142  1  0  0  0
 63143  1  0  0  0
 63144  1  0  0  0
 64145  1  0  0  0
 65146  1  0  0  0
 68 83  1  0  0  0
 71 72  2  0  0  0
 71 74  1  0  0  0
 71147  1  0  0  0
 72 75  1  0  0  0
 72148  1  0  0  0
 73 75  2  0  0  0
 73 76  1  0  0  0
 73149  1  0  0  0
 74 76  2  0  0  0
 74 84  1  0  0  0
 75 85  1  0  0  0
 76 87  1  0  0  0
 77 78  1  0  0  0
 77 81  1  0  0  0
 77 86  2  0  0  0
 78 79  1  0  0  0
 78150  1  0  0  0
 78151  1  0  0  0
 79 84  1  0  0  0
 79152  1  0  0  0
 79153  1  0  0  0
 80 81  1  0  0  0
 80 84  1  0  0  0
 80154  1  0  0  0
 80155  1  0  0  0
 81 83  1  0  0  0
 81156  1  0  0  0
 82 85  1  0  0  0
 82157  1  0  0  0
 82158  1  0  0  0
 82159  1  0  0  0
 83160  1  0  0  0
 83161  1  0  0  0
M  ISO  4   1 100  68 101  83 101  85 100
M  END
> <chiral flag>
0

> <version>
0

> <s_m_source_file>
/data/baiqing/PycharmProjects/Reinvent-master-3.2/result/LINK_invent/BTK/process_docking_weight1_custom_product_contain_oxygen_bond_distance_aromatic_linkinvent_7_9_3/rearranged_h_0101.sdf

> <i_m_source_file_index>
95

> <r_mmod_Potential_Energy-OPLS-2005>
250.976226806641

> <r_mmod_Stretch_Energy-OPLS-2005>
97.674934387207

> <r_mmod_Bend_Energy-OPLS-2005>
158.206527709961

> <r_mmod_Torsional_Energy-OPLS-2005>
272.347198486328

> <r_mmod_Improper_Torsional_Energy-OPLS-2005>
3.40184330940247

> <r_mmod_Van_der_Waal_Energy-OPLS-2005>
165.815185546875

> <r_mmod_Electrostatic_Energy-OPLS-2005>
-268.104522705078

> <r_mmod_Solvation_Energy-OPLS-2005>
-218.941680908203

> <b_mmod_Minimization_Converged-OPLS-2005>
0

> <r_mmod_RMS_Derivative-OPLS-2005>
1.61787962913513

$$$$
