0
                    3D
 Structure written by MMmdl.
158166  0  0  1  0            999 V2000
  -30.7249  -14.4177   20.5367 C   0  0  0  0  0  0
  -30.4085  -12.2588   19.4287 C   0  0  0  0  0  0
  -29.4960  -12.5021   18.2095 C   0  0  0  0  0  0
  -28.0122  -12.3792   18.6106 C   0  0  0  0  0  0
  -27.6620  -13.2105   19.8740 C   0  0  2  0  0  0
  -28.6993  -12.9773   20.9949 C   0  0  0  0  0  0
  -25.2583  -13.8170   20.5715 C   0  0  0  0  0  0
  -24.1817  -13.0447   20.9168 C   0  0  0  0  0  0
  -24.6366  -11.6918   20.8722 C   0  0  0  0  0  0
  -23.9029  -10.4309   21.0393 C   0  0  0  0  0  0
  -24.3593   -9.4222   21.9168 C   0  0  0  0  0  0
  -23.6277   -8.2246   22.0740 C   0  0  0  0  0  0
  -22.4250   -8.0277   21.3545 C   0  0  0  0  0  0
  -21.9872   -9.0251   20.4653 C   0  0  0  0  0  0
  -22.7199  -10.2131   20.3057 C   0  0  0  0  0  0
  -21.6846   -6.0726   22.5281 C   0  0  0  0  0  0
  -21.4020   -6.5627   23.8210 C   0  0  0  0  0  0
  -21.3673   -5.6773   24.9175 C   0  0  0  0  0  0
  -21.6041   -4.3039   24.7215 C   0  0  0  0  0  0
  -21.8817   -3.8140   23.4337 C   0  0  0  0  0  0
  -21.9197   -4.6965   22.3396 C   0  0  0  0  0  0
  -22.7848  -13.5248   21.1853 C   0  0  0  0  0  0
  -22.1659   -4.2164   21.0971 F   0  0  0  0  0  0
  -21.5630   -3.4513   25.7721 F   0  0  0  0  0  0
  -30.0379  -13.2487   20.4516 N   0  0  0  0  0  0
  -26.3016  -12.9356   20.3361 N   0  0  0  0  0  0
  -25.9288  -11.6504   20.5711 N   0  0  0  0  0  0
  -22.0481  -12.8273   22.0434 N   0  0  0  0  0  0
  -25.4299  -15.1889   20.4203 N   0  0  0  0  0  0
  -31.8857  -14.5326   20.1338 O   0  0  0  0  0  0
  -21.6620   -6.8874   21.4234 O   0  0  0  0  0  0
  -22.3536  -14.5556   20.6701 O   0  0  0  0  0  0
  -24.6095  -31.8707   23.2146 C   0  0  0  0  0  0
  -25.9004  -32.4836   23.8434 C   0  0  1  0  0  0
  -27.2414  -27.4780   20.0744 C   0  0  0  0  0  0
  -25.5869  -33.8638   24.2352 N   0  0  0  0  0  0
  -23.3973  -30.4958   21.5521 C   0  0  2  0  0  0
  -24.8436  -28.9631   20.1191 C   0  0  0  0  0  0
  -22.7384  -29.4674   22.4983 C   0  0  0  0  0  0
  -18.0270  -28.1379   22.8481 C   0  0  0  0  0  0
  -24.1479  -36.7336   23.2640 C   0  0  0  0  0  0
  -25.9231  -30.8418   21.3682 C   0  0  0  0  0  0
  -25.9993  -29.4781   20.7184 C   0  0  0  0  0  0
  -27.1957  -28.7337   20.7111 C   0  0  0  0  0  0
  -26.0657  -26.9588   19.4878 C   0  0  0  0  0  0
  -24.8668  -27.6955   19.5103 C   0  0  0  0  0  0
  -23.6078  -29.8299   20.1656 C   0  0  0  0  0  0
  -25.4093  -36.3127   24.0346 C   0  0  1  0  0  0
  -20.5854  -28.3665   23.1314 C   0  0  2  0  0  0
  -20.6759  -26.9398   22.5426 C   0  0  0  0  0  0
  -19.5750  -26.6383   21.5204 C   0  0  0  0  0  0
  -18.1920  -26.7932   22.1603 C   0  0  0  0  0  0
  -19.1515  -28.8835   23.2902 C   0  0  0  0  0  0
  -18.9452  -30.1435   23.8927 C   0  0  0  0  0  0
  -17.6456  -30.6587   24.0566 C   0  0  0  0  0  0
  -25.9018  -34.9487   23.5147 C   0  0  0  0  0  0
  -16.5349  -29.9095   23.6314 C   0  0  0  0  0  0
  -16.7257  -28.6510   23.0338 C   0  0  0  0  0  0
  -26.4450  -31.6621   25.0761 C   0  0  0  0  0  0
  -25.3730  -31.3754   26.1532 C   0  0  0  0  0  0
  -27.0258  -30.3053   24.6136 C   0  0  0  0  0  0
  -27.6048  -32.4330   25.7493 C   0  0  0  0  0  0
  -27.5586  -37.1815   24.8454 C   0  0  0  0  0  0
  -21.4115  -29.3037   22.3716 N   0  0  0  0  0  0
  -26.4287  -37.3805   23.9416 N   0  0  0  0  0  0
  -24.6609  -31.0845   22.1030 N   0  0  0  0  0  0
  -23.4171  -28.8203   23.3009 O   0  0  0  0  0  0
  -28.4225  -26.7792   20.0743 O   0  0  0  0  0  0
  -26.5584  -34.8928   22.4713 O   0  0  0  0  0  0
  -23.5297  -32.1452   23.7549 O   0  0  0  0  0  0
  -28.5912  -19.6926   21.1136 C   0  0  0  0  0  0
  -28.7987  -20.0368   19.8084 C   0  0  0  0  0  0
  -29.3917  -18.9241   19.1508 C   0  0  0  0  0  0
  -29.4914  -17.9631   20.1240 C   0  0  0  0  0  0
  -28.5611  -21.3413   19.1831 C   0  0  0  0  0  0
  -30.0434  -16.6525   20.0662 C   0  0  0  0  0  0
  -28.6151  -22.5333   19.8031 C   0  0  0  0  0  0
  -29.9446  -15.5923   20.8949 C   0  0  0  0  0  0
  -28.3318  -23.7510   19.0362 C   0  0  0  0  0  0
  -28.9681  -17.9008   16.8703 C   0  0  0  0  0  0
  -29.8591  -18.8187   17.7141 C   0  0  0  0  0  0
  -29.4082  -24.8402   19.0076 C   0  0  0  0  0  0
  -28.8751  -26.2711   18.8213 C   0  0  0  0  0  0
  -27.2999  -23.8801   18.3721 O   0  0  0  0  0  0
  -28.9743  -18.3995   21.3098 O   0  0  0  0  0  0
  -31.4593  -12.3200   19.1383 H   0  0  0  0  0  0
  -30.2685  -11.2474   19.8127 H   0  0  0  0  0  0
  -29.7301  -11.7928   17.4147 H   0  0  0  0  0  0
  -29.6861  -13.4963   17.8003 H   0  0  0  0  0  0
  -27.8012  -11.3239   18.7901 H   0  0  0  0  0  0
  -27.3748  -12.6800   17.7792 H   0  0  0  0  0  0
  -27.7151  -14.2604   19.5838 H   0  0  0  0  0  0
  -28.6533  -11.9425   21.3372 H   0  0  0  0  0  0
  -28.4763  -13.5831   21.8738 H   0  0  0  0  0  0
  -25.2740   -9.5694   22.4741 H   0  0  0  0  0  0
  -24.0007   -7.4616   22.7423 H   0  0  0  0  0  0
  -21.0809   -8.8749   19.8951 H   0  0  0  0  0  0
  -22.3641  -10.9657   19.6164 H   0  0  0  0  0  0
  -21.2004   -7.6131   23.9723 H   0  0  0  0  0  0
  -21.1496   -6.0501   25.9081 H   0  0  0  0  0  0
  -22.0589   -2.7604   23.2823 H   0  0  0  0  0  0
  -22.4062  -11.9934   22.4856 H   0  0  0  0  0  0
  -21.1107  -13.1328   22.2639 H   0  0  0  0  0  0
  -24.6658  -15.8462   20.5365 H   0  0  0  0  0  0
  -26.2957  -15.6331   20.1429 H   0  0  0  0  0  0
  -26.7074  -32.5550   23.1205 H   0  0  0  0  0  0
  -25.0018  -33.9808   25.0494 H   0  0  0  0  0  0
  -22.6847  -31.3115   21.4128 H   0  0  0  0  0  0
  -23.3740  -35.9670   23.3304 H   0  0  0  0  0  0
  -24.3584  -36.8956   22.2058 H   0  0  0  0  0  0
  -23.7232  -37.6543   23.6653 H   0  0  0  0  0  0
  -26.0371  -31.6064   20.5993 H   0  0  0  0  0  0
  -26.8105  -30.8934   21.9872 H   0  0  0  0  0  0
  -28.0896  -29.1255   21.1765 H   0  0  0  0  0  0
  -26.0663  -25.9876   19.0176 H   0  0  0  0  0  0
  -23.9740  -27.2855   19.0581 H   0  0  0  0  0  0
  -23.7254  -30.6067   19.4084 H   0  0  0  0  0  0
  -22.7320  -29.2546   19.8620 H   0  0  0  0  0  0
  -25.1261  -36.2009   25.0839 H   0  0  0  0  0  0
  -20.9947  -28.3249   24.1434 H   0  0  0  0  0  0
  -20.5633  -26.2278   23.3617 H   0  0  0  0  0  0
  -21.6642  -26.7426   22.1248 H   0  0  0  0  0  0
  -19.6916  -25.6289   21.1245 H   0  0  0  0  0  0
  -19.6707  -27.3187   20.6730 H   0  0  0  0  0  0
  -17.4194  -26.6676   21.4002 H   0  0  0  0  0  0
  -18.0321  -26.0068   22.8990 H   0  0  0  0  0  0
  -19.7927  -30.7228   24.2332 H   0  0  0  0  0  0
  -17.5021  -31.6269   24.5158 H   0  0  0  0  0  0
  -15.5354  -30.3015   23.7620 H   0  0  0  0  0  0
  -15.8657  -28.0837   22.7052 H   0  0  0  0  0  0
  -24.5873  -30.7114   25.7919 H   0  0  0  0  0  0
  -24.8940  -32.2916   26.4999 H   0  0  0  0  0  0
  -25.8092  -30.8936   27.0289 H   0  0  0  0  0  0
  -26.2798  -29.6852   24.1149 H   0  0  0  0  0  0
  -27.3978  -29.7267   25.4604 H   0  0  0  0  0  0
  -27.8666  -30.4377   23.9320 H   0  0  0  0  0  0
  -27.2691  -33.3628   26.2102 H   0  0  0  0  0  0
  -28.3824  -32.6893   25.0287 H   0  0  0  0  0  0
  -28.0749  -31.8435   26.5376 H   0  0  0  0  0  0
  -28.2601  -38.0112   24.7495 H   0  0  0  0  0  0
  -28.1075  -36.2648   24.6254 H   0  0  0  0  0  0
  -27.2319  -37.1461   25.8860 H   0  0  0  0  0  0
  -20.9265  -29.8778   21.6959 H   0  0  0  0  0  0
  -26.0187  -38.2887   24.1421 H   0  0  0  0  0  0
  -28.1922  -20.2063   21.9784 H   0  0  0  0  0  0
  -28.3080  -21.3173   18.1307 H   0  0  0  0  0  0
  -30.6674  -16.5257   19.1907 H   0  0  0  0  0  0
  -28.8703  -22.6295   20.8495 H   0  0  0  0  0  0
  -29.3321  -15.6273   21.7841 H   0  0  0  0  0  0
  -29.3684  -17.7899   15.8616 H   0  0  0  0  0  0
  -27.9581  -18.3018   16.7853 H   0  0  0  0  0  0
  -28.8955  -16.9035   17.3042 H   0  0  0  0  0  0
  -30.8822  -18.4412   17.7124 H   0  0  0  0  0  0
  -29.9042  -19.8085   17.2593 H   0  0  0  0  0  0
  -30.0612  -24.6054   18.1672 H   0  0  0  0  0  0
  -30.0271  -24.7786   19.9014 H   0  0  0  0  0  0
  -28.1352  -26.3250   18.0221 H   0  0  0  0  0  0
  -29.6957  -26.9109   18.4950 H   0  0  0  0  0  0
  1 25  1  0  0  0
  1 30  2  0  0  0
  1 78  1  0  0  0
  2  3  1  0  0  0
  2 25  1  0  0  0
  2 86  1  0  0  0
  2 87  1  0  0  0
  3  4  1  0  0  0
  3 88  1  0  0  0
  3 89  1  0  0  0
  4  5  1  0  0  0
  4 90  1  0  0  0
  4 91  1  0  0  0
  5  6  1  0  0  0
  5 26  1  0  0  0
  5 92  1  0  0  0
  6 25  1  0  0  0
  6 93  1  0  0  0
  6 94  1  0  0  0
  7  8  2  0  0  0
  7 26  1  0  0  0
  7 29  1  0  0  0
  8  9  1  0  0  0
  8 22  1  0  0  0
  9 10  1  0  0  0
  9 27  2  0  0  0
 10 11  2  0  0  0
 10 15  1  0  0  0
 11 12  1  0  0  0
 11 95  1  0  0  0
 12 13  2  0  0  0
 12 96  1  0  0  0
 13 14  1  0  0  0
 13 31  1  0  0  0
 14 15  2  0  0  0
 14 97  1  0  0  0
 15 98  1  0  0  0
 16 17  2  0  0  0
 16 21  1  0  0  0
 16 31  1  0  0  0
 17 18  1  0  0  0
 17 99  1  0  0  0
 18 19  2  0  0  0
 18100  1  0  0  0
 19 20  1  0  0  0
 19 24  1  0  0  0
 20 21  2  0  0  0
 20101  1  0  0  0
 21 23  1  0  0  0
 22 28  1  0  0  0
 22 32  2  0  0  0
 26 27  1  0  0  0
 28102  1  0  0  0
 28103  1  0  0  0
 29104  1  0  0  0
 29105  1  0  0  0
 33 34  1  0  0  0
 33 66  1  0  0  0
 33 70  2  0  0  0
 34 36  1  0  0  0
 34 59  1  0  0  0
 34106  1  0  0  0
 35 44  2  0  0  0
 35 45  1  0  0  0
 35 68  1  0  0  0
 36 56  1  0  0  0
 36107  1  0  0  0
 37 39  1  0  0  0
 37 47  1  0  0  0
 37 66  1  0  0  0
 37108  1  0  0  0
 38 43  2  0  0  0
 38 46  1  0  0  0
 38 47  1  0  0  0
 39 64  1  0  0  0
 39 67  2  0  0  0
 40 52  1  0  0  0
 40 53  2  0  0  0
 40 58  1  0  0  0
 41109  1  0  0  0
 41110  1  0  0  0
 41111  1  0  0  0
 41 48  1  0  0  0
 42 43  1  0  0  0
 42 66  1  0  0  0
 42112  1  0  0  0
 42113  1  0  0  0
 43 44  1  0  0  0
 44114  1  0  0  0
 45 46  2  0  0  0
 45115  1  0  0  0
 46116  1  0  0  0
 47117  1  0  0  0
 47118  1  0  0  0
 48 56  1  0  0  0
 48 65  1  0  0  0
 48119  1  0  0  0
 49 50  1  0  0  0
 49 53  1  0  0  0
 49 64  1  0  0  0
 49120  1  0  0  0
 50 51  1  0  0  0
 50121  1  0  0  0
 50122  1  0  0  0
 51 52  1  0  0  0
 51123  1  0  0  0
 51124  1  0  0  0
 52125  1  0  0  0
 52126  1  0  0  0
 53 54  1  0  0  0
 54 55  2  0  0  0
 54127  1  0  0  0
 55 57  1  0  0  0
 55128  1  0  0  0
 56 69  2  0  0  0
 57 58  2  0  0  0
 57129  1  0  0  0
 58130  1  0  0  0
 59 60  1  0  0  0
 59 61  1  0  0  0
 59 62  1  0  0  0
 60131  1  0  0  0
 60132  1  0  0  0
 60133  1  0  0  0
 61134  1  0  0  0
 61135  1  0  0  0
 61136  1  0  0  0
 62137  1  0  0  0
 62138  1  0  0  0
 62139  1  0  0  0
 63 65  1  0  0  0
 63140  1  0  0  0
 63141  1  0  0  0
 63142  1  0  0  0
 64143  1  0  0  0
 65144  1  0  0  0
 68 83  1  0  0  0
 71 72  2  0  0  0
 71 85  1  0  0  0
 71145  1  0  0  0
 72 73  1  0  0  0
 72 75  1  0  0  0
 73 74  2  0  0  0
 73 81  1  0  0  0
 74 76  1  0  0  0
 74 85  1  0  0  0
 75 77  2  0  0  0
 75146  1  0  0  0
 76 78  2  0  0  0
 76147  1  0  0  0
 77 79  1  0  0  0
 77148  1  0  0  0
 78149  1  0  0  0
 79 82  1  0  0  0
 79 84  2  0  0  0
 80 81  1  0  0  0
 80150  1  0  0  0
 80151  1  0  0  0
 80152  1  0  0  0
 81153  1  0  0  0
 81154  1  0  0  0
 82 83  1  0  0  0
 82155  1  0  0  0
 82156  1  0  0  0
 83157  1  0  0  0
 83158  1  0  0  0
M  ISO  4   1 100  68 101  78 100  83 101
M  END
> <chiral flag>
0

> <version>
0

> <s_m_source_file>
/data/baiqing/PycharmProjects/Reinvent-master-3.2/result/LINK_invent/BTK/process_docking_weight1_custom_product_contain_oxygen_bond_distance_aromatic_linkinvent_7_9_3/rearranged_h_0121.sdf

> <i_m_source_file_index>
1

> <r_mmod_Potential_Energy-OPLS-2005>
-74.6320877075195

> <r_mmod_Stretch_Energy-OPLS-2005>
29.5329895019531

> <r_mmod_Bend_Energy-OPLS-2005>
100.551902770996

> <r_mmod_Torsional_Energy-OPLS-2005>
225.607299804688

> <r_mmod_Improper_Torsional_Energy-OPLS-2005>
6.07120847702026

> <r_mmod_Van_der_Waal_Energy-OPLS-2005>
129.584426879883

> <r_mmod_Electrostatic_Energy-OPLS-2005>
-376.660675048828

> <r_mmod_Solvation_Energy-OPLS-2005>
-202.508041381836

> <b_mmod_Minimization_Converged-OPLS-2005>
0

> <r_mmod_RMS_Derivative-OPLS-2005>
2.62499952316284

$$$$
1
                    3D
 Structure written by MMmdl.
161169  0  0  1  0            999 V2000
  -30.6926  -14.5583   20.4623 C   0  0  0  0  0  0
  -30.4141  -12.3323   19.4412 C   0  0  0  0  0  0
  -29.4825  -12.4646   18.2159 C   0  0  0  0  0  0
  -28.0100  -12.3278   18.6395 C   0  0  0  0  0  0
  -27.6502  -13.2141   19.8604 C   0  0  2  0  0  0
  -28.7002  -13.0810   20.9865 C   0  0  0  0  0  0
  -25.2560  -13.8176   20.5742 C   0  0  0  0  0  0
  -24.1819  -13.0461   20.9221 C   0  0  0  0  0  0
  -24.6371  -11.6914   20.8773 C   0  0  0  0  0  0
  -23.9042  -10.4295   21.0399 C   0  0  0  0  0  0
  -24.3609   -9.4214   21.9179 C   0  0  0  0  0  0
  -23.6301   -8.2246   22.0747 C   0  0  0  0  0  0
  -22.4280   -8.0281   21.3537 C   0  0  0  0  0  0
  -21.9901   -9.0246   20.4640 C   0  0  0  0  0  0
  -22.7216  -10.2136   20.3043 C   0  0  0  0  0  0
  -21.6849   -6.0740   22.5271 C   0  0  0  0  0  0
  -21.4010   -6.5634   23.8214 C   0  0  0  0  0  0
  -21.3661   -5.6788   24.9174 C   0  0  0  0  0  0
  -21.6060   -4.3061   24.7224 C   0  0  0  0  0  0
  -21.8819   -3.8144   23.4340 C   0  0  0  0  0  0
  -21.9192   -4.6955   22.3400 C   0  0  0  0  0  0
  -22.7831  -13.5244   21.1883 C   0  0  0  0  0  0
  -22.1661   -4.2152   21.0971 F   0  0  0  0  0  0
  -21.5638   -3.4533   25.7727 F   0  0  0  0  0  0
  -30.0211  -13.3712   20.4106 N   0  0  0  0  0  0
  -26.2983  -12.9363   20.3373 N   0  0  0  0  0  0
  -25.9312  -11.6522   20.5827 N   0  0  0  0  0  0
  -22.0475  -12.8225   22.0420 N   0  0  0  0  0  0
  -25.4325  -15.1903   20.4147 N   0  0  0  0  0  0
  -31.8943  -14.6402   20.2008 O   0  0  0  0  0  0
  -21.6643   -6.8873   21.4238 O   0  0  0  0  0  0
  -22.3520  -14.5550   20.6715 O   0  0  0  0  0  0
  -24.6211  -31.8611   23.2051 C   0  0  0  0  0  0
  -25.9087  -32.4778   23.8365 C   0  0  1  0  0  0
  -27.2523  -27.3813   20.0865 C   0  0  0  0  0  0
  -25.5924  -33.8577   24.2304 N   0  0  0  0  0  0
  -23.4132  -30.4836   21.5449 C   0  0  2  0  0  0
  -24.8589  -28.9331   20.1164 C   0  0  0  0  0  0
  -22.7437  -29.4635   22.4945 C   0  0  0  0  0  0
  -18.0280  -28.1371   22.8486 C   0  0  0  0  0  0
  -24.1489  -36.7293   23.2640 C   0  0  0  0  0  0
  -25.9480  -30.8032   21.3718 C   0  0  0  0  0  0
  -26.0214  -29.4347   20.7138 C   0  0  0  0  0  0
  -27.2125  -28.6651   20.6939 C   0  0  0  0  0  0
  -26.0644  -26.9048   19.4814 C   0  0  0  0  0  0
  -24.8772  -27.6678   19.5028 C   0  0  0  0  0  0
  -23.6263  -29.8123   20.1612 C   0  0  0  0  0  0
  -25.4114  -36.3089   24.0339 C   0  0  1  0  0  0
  -20.5879  -28.3667   23.1280 C   0  0  2  0  0  0
  -20.6766  -26.9389   22.5407 C   0  0  0  0  0  0
  -19.5745  -26.6375   21.5210 C   0  0  0  0  0  0
  -18.1932  -26.7912   22.1626 C   0  0  0  0  0  0
  -19.1533  -28.8829   23.2888 C   0  0  0  0  0  0
  -18.9463  -30.1437   23.8895 C   0  0  0  0  0  0
  -17.6468  -30.6572   24.0559 C   0  0  0  0  0  0
  -25.9043  -34.9447   23.5121 C   0  0  0  0  0  0
  -16.5358  -29.9079   23.6324 C   0  0  0  0  0  0
  -16.7275  -28.6498   23.0341 C   0  0  0  0  0  0
  -26.4497  -31.6568   25.0713 C   0  0  0  0  0  0
  -25.3749  -31.3689   26.1453 C   0  0  0  0  0  0
  -27.0315  -30.2984   24.6143 C   0  0  0  0  0  0
  -27.6065  -32.4278   25.7474 C   0  0  0  0  0  0
  -27.5578  -37.1801   24.8469 C   0  0  0  0  0  0
  -21.4158  -29.3030   22.3679 N   0  0  0  0  0  0
  -26.4295  -37.3777   23.9408 N   0  0  0  0  0  0
  -24.6787  -31.0648   22.0979 N   0  0  0  0  0  0
  -23.4180  -28.8187   23.3019 O   0  0  0  0  0  0
  -28.4551  -26.6783   20.0965 O   0  0  0  0  0  0
  -26.5612  -34.8926   22.4686 O   0  0  0  0  0  0
  -23.5385  -32.1400   23.7402 O   0  0  0  0  0  0
  -30.7100  -18.4047   18.0233 C   0  0  0  0  0  0
  -30.0298  -18.1868   20.7073 C   0  0  0  0  0  0
  -30.5229  -17.1150   18.5635 C   0  0  0  0  0  0
  -30.6020  -19.5786   18.7923 C   0  0  0  0  0  0
  -30.1966  -16.9808   19.9493 C   0  0  0  0  0  0
  -30.2170  -19.4958   20.1550 C   0  0  0  0  0  0
  -30.1932  -15.9886   16.3425 C   0  0  0  0  0  0
  -30.6380  -15.9877   17.6117 C   0  0  0  0  0  0
  -30.9699  -20.8891   18.1183 C   0  0  0  0  0  0
  -29.2699  -24.5199   21.0278 C   0  0  0  0  0  0
  -30.0391  -23.1465   20.8519 C   0  0  0  0  0  0
  -28.5675  -25.2478   19.8327 C   0  0  0  0  0  0
  -29.3024  -21.7732   20.6312 C   0  0  0  0  0  0
  -29.9378  -15.6862   20.5654 N   0  0  0  0  0  0
  -30.1296  -20.6225   20.9806 O   0  0  0  0  0  0
  -31.4580  -12.4186   19.1351 H   0  0  0  0  0  0
  -30.3154  -11.3416   19.8874 H   0  0  0  0  0  0
  -29.7272  -11.7049   17.4721 H   0  0  0  0  0  0
  -29.6281  -13.4248   17.7253 H   0  0  0  0  0  0
  -27.8410  -11.2792   18.8865 H   0  0  0  0  0  0
  -27.3475  -12.5501   17.8018 H   0  0  0  0  0  0
  -27.6688  -14.2444   19.5066 H   0  0  0  0  0  0
  -28.6922  -12.0721   21.4017 H   0  0  0  0  0  0
  -28.4720  -13.7528   21.8149 H   0  0  0  0  0  0
  -25.2749   -9.5705   22.4777 H   0  0  0  0  0  0
  -24.0024   -7.4619   22.7451 H   0  0  0  0  0  0
  -21.0845   -8.8746   19.8933 H   0  0  0  0  0  0
  -22.3659  -10.9684   19.6166 H   0  0  0  0  0  0
  -21.1994   -7.6138   23.9717 H   0  0  0  0  0  0
  -21.1496   -6.0512   25.9083 H   0  0  0  0  0  0
  -22.0599   -2.7606   23.2822 H   0  0  0  0  0  0
  -22.4068  -11.9865   22.4794 H   0  0  0  0  0  0
  -21.1096  -13.1248   22.2630 H   0  0  0  0  0  0
  -24.6754  -15.8535   20.5385 H   0  0  0  0  0  0
  -26.2882  -15.6246   20.0938 H   0  0  0  0  0  0
  -26.7154  -32.5464   23.1106 H   0  0  0  0  0  0
  -25.0063  -33.9724   25.0441 H   0  0  0  0  0  0
  -22.7070  -31.3035   21.3988 H   0  0  0  0  0  0
  -23.3740  -35.9632   23.3322 H   0  0  0  0  0  0
  -24.3582  -36.8880   22.2050 H   0  0  0  0  0  0
  -23.7258  -37.6511   23.6639 H   0  0  0  0  0  0
  -26.0815  -31.5654   20.6043 H   0  0  0  0  0  0
  -26.8288  -30.8448   22.0020 H   0  0  0  0  0  0
  -28.1147  -29.0474   21.1488 H   0  0  0  0  0  0
  -26.0322  -25.9526   18.9738 H   0  0  0  0  0  0
  -23.9806  -27.2779   19.0385 H   0  0  0  0  0  0
  -23.7541  -30.5877   19.4050 H   0  0  0  0  0  0
  -22.7447  -29.2475   19.8562 H   0  0  0  0  0  0
  -25.1292  -36.1949   25.0834 H   0  0  0  0  0  0
  -20.9993  -28.3249   24.1398 H   0  0  0  0  0  0
  -20.5647  -26.2286   23.3605 H   0  0  0  0  0  0
  -21.6629  -26.7402   22.1205 H   0  0  0  0  0  0
  -19.6897  -25.6291   21.1226 H   0  0  0  0  0  0
  -19.6684  -27.3187   20.6743 H   0  0  0  0  0  0
  -17.4194  -26.6657   21.4044 H   0  0  0  0  0  0
  -18.0329  -26.0063   22.9031 H   0  0  0  0  0  0
  -19.7950  -30.7254   24.2251 H   0  0  0  0  0  0
  -17.5031  -31.6254   24.5155 H   0  0  0  0  0  0
  -15.5355  -30.2981   23.7638 H   0  0  0  0  0  0
  -15.8687  -28.0823   22.7033 H   0  0  0  0  0  0
  -24.5928  -30.7028   25.7795 H   0  0  0  0  0  0
  -24.8935  -32.2835   26.4906 H   0  0  0  0  0  0
  -25.8083  -30.8857   27.0218 H   0  0  0  0  0  0
  -26.2866  -29.6752   24.1178 H   0  0  0  0  0  0
  -27.4012  -29.7230   25.4646 H   0  0  0  0  0  0
  -27.8752  -30.4250   23.9356 H   0  0  0  0  0  0
  -27.2681  -33.3572   26.2065 H   0  0  0  0  0  0
  -28.3860  -32.6832   25.0285 H   0  0  0  0  0  0
  -28.0753  -31.8397   26.5374 H   0  0  0  0  0  0
  -28.2587  -38.0110   24.7505 H   0  0  0  0  0  0
  -28.1081  -36.2626   24.6292 H   0  0  0  0  0  0
  -27.2297  -37.1448   25.8877 H   0  0  0  0  0  0
  -20.9321  -29.8755   21.6896 H   0  0  0  0  0  0
  -26.0181  -38.2850   24.1404 H   0  0  0  0  0  0
  -30.9825  -18.4940   16.9811 H   0  0  0  0  0  0
  -29.7585  -18.1102   21.7505 H   0  0  0  0  0  0
  -30.3544  -15.1342   15.6994 H   0  0  0  0  0  0
  -29.6634  -16.8314   15.9209 H   0  0  0  0  0  0
  -31.1682  -15.1082   17.9341 H   0  0  0  0  0  0
  -31.6107  -20.7163   17.2520 H   0  0  0  0  0  0
  -31.5214  -21.5426   18.7928 H   0  0  0  0  0  0
  -30.0768  -21.3997   17.7615 H   0  0  0  0  0  0
  -30.0358  -25.2207   21.3700 H   0  0  0  0  0  0
  -28.5758  -24.4623   21.8650 H   0  0  0  0  0  0
  -30.5807  -23.0266   21.7910 H   0  0  0  0  0  0
  -30.8224  -23.2689   20.1048 H   0  0  0  0  0  0
  -27.6169  -24.7604   19.6269 H   0  0  0  0  0  0
  -29.1790  -25.1288   18.9352 H   0  0  0  0  0  0
  -28.8931  -21.7018   19.6253 H   0  0  0  0  0  0
  -28.4439  -21.7246   21.2995 H   0  0  0  0  0  0
  -29.0115  -15.5562   20.9423 H   0  0  0  0  0  0
  1 25  1  0  0  0
  1 30  2  0  0  0
  1 84  1  0  0  0
  2  3  1  0  0  0
  2 25  1  0  0  0
  2 86  1  0  0  0
  2 87  1  0  0  0
  3  4  1  0  0  0
  3 88  1  0  0  0
  3 89  1  0  0  0
  4  5  1  0  0  0
  4 90  1  0  0  0
  4 91  1  0  0  0
  5  6  1  0  0  0
  5 26  1  0  0  0
  5 92  1  0  0  0
  6 25  1  0  0  0
  6 93  1  0  0  0
  6 94  1  0  0  0
  7  8  2  0  0  0
  7 26  1  0  0  0
  7 29  1  0  0  0
  8  9  1  0  0  0
  8 22  1  0  0  0
  9 10  1  0  0  0
  9 27  2  0  0  0
 10 11  2  0  0  0
 10 15  1  0  0  0
 11 12  1  0  0  0
 11 95  1  0  0  0
 12 13  2  0  0  0
 12 96  1  0  0  0
 13 14  1  0  0  0
 13 31  1  0  0  0
 14 15  2  0  0  0
 14 97  1  0  0  0
 15 98  1  0  0  0
 16 17  2  0  0  0
 16 21  1  0  0  0
 16 31  1  0  0  0
 17 18  1  0  0  0
 17 99  1  0  0  0
 18 19  2  0  0  0
 18100  1  0  0  0
 19 20  1  0  0  0
 19 24  1  0  0  0
 20 21  2  0  0  0
 20101  1  0  0  0
 21 23  1  0  0  0
 22 28  1  0  0  0
 22 32  2  0  0  0
 26 27  1  0  0  0
 28102  1  0  0  0
 28103  1  0  0  0
 29104  1  0  0  0
 29105  1  0  0  0
 33 34  1  0  0  0
 33 66  1  0  0  0
 33 70  2  0  0  0
 34 36  1  0  0  0
 34 59  1  0  0  0
 34106  1  0  0  0
 35 44  2  0  0  0
 35 45  1  0  0  0
 35 68  1  0  0  0
 36 56  1  0  0  0
 36107  1  0  0  0
 37 39  1  0  0  0
 37 47  1  0  0  0
 37 66  1  0  0  0
 37108  1  0  0  0
 38 43  2  0  0  0
 38 46  1  0  0  0
 38 47  1  0  0  0
 39 64  1  0  0  0
 39 67  2  0  0  0
 40 52  1  0  0  0
 40 53  2  0  0  0
 40 58  1  0  0  0
 41109  1  0  0  0
 41110  1  0  0  0
 41111  1  0  0  0
 41 48  1  0  0  0
 42 43  1  0  0  0
 42 66  1  0  0  0
 42112  1  0  0  0
 42113  1  0  0  0
 43 44  1  0  0  0
 44114  1  0  0  0
 45 46  2  0  0  0
 45115  1  0  0  0
 46116  1  0  0  0
 47117  1  0  0  0
 47118  1  0  0  0
 48 56  1  0  0  0
 48 65  1  0  0  0
 48119  1  0  0  0
 49 50  1  0  0  0
 49 53  1  0  0  0
 49 64  1  0  0  0
 49120  1  0  0  0
 50 51  1  0  0  0
 50121  1  0  0  0
 50122  1  0  0  0
 51 52  1  0  0  0
 51123  1  0  0  0
 51124  1  0  0  0
 52125  1  0  0  0
 52126  1  0  0  0
 53 54  1  0  0  0
 54 55  2  0  0  0
 54127  1  0  0  0
 55 57  1  0  0  0
 55128  1  0  0  0
 56 69  2  0  0  0
 57 58  2  0  0  0
 57129  1  0  0  0
 58130  1  0  0  0
 59 60  1  0  0  0
 59 61  1  0  0  0
 59 62  1  0  0  0
 60131  1  0  0  0
 60132  1  0  0  0
 60133  1  0  0  0
 61134  1  0  0  0
 61135  1  0  0  0
 61136  1  0  0  0
 62137  1  0  0  0
 62138  1  0  0  0
 62139  1  0  0  0
 63 65  1  0  0  0
 63140  1  0  0  0
 63141  1  0  0  0
 63142  1  0  0  0
 64143  1  0  0  0
 65144  1  0  0  0
 68 82  1  0  0  0
 71 73  2  0  0  0
 71 74  1  0  0  0
 71145  1  0  0  0
 72 75  2  0  0  0
 72 76  1  0  0  0
 72146  1  0  0  0
 73 75  1  0  0  0
 73 78  1  0  0  0
 74 76  2  0  0  0
 74 79  1  0  0  0
 75 84  1  0  0  0
 76 85  1  0  0  0
 77 78  2  0  0  0
 77147  1  0  0  0
 77148  1  0  0  0
 78149  1  0  0  0
 79150  1  0  0  0
 79151  1  0  0  0
 79152  1  0  0  0
 80 81  1  0  0  0
 80 82  1  0  0  0
 80153  1  0  0  0
 80154  1  0  0  0
 81 83  1  0  0  0
 81155  1  0  0  0
 81156  1  0  0  0
 82157  1  0  0  0
 82158  1  0  0  0
 83 85  1  0  0  0
 83159  1  0  0  0
 83160  1  0  0  0
 84161  1  0  0  0
M  ISO  4   1 100  68 101  82 101  84 100
M  END
> <chiral flag>
0

> <version>
0

> <s_m_source_file>
/data/baiqing/PycharmProjects/Reinvent-master-3.2/result/LINK_invent/BTK/process_docking_weight1_custom_product_contain_oxygen_bond_distance_aromatic_linkinvent_7_9_3/rearranged_h_0121.sdf

> <i_m_source_file_index>
2

> <r_mmod_Potential_Energy-OPLS-2005>
77.8350372314453

> <r_mmod_Stretch_Energy-OPLS-2005>
62.6063499450684

> <r_mmod_Bend_Energy-OPLS-2005>
150.90657043457

> <r_mmod_Torsional_Energy-OPLS-2005>
282.471008300781

> <r_mmod_Improper_Torsional_Energy-OPLS-2005>
7.1589674949646

> <r_mmod_Van_der_Waal_Energy-OPLS-2005>
149.784622192383

> <r_mmod_Electrostatic_Energy-OPLS-2005>
-396.929595947266

> <r_mmod_Solvation_Energy-OPLS-2005>
-208.928100585938

> <b_mmod_Minimization_Converged-OPLS-2005>
0

> <r_mmod_RMS_Derivative-OPLS-2005>
3.92728137969971

$$$$
2
                    3D
 Structure written by MMmdl.
168176  0  0  1  0            999 V2000
  -30.7165  -14.4172   20.5630 C   0  0  0  0  0  0
  -30.4202  -12.2696   19.4156 C   0  0  0  0  0  0
  -29.4971  -12.5078   18.2017 C   0  0  0  0  0  0
  -28.0123  -12.3794   18.6027 C   0  0  0  0  0  0
  -27.6616  -13.2024   19.8711 C   0  0  2  0  0  0
  -28.6990  -12.9405   20.9815 C   0  0  0  0  0  0
  -25.2599  -13.8154   20.5630 C   0  0  0  0  0  0
  -24.1833  -13.0447   20.9126 C   0  0  0  0  0  0
  -24.6370  -11.6909   20.8697 C   0  0  0  0  0  0
  -23.9029  -10.4299   21.0385 C   0  0  0  0  0  0
  -24.3598   -9.4223   21.9163 C   0  0  0  0  0  0
  -23.6289   -8.2249   22.0737 C   0  0  0  0  0  0
  -22.4265   -8.0273   21.3534 C   0  0  0  0  0  0
  -21.9890   -9.0238   20.4631 C   0  0  0  0  0  0
  -22.7206  -10.2128   20.3037 C   0  0  0  0  0  0
  -21.6854   -6.0739   22.5283 C   0  0  0  0  0  0
  -21.4019   -6.5646   23.8215 C   0  0  0  0  0  0
  -21.3651   -5.6795   24.9171 C   0  0  0  0  0  0
  -21.6025   -4.3053   24.7223 C   0  0  0  0  0  0
  -21.8819   -3.8155   23.4345 C   0  0  0  0  0  0
  -21.9193   -4.6971   22.3405 C   0  0  0  0  0  0
  -22.7865  -13.5253   21.1834 C   0  0  0  0  0  0
  -22.1676   -4.2156   21.0983 F   0  0  0  0  0  0
  -21.5613   -3.4533   25.7733 F   0  0  0  0  0  0
  -30.0373  -13.2431   20.4472 N   0  0  0  0  0  0
  -26.3016  -12.9306   20.3312 N   0  0  0  0  0  0
  -25.9286  -11.6469   20.5692 N   0  0  0  0  0  0
  -22.0511  -12.8235   22.0392 N   0  0  0  0  0  0
  -25.4380  -15.1870   20.4057 N   0  0  0  0  0  0
  -31.8929  -14.5220   20.2132 O   0  0  0  0  0  0
  -21.6640   -6.8873   21.4236 O   0  0  0  0  0  0
  -22.3547  -14.5561   20.6694 O   0  0  0  0  0  0
  -24.6092  -31.8711   23.2111 C   0  0  0  0  0  0
  -25.9004  -32.4842   23.8389 C   0  0  1  0  0  0
  -27.2466  -27.4821   20.0812 C   0  0  0  0  0  0
  -25.5878  -33.8643   24.2321 N   0  0  0  0  0  0
  -23.3945  -30.4928   21.5523 C   0  0  2  0  0  0
  -24.8403  -28.9610   20.1146 C   0  0  0  0  0  0
  -22.7397  -29.4652   22.5017 C   0  0  0  0  0  0
  -18.0270  -28.1364   22.8499 C   0  0  0  0  0  0
  -24.1493  -36.7313   23.2646 C   0  0  0  0  0  0
  -25.9162  -30.8508   21.3554 C   0  0  0  0  0  0
  -25.9950  -29.4867   20.7057 C   0  0  0  0  0  0
  -27.1951  -28.7522   20.6889 C   0  0  0  0  0  0
  -26.0687  -26.9512   19.5018 C   0  0  0  0  0  0
  -24.8698  -27.6904   19.5137 C   0  0  0  0  0  0
  -23.5987  -29.8207   20.1669 C   0  0  0  0  0  0
  -25.4109  -36.3126   24.0351 C   0  0  1  0  0  0
  -20.5856  -28.3642   23.1345 C   0  0  2  0  0  0
  -20.6764  -26.9387   22.5417 C   0  0  0  0  0  0
  -19.5741  -26.6376   21.5224 C   0  0  0  0  0  0
  -18.1921  -26.7910   22.1630 C   0  0  0  0  0  0
  -19.1522  -28.8820   23.2914 C   0  0  0  0  0  0
  -18.9458  -30.1438   23.8903 C   0  0  0  0  0  0
  -17.6466  -30.6573   24.0577 C   0  0  0  0  0  0
  -25.9036  -34.9494   23.5135 C   0  0  0  0  0  0
  -16.5354  -29.9086   23.6326 C   0  0  0  0  0  0
  -16.7264  -28.6509   23.0327 C   0  0  0  0  0  0
  -26.4440  -31.6610   25.0696 C   0  0  0  0  0  0
  -25.3707  -31.3734   26.1448 C   0  0  0  0  0  0
  -27.0270  -30.3062   24.6017 C   0  0  0  0  0  0
  -27.6015  -32.4333   25.7440 C   0  0  0  0  0  0
  -27.5591  -37.1802   24.8477 C   0  0  0  0  0  0
  -21.4132  -29.3017   22.3762 N   0  0  0  0  0  0
  -26.4307  -37.3800   23.9417 N   0  0  0  0  0  0
  -24.6584  -31.0847   22.0998 N   0  0  0  0  0  0
  -23.4207  -28.8200   23.3031 O   0  0  0  0  0  0
  -28.4623  -26.8412   20.0778 O   0  0  0  0  0  0
  -26.5611  -34.8956   22.4708 O   0  0  0  0  0  0
  -23.5301  -32.1443   23.7535 O   0  0  0  0  0  0
  -31.1454  -18.7860   19.5163 C   0  0  0  0  0  0
  -31.4525  -16.6952   18.3540 C   0  0  0  0  0  0
  -30.8677  -17.4105   19.4223 C   0  0  0  0  0  0
  -32.0127  -19.4392   18.6133 C   0  0  0  0  0  0
  -32.3664  -17.3054   17.4707 C   0  0  0  0  0  0
  -32.6510  -18.6921   17.5887 C   0  0  0  0  0  0
  -30.0218  -16.8177   20.4903 C   0  0  0  0  0  0
  -32.1763  -20.8977   18.7307 C   0  0  0  0  0  0
  -29.9144  -15.5601   20.9851 C   0  0  0  0  0  0
  -31.1580  -21.7211   19.0394 C   0  0  0  0  0  0
  -31.3247  -23.1687   19.1755 C   0  0  0  0  0  0
  -32.2162  -16.3398   15.1251 C   0  0  0  0  0  0
  -35.0607  -19.3712   17.1686 C   0  0  0  0  0  0
  -33.0289  -16.4191   16.4225 C   0  0  0  0  0  0
  -33.6254  -19.3756   16.6274 C   0  0  0  0  0  0
  -28.5701  -25.5597   19.4829 C   0  0  0  0  0  0
  -30.0449  -25.1511   19.5365 C   0  0  0  0  0  0
  -32.4036  -23.7664   19.1271 O   0  0  0  0  0  0
  -30.1364  -23.7493   19.3641 O   0  0  0  0  0  0
  -31.4665  -12.3527   19.1167 H   0  0  0  0  0  0
  -30.3053  -11.2526   19.7934 H   0  0  0  0  0  0
  -29.7344  -11.8025   17.4044 H   0  0  0  0  0  0
  -29.6775  -13.5042   17.7939 H   0  0  0  0  0  0
  -27.8042  -11.3232   18.7783 H   0  0  0  0  0  0
  -27.3709  -12.6816   17.7746 H   0  0  0  0  0  0
  -27.7166  -14.2548   19.5937 H   0  0  0  0  0  0
  -28.6612  -11.8907   21.2747 H   0  0  0  0  0  0
  -28.4610  -13.4839   21.8939 H   0  0  0  0  0  0
  -25.2744   -9.5711   22.4729 H   0  0  0  0  0  0
  -24.0003   -7.4648   22.7458 H   0  0  0  0  0  0
  -21.0821   -8.8747   19.8945 H   0  0  0  0  0  0
  -22.3657  -10.9656   19.6141 H   0  0  0  0  0  0
  -21.2031   -7.6160   23.9724 H   0  0  0  0  0  0
  -21.1465   -6.0526   25.9073 H   0  0  0  0  0  0
  -22.0606   -2.7618   23.2843 H   0  0  0  0  0  0
  -22.4132  -11.9881   22.4758 H   0  0  0  0  0  0
  -21.1120  -13.1237   22.2585 H   0  0  0  0  0  0
  -24.6850  -15.8563   20.5206 H   0  0  0  0  0  0
  -26.3060  -15.6143   20.1068 H   0  0  0  0  0  0
  -26.7079  -32.5561   23.1163 H   0  0  0  0  0  0
  -25.0023  -33.9813   25.0458 H   0  0  0  0  0  0
  -22.6808  -31.3069   21.4117 H   0  0  0  0  0  0
  -23.3770  -35.9640   23.3324 H   0  0  0  0  0  0
  -24.3586  -36.8890   22.2057 H   0  0  0  0  0  0
  -23.7236  -37.6522   23.6640 H   0  0  0  0  0  0
  -26.0180  -31.6194   20.5880 H   0  0  0  0  0  0
  -26.8090  -30.9056   21.9660 H   0  0  0  0  0  0
  -28.0902  -29.1650   21.1324 H   0  0  0  0  0  0
  -26.0594  -25.9795   19.0325 H   0  0  0  0  0  0
  -23.9803  -27.2766   19.0589 H   0  0  0  0  0  0
  -23.7015  -30.5965   19.4075 H   0  0  0  0  0  0
  -22.7249  -29.2349   19.8756 H   0  0  0  0  0  0
  -25.1283  -36.2006   25.0848 H   0  0  0  0  0  0
  -20.9941  -28.3198   24.1467 H   0  0  0  0  0  0
  -20.5685  -26.2258   23.3609 H   0  0  0  0  0  0
  -21.6633  -26.7438   22.1199 H   0  0  0  0  0  0
  -19.6923  -25.6299   21.1229 H   0  0  0  0  0  0
  -19.6680  -27.3212   20.6785 H   0  0  0  0  0  0
  -17.4194  -26.6689   21.4028 H   0  0  0  0  0  0
  -18.0299  -26.0037   22.9012 H   0  0  0  0  0  0
  -19.7946  -30.7257   24.2245 H   0  0  0  0  0  0
  -17.5031  -31.6250   24.5189 H   0  0  0  0  0  0
  -15.5357  -30.3000   23.7635 H   0  0  0  0  0  0
  -15.8668  -28.0858   22.6983 H   0  0  0  0  0  0
  -24.5858  -30.7107   25.7786 H   0  0  0  0  0  0
  -24.8923  -32.2918   26.4886 H   0  0  0  0  0  0
  -25.8036  -30.8907   27.0215 H   0  0  0  0  0  0
  -26.2802  -29.6826   24.1087 H   0  0  0  0  0  0
  -27.4112  -29.7280   25.4427 H   0  0  0  0  0  0
  -27.8595  -30.4408   23.9103 H   0  0  0  0  0  0
  -27.2613  -33.3623   26.2038 H   0  0  0  0  0  0
  -28.3784  -32.6916   25.0229 H   0  0  0  0  0  0
  -28.0732  -31.8465   26.5331 H   0  0  0  0  0  0
  -28.2609  -38.0096   24.7504 H   0  0  0  0  0  0
  -28.1077  -36.2623   24.6309 H   0  0  0  0  0  0
  -27.2315  -37.1449   25.8883 H   0  0  0  0  0  0
  -20.9304  -29.8753   21.6981 H   0  0  0  0  0  0
  -26.0217  -38.2898   24.1395 H   0  0  0  0  0  0
  -30.6921  -19.3516   20.3185 H   0  0  0  0  0  0
  -31.2269  -15.6508   18.2059 H   0  0  0  0  0  0
  -29.3531  -17.5324   20.9492 H   0  0  0  0  0  0
  -33.1675  -21.3036   18.5797 H   0  0  0  0  0  0
  -29.1878  -15.4294   21.7691 H   0  0  0  0  0  0
  -30.1633  -21.3272   19.1871 H   0  0  0  0  0  0
  -32.7116  -15.6966   14.3967 H   0  0  0  0  0  0
  -32.0874  -17.3220   14.6694 H   0  0  0  0  0  0
  -31.2236  -15.9279   15.3103 H   0  0  0  0  0  0
  -35.7444  -19.8425   16.4626 H   0  0  0  0  0  0
  -35.4112  -18.3528   17.3428 H   0  0  0  0  0  0
  -35.1328  -19.9148   18.1112 H   0  0  0  0  0  0
  -33.1431  -15.4148   16.8336 H   0  0  0  0  0  0
  -34.0468  -16.7504   16.2196 H   0  0  0  0  0  0
  -33.3098  -20.3990   16.4273 H   0  0  0  0  0  0
  -33.6005  -18.8959   15.6501 H   0  0  0  0  0  0
  -27.9624  -24.8542   20.0520 H   0  0  0  0  0  0
  -28.2211  -25.5615   18.4489 H   0  0  0  0  0  0
  -30.4707  -25.4096   20.5071 H   0  0  0  0  0  0
  -30.6145  -25.6850   18.7725 H   0  0  0  0  0  0
  1 25  1  0  0  0
  1 30  2  0  0  0
  1 79  1  0  0  0
  2  3  1  0  0  0
  2 25  1  0  0  0
  2 90  1  0  0  0
  2 91  1  0  0  0
  3  4  1  0  0  0
  3 92  1  0  0  0
  3 93  1  0  0  0
  4  5  1  0  0  0
  4 94  1  0  0  0
  4 95  1  0  0  0
  5  6  1  0  0  0
  5 26  1  0  0  0
  5 96  1  0  0  0
  6 25  1  0  0  0
  6 97  1  0  0  0
  6 98  1  0  0  0
  7  8  2  0  0  0
  7 26  1  0  0  0
  7 29  1  0  0  0
  8  9  1  0  0  0
  8 22  1  0  0  0
  9 10  1  0  0  0
  9 27  2  0  0  0
 10 11  2  0  0  0
 10 15  1  0  0  0
 11 12  1  0  0  0
 11 99  1  0  0  0
 12 13  2  0  0  0
 12100  1  0  0  0
 13 14  1  0  0  0
 13 31  1  0  0  0
 14 15  2  0  0  0
 14101  1  0  0  0
 15102  1  0  0  0
 16 17  2  0  0  0
 16 21  1  0  0  0
 16 31  1  0  0  0
 17 18  1  0  0  0
 17103  1  0  0  0
 18 19  2  0  0  0
 18104  1  0  0  0
 19 20  1  0  0  0
 19 24  1  0  0  0
 20 21  2  0  0  0
 20105  1  0  0  0
 21 23  1  0  0  0
 22 28  1  0  0  0
 22 32  2  0  0  0
 26 27  1  0  0  0
 28106  1  0  0  0
 28107  1  0  0  0
 29108  1  0  0  0
 29109  1  0  0  0
 33 34  1  0  0  0
 33 66  1  0  0  0
 33 70  2  0  0  0
 34 36  1  0  0  0
 34 59  1  0  0  0
 34110  1  0  0  0
 35 44  2  0  0  0
 35 45  1  0  0  0
 35 68  1  0  0  0
 36 56  1  0  0  0
 36111  1  0  0  0
 37 39  1  0  0  0
 37 47  1  0  0  0
 37 66  1  0  0  0
 37112  1  0  0  0
 38 43  2  0  0  0
 38 46  1  0  0  0
 38 47  1  0  0  0
 39 64  1  0  0  0
 39 67  2  0  0  0
 40 52  1  0  0  0
 40 53  2  0  0  0
 40 58  1  0  0  0
 41113  1  0  0  0
 41114  1  0  0  0
 41115  1  0  0  0
 41 48  1  0  0  0
 42 43  1  0  0  0
 42 66  1  0  0  0
 42116  1  0  0  0
 42117  1  0  0  0
 43 44  1  0  0  0
 44118  1  0  0  0
 45 46  2  0  0  0
 45119  1  0  0  0
 46120  1  0  0  0
 47121  1  0  0  0
 47122  1  0  0  0
 48 56  1  0  0  0
 48 65  1  0  0  0
 48123  1  0  0  0
 49 50  1  0  0  0
 49 53  1  0  0  0
 49 64  1  0  0  0
 49124  1  0  0  0
 50 51  1  0  0  0
 50125  1  0  0  0
 50126  1  0  0  0
 51 52  1  0  0  0
 51127  1  0  0  0
 51128  1  0  0  0
 52129  1  0  0  0
 52130  1  0  0  0
 53 54  1  0  0  0
 54 55  2  0  0  0
 54131  1  0  0  0
 55 57  1  0  0  0
 55132  1  0  0  0
 56 69  2  0  0  0
 57 58  2  0  0  0
 57133  1  0  0  0
 58134  1  0  0  0
 59 60  1  0  0  0
 59 61  1  0  0  0
 59 62  1  0  0  0
 60135  1  0  0  0
 60136  1  0  0  0
 60137  1  0  0  0
 61138  1  0  0  0
 61139  1  0  0  0
 61140  1  0  0  0
 62141  1  0  0  0
 62142  1  0  0  0
 62143  1  0  0  0
 63 65  1  0  0  0
 63144  1  0  0  0
 63145  1  0  0  0
 63146  1  0  0  0
 64147  1  0  0  0
 65148  1  0  0  0
 68 86  1  0  0  0
 71 73  2  0  0  0
 71 74  1  0  0  0
 71149  1  0  0  0
 72 73  1  0  0  0
 72 75  2  0  0  0
 72150  1  0  0  0
 73 77  1  0  0  0
 74 76  2  0  0  0
 74 78  1  0  0  0
 75 76  1  0  0  0
 75 84  1  0  0  0
 76 85  1  0  0  0
 77 79  2  0  0  0
 77151  1  0  0  0
 78 80  2  0  0  0
 78152  1  0  0  0
 79153  1  0  0  0
 80 81  1  0  0  0
 80154  1  0  0  0
 81 88  2  0  0  0
 81 89  1  0  0  0
 82 84  1  0  0  0
 82155  1  0  0  0
 82156  1  0  0  0
 82157  1  0  0  0
 83 85  1  0  0  0
 83158  1  0  0  0
 83159  1  0  0  0
 83160  1  0  0  0
 84161  1  0  0  0
 84162  1  0  0  0
 85163  1  0  0  0
 85164  1  0  0  0
 86 87  1  0  0  0
 86165  1  0  0  0
 86166  1  0  0  0
 87 89  1  0  0  0
 87167  1  0  0  0
 87168  1  0  0  0
M  ISO  4   1 100  68 101  79 100  86 101
M  END
> <chiral flag>
0

> <version>
0

> <s_m_source_file>
/data/baiqing/PycharmProjects/Reinvent-master-3.2/result/LINK_invent/BTK/process_docking_weight1_custom_product_contain_oxygen_bond_distance_aromatic_linkinvent_7_9_3/rearranged_h_0121.sdf

> <i_m_source_file_index>
3

> <r_mmod_Potential_Energy-OPLS-2005>
-55.4150466918945

> <r_mmod_Stretch_Energy-OPLS-2005>
34.0156593322754

> <r_mmod_Bend_Energy-OPLS-2005>
112.983749389648

> <r_mmod_Torsional_Energy-OPLS-2005>
201.552429199219

> <r_mmod_Improper_Torsional_Energy-OPLS-2005>
3.45134091377258

> <r_mmod_Van_der_Waal_Energy-OPLS-2005>
174.364639282227

> <r_mmod_Electrostatic_Energy-OPLS-2005>
-393.455017089844

> <r_mmod_Solvation_Energy-OPLS-2005>
-204.111740112305

> <b_mmod_Minimization_Converged-OPLS-2005>
0

> <r_mmod_RMS_Derivative-OPLS-2005>
2.03298687934875

$$$$
3
                    3D
 Structure written by MMmdl.
152161  0  0  1  0            999 V2000
  -30.4105  -15.4585   20.3552 C   0  0  0  0  0  0
  -30.4211  -12.9506   19.5401 C   0  0  0  0  0  0
  -29.5398  -12.6120   18.3102 C   0  0  0  0  0  0
  -28.1028  -12.2961   18.7484 C   0  0  0  0  0  0
  -27.6005  -13.2950   19.8178 C   0  0  2  0  0  0
  -28.6237  -13.5728   20.9436 C   0  0  0  0  0  0
  -25.2352  -13.8278   20.5779 C   0  0  0  0  0  0
  -24.1724  -13.0439   20.9276 C   0  0  0  0  0  0
  -24.6405  -11.6941   20.8771 C   0  0  0  0  0  0
  -23.9107  -10.4294   21.0409 C   0  0  0  0  0  0
  -24.3645   -9.4203   21.9186 C   0  0  0  0  0  0
  -23.6313   -8.2241   22.0752 C   0  0  0  0  0  0
  -22.4293   -8.0283   21.3543 C   0  0  0  0  0  0
  -21.9937   -9.0262   20.4646 C   0  0  0  0  0  0
  -22.7274  -10.2139   20.3060 C   0  0  0  0  0  0
  -21.6855   -6.0745   22.5272 C   0  0  0  0  0  0
  -21.4016   -6.5643   23.8209 C   0  0  0  0  0  0
  -21.3658   -5.6795   24.9171 C   0  0  0  0  0  0
  -21.6045   -4.3060   24.7222 C   0  0  0  0  0  0
  -21.8817   -3.8152   23.4341 C   0  0  0  0  0  0
  -21.9195   -4.6974   22.3400 C   0  0  0  0  0  0
  -22.7738  -13.5185   21.1909 C   0  0  0  0  0  0
  -22.1662   -4.2154   21.0979 F   0  0  0  0  0  0
  -21.5629   -3.4541   25.7737 F   0  0  0  0  0  0
  -29.8229  -14.1367   20.2929 N   0  0  0  0  0  0
  -26.2781  -12.9584   20.3240 N   0  0  0  0  0  0
  -25.9349  -11.6668   20.5725 N   0  0  0  0  0  0
  -22.0397  -12.8172   22.0461 N   0  0  0  0  0  0
  -25.3976  -15.2016   20.4204 N   0  0  0  0  0  0
  -31.6309  -15.3498   20.1343 O   0  0  0  0  0  0
  -21.6645   -6.8890   21.4238 O   0  0  0  0  0  0
  -22.3418  -14.5480   20.6738 O   0  0  0  0  0  0
  -24.6746  -31.8112   23.1606 C   0  0  0  0  0  0
  -25.9381  -32.4528   23.8108 C   0  0  1  0  0  0
  -27.2161  -26.7993   20.1960 C   0  0  0  0  0  0
  -25.6018  -33.8347   24.2016 N   0  0  0  0  0  0
  -23.4958  -30.4174   21.5104 C   0  0  2  0  0  0
  -24.9527  -28.7827   20.1071 C   0  0  0  0  0  0
  -22.7730  -29.4372   22.4722 C   0  0  0  0  0  0
  -18.0327  -28.1434   22.8469 C   0  0  0  0  0  0
  -24.1466  -36.7137   23.2640 C   0  0  0  0  0  0
  -26.0721  -30.5731   21.4134 C   0  0  0  0  0  0
  -26.1359  -29.1502   20.7578 C   0  0  0  0  0  0
  -27.2537  -28.1789   20.7821 C   0  0  0  0  0  0
  -26.0108  -26.6255   19.4739 C   0  0  0  0  0  0
  -24.9242  -27.5456   19.4422 C   0  0  0  0  0  0
  -23.7438  -29.7253   20.1395 C   0  0  0  0  0  0
  -25.4118  -36.2922   24.0290 C   0  0  1  0  0  0
  -20.5964  -28.3781   23.1162 C   0  0  2  0  0  0
  -20.6803  -26.9450   22.5409 C   0  0  0  0  0  0
  -19.5771  -26.6394   21.5224 C   0  0  0  0  0  0
  -18.1957  -26.7966   22.1635 C   0  0  0  0  0  0
  -19.1596  -28.8930   23.2800 C   0  0  0  0  0  0
  -18.9509  -30.1517   23.8840 C   0  0  0  0  0  0
  -17.6505  -30.6627   24.0555 C   0  0  0  0  0  0
  -25.9110  -34.9319   23.4978 C   0  0  0  0  0  0
  -16.5388  -29.9111   23.6363 C   0  0  0  0  0  0
  -16.7315  -28.6528   23.0390 C   0  0  0  0  0  0
  -26.4594  -31.6530   25.0689 C   0  0  0  0  0  0
  -25.3686  -31.3847   26.1324 C   0  0  0  0  0  0
  -27.0504  -30.2879   24.6521 C   0  0  0  0  0  0
  -27.6063  -32.4367   25.7499 C   0  0  0  0  0  0
  -27.5560  -37.1701   24.8454 C   0  0  0  0  0  0
  -21.4385  -29.3035   22.3482 N   0  0  0  0  0  0
  -26.4226  -37.3702   23.9454 N   0  0  0  0  0  0
  -24.7691  -30.9653   22.0803 N   0  0  0  0  0  0
  -23.4224  -28.7964   23.3027 O   0  0  0  0  0  0
  -28.1651  -25.6104   20.3416 O   0  0  0  0  0  0
  -26.5720  -34.8883   22.4576 O   0  0  0  0  0  0
  -23.5792  -32.1140   23.6634 O   0  0  0  0  0  0
  -27.7791  -20.1831   21.7122 C   0  0  0  0  0  0
  -27.7426  -21.6143   21.3722 C   0  0  0  0  0  0
  -29.3244  -21.1657   19.7021 C   0  0  0  0  0  0
  -28.5869  -19.1752   21.0635 C   0  0  0  0  0  0
  -29.3892  -19.6592   20.0658 C   0  0  0  0  0  0
  -28.4855  -22.2978   20.3327 C   0  0  0  0  0  0
  -32.4409  -18.7039   18.5863 C   0  0  0  0  0  0
  -31.6678  -18.4688   19.6585 C   0  0  0  0  0  0
  -28.7354  -17.5605   21.2509 C   0  0  0  0  0  0
  -30.1675  -18.2545   19.6071 C   0  0  1  0  0  0
  -28.0710  -23.9922   19.8061 C   0  0  0  0  0  0
  -29.7594  -16.8536   20.3234 N   0  0  0  0  0  0
  -31.4318  -13.1598   19.1886 H   0  0  0  0  0  0
  -30.5255  -12.0823   20.1926 H   0  0  0  0  0  0
  -29.9604  -11.7700   17.7585 H   0  0  0  0  0  0
  -29.5360  -13.4596   17.6232 H   0  0  0  0  0  0
  -28.1006  -11.2878   19.1635 H   0  0  0  0  0  0
  -27.4325  -12.2785   17.8884 H   0  0  0  0  0  0
  -27.4841  -14.2339   19.2749 H   0  0  0  0  0  0
  -28.8429  -12.6756   21.5242 H   0  0  0  0  0  0
  -28.2215  -14.3056   21.6445 H   0  0  0  0  0  0
  -25.2790   -9.5678   22.4763 H   0  0  0  0  0  0
  -24.0015   -7.4636   22.7473 H   0  0  0  0  0  0
  -21.0866   -8.8794   19.8953 H   0  0  0  0  0  0
  -22.3731  -10.9685   19.6173 H   0  0  0  0  0  0
  -21.2002   -7.6148   23.9709 H   0  0  0  0  0  0
  -21.1480   -6.0528   25.9075 H   0  0  0  0  0  0
  -22.0597   -2.7613   23.2838 H   0  0  0  0  0  0
  -22.4036  -11.9848   22.4863 H   0  0  0  0  0  0
  -21.1001  -13.1165   22.2645 H   0  0  0  0  0  0
  -24.6248  -15.8498   20.5275 H   0  0  0  0  0  0
  -26.2389  -15.6407   20.0704 H   0  0  0  0  0  0
  -26.7450  -32.5028   23.0815 H   0  0  0  0  0  0
  -25.0170  -33.9403   25.0172 H   0  0  0  0  0  0
  -22.8150  -31.2517   21.3296 H   0  0  0  0  0  0
  -23.3786  -35.9405   23.3229 H   0  0  0  0  0  0
  -24.3549  -36.8867   22.2071 H   0  0  0  0  0  0
  -23.7148  -37.6269   23.6740 H   0  0  0  0  0  0
  -26.2687  -31.3068   20.6303 H   0  0  0  0  0  0
  -26.9261  -30.6336   22.0756 H   0  0  0  0  0  0
  -28.1365  -28.4548   21.3404 H   0  0  0  0  0  0
  -25.8554  -25.6865   18.9638 H   0  0  0  0  0  0
  -24.0306  -27.2609   18.9036 H   0  0  0  0  0  0
  -23.9104  -30.4901   19.3804 H   0  0  0  0  0  0
  -22.8512  -29.1862   19.8185 H   0  0  0  0  0  0
  -25.1310  -36.1678   25.0773 H   0  0  0  0  0  0
  -21.0049  -28.3402   24.1287 H   0  0  0  0  0  0
  -20.5688  -26.2401   23.3665 H   0  0  0  0  0  0
  -21.6656  -26.7426   22.1201 H   0  0  0  0  0  0
  -19.6926  -25.6291   21.1288 H   0  0  0  0  0  0
  -19.6712  -27.3166   20.6722 H   0  0  0  0  0  0
  -17.4227  -26.6720   21.4037 H   0  0  0  0  0  0
  -18.0339  -26.0130   22.9051 H   0  0  0  0  0  0
  -19.7985  -30.7348   24.2183 H   0  0  0  0  0  0
  -17.5064  -31.6300   24.5173 H   0  0  0  0  0  0
  -15.5390  -30.3007   23.7721 H   0  0  0  0  0  0
  -15.8708  -28.0826   22.7161 H   0  0  0  0  0  0
  -24.5859  -30.7202   25.7639 H   0  0  0  0  0  0
  -24.8884  -32.3077   26.4583 H   0  0  0  0  0  0
  -25.7881  -30.9126   27.0213 H   0  0  0  0  0  0
  -26.3202  -29.6531   24.1487 H   0  0  0  0  0  0
  -27.3941  -29.7287   25.5230 H   0  0  0  0  0  0
  -27.9187  -30.4036   24.0031 H   0  0  0  0  0  0
  -27.2623  -33.3733   26.1902 H   0  0  0  0  0  0
  -28.3971  -32.6831   25.0397 H   0  0  0  0  0  0
  -28.0617  -31.8610   26.5569 H   0  0  0  0  0  0
  -28.2483  -38.0089   24.7650 H   0  0  0  0  0  0
  -28.1153  -36.2635   24.6092 H   0  0  0  0  0  0
  -27.2311  -37.1116   25.8855 H   0  0  0  0  0  0
  -20.9670  -29.8695   21.6562 H   0  0  0  0  0  0
  -26.0054  -38.2719   24.1607 H   0  0  0  0  0  0
  -27.1201  -19.8501   22.5030 H   0  0  0  0  0  0
  -27.0366  -22.2177   21.9251 H   0  0  0  0  0  0
  -29.9330  -21.4600   18.8588 H   0  0  0  0  0  0
  -33.5061  -18.8551   18.6910 H   0  0  0  0  0  0
  -32.0254  -18.7514   17.5890 H   0  0  0  0  0  0
  -32.1210  -18.4331   20.6398 H   0  0  0  0  0  0
  -27.7593  -17.1046   21.0852 H   0  0  0  0  0  0
  -28.9982  -17.3471   22.2874 H   0  0  0  0  0  0
  -29.8993  -18.1149   18.5589 H   0  0  0  0  0  0
  -27.0161  -23.8800   19.5588 H   0  0  0  0  0  0
  -28.5548  -24.0510   18.8318 H   0  0  0  0  0  0
  1 25  1  0  0  0
  1 30  2  0  0  0
  1 82  1  0  0  0
  2  3  1  0  0  0
  2 25  1  0  0  0
  2 83  1  0  0  0
  2 84  1  0  0  0
  3  4  1  0  0  0
  3 85  1  0  0  0
  3 86  1  0  0  0
  4  5  1  0  0  0
  4 87  1  0  0  0
  4 88  1  0  0  0
  5  6  1  0  0  0
  5 26  1  0  0  0
  5 89  1  0  0  0
  6 25  1  0  0  0
  6 90  1  0  0  0
  6 91  1  0  0  0
  7  8  2  0  0  0
  7 26  1  0  0  0
  7 29  1  0  0  0
  8  9  1  0  0  0
  8 22  1  0  0  0
  9 10  1  0  0  0
  9 27  2  0  0  0
 10 11  2  0  0  0
 10 15  1  0  0  0
 11 12  1  0  0  0
 11 92  1  0  0  0
 12 13  2  0  0  0
 12 93  1  0  0  0
 13 14  1  0  0  0
 13 31  1  0  0  0
 14 15  2  0  0  0
 14 94  1  0  0  0
 15 95  1  0  0  0
 16 17  2  0  0  0
 16 21  1  0  0  0
 16 31  1  0  0  0
 17 18  1  0  0  0
 17 96  1  0  0  0
 18 19  2  0  0  0
 18 97  1  0  0  0
 19 20  1  0  0  0
 19 24  1  0  0  0
 20 21  2  0  0  0
 20 98  1  0  0  0
 21 23  1  0  0  0
 22 28  1  0  0  0
 22 32  2  0  0  0
 26 27  1  0  0  0
 28 99  1  0  0  0
 28100  1  0  0  0
 29101  1  0  0  0
 29102  1  0  0  0
 33 34  1  0  0  0
 33 66  1  0  0  0
 33 70  2  0  0  0
 34 36  1  0  0  0
 34 59  1  0  0  0
 34103  1  0  0  0
 35 44  2  0  0  0
 35 45  1  0  0  0
 35 68  1  0  0  0
 36 56  1  0  0  0
 36104  1  0  0  0
 37 39  1  0  0  0
 37 47  1  0  0  0
 37 66  1  0  0  0
 37105  1  0  0  0
 38 43  2  0  0  0
 38 46  1  0  0  0
 38 47  1  0  0  0
 39 64  1  0  0  0
 39 67  2  0  0  0
 40 52  1  0  0  0
 40 53  2  0  0  0
 40 58  1  0  0  0
 41106  1  0  0  0
 41107  1  0  0  0
 41108  1  0  0  0
 41 48  1  0  0  0
 42 43  1  0  0  0
 42 66  1  0  0  0
 42109  1  0  0  0
 42110  1  0  0  0
 43 44  1  0  0  0
 44111  1  0  0  0
 45 46  2  0  0  0
 45112  1  0  0  0
 46113  1  0  0  0
 47114  1  0  0  0
 47115  1  0  0  0
 48 56  1  0  0  0
 48 65  1  0  0  0
 48116  1  0  0  0
 49 50  1  0  0  0
 49 53  1  0  0  0
 49 64  1  0  0  0
 49117  1  0  0  0
 50 51  1  0  0  0
 50118  1  0  0  0
 50119  1  0  0  0
 51 52  1  0  0  0
 51120  1  0  0  0
 51121  1  0  0  0
 52122  1  0  0  0
 52123  1  0  0  0
 53 54  1  0  0  0
 54 55  2  0  0  0
 54124  1  0  0  0
 55 57  1  0  0  0
 55125  1  0  0  0
 56 69  2  0  0  0
 57 58  2  0  0  0
 57126  1  0  0  0
 58127  1  0  0  0
 59 60  1  0  0  0
 59 61  1  0  0  0
 59 62  1  0  0  0
 60128  1  0  0  0
 60129  1  0  0  0
 60130  1  0  0  0
 61131  1  0  0  0
 61132  1  0  0  0
 61133  1  0  0  0
 62134  1  0  0  0
 62135  1  0  0  0
 62136  1  0  0  0
 63 65  1  0  0  0
 63137  1  0  0  0
 63138  1  0  0  0
 63139  1  0  0  0
 64140  1  0  0  0
 65141  1  0  0  0
 68 81  1  0  0  0
 71 72  2  0  0  0
 71 74  1  0  0  0
 71142  1  0  0  0
 72 76  1  0  0  0
 72143  1  0  0  0
 73 75  1  0  0  0
 73 76  2  0  0  0
 73144  1  0  0  0
 74 75  2  0  0  0
 74 79  1  0  0  0
 75 80  1  0  0  0
 76 81  1  0  0  0
 77 78  2  0  0  0
 77145  1  0  0  0
 77146  1  0  0  0
 78147  1  0  0  0
 78 80  1  0  0  0
 79 82  1  0  0  0
 79148  1  0  0  0
 79149  1  0  0  0
 80 82  1  0  0  0
 80150  1  0  0  0
 81151  1  0  0  0
 81152  1  0  0  0
M  ISO  4   1 100  68 101  81 101  82 100
M  END
> <chiral flag>
0

> <version>
0

> <s_m_source_file>
/data/baiqing/PycharmProjects/Reinvent-master-3.2/result/LINK_invent/BTK/process_docking_weight1_custom_product_contain_oxygen_bond_distance_aromatic_linkinvent_7_9_3/rearranged_h_0121.sdf

> <i_m_source_file_index>
4

> <r_mmod_Potential_Energy-OPLS-2005>
1861.29992675781

> <r_mmod_Stretch_Energy-OPLS-2005>
711.498962402344

> <r_mmod_Bend_Energy-OPLS-2005>
568.236511230469

> <r_mmod_Torsional_Energy-OPLS-2005>
273.470458984375

> <r_mmod_Improper_Torsional_Energy-OPLS-2005>
12.9949960708618

> <r_mmod_Van_der_Waal_Energy-OPLS-2005>
118.139465332031

> <r_mmod_Electrostatic_Energy-OPLS-2005>
-296.440856933594

> <r_mmod_Solvation_Energy-OPLS-2005>
-205.329208374023

> <b_mmod_Minimization_Converged-OPLS-2005>
0

> <r_mmod_RMS_Derivative-OPLS-2005>
1.55711495876312

$$$$
4
                    3D
 Structure written by MMmdl.
158166  0  0  1  0            999 V2000
  -30.6893  -14.4422   20.6114 C   0  0  0  0  0  0
  -30.4336  -12.3032   19.4065 C   0  0  0  0  0  0
  -29.4959  -12.5225   18.2001 C   0  0  0  0  0  0
  -28.0169  -12.3759   18.6127 C   0  0  0  0  0  0
  -27.6675  -13.1949   19.8829 C   0  0  2  0  0  0
  -28.7083  -12.9317   20.9950 C   0  0  0  0  0  0
  -25.2627  -13.8139   20.5670 C   0  0  0  0  0  0
  -24.1859  -13.0434   20.9160 C   0  0  0  0  0  0
  -24.6393  -11.6894   20.8722 C   0  0  0  0  0  0
  -23.9054  -10.4286   21.0398 C   0  0  0  0  0  0
  -24.3609   -9.4204   21.9177 C   0  0  0  0  0  0
  -23.6286   -8.2240   22.0749 C   0  0  0  0  0  0
  -22.4270   -8.0275   21.3540 C   0  0  0  0  0  0
  -21.9899   -9.0247   20.4643 C   0  0  0  0  0  0
  -22.7226  -10.2126   20.3050 C   0  0  0  0  0  0
  -21.6847   -6.0735   22.5279 C   0  0  0  0  0  0
  -21.4008   -6.5642   23.8211 C   0  0  0  0  0  0
  -21.3656   -5.6791   24.9173 C   0  0  0  0  0  0
  -21.6045   -4.3052   24.7220 C   0  0  0  0  0  0
  -21.8823   -3.8143   23.4345 C   0  0  0  0  0  0
  -21.9193   -4.6964   22.3405 C   0  0  0  0  0  0
  -22.7885  -13.5242   21.1837 C   0  0  0  0  0  0
  -22.1664   -4.2150   21.0981 F   0  0  0  0  0  0
  -21.5631   -3.4535   25.7735 F   0  0  0  0  0  0
  -30.0451  -13.2543   20.4573 N   0  0  0  0  0  0
  -26.3054  -12.9278   20.3387 N   0  0  0  0  0  0
  -25.9314  -11.6453   20.5761 N   0  0  0  0  0  0
  -22.0522  -12.8232   22.0391 N   0  0  0  0  0  0
  -25.4374  -15.1855   20.4085 N   0  0  0  0  0  0
  -31.7849  -14.6957   20.1000 O   0  0  0  0  0  0
  -21.6632   -6.8871   21.4240 O   0  0  0  0  0  0
  -22.3577  -14.5557   20.6700 O   0  0  0  0  0  0
  -24.6125  -31.8687   23.2094 C   0  0  0  0  0  0
  -25.9022  -32.4826   23.8396 C   0  0  1  0  0  0
  -27.2426  -27.4542   20.0995 C   0  0  0  0  0  0
  -25.5885  -33.8626   24.2329 N   0  0  0  0  0  0
  -23.3999  -30.4898   21.5494 C   0  0  2  0  0  0
  -24.8496  -28.9499   20.1217 C   0  0  0  0  0  0
  -22.7391  -29.4669   22.5002 C   0  0  0  0  0  0
  -18.0264  -28.1383   22.8498 C   0  0  0  0  0  0
  -24.1478  -36.7319   23.2641 C   0  0  0  0  0  0
  -25.9254  -30.8396   21.3586 C   0  0  0  0  0  0
  -26.0066  -29.4718   20.7147 C   0  0  0  0  0  0
  -27.2086  -28.7305   20.7007 C   0  0  0  0  0  0
  -26.0722  -26.9345   19.5103 C   0  0  0  0  0  0
  -24.8752  -27.6780   19.5195 C   0  0  0  0  0  0
  -23.6093  -29.8145   20.1666 C   0  0  0  0  0  0
  -25.4099  -36.3119   24.0346 C   0  0  1  0  0  0
  -20.5850  -28.3665   23.1332 C   0  0  2  0  0  0
  -20.6755  -26.9408   22.5420 C   0  0  0  0  0  0
  -19.5734  -26.6394   21.5214 C   0  0  0  0  0  0
  -18.1914  -26.7933   22.1626 C   0  0  0  0  0  0
  -19.1514  -28.8838   23.2914 C   0  0  0  0  0  0
  -18.9447  -30.1446   23.8922 C   0  0  0  0  0  0
  -17.6453  -30.6594   24.0567 C   0  0  0  0  0  0
  -25.9025  -34.9483   23.5135 C   0  0  0  0  0  0
  -16.5344  -29.9098   23.6328 C   0  0  0  0  0  0
  -16.7254  -28.6510   23.0354 C   0  0  0  0  0  0
  -26.4464  -31.6599   25.0717 C   0  0  0  0  0  0
  -25.3747  -31.3711   26.1482 C   0  0  0  0  0  0
  -27.0269  -30.3035   24.6071 C   0  0  0  0  0  0
  -27.6057  -32.4300   25.7467 C   0  0  0  0  0  0
  -27.5575  -37.1817   24.8468 C   0  0  0  0  0  0
  -21.4120  -29.3033   22.3739 N   0  0  0  0  0  0
  -26.4286  -37.3805   23.9418 N   0  0  0  0  0  0
  -24.6640  -31.0805   22.0980 N   0  0  0  0  0  0
  -23.4170  -28.8223   23.3050 O   0  0  0  0  0  0
  -28.4137  -26.7401   20.0399 O   0  0  0  0  0  0
  -26.5589  -34.8938   22.4694 O   0  0  0  0  0  0
  -23.5324  -32.1430   23.7500 O   0  0  0  0  0  0
  -29.5201  -18.9536   20.2929 C   0  0  0  0  0  0
  -30.7172  -18.8300   22.4009 C   0  0  0  0  0  0
  -29.5202  -17.5384   20.1893 C   0  0  0  0  0  0
  -30.1180  -16.7709   21.2275 C   0  0  0  0  0  0
  -30.0998  -19.6131   21.4057 C   0  0  0  0  0  0
  -30.7220  -17.4244   22.3204 C   0  0  0  0  0  0
  -27.8621  -17.4114   18.2970 C   0  0  0  0  0  0
  -28.8342  -16.8797   19.0574 C   0  0  0  0  0  0
  -28.8341  -24.3379   20.2979 C   0  0  0  0  0  0
  -29.3055  -23.2407   21.2790 C   0  0  0  0  0  0
  -28.5396  -25.6839   20.9944 C   0  0  0  0  0  0
  -29.4509  -21.8372   20.6540 C   0  0  0  0  0  0
  -29.9810  -15.3578   21.2869 N   0  0  0  0  0  0
  -30.0892  -20.9824   21.6051 O   0  0  0  0  0  0
  -31.2748  -16.6985   23.3230 F   0  0  0  0  0  0
  -31.4758  -12.4216   19.1049 H   0  0  0  0  0  0
  -30.3480  -11.2807   19.7775 H   0  0  0  0  0  0
  -29.7333  -11.8148   17.4043 H   0  0  0  0  0  0
  -29.6613  -13.5165   17.7814 H   0  0  0  0  0  0
  -27.8249  -11.3174   18.7918 H   0  0  0  0  0  0
  -27.3649  -12.6661   17.7882 H   0  0  0  0  0  0
  -27.7196  -14.2472   19.6103 H   0  0  0  0  0  0
  -28.6846  -11.8817   21.2911 H   0  0  0  0  0  0
  -28.4592  -13.4828   21.9024 H   0  0  0  0  0  0
  -25.2758   -9.5682   22.4750 H   0  0  0  0  0  0
  -23.9995   -7.4633   22.7468 H   0  0  0  0  0  0
  -21.0828   -8.8761   19.8954 H   0  0  0  0  0  0
  -22.3682  -10.9662   19.6155 H   0  0  0  0  0  0
  -21.1993   -7.6151   23.9714 H   0  0  0  0  0  0
  -21.1478   -6.0519   25.9073 H   0  0  0  0  0  0
  -22.0606   -2.7605   23.2838 H   0  0  0  0  0  0
  -22.4116  -11.9873   22.4757 H   0  0  0  0  0  0
  -21.1150  -13.1276   22.2619 H   0  0  0  0  0  0
  -24.6707  -15.8410   20.5113 H   0  0  0  0  0  0
  -26.2933  -15.6254   20.0926 H   0  0  0  0  0  0
  -26.7102  -32.5553   23.1179 H   0  0  0  0  0  0
  -25.0021  -33.9783   25.0464 H   0  0  0  0  0  0
  -22.6883  -31.3059   21.4080 H   0  0  0  0  0  0
  -23.3749  -35.9640   23.3293 H   0  0  0  0  0  0
  -24.3577  -36.8939   22.2057 H   0  0  0  0  0  0
  -23.7216  -37.6518   23.6655 H   0  0  0  0  0  0
  -26.0286  -31.6007   20.5841 H   0  0  0  0  0  0
  -26.8165  -30.9020   21.9708 H   0  0  0  0  0  0
  -28.1076  -29.1340   21.1454 H   0  0  0  0  0  0
  -26.0921  -25.9626   19.0372 H   0  0  0  0  0  0
  -23.9849  -27.2698   19.0614 H   0  0  0  0  0  0
  -23.7161  -30.5844   19.4017 H   0  0  0  0  0  0
  -22.7353  -29.2297   19.8743 H   0  0  0  0  0  0
  -25.1279  -36.1982   25.0842 H   0  0  0  0  0  0
  -20.9943  -28.3228   24.1452 H   0  0  0  0  0  0
  -20.5657  -26.2277   23.3604 H   0  0  0  0  0  0
  -21.6628  -26.7460   22.1216 H   0  0  0  0  0  0
  -19.6889  -25.6308   21.1233 H   0  0  0  0  0  0
  -19.6677  -27.3211   20.6751 H   0  0  0  0  0  0
  -17.4188  -26.6688   21.4023 H   0  0  0  0  0  0
  -18.0319  -26.0066   22.9012 H   0  0  0  0  0  0
  -19.7927  -30.7247   24.2306 H   0  0  0  0  0  0
  -17.5017  -31.6273   24.5165 H   0  0  0  0  0  0
  -15.5349  -30.3012   23.7641 H   0  0  0  0  0  0
  -15.8653  -28.0837   22.7066 H   0  0  0  0  0  0
  -24.5874  -30.7115   25.7822 H   0  0  0  0  0  0
  -24.9003  -32.2876   26.5001 H   0  0  0  0  0  0
  -25.8105  -30.8814   27.0199 H   0  0  0  0  0  0
  -26.2784  -29.6803   24.1165 H   0  0  0  0  0  0
  -27.4081  -29.7273   25.4513 H   0  0  0  0  0  0
  -27.8611  -30.4349   23.9176 H   0  0  0  0  0  0
  -27.2710  -33.3625   26.2025 H   0  0  0  0  0  0
  -28.3880  -32.6804   25.0289 H   0  0  0  0  0  0
  -28.0701  -31.8422   26.5393 H   0  0  0  0  0  0
  -28.2616  -38.0096   24.7508 H   0  0  0  0  0  0
  -28.1052  -36.2633   24.6299 H   0  0  0  0  0  0
  -27.2303  -37.1473   25.8876 H   0  0  0  0  0  0
  -20.9279  -29.8744   21.6957 H   0  0  0  0  0  0
  -26.0178  -38.2887   24.1410 H   0  0  0  0  0  0
  -29.0579  -19.5295   19.5064 H   0  0  0  0  0  0
  -31.1682  -19.3091   23.2574 H   0  0  0  0  0  0
  -27.4382  -16.8473   17.4778 H   0  0  0  0  0  0
  -27.4650  -18.4013   18.4665 H   0  0  0  0  0  0
  -29.1670  -15.8853   18.8021 H   0  0  0  0  0  0
  -27.9424  -24.0072   19.7643 H   0  0  0  0  0  0
  -29.6066  -24.4844   19.5423 H   0  0  0  0  0  0
  -28.6098  -23.1756   22.1162 H   0  0  0  0  0  0
  -30.2621  -23.5434   21.7070 H   0  0  0  0  0  0
  -29.3677  -25.9443   21.6549 H   0  0  0  0  0  0
  -27.6566  -25.5914   21.6308 H   0  0  0  0  0  0
  -30.0520  -21.8794   19.7448 H   0  0  0  0  0  0
  -28.4601  -21.4672   20.3877 H   0  0  0  0  0  0
  -29.1328  -15.0184   21.7118 H   0  0  0  0  0  0
  1 25  1  0  0  0
  1 30  2  0  0  0
  1 83  1  0  0  0
  2  3  1  0  0  0
  2 25  1  0  0  0
  2 86  1  0  0  0
  2 87  1  0  0  0
  3  4  1  0  0  0
  3 88  1  0  0  0
  3 89  1  0  0  0
  4  5  1  0  0  0
  4 90  1  0  0  0
  4 91  1  0  0  0
  5  6  1  0  0  0
  5 26  1  0  0  0
  5 92  1  0  0  0
  6 25  1  0  0  0
  6 93  1  0  0  0
  6 94  1  0  0  0
  7  8  2  0  0  0
  7 26  1  0  0  0
  7 29  1  0  0  0
  8  9  1  0  0  0
  8 22  1  0  0  0
  9 10  1  0  0  0
  9 27  2  0  0  0
 10 11  2  0  0  0
 10 15  1  0  0  0
 11 12  1  0  0  0
 11 95  1  0  0  0
 12 13  2  0  0  0
 12 96  1  0  0  0
 13 14  1  0  0  0
 13 31  1  0  0  0
 14 15  2  0  0  0
 14 97  1  0  0  0
 15 98  1  0  0  0
 16 17  2  0  0  0
 16 21  1  0  0  0
 16 31  1  0  0  0
 17 18  1  0  0  0
 17 99  1  0  0  0
 18 19  2  0  0  0
 18100  1  0  0  0
 19 20  1  0  0  0
 19 24  1  0  0  0
 20 21  2  0  0  0
 20101  1  0  0  0
 21 23  1  0  0  0
 22 28  1  0  0  0
 22 32  2  0  0  0
 26 27  1  0  0  0
 28102  1  0  0  0
 28103  1  0  0  0
 29104  1  0  0  0
 29105  1  0  0  0
 33 34  1  0  0  0
 33 66  1  0  0  0
 33 70  2  0  0  0
 34 36  1  0  0  0
 34 59  1  0  0  0
 34106  1  0  0  0
 35 44  2  0  0  0
 35 45  1  0  0  0
 35 68  1  0  0  0
 36 56  1  0  0  0
 36107  1  0  0  0
 37 39  1  0  0  0
 37 47  1  0  0  0
 37 66  1  0  0  0
 37108  1  0  0  0
 38 43  2  0  0  0
 38 46  1  0  0  0
 38 47  1  0  0  0
 39 64  1  0  0  0
 39 67  2  0  0  0
 40 52  1  0  0  0
 40 53  2  0  0  0
 40 58  1  0  0  0
 41109  1  0  0  0
 41110  1  0  0  0
 41111  1  0  0  0
 41 48  1  0  0  0
 42 43  1  0  0  0
 42 66  1  0  0  0
 42112  1  0  0  0
 42113  1  0  0  0
 43 44  1  0  0  0
 44114  1  0  0  0
 45 46  2  0  0  0
 45115  1  0  0  0
 46116  1  0  0  0
 47117  1  0  0  0
 47118  1  0  0  0
 48 56  1  0  0  0
 48 65  1  0  0  0
 48119  1  0  0  0
 49 50  1  0  0  0
 49 53  1  0  0  0
 49 64  1  0  0  0
 49120  1  0  0  0
 50 51  1  0  0  0
 50121  1  0  0  0
 50122  1  0  0  0
 51 52  1  0  0  0
 51123  1  0  0  0
 51124  1  0  0  0
 52125  1  0  0  0
 52126  1  0  0  0
 53 54  1  0  0  0
 54 55  2  0  0  0
 54127  1  0  0  0
 55 57  1  0  0  0
 55128  1  0  0  0
 56 69  2  0  0  0
 57 58  2  0  0  0
 57129  1  0  0  0
 58130  1  0  0  0
 59 60  1  0  0  0
 59 61  1  0  0  0
 59 62  1  0  0  0
 60131  1  0  0  0
 60132  1  0  0  0
 60133  1  0  0  0
 61134  1  0  0  0
 61135  1  0  0  0
 61136  1  0  0  0
 62137  1  0  0  0
 62138  1  0  0  0
 62139  1  0  0  0
 63 65  1  0  0  0
 63140  1  0  0  0
 63141  1  0  0  0
 63142  1  0  0  0
 64143  1  0  0  0
 65144  1  0  0  0
 68 81  1  0  0  0
 71 73  2  0  0  0
 71 75  1  0  0  0
 71145  1  0  0  0
 72 75  2  0  0  0
 72 76  1  0  0  0
 72146  1  0  0  0
 73 74  1  0  0  0
 73 78  1  0  0  0
 74 76  2  0  0  0
 74 83  1  0  0  0
 75 84  1  0  0  0
 76 85  1  0  0  0
 77 78  2  0  0  0
 77147  1  0  0  0
 77148  1  0  0  0
 78149  1  0  0  0
 79 80  1  0  0  0
 79 81  1  0  0  0
 79150  1  0  0  0
 79151  1  0  0  0
 80 82  1  0  0  0
 80152  1  0  0  0
 80153  1  0  0  0
 81154  1  0  0  0
 81155  1  0  0  0
 82 84  1  0  0  0
 82156  1  0  0  0
 82157  1  0  0  0
 83158  1  0  0  0
M  ISO  4   1 100  68 101  81 101  83 100
M  END
> <chiral flag>
0

> <version>
0

> <s_m_source_file>
/data/baiqing/PycharmProjects/Reinvent-master-3.2/result/LINK_invent/BTK/process_docking_weight1_custom_product_contain_oxygen_bond_distance_aromatic_linkinvent_7_9_3/rearranged_h_0121.sdf

> <i_m_source_file_index>
5

> <r_mmod_Potential_Energy-OPLS-2005>
-68.8254623413086

> <r_mmod_Stretch_Energy-OPLS-2005>
35.4002494812012

> <r_mmod_Bend_Energy-OPLS-2005>
97.1277542114258

> <r_mmod_Torsional_Energy-OPLS-2005>
268.467437744141

> <r_mmod_Improper_Torsional_Energy-OPLS-2005>
4.22721815109253

> <r_mmod_Van_der_Waal_Energy-OPLS-2005>
148.868850708008

> <r_mmod_Electrostatic_Energy-OPLS-2005>
-427.173278808594

> <r_mmod_Solvation_Energy-OPLS-2005>
-204.541656494141

> <b_mmod_Minimization_Converged-OPLS-2005>
0

> <r_mmod_RMS_Derivative-OPLS-2005>
1.06230878829956

$$$$
5
                    3D
 Structure written by MMmdl.
167175  0  0  1  0            999 V2000
  -28.7074  -11.8320   20.5302 C   0  0  0  0  0  0
  -29.8394  -10.9493   19.7156 C   0  0  0  0  0  0
  -29.2828  -11.7890   18.1791 C   0  0  0  0  0  0
  -28.0525  -12.9838   18.3133 C   0  0  0  0  0  0
  -27.5880  -13.7648   19.8525 C   0  0  2  0  0  0
  -28.1121  -12.8773   21.4534 C   0  0  0  0  0  0
  -25.4741  -14.5535   20.8247 C   0  0  0  0  0  0
  -24.4576  -13.7877   21.2257 C   0  0  0  0  0  0
  -24.8095  -12.7493   20.3519 C   0  0  0  0  0  0
  -24.6627  -11.6177   20.4303 C   0  0  0  0  0  0
  -24.8809  -11.4214   22.1195 C   0  0  0  0  0  0
  -24.3536  -10.0778   22.7476 C   0  0  0  0  0  0
  -23.3721   -8.5429   21.2671 C   0  0  0  0  0  0
  -23.3443   -9.0372   19.7228 C   0  0  0  0  0  0
  -23.9702  -10.5118   19.2936 C   0  0  0  0  0  0
  -21.9785   -6.2849   22.3794 C   0  0  0  0  0  0
  -21.1775   -6.5205   23.5429 C   0  0  0  0  0  0
  -21.1206   -5.6615   24.6758 C   0  0  0  0  0  0
  -21.5826   -4.3480   24.5663 C   0  0  0  0  0  0
  -21.9945   -3.9290   23.2880 C   0  0  0  0  0  0
  -22.1489   -4.8623   22.2197 C   0  0  0  0  0  0
  -23.1562  -14.0595   22.0259 C   0  0  0  0  0  0
  -22.4152   -4.3433   21.0025 F   0  0  0  0  0  0
  -21.5274   -3.4923   25.6212 F   0  0  0  0  0  0
  -29.3887  -11.6818   21.2615 N   0  0  0  0  0  0
  -26.2651  -13.7980   20.0199 N   0  0  0  0  0  0
  -25.7758  -12.7183   19.6307 N   0  0  0  0  0  0
  -22.5823  -13.1443   22.8056 N   0  0  0  0  0  0
  -25.8560  -15.8191   21.0480 N   0  0  0  0  0  0
  -29.7905  -13.0109   20.1873 O   0  0  0  0  0  0
  -22.3924   -7.3286   21.3916 O   0  0  0  0  0  0
  -22.4424  -15.0085   21.7280 O   0  0  0  0  0  0
  -24.7025  -31.7784   23.1518 C   0  0  0  0  0  0
  -25.9603  -32.4271   23.8021 C   0  0  1  0  0  0
  -26.5001  -26.2909   20.1711 C   0  0  0  0  0  0
  -25.6144  -33.8144   24.1842 N   0  0  0  0  0  0
  -23.4968  -30.4324   21.5189 C   0  0  2  0  0  0
  -24.8252  -28.7722   20.0376 C   0  0  0  0  0  0
  -22.7697  -29.4294   22.4565 C   0  0  0  0  0  0
  -18.0331  -28.1411   22.8451 C   0  0  0  0  0  0
  -24.1503  -36.7044   23.2653 C   0  0  0  0  0  0
  -26.0777  -30.3334   21.4787 C   0  0  0  0  0  0
  -25.9968  -28.8937   20.7822 C   0  0  0  0  0  0
  -26.8557  -27.6502   20.8412 C   0  0  0  0  0  0
  -25.5114  -26.5369   19.2404 C   0  0  0  0  0  0
  -24.6619  -27.6536   19.2247 C   0  0  0  0  0  0
  -23.7222  -29.8221   20.1128 C   0  0  0  0  0  0
  -25.4168  -36.2767   24.0249 C   0  0  1  0  0  0
  -20.5962  -28.3772   23.1089 C   0  0  2  0  0  0
  -20.6784  -26.9424   22.5374 C   0  0  0  0  0  0
  -19.5761  -26.6352   21.5192 C   0  0  0  0  0  0
  -18.1948  -26.7938   22.1608 C   0  0  0  0  0  0
  -19.1600  -28.8914   23.2766 C   0  0  0  0  0  0
  -18.9519  -30.1493   23.8825 C   0  0  0  0  0  0
  -17.6514  -30.6600   24.0550 C   0  0  0  0  0  0
  -25.9198  -34.9176   23.4872 C   0  0  0  0  0  0
  -16.5399  -29.9088   23.6348 C   0  0  0  0  0  0
  -16.7313  -28.6504   23.0372 C   0  0  0  0  0  0
  -26.4681  -31.6478   25.0798 C   0  0  0  0  0  0
  -25.3690  -31.3934   26.1385 C   0  0  0  0  0  0
  -27.0679  -30.2773   24.7022 C   0  0  0  0  0  0
  -27.6055  -32.4449   25.7621 C   0  0  0  0  0  0
  -27.5551  -37.1686   24.8461 C   0  0  0  0  0  0
  -21.4347  -29.3021   22.3365 N   0  0  0  0  0  0
  -26.4244  -37.3580   23.9416 N   0  0  0  0  0  0
  -24.7951  -30.8973   22.0936 N   0  0  0  0  0  0
  -23.4149  -28.7793   23.2838 O   0  0  0  0  0  0
  -26.7741  -24.7164   20.2627 O   0  0  0  0  0  0
  -26.5823  -34.8793   22.4482 O   0  0  0  0  0  0
  -23.6061  -32.1112   23.6373 O   0  0  0  0  0  0
  -24.3657   -7.7984   23.3098 C   0  0  0  0  0  0
  -22.0199   -9.9021   22.6729 C   0  0  0  0  0  0
  -22.8021   -8.6216   23.6354 C   0  0  0  0  0  0
  -25.5862   -8.1993   22.0711 C   0  0  0  0  0  0
  -25.4370   -9.5528   20.9229 C   0  0  0  0  0  0
  -22.8192  -10.7065   21.2998 C   0  0  0  0  0  0
  -23.7091  -17.3076   19.8994 C   0  0  0  0  0  0
  -23.2820  -15.8197   19.3402 C   0  0  0  0  0  0
  -22.3766   -8.5920   25.1016 C   0  0  0  0  0  0
  -26.9968   -6.7197   20.6292 C   0  0  0  0  0  0
  -26.8451   -7.3648   22.0141 C   0  0  0  0  0  0
  -24.3589  -19.2015   19.5060 C   0  0  0  0  0  0
  -22.5702  -13.8554   19.4279 C   0  0  0  0  0  0
  -25.3158  -21.0170   20.1598 C   0  0  0  0  0  0
  -25.7942  -23.0961   19.8438 C   0  0  0  0  0  0
  -27.1879  -10.7093   20.4190 N   0  0  0  0  0  0
  -22.2647  -12.1985   20.5012 O   0  0  0  0  0  0
  -30.9349  -10.9033   19.6825 H   0  0  0  0  0  0
  -29.6032   -9.8700   19.6579 H   0  0  0  0  0  0
  -28.9779  -11.0345   17.4514 H   0  0  0  0  0  0
  -30.1540  -12.2613   17.7214 H   0  0  0  0  0  0
  -27.2020  -12.6009   17.7482 H   0  0  0  0  0  0
  -28.3706  -13.8064   17.6720 H   0  0  0  0  0  0
  -27.9684  -14.7872   19.8558 H   0  0  0  0  0  0
  -27.2667  -12.5886   22.1095 H   0  0  0  0  0  0
  -28.5013  -13.6718   22.1114 H   0  0  0  0  0  0
  -25.3079  -12.1549   22.7892 H   0  0  0  0  0  0
  -24.5058  -10.0928   23.8284 H   0  0  0  0  0  0
  -22.8540   -8.4272   18.9769 H   0  0  0  0  0  0
  -23.8524  -10.8423   18.2725 H   0  0  0  0  0  0
  -20.6556   -7.4619   23.6136 H   0  0  0  0  0  0
  -20.6356   -5.9871   25.5852 H   0  0  0  0  0  0
  -22.2124   -2.8846   23.1191 H   0  0  0  0  0  0
  -23.0252  -12.2497   22.9520 H   0  0  0  0  0  0
  -21.6547  -13.3120   23.1690 H   0  0  0  0  0  0
  -25.2972  -16.4743   21.5776 H   0  0  0  0  0  0
  -26.6537  -16.2568   20.6061 H   0  0  0  0  0  0
  -26.7653  -32.4498   23.0665 H   0  0  0  0  0  0
  -25.0228  -33.9175   24.9956 H   0  0  0  0  0  0
  -22.8387  -31.2928   21.3801 H   0  0  0  0  0  0
  -23.3802  -35.9332   23.3216 H   0  0  0  0  0  0
  -24.3562  -36.8831   22.2088 H   0  0  0  0  0  0
  -23.7227  -37.6164   23.6827 H   0  0  0  0  0  0
  -26.3935  -31.0434   20.7127 H   0  0  0  0  0  0
  -26.9032  -30.3064   22.1746 H   0  0  0  0  0  0
  -27.6788  -27.6612   21.5418 H   0  0  0  0  0  0
  -25.2102  -25.7114   18.6117 H   0  0  0  0  0  0
  -23.7993  -27.6077   18.5743 H   0  0  0  0  0  0
  -23.9817  -30.6187   19.4145 H   0  0  0  0  0  0
  -22.7891  -29.4010   19.7355 H   0  0  0  0  0  0
  -25.1385  -36.1468   25.0736 H   0  0  0  0  0  0
  -21.0094  -28.3415   24.1196 H   0  0  0  0  0  0
  -20.5617  -26.2412   23.3649 H   0  0  0  0  0  0
  -21.6644  -26.7328   22.1207 H   0  0  0  0  0  0
  -19.6905  -25.6236   21.1281 H   0  0  0  0  0  0
  -19.6699  -27.3113   20.6682 H   0  0  0  0  0  0
  -17.4205  -26.6682   21.4020 H   0  0  0  0  0  0
  -18.0339  -26.0096   22.9022 H   0  0  0  0  0  0
  -19.8003  -30.7315   24.2161 H   0  0  0  0  0  0
  -17.5076  -31.6274   24.5166 H   0  0  0  0  0  0
  -15.5400  -30.2978   23.7713 H   0  0  0  0  0  0
  -15.8705  -28.0802   22.7137 H   0  0  0  0  0  0
  -24.5886  -30.7245   25.7744 H   0  0  0  0  0  0
  -24.8885  -32.3213   26.4497 H   0  0  0  0  0  0
  -25.7824  -30.9333   27.0370 H   0  0  0  0  0  0
  -26.3385  -29.6157   24.2339 H   0  0  0  0  0  0
  -27.4230  -29.7512   25.5895 H   0  0  0  0  0  0
  -27.9354  -30.3790   24.0498 H   0  0  0  0  0  0
  -27.2520  -33.3842   26.1884 H   0  0  0  0  0  0
  -28.4026  -32.6869   25.0585 H   0  0  0  0  0  0
  -28.0556  -31.8836   26.5820 H   0  0  0  0  0  0
  -28.2471  -38.0069   24.7546 H   0  0  0  0  0  0
  -28.1140  -36.2582   24.6233 H   0  0  0  0  0  0
  -27.2275  -37.1246   25.8864 H   0  0  0  0  0  0
  -20.9594  -29.8822   21.6589 H   0  0  0  0  0  0
  -26.0018  -38.2591   24.1481 H   0  0  0  0  0  0
  -24.6633   -7.0453   24.0250 H   0  0  0  0  0  0
  -21.1027  -10.3356   23.0432 H   0  0  0  0  0  0
  -23.5246  -17.3083   20.9630 H   0  0  0  0  0  0
  -23.4475  -15.9029   18.2756 H   0  0  0  0  0  0
  -22.6920   -7.6711   25.5923 H   0  0  0  0  0  0
  -21.3030   -8.7248   25.2247 H   0  0  0  0  0  0
  -22.8506   -9.4189   25.6298 H   0  0  0  0  0  0
  -27.8795   -6.0806   20.5798 H   0  0  0  0  0  0
  -27.0935   -7.4786   19.8519 H   0  0  0  0  0  0
  -26.1270   -6.1059   20.3860 H   0  0  0  0  0  0
  -26.7913   -6.5892   22.7803 H   0  0  0  0  0  0
  -27.7062   -7.9922   22.2469 H   0  0  0  0  0  0
  -23.3878  -19.6159   19.2331 H   0  0  0  0  0  0
  -24.8368  -19.0360   18.5400 H   0  0  0  0  0  0
  -22.9971  -13.4410   18.5145 H   0  0  0  0  0  0
  -21.5381  -14.0502   19.1322 H   0  0  0  0  0  0
  -26.3178  -20.6304   20.3411 H   0  0  0  0  0  0
  -24.8925  -21.0942   21.1612 H   0  0  0  0  0  0
  -24.7928  -23.5235   19.8748 H   0  0  0  0  0  0
  -26.0214  -23.0685   18.7770 H   0  0  0  0  0  0
  -26.8050  -11.2424   19.6398 H   0  0  0  0  0  0
  1 25  1  0  0  0
  1 30  2  0  0  0
  1 86  1  0  0  0
  2  3  1  0  0  0
  2 25  1  0  0  0
  2 88  1  0  0  0
  2 89  1  0  0  0
  3  4  1  0  0  0
  3 90  1  0  0  0
  3 91  1  0  0  0
  4  5  1  0  0  0
  4 92  1  0  0  0
  4 93  1  0  0  0
  5  6  1  0  0  0
  5 26  1  0  0  0
  5 94  1  0  0  0
  6 25  1  0  0  0
  6 95  1  0  0  0
  6 96  1  0  0  0
  7  8  2  0  0  0
  7 26  1  0  0  0
  7 29  1  0  0  0
  8  9  1  0  0  0
  8 22  1  0  0  0
  9 10  1  0  0  0
  9 27  2  0  0  0
 10 11  2  0  0  0
 10 15  1  0  0  0
 11 12  1  0  0  0
 11 97  1  0  0  0
 12 13  2  0  0  0
 12 98  1  0  0  0
 13 14  1  0  0  0
 13 31  1  0  0  0
 14 15  2  0  0  0
 14 99  1  0  0  0
 15100  1  0  0  0
 16 17  2  0  0  0
 16 21  1  0  0  0
 16 31  1  0  0  0
 17 18  1  0  0  0
 17101  1  0  0  0
 18 19  2  0  0  0
 18102  1  0  0  0
 19 20  1  0  0  0
 19 24  1  0  0  0
 20 21  2  0  0  0
 20103  1  0  0  0
 21 23  1  0  0  0
 22 28  1  0  0  0
 22 32  2  0  0  0
 26 27  1  0  0  0
 28104  1  0  0  0
 28105  1  0  0  0
 29106  1  0  0  0
 29107  1  0  0  0
 33 34  1  0  0  0
 33 66  1  0  0  0
 33 70  2  0  0  0
 34 36  1  0  0  0
 34 59  1  0  0  0
 34108  1  0  0  0
 35 44  2  0  0  0
 35 45  1  0  0  0
 35 68  1  0  0  0
 36 56  1  0  0  0
 36109  1  0  0  0
 37 39  1  0  0  0
 37 47  1  0  0  0
 37 66  1  0  0  0
 37110  1  0  0  0
 38 43  2  0  0  0
 38 46  1  0  0  0
 38 47  1  0  0  0
 39 64  1  0  0  0
 39 67  2  0  0  0
 40 52  1  0  0  0
 40 53  2  0  0  0
 40 58  1  0  0  0
 41111  1  0  0  0
 41112  1  0  0  0
 41113  1  0  0  0
 41 48  1  0  0  0
 42 43  1  0  0  0
 42 66  1  0  0  0
 42114  1  0  0  0
 42115  1  0  0  0
 43 44  1  0  0  0
 44116  1  0  0  0
 45 46  2  0  0  0
 45117  1  0  0  0
 46118  1  0  0  0
 47119  1  0  0  0
 47120  1  0  0  0
 48 56  1  0  0  0
 48 65  1  0  0  0
 48121  1  0  0  0
 49 50  1  0  0  0
 49 53  1  0  0  0
 49 64  1  0  0  0
 49122  1  0  0  0
 50 51  1  0  0  0
 50123  1  0  0  0
 50124  1  0  0  0
 51 52  1  0  0  0
 51125  1  0  0  0
 51126  1  0  0  0
 52127  1  0  0  0
 52128  1  0  0  0
 53 54  1  0  0  0
 54 55  2  0  0  0
 54129  1  0  0  0
 55 57  1  0  0  0
 55130  1  0  0  0
 56 69  2  0  0  0
 57 58  2  0  0  0
 57131  1  0  0  0
 58132  1  0  0  0
 59 60  1  0  0  0
 59 61  1  0  0  0
 59 62  1  0  0  0
 60133  1  0  0  0
 60134  1  0  0  0
 60135  1  0  0  0
 61136  1  0  0  0
 61137  1  0  0  0
 61138  1  0  0  0
 62139  1  0  0  0
 62140  1  0  0  0
 62141  1  0  0  0
 63 65  1  0  0  0
 63142  1  0  0  0
 63143  1  0  0  0
 63144  1  0  0  0
 64145  1  0  0  0
 65146  1  0  0  0
 68 85  1  0  0  0
 71 73  2  0  0  0
 71 74  1  0  0  0
 71147  1  0  0  0
 72 73  1  0  0  0
 72 76  2  0  0  0
 72148  1  0  0  0
 73 79  1  0  0  0
 74 75  2  0  0  0
 74 81  1  0  0  0
 75 76  1  0  0  0
 75 86  1  0  0  0
 76 87  1  0  0  0
 77 78  2  0  0  0
 77 82  1  0  0  0
 77149  1  0  0  0
 78 83  1  0  0  0
 78150  1  0  0  0
 79151  1  0  0  0
 79152  1  0  0  0
 79153  1  0  0  0
 80 81  1  0  0  0
 80154  1  0  0  0
 80155  1  0  0  0
 80156  1  0  0  0
 81157  1  0  0  0
 81158  1  0  0  0
 82 84  1  0  0  0
 82159  1  0  0  0
 82160  1  0  0  0
 83 87  1  0  0  0
 83161  1  0  0  0
 83162  1  0  0  0
 84 85  1  0  0  0
 84163  1  0  0  0
 84164  1  0  0  0
 85165  1  0  0  0
 85166  1  0  0  0
 86167  1  0  0  0
M  ISO  4   1 100  68 101  85 101  86 100
M  END
> <chiral flag>
0

> <version>
0

> <s_m_source_file>
/data/baiqing/PycharmProjects/Reinvent-master-3.2/result/LINK_invent/BTK/process_docking_weight1_custom_product_contain_oxygen_bond_distance_aromatic_linkinvent_7_9_3/rearranged_h_0121.sdf

> <i_m_source_file_index>
6

> <r_mmod_Potential_Energy-OPLS-2005>
28917.9453125

> <r_mmod_Stretch_Energy-OPLS-2005>
14634.71875

> <r_mmod_Bend_Energy-OPLS-2005>
2607.6904296875

> <r_mmod_Torsional_Energy-OPLS-2005>
566.840576171875

> <r_mmod_Improper_Torsional_Energy-OPLS-2005>
57.0233383178711

> <r_mmod_Van_der_Waal_Energy-OPLS-2005>
5117.0341796875

> <r_mmod_Electrostatic_Energy-OPLS-2005>
-421.860473632812

> <r_mmod_Solvation_Energy-OPLS-2005>
-196.133026123047

> <b_mmod_Minimization_Converged-OPLS-2005>
0

> <r_mmod_RMS_Derivative-OPLS-2005>
6.93999338150024

$$$$
6
                    3D
 Structure written by MMmdl.
159167  0  0  1  0            999 V2000
  -30.7708  -14.3982   20.5264 C   0  0  0  0  0  0
  -30.3873  -12.2400   19.4396 C   0  0  0  0  0  0
  -29.4940  -12.4917   18.2094 C   0  0  0  0  0  0
  -28.0067  -12.3957   18.6026 C   0  0  0  0  0  0
  -27.6607  -13.2208   19.8747 C   0  0  2  0  0  0
  -28.6986  -13.0057   20.9975 C   0  0  0  0  0  0
  -25.2583  -13.8193   20.5704 C   0  0  0  0  0  0
  -24.1848  -13.0440   20.9160 C   0  0  0  0  0  0
  -24.6431  -11.6914   20.8715 C   0  0  0  0  0  0
  -23.9099  -10.4297   21.0400 C   0  0  0  0  0  0
  -24.3640   -9.4218   21.9177 C   0  0  0  0  0  0
  -23.6321   -8.2255   22.0774 C   0  0  0  0  0  0
  -22.4305   -8.0295   21.3561 C   0  0  0  0  0  0
  -21.9936   -9.0252   20.4644 C   0  0  0  0  0  0
  -22.7266  -10.2132   20.3052 C   0  0  0  0  0  0
  -21.6866   -6.0751   22.5285 C   0  0  0  0  0  0
  -21.4026   -6.5649   23.8214 C   0  0  0  0  0  0
  -21.3658   -5.6797   24.9174 C   0  0  0  0  0  0
  -21.6046   -4.3061   24.7228 C   0  0  0  0  0  0
  -21.8816   -3.8162   23.4348 C   0  0  0  0  0  0
  -21.9202   -4.6979   22.3405 C   0  0  0  0  0  0
  -22.7867  -13.5226   21.1824 C   0  0  0  0  0  0
  -22.1662   -4.2159   21.0987 F   0  0  0  0  0  0
  -21.5633   -3.4547   25.7742 F   0  0  0  0  0  0
  -30.0358  -13.2568   20.4447 N   0  0  0  0  0  0
  -26.3039  -12.9397   20.3377 N   0  0  0  0  0  0
  -25.9360  -11.6531   20.5744 N   0  0  0  0  0  0
  -22.0513  -12.8204   22.0365 N   0  0  0  0  0  0
  -25.4296  -15.1914   20.4161 N   0  0  0  0  0  0
  -31.9238  -14.4419   20.0914 O   0  0  0  0  0  0
  -21.6662   -6.8891   21.4243 O   0  0  0  0  0  0
  -22.3532  -14.5527   20.6676 O   0  0  0  0  0  0
  -24.6157  -31.8703   23.2133 C   0  0  0  0  0  0
  -25.9071  -32.4829   23.8421 C   0  0  1  0  0  0
  -27.2243  -27.4739   20.0765 C   0  0  0  0  0  0
  -25.5924  -33.8620   24.2362 N   0  0  0  0  0  0
  -23.3994  -30.5023   21.5503 C   0  0  2  0  0  0
  -24.8371  -28.9741   20.1115 C   0  0  0  0  0  0
  -22.7400  -29.4723   22.4952 C   0  0  0  0  0  0
  -18.0291  -28.1421   22.8478 C   0  0  0  0  0  0
  -24.1468  -36.7343   23.2626 C   0  0  0  0  0  0
  -25.9221  -30.8544   21.3514 C   0  0  0  0  0  0
  -25.9965  -29.4900   20.7021 C   0  0  0  0  0  0
  -27.1946  -28.7475   20.6787 C   0  0  0  0  0  0
  -26.0474  -26.9665   19.4770 C   0  0  0  0  0  0
  -24.8555  -27.7118   19.4950 C   0  0  0  0  0  0
  -23.6027  -29.8414   20.1615 C   0  0  0  0  0  0
  -25.4079  -36.3115   24.0340 C   0  0  1  0  0  0
  -20.5879  -28.3723   23.1293 C   0  0  2  0  0  0
  -20.6786  -26.9464   22.5397 C   0  0  0  0  0  0
  -19.5763  -26.6419   21.5205 C   0  0  0  0  0  0
  -18.1941  -26.7970   22.1608 C   0  0  0  0  0  0
  -19.1536  -28.8884   23.2895 C   0  0  0  0  0  0
  -18.9455  -30.1482   23.8922 C   0  0  0  0  0  0
  -17.6455  -30.6613   24.0589 C   0  0  0  0  0  0
  -25.9024  -34.9481   23.5142 C   0  0  0  0  0  0
  -16.5353  -29.9125   23.6319 C   0  0  0  0  0  0
  -16.7277  -28.6550   23.0324 C   0  0  0  0  0  0
  -26.4503  -31.6583   25.0733 C   0  0  0  0  0  0
  -25.3770  -31.3638   26.1471 C   0  0  0  0  0  0
  -27.0371  -30.3053   24.6068 C   0  0  0  0  0  0
  -27.6084  -32.4262   25.7533 C   0  0  0  0  0  0
  -27.5587  -37.1801   24.8437 C   0  0  0  0  0  0
  -21.4132  -29.3091   22.3681 N   0  0  0  0  0  0
  -26.4257  -37.3812   23.9446 N   0  0  0  0  0  0
  -24.6653  -31.0876   22.0994 N   0  0  0  0  0  0
  -23.4177  -28.8247   23.2976 O   0  0  0  0  0  0
  -28.4097  -26.7804   20.0889 O   0  0  0  0  0  0
  -26.5567  -34.8928   22.4691 O   0  0  0  0  0  0
  -23.5360  -32.1426   23.7562 O   0  0  0  0  0  0
  -29.2687  -18.6200   21.5820 C   0  0  0  0  0  0
  -31.1322  -19.1128   20.1039 C   0  0  0  0  0  0
  -30.2875  -18.1707   20.7187 C   0  0  0  0  0  0
  -29.9559  -20.9494   21.1929 C   0  0  0  0  0  0
  -29.1014  -20.0044   21.8198 C   0  0  0  0  0  0
  -30.9898  -20.4886   20.3396 C   0  0  0  0  0  0
  -30.6054  -16.7666   20.4517 C   0  0  0  0  0  0
  -29.7712  -22.3917   21.4309 C   0  0  0  0  0  0
  -30.1138  -15.6209   20.9766 C   0  0  0  0  0  0
  -29.6682  -23.2937   20.4410 C   0  0  0  0  0  0
  -28.0014  -20.4673   22.7603 C   0  0  0  0  0  0
  -32.0063  -21.4243   19.6973 C   0  0  0  0  0  0
  -29.5834  -24.7885   20.6249 C   0  0  0  0  0  0
  -28.3360  -25.3682   19.9638 C   0  0  0  0  0  0
  -31.4403  -12.2525   19.1545 H   0  0  0  0  0  0
  -30.2119  -11.2410   19.8417 H   0  0  0  0  0  0
  -29.7190  -11.7693   17.4229 H   0  0  0  0  0  0
  -29.7077  -13.4773   17.7932 H   0  0  0  0  0  0
  -27.7742  -11.3424   18.7626 H   0  0  0  0  0  0
  -27.3827  -12.7193   17.7702 H   0  0  0  0  0  0
  -27.7062  -14.2726   19.5902 H   0  0  0  0  0  0
  -28.6468  -11.9788   21.3647 H   0  0  0  0  0  0
  -28.4834  -13.6313   21.8625 H   0  0  0  0  0  0
  -25.2788   -9.5688   22.4738 H   0  0  0  0  0  0
  -24.0027   -7.4661   22.7520 H   0  0  0  0  0  0
  -21.0870   -8.8767   19.8952 H   0  0  0  0  0  0
  -22.3734  -10.9664   19.6159 H   0  0  0  0  0  0
  -21.1994   -7.6152   23.9707 H   0  0  0  0  0  0
  -21.1492   -6.0541   25.9072 H   0  0  0  0  0  0
  -22.0588   -2.7622   23.2858 H   0  0  0  0  0  0
  -22.4162  -11.9866   22.4730 H   0  0  0  0  0  0
  -21.1109  -13.1191   22.2548 H   0  0  0  0  0  0
  -24.6686  -15.8504   20.5377 H   0  0  0  0  0  0
  -26.2940  -15.6327   20.1254 H   0  0  0  0  0  0
  -26.7164  -32.5571   23.1210 H   0  0  0  0  0  0
  -25.0102  -33.9769   25.0528 H   0  0  0  0  0  0
  -22.6902  -31.3212   21.4152 H   0  0  0  0  0  0
  -23.3738  -35.9662   23.3187 H   0  0  0  0  0  0
  -24.3600  -36.9064   22.2068 H   0  0  0  0  0  0
  -23.7179  -37.6501   23.6704 H   0  0  0  0  0  0
  -26.0151  -31.6170   20.5764 H   0  0  0  0  0  0
  -26.8190  -30.9199   21.9546 H   0  0  0  0  0  0
  -28.0955  -29.1478   21.1229 H   0  0  0  0  0  0
  -26.0349  -26.0081   18.9790 H   0  0  0  0  0  0
  -23.9663  -27.3189   19.0222 H   0  0  0  0  0  0
  -23.7177  -30.6197   19.4061 H   0  0  0  0  0  0
  -22.7246  -29.2685   19.8594 H   0  0  0  0  0  0
  -25.1228  -36.1978   25.0827 H   0  0  0  0  0  0
  -20.9999  -28.3321   24.1403 H   0  0  0  0  0  0
  -20.5729  -26.2347   23.3596 H   0  0  0  0  0  0
  -21.6660  -26.7524   22.1183 H   0  0  0  0  0  0
  -19.6939  -25.6321   21.1256 H   0  0  0  0  0  0
  -19.6709  -27.3216   20.6723 H   0  0  0  0  0  0
  -17.4215  -26.6729   21.4005 H   0  0  0  0  0  0
  -18.0336  -26.0123   22.9008 H   0  0  0  0  0  0
  -19.7928  -30.7303   24.2304 H   0  0  0  0  0  0
  -17.5007  -31.6291   24.5199 H   0  0  0  0  0  0
  -15.5358  -30.3040   23.7620 H   0  0  0  0  0  0
  -15.8681  -28.0895   22.6990 H   0  0  0  0  0  0
  -24.5978  -30.6954   25.7780 H   0  0  0  0  0  0
  -24.8930  -32.2774   26.4930 H   0  0  0  0  0  0
  -25.8135  -30.8800   27.0219 H   0  0  0  0  0  0
  -26.2935  -29.6776   24.1144 H   0  0  0  0  0  0
  -27.4216  -29.7303   25.4501 H   0  0  0  0  0  0
  -27.8710  -30.4413   23.9177 H   0  0  0  0  0  0
  -27.2740  -33.3555   26.2147 H   0  0  0  0  0  0
  -28.3931  -32.6799   25.0394 H   0  0  0  0  0  0
  -28.0720  -31.8341   26.5435 H   0  0  0  0  0  0
  -28.2485  -38.0212   24.7643 H   0  0  0  0  0  0
  -28.1200  -36.2757   24.6041 H   0  0  0  0  0  0
  -27.2352  -37.1191   25.8840 H   0  0  0  0  0  0
  -20.9287  -29.8827   21.6913 H   0  0  0  0  0  0
  -26.0137  -38.2867   24.1529 H   0  0  0  0  0  0
  -28.6209  -17.9043   22.0679 H   0  0  0  0  0  0
  -31.9318  -18.7770   19.4572 H   0  0  0  0  0  0
  -31.3822  -16.6754   19.7030 H   0  0  0  0  0  0
  -29.7629  -22.7168   22.4634 H   0  0  0  0  0  0
  -29.3141  -15.6249   21.6990 H   0  0  0  0  0  0
  -29.6542  -22.9531   19.4156 H   0  0  0  0  0  0
  -27.3506  -19.6443   23.0540 H   0  0  0  0  0  0
  -27.3819  -21.2291   22.2862 H   0  0  0  0  0  0
  -28.4351  -20.8925   23.6659 H   0  0  0  0  0  0
  -32.8924  -20.8823   19.3652 H   0  0  0  0  0  0
  -32.3416  -22.1838   20.4045 H   0  0  0  0  0  0
  -31.5816  -21.9192   18.8245 H   0  0  0  0  0  0
  -30.4745  -25.2285   20.1757 H   0  0  0  0  0  0
  -29.5984  -25.0407   21.6859 H   0  0  0  0  0  0
  -27.4563  -24.9607   20.4663 H   0  0  0  0  0  0
  -28.2846  -25.0943   18.9085 H   0  0  0  0  0  0
  1 25  1  0  0  0
  1 30  2  0  0  0
  1 79  1  0  0  0
  2  3  1  0  0  0
  2 25  1  0  0  0
  2 85  1  0  0  0
  2 86  1  0  0  0
  3  4  1  0  0  0
  3 87  1  0  0  0
  3 88  1  0  0  0
  4  5  1  0  0  0
  4 89  1  0  0  0
  4 90  1  0  0  0
  5  6  1  0  0  0
  5 26  1  0  0  0
  5 91  1  0  0  0
  6 25  1  0  0  0
  6 92  1  0  0  0
  6 93  1  0  0  0
  7  8  2  0  0  0
  7 26  1  0  0  0
  7 29  1  0  0  0
  8  9  1  0  0  0
  8 22  1  0  0  0
  9 10  1  0  0  0
  9 27  2  0  0  0
 10 11  2  0  0  0
 10 15  1  0  0  0
 11 12  1  0  0  0
 11 94  1  0  0  0
 12 13  2  0  0  0
 12 95  1  0  0  0
 13 14  1  0  0  0
 13 31  1  0  0  0
 14 15  2  0  0  0
 14 96  1  0  0  0
 15 97  1  0  0  0
 16 17  2  0  0  0
 16 21  1  0  0  0
 16 31  1  0  0  0
 17 18  1  0  0  0
 17 98  1  0  0  0
 18 19  2  0  0  0
 18 99  1  0  0  0
 19 20  1  0  0  0
 19 24  1  0  0  0
 20 21  2  0  0  0
 20100  1  0  0  0
 21 23  1  0  0  0
 22 28  1  0  0  0
 22 32  2  0  0  0
 26 27  1  0  0  0
 28101  1  0  0  0
 28102  1  0  0  0
 29103  1  0  0  0
 29104  1  0  0  0
 33 34  1  0  0  0
 33 66  1  0  0  0
 33 70  2  0  0  0
 34 36  1  0  0  0
 34 59  1  0  0  0
 34105  1  0  0  0
 35 44  2  0  0  0
 35 45  1  0  0  0
 35 68  1  0  0  0
 36 56  1  0  0  0
 36106  1  0  0  0
 37 39  1  0  0  0
 37 47  1  0  0  0
 37 66  1  0  0  0
 37107  1  0  0  0
 38 43  2  0  0  0
 38 46  1  0  0  0
 38 47  1  0  0  0
 39 64  1  0  0  0
 39 67  2  0  0  0
 40 52  1  0  0  0
 40 53  2  0  0  0
 40 58  1  0  0  0
 41108  1  0  0  0
 41109  1  0  0  0
 41110  1  0  0  0
 41 48  1  0  0  0
 42 43  1  0  0  0
 42 66  1  0  0  0
 42111  1  0  0  0
 42112  1  0  0  0
 43 44  1  0  0  0
 44113  1  0  0  0
 45 46  2  0  0  0
 45114  1  0  0  0
 46115  1  0  0  0
 47116  1  0  0  0
 47117  1  0  0  0
 48 56  1  0  0  0
 48 65  1  0  0  0
 48118  1  0  0  0
 49 50  1  0  0  0
 49 53  1  0  0  0
 49 64  1  0  0  0
 49119  1  0  0  0
 50 51  1  0  0  0
 50120  1  0  0  0
 50121  1  0  0  0
 51 52  1  0  0  0
 51122  1  0  0  0
 51123  1  0  0  0
 52124  1  0  0  0
 52125  1  0  0  0
 53 54  1  0  0  0
 54 55  2  0  0  0
 54126  1  0  0  0
 55 57  1  0  0  0
 55127  1  0  0  0
 56 69  2  0  0  0
 57 58  2  0  0  0
 57128  1  0  0  0
 58129  1  0  0  0
 59 60  1  0  0  0
 59 61  1  0  0  0
 59 62  1  0  0  0
 60130  1  0  0  0
 60131  1  0  0  0
 60132  1  0  0  0
 61133  1  0  0  0
 61134  1  0  0  0
 61135  1  0  0  0
 62136  1  0  0  0
 62137  1  0  0  0
 62138  1  0  0  0
 63 65  1  0  0  0
 63139  1  0  0  0
 63140  1  0  0  0
 63141  1  0  0  0
 64142  1  0  0  0
 65143  1  0  0  0
 68 84  1  0  0  0
 71 73  2  0  0  0
 71 75  1  0  0  0
 71144  1  0  0  0
 72 73  1  0  0  0
 72 76  2  0  0  0
 72145  1  0  0  0
 73 77  1  0  0  0
 74 75  2  0  0  0
 74 76  1  0  0  0
 74 78  1  0  0  0
 75 81  1  0  0  0
 76 82  1  0  0  0
 77 79  2  0  0  0
 77146  1  0  0  0
 78 80  2  0  0  0
 78147  1  0  0  0
 79148  1  0  0  0
 80 83  1  0  0  0
 80149  1  0  0  0
 81150  1  0  0  0
 81151  1  0  0  0
 81152  1  0  0  0
 82153  1  0  0  0
 82154  1  0  0  0
 82155  1  0  0  0
 83 84  1  0  0  0
 83156  1  0  0  0
 83157  1  0  0  0
 84158  1  0  0  0
 84159  1  0  0  0
M  ISO  4   1 100  68 101  79 100  84 101
M  END
> <chiral flag>
0

> <version>
0

> <s_m_source_file>
/data/baiqing/PycharmProjects/Reinvent-master-3.2/result/LINK_invent/BTK/process_docking_weight1_custom_product_contain_oxygen_bond_distance_aromatic_linkinvent_7_9_3/rearranged_h_0121.sdf

> <i_m_source_file_index>
7

> <r_mmod_Potential_Energy-OPLS-2005>
-3.63558554649353

> <r_mmod_Stretch_Energy-OPLS-2005>
32.0889282226562

> <r_mmod_Bend_Energy-OPLS-2005>
106.738075256348

> <r_mmod_Torsional_Energy-OPLS-2005>
197.601745605469

> <r_mmod_Improper_Torsional_Energy-OPLS-2005>
4.12355613708496

> <r_mmod_Van_der_Waal_Energy-OPLS-2005>
176.314407348633

> <r_mmod_Electrostatic_Energy-OPLS-2005>
-350.606781005859

> <r_mmod_Solvation_Energy-OPLS-2005>
-187.964141845703

> <b_mmod_Minimization_Converged-OPLS-2005>
0

> <r_mmod_RMS_Derivative-OPLS-2005>
2.51840567588806

$$$$
7
                    3D
 Structure written by MMmdl.
159167  0  0  1  0            999 V2000
  -30.5494  -14.5830   20.5969 C   0  0  0  0  0  0
  -30.4619  -12.3846   19.4207 C   0  0  0  0  0  0
  -29.5032  -12.5311   18.2140 C   0  0  0  0  0  0
  -28.0225  -12.3482   18.6170 C   0  0  0  0  0  0
  -27.6634  -13.1638   19.8838 C   0  0  2  0  0  0
  -28.7078  -12.8661   20.9857 C   0  0  0  0  0  0
  -25.2659  -13.8087   20.5654 C   0  0  0  0  0  0
  -24.1815  -13.0457   20.9159 C   0  0  0  0  0  0
  -24.6282  -11.6893   20.8721 C   0  0  0  0  0  0
  -23.8928  -10.4315   21.0436 C   0  0  0  0  0  0
  -24.3510   -9.4241   21.9215 C   0  0  0  0  0  0
  -23.6216   -8.2253   22.0779 C   0  0  0  0  0  0
  -22.4217   -8.0249   21.3553 C   0  0  0  0  0  0
  -21.9812   -9.0229   20.4680 C   0  0  0  0  0  0
  -22.7104  -10.2135   20.3086 C   0  0  0  0  0  0
  -21.6833   -6.0679   22.5268 C   0  0  0  0  0  0
  -21.3995   -6.5603   23.8189 C   0  0  0  0  0  0
  -21.3640   -5.6779   24.9174 C   0  0  0  0  0  0
  -21.6061   -4.3037   24.7244 C   0  0  0  0  0  0
  -21.8844   -3.8100   23.4373 C   0  0  0  0  0  0
  -21.9204   -4.6907   22.3414 C   0  0  0  0  0  0
  -22.7862  -13.5349   21.1861 C   0  0  0  0  0  0
  -22.1657   -4.2090   21.0975 F   0  0  0  0  0  0
  -21.5658   -3.4526   25.7763 F   0  0  0  0  0  0
  -30.0160  -13.3196   20.4699 N   0  0  0  0  0  0
  -26.3008  -12.9124   20.3369 N   0  0  0  0  0  0
  -25.9188  -11.6354   20.5739 N   0  0  0  0  0  0
  -22.0450  -12.8332   22.0384 N   0  0  0  0  0  0
  -25.4702  -15.1759   20.4052 N   0  0  0  0  0  0
  -31.6746  -14.8419   20.1531 O   0  0  0  0  0  0
  -21.6606   -6.8820   21.4229 O   0  0  0  0  0  0
  -22.3596  -14.5713   20.6785 O   0  0  0  0  0  0
  -24.6184  -31.8628   23.2124 C   0  0  0  0  0  0
  -25.9049  -32.4806   23.8444 C   0  0  1  0  0  0
  -27.2505  -27.4076   20.1152 C   0  0  0  0  0  0
  -25.5862  -33.8605   24.2359 N   0  0  0  0  0  0
  -23.4095  -30.4809   21.5554 C   0  0  2  0  0  0
  -24.8604  -28.9426   20.1221 C   0  0  0  0  0  0
  -22.7425  -29.4567   22.5026 C   0  0  0  0  0  0
  -18.0231  -28.1374   22.8508 C   0  0  0  0  0  0
  -24.1437  -36.7279   23.2639 C   0  0  0  0  0  0
  -25.9361  -30.8295   21.3603 C   0  0  0  0  0  0
  -26.0227  -29.4562   20.7139 C   0  0  0  0  0  0
  -27.2207  -28.7012   20.7009 C   0  0  0  0  0  0
  -26.0703  -26.9131   19.5198 C   0  0  0  0  0  0
  -24.8812  -27.6727   19.5182 C   0  0  0  0  0  0
  -23.6194  -29.8119   20.1716 C   0  0  0  0  0  0
  -25.4068  -36.3096   24.0343 C   0  0  1  0  0  0
  -20.5826  -28.3606   23.1355 C   0  0  2  0  0  0
  -20.6689  -26.9348   22.5431 C   0  0  0  0  0  0
  -19.5664  -26.6385   21.5221 C   0  0  0  0  0  0
  -18.1860  -26.7921   22.1650 C   0  0  0  0  0  0
  -19.1497  -28.8824   23.2913 C   0  0  0  0  0  0
  -18.9407  -30.1436   23.8929 C   0  0  0  0  0  0
  -17.6420  -30.6583   24.0578 C   0  0  0  0  0  0
  -25.9009  -34.9464   23.5152 C   0  0  0  0  0  0
  -16.5307  -29.9094   23.6343 C   0  0  0  0  0  0
  -16.7232  -28.6502   23.0377 C   0  0  0  0  0  0
  -26.4490  -31.6597   25.0779 C   0  0  0  0  0  0
  -25.3800  -31.3665   26.1560 C   0  0  0  0  0  0
  -27.0308  -30.3056   24.6114 C   0  0  0  0  0  0
  -27.6071  -32.4312   25.7536 C   0  0  0  0  0  0
  -27.5535  -37.1793   24.8481 C   0  0  0  0  0  0
  -21.4131  -29.2979   22.3783 N   0  0  0  0  0  0
  -26.4232  -37.3792   23.9439 N   0  0  0  0  0  0
  -24.6745  -31.0706   22.1029 N   0  0  0  0  0  0
  -23.4180  -28.8128   23.3108 O   0  0  0  0  0  0
  -28.4176  -26.6639   20.0713 O   0  0  0  0  0  0
  -26.5565  -34.8918   22.4722 O   0  0  0  0  0  0
  -23.5361  -32.1380   23.7486 O   0  0  0  0  0  0
  -32.0357  -19.7195   21.9382 C   0  0  0  0  0  0
  -31.3730  -20.8061   21.3329 C   0  0  0  0  0  0
  -29.6767  -19.2833   20.5209 C   0  0  0  0  0  0
  -30.3183  -18.1706   21.1486 C   0  0  0  0  0  0
  -31.5229  -18.4038   21.8613 C   0  0  0  0  0  0
  -30.1658  -20.6158   20.6244 C   0  0  0  0  0  0
  -29.5138  -16.9262   21.2980 C   0  0  0  0  0  0
  -29.5800  -15.5727   21.1436 C   0  0  0  0  0  0
  -31.6722  -16.9689   23.9820 C   0  0  0  0  0  0
  -32.2630  -17.2984   22.6016 C   0  0  0  0  0  0
  -29.0332  -24.1843   19.9380 C   0  0  0  0  0  0
  -29.2394  -22.8808   20.7840 C   0  0  0  0  0  0
  -28.4117  -25.3760   20.7386 C   0  0  0  0  0  0
  -29.4900  -21.6750   20.0167 O   0  0  0  0  0  0
  -31.4852  -12.5833   19.1061 H   0  0  0  0  0  0
  -30.4628  -11.3586   19.7909 H   0  0  0  0  0  0
  -29.7702  -11.8186   17.4354 H   0  0  0  0  0  0
  -29.6324  -13.5219   17.7755 H   0  0  0  0  0  0
  -27.8430  -11.2849   18.7871 H   0  0  0  0  0  0
  -27.3670  -12.6244   17.7924 H   0  0  0  0  0  0
  -27.7178  -14.2144   19.6055 H   0  0  0  0  0  0
  -28.7358  -11.7922   21.1757 H   0  0  0  0  0  0
  -28.4387  -13.2670   21.9625 H   0  0  0  0  0  0
  -25.2676   -9.5729   22.4780 H   0  0  0  0  0  0
  -23.9956   -7.4635   22.7480 H   0  0  0  0  0  0
  -21.0765   -8.8709   19.8953 H   0  0  0  0  0  0
  -22.3554  -10.9650   19.6175 H   0  0  0  0  0  0
  -21.1938   -7.6102   23.9674 H   0  0  0  0  0  0
  -21.1447   -6.0505   25.9079 H   0  0  0  0  0  0
  -22.0645   -2.7555   23.2899 H   0  0  0  0  0  0
  -22.3953  -11.9861   22.4593 H   0  0  0  0  0  0
  -21.1153  -13.1505   22.2778 H   0  0  0  0  0  0
  -24.7660  -15.8915   20.5512 H   0  0  0  0  0  0
  -26.3624  -15.5520   20.1106 H   0  0  0  0  0  0
  -26.7137  -32.5548   23.1228 H   0  0  0  0  0  0
  -25.0053  -33.9810   25.0525 H   0  0  0  0  0  0
  -22.6975  -31.2964   21.4141 H   0  0  0  0  0  0
  -23.3679  -35.9619   23.3342 H   0  0  0  0  0  0
  -24.3559  -36.8865   22.2045 H   0  0  0  0  0  0
  -23.7181  -37.6494   23.6643 H   0  0  0  0  0  0
  -26.0338  -31.5933   20.5871 H   0  0  0  0  0  0
  -26.8249  -30.9028   21.9736 H   0  0  0  0  0  0
  -28.1238  -29.0993   21.1463 H   0  0  0  0  0  0
  -26.0795  -25.9397   19.0519 H   0  0  0  0  0  0
  -23.9892  -27.2779   19.0499 H   0  0  0  0  0  0
  -23.7221  -30.5891   19.4108 H   0  0  0  0  0  0
  -22.7430  -29.2286   19.8830 H   0  0  0  0  0  0
  -25.1227  -36.1952   25.0818 H   0  0  0  0  0  0
  -20.9907  -28.3165   24.1486 H   0  0  0  0  0  0
  -20.5524  -26.2247   23.3615 H   0  0  0  0  0  0
  -21.6567  -26.7349   22.1279 H   0  0  0  0  0  0
  -19.6802  -25.6311   21.1222 H   0  0  0  0  0  0
  -19.6619  -27.3226   20.6768 H   0  0  0  0  0  0
  -17.4118  -26.6661   21.4061 H   0  0  0  0  0  0
  -18.0254  -26.0072   22.9044 H   0  0  0  0  0  0
  -19.7890  -30.7223   24.2336 H   0  0  0  0  0  0
  -17.4979  -31.6289   24.5117 H   0  0  0  0  0  0
  -15.5309  -30.3000   23.7651 H   0  0  0  0  0  0
  -15.8619  -28.0831   22.7095 H   0  0  0  0  0  0
  -24.5972  -30.6993   25.7936 H   0  0  0  0  0  0
  -24.8997  -32.2798   26.5078 H   0  0  0  0  0  0
  -25.8226  -30.8826   27.0281 H   0  0  0  0  0  0
  -26.2851  -29.6841   24.1141 H   0  0  0  0  0  0
  -27.4054  -29.7268   25.4557 H   0  0  0  0  0  0
  -27.8697  -30.4369   23.9276 H   0  0  0  0  0  0
  -27.2689  -33.3575   26.2175 H   0  0  0  0  0  0
  -28.3856  -32.6920   25.0361 H   0  0  0  0  0  0
  -28.0772  -31.8406   26.5399 H   0  0  0  0  0  0
  -28.2563  -38.0076   24.7534 H   0  0  0  0  0  0
  -28.1002  -36.2615   24.6275 H   0  0  0  0  0  0
  -27.2298  -37.1445   25.8899 H   0  0  0  0  0  0
  -20.9269  -29.8814   21.7108 H   0  0  0  0  0  0
  -26.0097  -38.2827   24.1560 H   0  0  0  0  0  0
  -32.9293  -19.9118   22.5174 H   0  0  0  0  0  0
  -31.8093  -21.7906   21.4249 H   0  0  0  0  0  0
  -28.7343  -19.1227   20.0144 H   0  0  0  0  0  0
  -28.5569  -17.1994   21.7241 H   0  0  0  0  0  0
  -28.6434  -15.1981   21.5029 H   0  0  0  0  0  0
  -32.2217  -16.1504   24.4466 H   0  0  0  0  0  0
  -30.6302  -16.6539   23.9118 H   0  0  0  0  0  0
  -31.7217  -17.8216   24.6622 H   0  0  0  0  0  0
  -33.3087  -17.5857   22.7194 H   0  0  0  0  0  0
  -32.3015  -16.4112   21.9800 H   0  0  0  0  0  0
  -28.4110  -23.9668   19.0681 H   0  0  0  0  0  0
  -30.0017  -24.4926   19.5455 H   0  0  0  0  0  0
  -28.3391  -22.6993   21.3702 H   0  0  0  0  0  0
  -30.0223  -23.0735   21.5118 H   0  0  0  0  0  0
  -27.4091  -25.1023   21.0667 H   0  0  0  0  0  0
  -28.9872  -25.5029   21.6563 H   0  0  0  0  0  0
  1 25  1  0  0  0
  1 30  2  0  0  0
  1 78  1  0  0  0
  2  3  1  0  0  0
  2 25  1  0  0  0
  2 85  1  0  0  0
  2 86  1  0  0  0
  3  4  1  0  0  0
  3 87  1  0  0  0
  3 88  1  0  0  0
  4  5  1  0  0  0
  4 89  1  0  0  0
  4 90  1  0  0  0
  5  6  1  0  0  0
  5 26  1  0  0  0
  5 91  1  0  0  0
  6 25  1  0  0  0
  6 92  1  0  0  0
  6 93  1  0  0  0
  7  8  2  0  0  0
  7 26  1  0  0  0
  7 29  1  0  0  0
  8  9  1  0  0  0
  8 22  1  0  0  0
  9 10  1  0  0  0
  9 27  2  0  0  0
 10 11  2  0  0  0
 10 15  1  0  0  0
 11 12  1  0  0  0
 11 94  1  0  0  0
 12 13  2  0  0  0
 12 95  1  0  0  0
 13 14  1  0  0  0
 13 31  1  0  0  0
 14 15  2  0  0  0
 14 96  1  0  0  0
 15 97  1  0  0  0
 16 17  2  0  0  0
 16 21  1  0  0  0
 16 31  1  0  0  0
 17 18  1  0  0  0
 17 98  1  0  0  0
 18 19  2  0  0  0
 18 99  1  0  0  0
 19 20  1  0  0  0
 19 24  1  0  0  0
 20 21  2  0  0  0
 20100  1  0  0  0
 21 23  1  0  0  0
 22 28  1  0  0  0
 22 32  2  0  0  0
 26 27  1  0  0  0
 28101  1  0  0  0
 28102  1  0  0  0
 29103  1  0  0  0
 29104  1  0  0  0
 33 34  1  0  0  0
 33 66  1  0  0  0
 33 70  2  0  0  0
 34 36  1  0  0  0
 34 59  1  0  0  0
 34105  1  0  0  0
 35 44  2  0  0  0
 35 45  1  0  0  0
 35 68  1  0  0  0
 36 56  1  0  0  0
 36106  1  0  0  0
 37 39  1  0  0  0
 37 47  1  0  0  0
 37 66  1  0  0  0
 37107  1  0  0  0
 38 43  2  0  0  0
 38 46  1  0  0  0
 38 47  1  0  0  0
 39 64  1  0  0  0
 39 67  2  0  0  0
 40 52  1  0  0  0
 40 53  2  0  0  0
 40 58  1  0  0  0
 41108  1  0  0  0
 41109  1  0  0  0
 41110  1  0  0  0
 41 48  1  0  0  0
 42 43  1  0  0  0
 42 66  1  0  0  0
 42111  1  0  0  0
 42112  1  0  0  0
 43 44  1  0  0  0
 44113  1  0  0  0
 45 46  2  0  0  0
 45114  1  0  0  0
 46115  1  0  0  0
 47116  1  0  0  0
 47117  1  0  0  0
 48 56  1  0  0  0
 48 65  1  0  0  0
 48118  1  0  0  0
 49 50  1  0  0  0
 49 53  1  0  0  0
 49 64  1  0  0  0
 49119  1  0  0  0
 50 51  1  0  0  0
 50120  1  0  0  0
 50121  1  0  0  0
 51 52  1  0  0  0
 51122  1  0  0  0
 51123  1  0  0  0
 52124  1  0  0  0
 52125  1  0  0  0
 53 54  1  0  0  0
 54 55  2  0  0  0
 54126  1  0  0  0
 55 57  1  0  0  0
 55127  1  0  0  0
 56 69  2  0  0  0
 57 58  2  0  0  0
 57128  1  0  0  0
 58129  1  0  0  0
 59 60  1  0  0  0
 59 61  1  0  0  0
 59 62  1  0  0  0
 60130  1  0  0  0
 60131  1  0  0  0
 60132  1  0  0  0
 61133  1  0  0  0
 61134  1  0  0  0
 61135  1  0  0  0
 62136  1  0  0  0
 62137  1  0  0  0
 62138  1  0  0  0
 63 65  1  0  0  0
 63139  1  0  0  0
 63140  1  0  0  0
 63141  1  0  0  0
 64142  1  0  0  0
 65143  1  0  0  0
 68 83  1  0  0  0
 71 72  2  0  0  0
 71 75  1  0  0  0
 71144  1  0  0  0
 72 76  1  0  0  0
 72145  1  0  0  0
 73 74  1  0  0  0
 73 76  2  0  0  0
 73146  1  0  0  0
 74 75  2  0  0  0
 74 77  1  0  0  0
 75 80  1  0  0  0
 76 84  1  0  0  0
 77 78  2  0  0  0
 77147  1  0  0  0
 78148  1  0  0  0
 79 80  1  0  0  0
 79149  1  0  0  0
 79150  1  0  0  0
 79151  1  0  0  0
 80152  1  0  0  0
 80153  1  0  0  0
 81 82  1  0  0  0
 81 83  1  0  0  0
 81154  1  0  0  0
 81155  1  0  0  0
 82 84  1  0  0  0
 82156  1  0  0  0
 82157  1  0  0  0
 83158  1  0  0  0
 83159  1  0  0  0
M  ISO  4   1 100  68 101  78 100  83 101
M  END
> <chiral flag>
0

> <version>
0

> <s_m_source_file>
/data/baiqing/PycharmProjects/Reinvent-master-3.2/result/LINK_invent/BTK/process_docking_weight1_custom_product_contain_oxygen_bond_distance_aromatic_linkinvent_7_9_3/rearranged_h_0121.sdf

> <i_m_source_file_index>
8

> <r_mmod_Potential_Energy-OPLS-2005>
133.534683227539

> <r_mmod_Stretch_Energy-OPLS-2005>
54.5008850097656

> <r_mmod_Bend_Energy-OPLS-2005>
184.729476928711

> <r_mmod_Torsional_Energy-OPLS-2005>
243.638519287109

> <r_mmod_Improper_Torsional_Energy-OPLS-2005>
6.70553207397461

> <r_mmod_Van_der_Waal_Energy-OPLS-2005>
154.35139465332

> <r_mmod_Electrostatic_Energy-OPLS-2005>
-341.24853515625

> <r_mmod_Solvation_Energy-OPLS-2005>
-198.92268371582

> <b_mmod_Minimization_Converged-OPLS-2005>
0

> <r_mmod_RMS_Derivative-OPLS-2005>
5.12827825546265

$$$$
8
                    3D
 Structure written by MMmdl.
162170  0  0  1  0            999 V2000
  -30.6773  -14.4756   20.4950 C   0  0  0  0  0  0
  -30.4282  -12.2839   19.4257 C   0  0  0  0  0  0
  -29.4963  -12.4668   18.2082 C   0  0  0  0  0  0
  -28.0168  -12.3324   18.6202 C   0  0  0  0  0  0
  -27.6569  -13.1918   19.8602 C   0  0  2  0  0  0
  -28.7007  -12.9802   20.9808 C   0  0  0  0  0  0
  -25.2595  -13.8146   20.5633 C   0  0  0  0  0  0
  -24.1838  -13.0443   20.9148 C   0  0  0  0  0  0
  -24.6374  -11.6902   20.8734 C   0  0  0  0  0  0
  -23.9036  -10.4284   21.0407 C   0  0  0  0  0  0
  -24.3589   -9.4195   21.9182 C   0  0  0  0  0  0
  -23.6274   -8.2233   22.0743 C   0  0  0  0  0  0
  -22.4259   -8.0253   21.3538 C   0  0  0  0  0  0
  -21.9887   -9.0229   20.4652 C   0  0  0  0  0  0
  -22.7207  -10.2119   20.3067 C   0  0  0  0  0  0
  -21.6849   -6.0721   22.5279 C   0  0  0  0  0  0
  -21.4010   -6.5632   23.8212 C   0  0  0  0  0  0
  -21.3646   -5.6784   24.9173 C   0  0  0  0  0  0
  -21.6049   -4.3048   24.7219 C   0  0  0  0  0  0
  -21.8828   -3.8139   23.4338 C   0  0  0  0  0  0
  -21.9186   -4.6954   22.3396 C   0  0  0  0  0  0
  -22.7866  -13.5228   21.1811 C   0  0  0  0  0  0
  -22.1671   -4.2150   21.0973 F   0  0  0  0  0  0
  -21.5614   -3.4525   25.7726 F   0  0  0  0  0  0
  -30.0328  -13.2789   20.4312 N   0  0  0  0  0  0
  -26.2995  -12.9282   20.3287 N   0  0  0  0  0  0
  -25.9288  -11.6471   20.5766 N   0  0  0  0  0  0
  -22.0530  -12.8236   22.0405 N   0  0  0  0  0  0
  -25.4351  -15.1871   20.3997 N   0  0  0  0  0  0
  -31.8589  -14.5986   20.1552 O   0  0  0  0  0  0
  -21.6630   -6.8854   21.4243 O   0  0  0  0  0  0
  -22.3533  -14.5524   20.6639 O   0  0  0  0  0  0
  -24.6130  -31.8719   23.2116 C   0  0  0  0  0  0
  -25.9031  -32.4849   23.8439 C   0  0  1  0  0  0
  -27.2293  -27.4792   20.0926 C   0  0  0  0  0  0
  -25.5886  -33.8638   24.2385 N   0  0  0  0  0  0
  -23.3959  -30.5049   21.5463 C   0  0  2  0  0  0
  -24.8385  -28.9727   20.1140 C   0  0  0  0  0  0
  -22.7401  -29.4722   22.4920 C   0  0  0  0  0  0
  -18.0303  -28.1321   22.8457 C   0  0  0  0  0  0
  -24.1481  -36.7338   23.2639 C   0  0  0  0  0  0
  -25.9203  -30.8580   21.3514 C   0  0  0  0  0  0
  -25.9961  -29.4953   20.7013 C   0  0  0  0  0  0
  -27.1952  -28.7559   20.6816 C   0  0  0  0  0  0
  -26.0521  -26.9566   19.5064 C   0  0  0  0  0  0
  -24.8590  -27.7030   19.5107 C   0  0  0  0  0  0
  -23.6031  -29.8413   20.1588 C   0  0  0  0  0  0
  -25.4089  -36.3149   24.0357 C   0  0  1  0  0  0
  -20.5878  -28.3658   23.1269 C   0  0  2  0  0  0
  -20.6810  -26.9392   22.5352 C   0  0  0  0  0  0
  -19.5786  -26.6340   21.5164 C   0  0  0  0  0  0
  -18.1963  -26.7881   22.1557 C   0  0  0  0  0  0
  -19.1538  -28.8785   23.2866 C   0  0  0  0  0  0
  -18.9471  -30.1375   23.8913 C   0  0  0  0  0  0
  -17.6476  -30.6536   24.0509 C   0  0  0  0  0  0
  -25.9005  -34.9499   23.5179 C   0  0  0  0  0  0
  -16.5357  -29.9064   23.6246 C   0  0  0  0  0  0
  -16.7279  -28.6450   23.0317 C   0  0  0  0  0  0
  -26.4472  -31.6593   25.0741 C   0  0  0  0  0  0
  -25.3759  -31.3666   26.1520 C   0  0  0  0  0  0
  -27.0291  -30.3067   24.6021 C   0  0  0  0  0  0
  -27.6087  -32.4274   25.7489 C   0  0  0  0  0  0
  -27.5589  -37.1825   24.8474 C   0  0  0  0  0  0
  -21.4135  -29.3080   22.3701 N   0  0  0  0  0  0
  -26.4299  -37.3820   23.9419 N   0  0  0  0  0  0
  -24.6612  -31.0912   22.0958 N   0  0  0  0  0  0
  -23.4199  -28.8245   23.2929 O   0  0  0  0  0  0
  -28.4323  -26.8181   20.1102 O   0  0  0  0  0  0
  -26.5585  -34.8935   22.4748 O   0  0  0  0  0  0
  -23.5334  -32.1404   23.7552 O   0  0  0  0  0  0
  -29.9986  -19.2023   19.8463 C   0  0  0  0  0  0
  -28.2005  -20.6790   20.5174 C   0  0  0  0  0  0
  -29.5112  -18.1662   20.6685 C   0  0  0  0  0  0
  -27.6754  -19.6635   21.3421 C   0  0  0  0  0  0
  -28.3392  -18.4089   21.4446 C   0  0  0  0  0  0
  -29.3834  -20.4598   19.7804 C   0  0  0  0  0  0
  -30.2677  -16.8930   20.5701 C   0  0  0  0  0  0
  -29.8082  -15.6330   20.7219 C   0  0  0  0  0  0
  -26.3976  -19.9632   22.1144 C   0  0  0  0  0  0
  -27.8089  -17.3683   22.4216 C   0  0  0  0  0  0
  -28.7780  -24.9824   18.5761 C   0  0  0  0  0  0
  -28.8104  -23.4553   18.3899 C   0  0  0  0  0  0
  -28.4415  -25.4047   20.0126 C   0  0  0  0  0  0
  -29.8329  -22.7699   19.3109 C   0  0  0  0  0  0
  -29.9861  -21.3988   18.9749 O   0  0  0  0  0  0
  -31.4723  -12.3803   19.1190 H   0  0  0  0  0  0
  -30.3285  -11.2777   19.8373 H   0  0  0  0  0  0
  -29.7311  -11.7237   17.4454 H   0  0  0  0  0  0
  -29.6654  -13.4420   17.7491 H   0  0  0  0  0  0
  -27.8381  -11.2792   18.8400 H   0  0  0  0  0  0
  -27.3651  -12.5825   17.7837 H   0  0  0  0  0  0
  -27.6890  -14.2282   19.5263 H   0  0  0  0  0  0
  -28.6737  -11.9435   21.3218 H   0  0  0  0  0  0
  -28.4751  -13.5757   21.8661 H   0  0  0  0  0  0
  -25.2742   -9.5659   22.4738 H   0  0  0  0  0  0
  -23.9965   -7.4633   22.7466 H   0  0  0  0  0  0
  -21.0805   -8.8750   19.8982 H   0  0  0  0  0  0
  -22.3658  -10.9639   19.6158 H   0  0  0  0  0  0
  -21.2040   -7.6151   23.9717 H   0  0  0  0  0  0
  -21.1444   -6.0514   25.9074 H   0  0  0  0  0  0
  -22.0620   -2.7598   23.2846 H   0  0  0  0  0  0
  -22.4098  -11.9856   22.4764 H   0  0  0  0  0  0
  -21.1180  -13.1310   22.2671 H   0  0  0  0  0  0
  -24.6843  -15.8529   20.5441 H   0  0  0  0  0  0
  -26.2921  -15.6247   20.0871 H   0  0  0  0  0  0
  -26.7126  -32.5608   23.1250 H   0  0  0  0  0  0
  -25.0125  -33.9792   25.0593 H   0  0  0  0  0  0
  -22.6866  -31.3234   21.4108 H   0  0  0  0  0  0
  -23.3752  -35.9671   23.3320 H   0  0  0  0  0  0
  -24.3579  -36.8928   22.2052 H   0  0  0  0  0  0
  -23.7213  -37.6541   23.6627 H   0  0  0  0  0  0
  -26.0205  -31.6217   20.5790 H   0  0  0  0  0  0
  -26.8135  -30.9182   21.9608 H   0  0  0  0  0  0
  -28.0935  -29.1591   21.1251 H   0  0  0  0  0  0
  -26.0426  -25.9840   19.0379 H   0  0  0  0  0  0
  -23.9682  -27.2987   19.0484 H   0  0  0  0  0  0
  -23.7227  -30.6189   19.4028 H   0  0  0  0  0  0
  -22.7247  -29.2701   19.8543 H   0  0  0  0  0  0
  -25.1248  -36.2057   25.0850 H   0  0  0  0  0  0
  -20.9950  -28.3229   24.1394 H   0  0  0  0  0  0
  -20.5804  -26.2267   23.3541 H   0  0  0  0  0  0
  -21.6677  -26.7490   22.1088 H   0  0  0  0  0  0
  -19.6988  -25.6257   21.1194 H   0  0  0  0  0  0
  -19.6710  -27.3140   20.6668 H   0  0  0  0  0  0
  -17.4300  -26.6736   21.3882 H   0  0  0  0  0  0
  -18.0311  -25.9970   22.8886 H   0  0  0  0  0  0
  -19.7968  -30.7152   24.2313 H   0  0  0  0  0  0
  -17.5029  -31.6212   24.5100 H   0  0  0  0  0  0
  -15.5347  -30.2976   23.7513 H   0  0  0  0  0  0
  -15.8671  -28.0796   22.7019 H   0  0  0  0  0  0
  -24.5981  -30.6932   25.7916 H   0  0  0  0  0  0
  -24.8875  -32.2780   26.4973 H   0  0  0  0  0  0
  -25.8139  -30.8901   27.0300 H   0  0  0  0  0  0
  -26.2796  -29.6833   24.1136 H   0  0  0  0  0  0
  -27.4215  -29.7291   25.4402 H   0  0  0  0  0  0
  -27.8564  -30.4485   23.9061 H   0  0  0  0  0  0
  -27.2789  -33.3622   26.2054 H   0  0  0  0  0  0
  -28.3907  -32.6728   25.0285 H   0  0  0  0  0  0
  -28.0744  -31.8377   26.5407 H   0  0  0  0  0  0
  -28.2625  -38.0111   24.7509 H   0  0  0  0  0  0
  -28.1056  -36.2633   24.6303 H   0  0  0  0  0  0
  -27.2308  -37.1507   25.8882 H   0  0  0  0  0  0
  -20.9260  -29.8819   21.6971 H   0  0  0  0  0  0
  -26.0211  -38.2916   24.1409 H   0  0  0  0  0  0
  -30.8861  -19.0427   19.2508 H   0  0  0  0  0  0
  -27.6832  -21.6254   20.4575 H   0  0  0  0  0  0
  -31.3157  -17.0236   20.3316 H   0  0  0  0  0  0
  -28.7711  -15.4979   20.9614 H   0  0  0  0  0  0
  -25.8445  -20.7903   21.6685 H   0  0  0  0  0  0
  -26.6275  -20.2334   23.1457 H   0  0  0  0  0  0
  -25.7242  -19.1048   22.1233 H   0  0  0  0  0  0
  -27.1406  -16.6765   21.9156 H   0  0  0  0  0  0
  -27.2533  -17.8181   23.2445 H   0  0  0  0  0  0
  -28.6252  -16.8074   22.8740 H   0  0  0  0  0  0
  -28.0569  -25.4138   17.8823 H   0  0  0  0  0  0
  -29.7434  -25.4056   18.2987 H   0  0  0  0  0  0
  -29.0726  -23.2423   17.3539 H   0  0  0  0  0  0
  -27.8140  -23.0386   18.5438 H   0  0  0  0  0  0
  -29.2292  -25.0733   20.6889 H   0  0  0  0  0  0
  -27.5241  -24.9416   20.3780 H   0  0  0  0  0  0
  -29.5881  -22.8996   20.3664 H   0  0  0  0  0  0
  -30.8036  -23.2412   19.1758 H   0  0  0  0  0  0
  1 25  1  0  0  0
  1 30  2  0  0  0
  1 78  1  0  0  0
  2  3  1  0  0  0
  2 25  1  0  0  0
  2 86  1  0  0  0
  2 87  1  0  0  0
  3  4  1  0  0  0
  3 88  1  0  0  0
  3 89  1  0  0  0
  4  5  1  0  0  0
  4 90  1  0  0  0
  4 91  1  0  0  0
  5  6  1  0  0  0
  5 26  1  0  0  0
  5 92  1  0  0  0
  6 25  1  0  0  0
  6 93  1  0  0  0
  6 94  1  0  0  0
  7  8  2  0  0  0
  7 26  1  0  0  0
  7 29  1  0  0  0
  8  9  1  0  0  0
  8 22  1  0  0  0
  9 10  1  0  0  0
  9 27  2  0  0  0
 10 11  2  0  0  0
 10 15  1  0  0  0
 11 12  1  0  0  0
 11 95  1  0  0  0
 12 13  2  0  0  0
 12 96  1  0  0  0
 13 14  1  0  0  0
 13 31  1  0  0  0
 14 15  2  0  0  0
 14 97  1  0  0  0
 15 98  1  0  0  0
 16 17  2  0  0  0
 16 21  1  0  0  0
 16 31  1  0  0  0
 17 18  1  0  0  0
 17 99  1  0  0  0
 18 19  2  0  0  0
 18100  1  0  0  0
 19 20  1  0  0  0
 19 24  1  0  0  0
 20 21  2  0  0  0
 20101  1  0  0  0
 21 23  1  0  0  0
 22 28  1  0  0  0
 22 32  2  0  0  0
 26 27  1  0  0  0
 28102  1  0  0  0
 28103  1  0  0  0
 29104  1  0  0  0
 29105  1  0  0  0
 33 34  1  0  0  0
 33 66  1  0  0  0
 33 70  2  0  0  0
 34 36  1  0  0  0
 34 59  1  0  0  0
 34106  1  0  0  0
 35 44  2  0  0  0
 35 45  1  0  0  0
 35 68  1  0  0  0
 36 56  1  0  0  0
 36107  1  0  0  0
 37 39  1  0  0  0
 37 47  1  0  0  0
 37 66  1  0  0  0
 37108  1  0  0  0
 38 43  2  0  0  0
 38 46  1  0  0  0
 38 47  1  0  0  0
 39 64  1  0  0  0
 39 67  2  0  0  0
 40 52  1  0  0  0
 40 53  2  0  0  0
 40 58  1  0  0  0
 41109  1  0  0  0
 41110  1  0  0  0
 41111  1  0  0  0
 41 48  1  0  0  0
 42 43  1  0  0  0
 42 66  1  0  0  0
 42112  1  0  0  0
 42113  1  0  0  0
 43 44  1  0  0  0
 44114  1  0  0  0
 45 46  2  0  0  0
 45115  1  0  0  0
 46116  1  0  0  0
 47117  1  0  0  0
 47118  1  0  0  0
 48 56  1  0  0  0
 48 65  1  0  0  0
 48119  1  0  0  0
 49 50  1  0  0  0
 49 53  1  0  0  0
 49 64  1  0  0  0
 49120  1  0  0  0
 50 51  1  0  0  0
 50121  1  0  0  0
 50122  1  0  0  0
 51 52  1  0  0  0
 51123  1  0  0  0
 51124  1  0  0  0
 52125  1  0  0  0
 52126  1  0  0  0
 53 54  1  0  0  0
 54 55  2  0  0  0
 54127  1  0  0  0
 55 57  1  0  0  0
 55128  1  0  0  0
 56 69  2  0  0  0
 57 58  2  0  0  0
 57129  1  0  0  0
 58130  1  0  0  0
 59 60  1  0  0  0
 59 61  1  0  0  0
 59 62  1  0  0  0
 60131  1  0  0  0
 60132  1  0  0  0
 60133  1  0  0  0
 61134  1  0  0  0
 61135  1  0  0  0
 61136  1  0  0  0
 62137  1  0  0  0
 62138  1  0  0  0
 62139  1  0  0  0
 63 65  1  0  0  0
 63140  1  0  0  0
 63141  1  0  0  0
 63142  1  0  0  0
 64143  1  0  0  0
 65144  1  0  0  0
 68 83  1  0  0  0
 71 73  2  0  0  0
 71 76  1  0  0  0
 71145  1  0  0  0
 72 74  1  0  0  0
 72 76  2  0  0  0
 72146  1  0  0  0
 73 75  1  0  0  0
 73 77  1  0  0  0
 74 75  2  0  0  0
 74 79  1  0  0  0
 75 80  1  0  0  0
 76 85  1  0  0  0
 77 78  2  0  0  0
 77147  1  0  0  0
 78148  1  0  0  0
 79149  1  0  0  0
 79150  1  0  0  0
 79151  1  0  0  0
 80152  1  0  0  0
 80153  1  0  0  0
 80154  1  0  0  0
 81 82  1  0  0  0
 81 83  1  0  0  0
 81155  1  0  0  0
 81156  1  0  0  0
 82 84  1  0  0  0
 82157  1  0  0  0
 82158  1  0  0  0
 83159  1  0  0  0
 83160  1  0  0  0
 84 85  1  0  0  0
 84161  1  0  0  0
 84162  1  0  0  0
M  ISO  4   1 100  68 101  78 100  83 101
M  END
> <chiral flag>
0

> <version>
0

> <s_m_source_file>
/data/baiqing/PycharmProjects/Reinvent-master-3.2/result/LINK_invent/BTK/process_docking_weight1_custom_product_contain_oxygen_bond_distance_aromatic_linkinvent_7_9_3/rearranged_h_0121.sdf

> <i_m_source_file_index>
9

> <r_mmod_Potential_Energy-OPLS-2005>
-13.5070495605469

> <r_mmod_Stretch_Energy-OPLS-2005>
34.4942665100098

> <r_mmod_Bend_Energy-OPLS-2005>
111.032569885254

> <r_mmod_Torsional_Energy-OPLS-2005>
195.773910522461

> <r_mmod_Improper_Torsional_Energy-OPLS-2005>
6.56294250488281

> <r_mmod_Van_der_Waal_Energy-OPLS-2005>
173.185699462891

> <r_mmod_Electrostatic_Energy-OPLS-2005>
-357.115020751953

> <r_mmod_Solvation_Energy-OPLS-2005>
-194.538909912109

> <b_mmod_Minimization_Converged-OPLS-2005>
0

> <r_mmod_RMS_Derivative-OPLS-2005>
3.97340941429138

$$$$
9
                    3D
 Structure written by MMmdl.
157165  0  0  1  0            999 V2000
  -30.7326  -14.4693   20.5745 C   0  0  0  0  0  0
  -30.4134  -12.3096   19.4232 C   0  0  0  0  0  0
  -29.4883  -12.5041   18.2056 C   0  0  0  0  0  0
  -28.0119  -12.3638   18.6213 C   0  0  0  0  0  0
  -27.6590  -13.2125   19.8722 C   0  0  2  0  0  0
  -28.7033  -13.0176   20.9956 C   0  0  0  0  0  0
  -25.2578  -13.8176   20.5682 C   0  0  0  0  0  0
  -24.1833  -13.0444   20.9176 C   0  0  0  0  0  0
  -24.6396  -11.6912   20.8741 C   0  0  0  0  0  0
  -23.9070  -10.4292   21.0404 C   0  0  0  0  0  0
  -24.3621   -9.4207   21.9184 C   0  0  0  0  0  0
  -23.6291   -8.2247   22.0761 C   0  0  0  0  0  0
  -22.4277   -8.0281   21.3546 C   0  0  0  0  0  0
  -21.9914   -9.0255   20.4647 C   0  0  0  0  0  0
  -22.7244  -10.2133   20.3053 C   0  0  0  0  0  0
  -21.6853   -6.0739   22.5279 C   0  0  0  0  0  0
  -21.4014   -6.5645   23.8213 C   0  0  0  0  0  0
  -21.3656   -5.6795   24.9174 C   0  0  0  0  0  0
  -21.6042   -4.3058   24.7224 C   0  0  0  0  0  0
  -21.8820   -3.8148   23.4345 C   0  0  0  0  0  0
  -21.9196   -4.6967   22.3403 C   0  0  0  0  0  0
  -22.7853  -13.5237   21.1835 C   0  0  0  0  0  0
  -22.1662   -4.2153   21.0981 F   0  0  0  0  0  0
  -21.5626   -3.4538   25.7735 F   0  0  0  0  0  0
  -30.0324  -13.3090   20.4356 N   0  0  0  0  0  0
  -26.3018  -12.9357   20.3370 N   0  0  0  0  0  0
  -25.9328  -11.6510   20.5785 N   0  0  0  0  0  0
  -22.0495  -12.8220   22.0382 N   0  0  0  0  0  0
  -25.4310  -15.1892   20.4082 N   0  0  0  0  0  0
  -31.8569  -14.6133   20.0875 O   0  0  0  0  0  0
  -21.6641   -6.8879   21.4239 O   0  0  0  0  0  0
  -22.3546  -14.5553   20.6698 O   0  0  0  0  0  0
  -24.6183  -31.8677   23.2122 C   0  0  0  0  0  0
  -25.9073  -32.4818   23.8408 C   0  0  1  0  0  0
  -27.2188  -27.4069   20.0922 C   0  0  0  0  0  0
  -25.5929  -33.8619   24.2338 N   0  0  0  0  0  0
  -23.4052  -30.4966   21.5538 C   0  0  2  0  0  0
  -24.8473  -28.9699   20.1108 C   0  0  0  0  0  0
  -22.7418  -29.4676   22.4986 C   0  0  0  0  0  0
  -18.0271  -28.1380   22.8492 C   0  0  0  0  0  0
  -24.1488  -36.7303   23.2634 C   0  0  0  0  0  0
  -25.9395  -30.8251   21.3704 C   0  0  0  0  0  0
  -26.0127  -29.4607   20.7126 C   0  0  0  0  0  0
  -27.2012  -28.6869   20.7026 C   0  0  0  0  0  0
  -26.0332  -26.9592   19.4567 C   0  0  0  0  0  0
  -24.8543  -27.7193   19.4791 C   0  0  0  0  0  0
  -23.6119  -29.8381   20.1657 C   0  0  0  0  0  0
  -25.4109  -36.3109   24.0339 C   0  0  1  0  0  0
  -20.5867  -28.3674   23.1307 C   0  0  2  0  0  0
  -20.6770  -26.9411   22.5414 C   0  0  0  0  0  0
  -19.5748  -26.6391   21.5213 C   0  0  0  0  0  0
  -18.1923  -26.7927   22.1620 C   0  0  0  0  0  0
  -19.1524  -28.8841   23.2895 C   0  0  0  0  0  0
  -18.9450  -30.1446   23.8907 C   0  0  0  0  0  0
  -17.6453  -30.6587   24.0569 C   0  0  0  0  0  0
  -25.9041  -34.9474   23.5128 C   0  0  0  0  0  0
  -16.5342  -29.9088   23.6333 C   0  0  0  0  0  0
  -16.7260  -28.6505   23.0354 C   0  0  0  0  0  0
  -26.4488  -31.6592   25.0734 C   0  0  0  0  0  0
  -25.3752  -31.3676   26.1475 C   0  0  0  0  0  0
  -27.0331  -30.3040   24.6113 C   0  0  0  0  0  0
  -27.6060  -32.4309   25.7500 C   0  0  0  0  0  0
  -27.5580  -37.1809   24.8458 C   0  0  0  0  0  0
  -21.4145  -29.3047   22.3716 N   0  0  0  0  0  0
  -26.4287  -37.3801   23.9413 N   0  0  0  0  0  0
  -24.6731  -31.0771   22.1033 N   0  0  0  0  0  0
  -23.4182  -28.8206   23.3024 O   0  0  0  0  0  0
  -28.3572  -26.6121   20.1438 O   0  0  0  0  0  0
  -26.5589  -34.8926   22.4682 O   0  0  0  0  0  0
  -23.5373  -32.1441   23.7508 O   0  0  0  0  0  0
  -31.5424  -19.4866   21.6463 C   0  0  0  0  0  0
  -31.9051  -17.0815   21.7279 C   0  0  0  0  0  0
  -29.7271  -17.9646   21.0893 C   0  0  0  0  0  0
  -32.3989  -18.3944   21.8939 C   0  0  0  0  0  0
  -30.2032  -19.2960   21.2398 C   0  0  0  0  0  0
  -30.5742  -16.8460   21.3092 C   0  0  0  0  0  0
  -34.7727  -17.7616   22.4413 C   0  0  0  0  0  0
  -33.7905  -18.6675   22.2935 C   0  0  0  0  0  0
  -29.3019  -20.4558   21.0029 C   0  0  0  0  0  0
  -29.5405  -21.7600   21.2879 C   0  0  0  0  0  0
  -29.1226  -24.2503   20.6036 C   0  0  0  0  0  0
  -28.5348  -22.8880   21.0428 C   0  0  0  0  0  0
  -28.1292  -25.2000   19.9065 C   0  0  0  0  0  0
  -30.0767  -15.5084   21.1395 N   0  0  0  0  0  0
  -30.3010  -24.5608   20.8078 O   0  0  0  0  0  0
  -31.4581  -12.3916   19.1185 H   0  0  0  0  0  0
  -30.3047  -11.3033   19.8308 H   0  0  0  0  0  0
  -29.7277  -11.7768   17.4287 H   0  0  0  0  0  0
  -29.6556  -13.4888   17.7659 H   0  0  0  0  0  0
  -27.8245  -11.3087   18.8241 H   0  0  0  0  0  0
  -27.3589  -12.6315   17.7899 H   0  0  0  0  0  0
  -27.6969  -14.2569   19.5621 H   0  0  0  0  0  0
  -28.6790  -11.9909   21.3637 H   0  0  0  0  0  0
  -28.4680  -13.6430   21.8577 H   0  0  0  0  0  0
  -25.2770   -9.5681   22.4756 H   0  0  0  0  0  0
  -23.9995   -7.4645   22.7487 H   0  0  0  0  0  0
  -21.0850   -8.8773   19.8948 H   0  0  0  0  0  0
  -22.3708  -10.9671   19.6159 H   0  0  0  0  0  0
  -21.2003   -7.6154   23.9717 H   0  0  0  0  0  0
  -21.1473   -6.0525   25.9077 H   0  0  0  0  0  0
  -22.0602   -2.7608   23.2844 H   0  0  0  0  0  0
  -22.4102  -11.9864   22.4743 H   0  0  0  0  0  0
  -21.1112  -13.1242   22.2596 H   0  0  0  0  0  0
  -24.6660  -15.8465   20.5171 H   0  0  0  0  0  0
  -26.2846  -15.6260   20.0838 H   0  0  0  0  0  0
  -26.7145  -32.5517   23.1170 H   0  0  0  0  0  0
  -25.0115  -33.9782   25.0507 H   0  0  0  0  0  0
  -22.6954  -31.3155   21.4190 H   0  0  0  0  0  0
  -23.3767  -35.9619   23.3286 H   0  0  0  0  0  0
  -24.3585  -36.8926   22.2049 H   0  0  0  0  0  0
  -23.7221  -37.6496   23.6654 H   0  0  0  0  0  0
  -26.0579  -31.5926   20.6040 H   0  0  0  0  0  0
  -26.8262  -30.8732   21.9908 H   0  0  0  0  0  0
  -28.0955  -29.0583   21.1836 H   0  0  0  0  0  0
  -25.9814  -26.0158   18.9336 H   0  0  0  0  0  0
  -23.9612  -27.3407   19.0003 H   0  0  0  0  0  0
  -23.7206  -30.6169   19.4101 H   0  0  0  0  0  0
  -22.7348  -29.2609   19.8680 H   0  0  0  0  0  0
  -25.1289  -36.1971   25.0832 H   0  0  0  0  0  0
  -20.9956  -28.3237   24.1428 H   0  0  0  0  0  0
  -20.5681  -26.2282   23.3600 H   0  0  0  0  0  0
  -21.6636  -26.7462   22.1191 H   0  0  0  0  0  0
  -19.6909  -25.6309   21.1225 H   0  0  0  0  0  0
  -19.6686  -27.3216   20.6755 H   0  0  0  0  0  0
  -17.4198  -26.6692   21.4014 H   0  0  0  0  0  0
  -18.0309  -26.0056   22.8997 H   0  0  0  0  0  0
  -19.7927  -30.7259   24.2276 H   0  0  0  0  0  0
  -17.5011  -31.6268   24.5170 H   0  0  0  0  0  0
  -15.5345  -30.2998   23.7657 H   0  0  0  0  0  0
  -15.8655  -28.0831   22.7072 H   0  0  0  0  0  0
  -24.5957  -30.6984   25.7810 H   0  0  0  0  0  0
  -24.8904  -32.2814   26.4920 H   0  0  0  0  0  0
  -25.8115  -30.8858   27.0234 H   0  0  0  0  0  0
  -26.2883  -29.6783   24.1179 H   0  0  0  0  0  0
  -27.4120  -29.7288   25.4571 H   0  0  0  0  0  0
  -27.8711  -30.4362   23.9262 H   0  0  0  0  0  0
  -27.2689  -33.3619   26.2069 H   0  0  0  0  0  0
  -28.3882  -32.6843   25.0330 H   0  0  0  0  0  0
  -28.0710  -31.8425   26.5420 H   0  0  0  0  0  0
  -28.2582  -38.0125   24.7551 H   0  0  0  0  0  0
  -28.1096  -36.2662   24.6236 H   0  0  0  0  0  0
  -27.2296  -37.1385   25.8857 H   0  0  0  0  0  0
  -20.9304  -29.8771   21.6940 H   0  0  0  0  0  0
  -26.0171  -38.2869   24.1455 H   0  0  0  0  0  0
  -31.9356  -20.4853   21.7657 H   0  0  0  0  0  0
  -32.5532  -16.2411   21.9243 H   0  0  0  0  0  0
  -28.7023  -17.8025   20.7858 H   0  0  0  0  0  0
  -35.7620  -18.0749   22.7438 H   0  0  0  0  0  0
  -34.6283  -16.7058   22.2678 H   0  0  0  0  0  0
  -34.0335  -19.7036   22.4889 H   0  0  0  0  0  0
  -28.3493  -20.2110   20.5528 H   0  0  0  0  0  0
  -30.4707  -22.0617   21.7467 H   0  0  0  0  0  0
  -27.9887  -23.0585   21.9705 H   0  0  0  0  0  0
  -27.8007  -22.5615   20.3056 H   0  0  0  0  0  0
  -27.1519  -24.9050   20.2888 H   0  0  0  0  0  0
  -28.1382  -25.0007   18.8347 H   0  0  0  0  0  0
  -29.1076  -15.3442   21.3658 H   0  0  0  0  0  0
  1 25  1  0  0  0
  1 30  2  0  0  0
  1 84  1  0  0  0
  2  3  1  0  0  0
  2 25  1  0  0  0
  2 86  1  0  0  0
  2 87  1  0  0  0
  3  4  1  0  0  0
  3 88  1  0  0  0
  3 89  1  0  0  0
  4  5  1  0  0  0
  4 90  1  0  0  0
  4 91  1  0  0  0
  5  6  1  0  0  0
  5 26  1  0  0  0
  5 92  1  0  0  0
  6 25  1  0  0  0
  6 93  1  0  0  0
  6 94  1  0  0  0
  7  8  2  0  0  0
  7 26  1  0  0  0
  7 29  1  0  0  0
  8  9  1  0  0  0
  8 22  1  0  0  0
  9 10  1  0  0  0
  9 27  2  0  0  0
 10 11  2  0  0  0
 10 15  1  0  0  0
 11 12  1  0  0  0
 11 95  1  0  0  0
 12 13  2  0  0  0
 12 96  1  0  0  0
 13 14  1  0  0  0
 13 31  1  0  0  0
 14 15  2  0  0  0
 14 97  1  0  0  0
 15 98  1  0  0  0
 16 17  2  0  0  0
 16 21  1  0  0  0
 16 31  1  0  0  0
 17 18  1  0  0  0
 17 99  1  0  0  0
 18 19  2  0  0  0
 18100  1  0  0  0
 19 20  1  0  0  0
 19 24  1  0  0  0
 20 21  2  0  0  0
 20101  1  0  0  0
 21 23  1  0  0  0
 22 28  1  0  0  0
 22 32  2  0  0  0
 26 27  1  0  0  0
 28102  1  0  0  0
 28103  1  0  0  0
 29104  1  0  0  0
 29105  1  0  0  0
 33 34  1  0  0  0
 33 66  1  0  0  0
 33 70  2  0  0  0
 34 36  1  0  0  0
 34 59  1  0  0  0
 34106  1  0  0  0
 35 44  2  0  0  0
 35 45  1  0  0  0
 35 68  1  0  0  0
 36 56  1  0  0  0
 36107  1  0  0  0
 37 39  1  0  0  0
 37 47  1  0  0  0
 37 66  1  0  0  0
 37108  1  0  0  0
 38 43  2  0  0  0
 38 46  1  0  0  0
 38 47  1  0  0  0
 39 64  1  0  0  0
 39 67  2  0  0  0
 40 52  1  0  0  0
 40 53  2  0  0  0
 40 58  1  0  0  0
 41109  1  0  0  0
 41110  1  0  0  0
 41111  1  0  0  0
 41 48  1  0  0  0
 42 43  1  0  0  0
 42 66  1  0  0  0
 42112  1  0  0  0
 42113  1  0  0  0
 43 44  1  0  0  0
 44114  1  0  0  0
 45 46  2  0  0  0
 45115  1  0  0  0
 46116  1  0  0  0
 47117  1  0  0  0
 47118  1  0  0  0
 48 56  1  0  0  0
 48 65  1  0  0  0
 48119  1  0  0  0
 49 50  1  0  0  0
 49 53  1  0  0  0
 49 64  1  0  0  0
 49120  1  0  0  0
 50 51  1  0  0  0
 50121  1  0  0  0
 50122  1  0  0  0
 51 52  1  0  0  0
 51123  1  0  0  0
 51124  1  0  0  0
 52125  1  0  0  0
 52126  1  0  0  0
 53 54  1  0  0  0
 54 55  2  0  0  0
 54127  1  0  0  0
 55 57  1  0  0  0
 55128  1  0  0  0
 56 69  2  0  0  0
 57 58  2  0  0  0
 57129  1  0  0  0
 58130  1  0  0  0
 59 60  1  0  0  0
 59 61  1  0  0  0
 59 62  1  0  0  0
 60131  1  0  0  0
 60132  1  0  0  0
 60133  1  0  0  0
 61134  1  0  0  0
 61135  1  0  0  0
 61136  1  0  0  0
 62137  1  0  0  0
 62138  1  0  0  0
 62139  1  0  0  0
 63 65  1  0  0  0
 63140  1  0  0  0
 63141  1  0  0  0
 63142  1  0  0  0
 64143  1  0  0  0
 65144  1  0  0  0
 68 83  1  0  0  0
 71 74  2  0  0  0
 71 75  1  0  0  0
 71145  1  0  0  0
 72 74  1  0  0  0
 72 76  2  0  0  0
 72146  1  0  0  0
 73 75  2  0  0  0
 73 76  1  0  0  0
 73147  1  0  0  0
 74 78  1  0  0  0
 75 79  1  0  0  0
 76 84  1  0  0  0
 77 78  2  0  0  0
 77148  1  0  0  0
 77149  1  0  0  0
 78150  1  0  0  0
 79 80  2  0  0  0
 79151  1  0  0  0
 80 82  1  0  0  0
 80152  1  0  0  0
 81 82  1  0  0  0
 81 83  1  0  0  0
 81 85  2  0  0  0
 82153  1  0  0  0
 82154  1  0  0  0
 83155  1  0  0  0
 83156  1  0  0  0
 84157  1  0  0  0
M  ISO  4   1 100  68 101  83 101  84 100
M  END
> <chiral flag>
0

> <version>
0

> <s_m_source_file>
/data/baiqing/PycharmProjects/Reinvent-master-3.2/result/LINK_invent/BTK/process_docking_weight1_custom_product_contain_oxygen_bond_distance_aromatic_linkinvent_7_9_3/rearranged_h_0121.sdf

> <i_m_source_file_index>
10

> <r_mmod_Potential_Energy-OPLS-2005>
-5.88118886947632

> <r_mmod_Stretch_Energy-OPLS-2005>
42.5160026550293

> <r_mmod_Bend_Energy-OPLS-2005>
100.726570129395

> <r_mmod_Torsional_Energy-OPLS-2005>
217.829116821289

> <r_mmod_Improper_Torsional_Energy-OPLS-2005>
3.51360607147217

> <r_mmod_Van_der_Waal_Energy-OPLS-2005>
167.132019042969

> <r_mmod_Electrostatic_Energy-OPLS-2005>
-324.926483154297

> <r_mmod_Solvation_Energy-OPLS-2005>
-230.408309936523

> <b_mmod_Minimization_Converged-OPLS-2005>
0

> <r_mmod_RMS_Derivative-OPLS-2005>
0.75803941488266

$$$$
10
                    3D
 Structure written by MMmdl.
156165  0  0  1  0            999 V2000
  -30.6648  -14.5782   20.4887 C   0  0  0  0  0  0
  -30.4225  -12.3472   19.4569 C   0  0  0  0  0  0
  -29.5033  -12.4926   18.2248 C   0  0  0  0  0  0
  -28.0232  -12.3410   18.6296 C   0  0  0  0  0  0
  -27.6477  -13.2112   19.8580 C   0  0  2  0  0  0
  -28.6903  -13.0692   20.9889 C   0  0  0  0  0  0
  -25.2550  -13.8159   20.5693 C   0  0  0  0  0  0
  -24.1811  -13.0435   20.9197 C   0  0  0  0  0  0
  -24.6369  -11.6906   20.8749 C   0  0  0  0  0  0
  -23.9039  -10.4297   21.0413 C   0  0  0  0  0  0
  -24.3605   -9.4212   21.9183 C   0  0  0  0  0  0
  -23.6293   -8.2239   22.0749 C   0  0  0  0  0  0
  -22.4275   -8.0273   21.3544 C   0  0  0  0  0  0
  -21.9904   -9.0236   20.4644 C   0  0  0  0  0  0
  -22.7216  -10.2124   20.3057 C   0  0  0  0  0  0
  -21.6849   -6.0736   22.5282 C   0  0  0  0  0  0
  -21.4013   -6.5644   23.8217 C   0  0  0  0  0  0
  -21.3666   -5.6794   24.9180 C   0  0  0  0  0  0
  -21.6047   -4.3056   24.7225 C   0  0  0  0  0  0
  -21.8818   -3.8148   23.4347 C   0  0  0  0  0  0
  -21.9193   -4.6966   22.3405 C   0  0  0  0  0  0
  -22.7841  -13.5241   21.1860 C   0  0  0  0  0  0
  -22.1663   -4.2161   21.0979 F   0  0  0  0  0  0
  -21.5629   -3.4538   25.7738 F   0  0  0  0  0  0
  -30.0135  -13.3765   20.4305 N   0  0  0  0  0  0
  -26.2952  -12.9322   20.3302 N   0  0  0  0  0  0
  -25.9291  -11.6486   20.5754 N   0  0  0  0  0  0
  -22.0480  -12.8237   22.0413 N   0  0  0  0  0  0
  -25.4275  -15.1875   20.4111 N   0  0  0  0  0  0
  -31.8517  -14.6623   20.1597 O   0  0  0  0  0  0
  -21.6639   -6.8870   21.4241 O   0  0  0  0  0  0
  -22.3543  -14.5554   20.6707 O   0  0  0  0  0  0
  -24.6183  -31.8661   23.2092 C   0  0  0  0  0  0
  -25.9057  -32.4817   23.8394 C   0  0  1  0  0  0
  -27.2263  -27.3936   20.1160 C   0  0  0  0  0  0
  -25.5899  -33.8618   24.2323 N   0  0  0  0  0  0
  -23.4095  -30.4893   21.5501 C   0  0  2  0  0  0
  -24.8581  -28.9493   20.1185 C   0  0  0  0  0  0
  -22.7434  -29.4649   22.4980 C   0  0  0  0  0  0
  -18.0277  -28.1385   22.8489 C   0  0  0  0  0  0
  -24.1486  -36.7314   23.2636 C   0  0  0  0  0  0
  -25.9424  -30.8188   21.3706 C   0  0  0  0  0  0
  -26.0203  -29.4476   20.7242 C   0  0  0  0  0  0
  -27.2115  -28.6759   20.7251 C   0  0  0  0  0  0
  -26.0528  -26.9232   19.4969 C   0  0  0  0  0  0
  -24.8702  -27.6868   19.5010 C   0  0  0  0  0  0
  -23.6225  -29.8221   20.1650 C   0  0  0  0  0  0
  -25.4109  -36.3114   24.0336 C   0  0  1  0  0  0
  -20.5872  -28.3678   23.1313 C   0  0  2  0  0  0
  -20.6771  -26.9411   22.5421 C   0  0  0  0  0  0
  -19.5747  -26.6385   21.5220 C   0  0  0  0  0  0
  -18.1922  -26.7928   22.1627 C   0  0  0  0  0  0
  -19.1527  -28.8850   23.2898 C   0  0  0  0  0  0
  -18.9449  -30.1450   23.8912 C   0  0  0  0  0  0
  -17.6452  -30.6588   24.0567 C   0  0  0  0  0  0
  -25.9037  -34.9476   23.5130 C   0  0  0  0  0  0
  -16.5343  -29.9089   23.6328 C   0  0  0  0  0  0
  -16.7265  -28.6508   23.0347 C   0  0  0  0  0  0
  -26.4474  -31.6599   25.0727 C   0  0  0  0  0  0
  -25.3731  -31.3703   26.1467 C   0  0  0  0  0  0
  -27.0300  -30.3035   24.6115 C   0  0  0  0  0  0
  -27.6052  -32.4315   25.7488 C   0  0  0  0  0  0
  -27.5585  -37.1814   24.8464 C   0  0  0  0  0  0
  -21.4158  -29.3038   22.3711 N   0  0  0  0  0  0
  -26.4299  -37.3801   23.9407 N   0  0  0  0  0  0
  -24.6751  -31.0724   22.1016 N   0  0  0  0  0  0
  -23.4181  -28.8189   23.3039 O   0  0  0  0  0  0
  -28.3339  -26.5692   20.0674 O   0  0  0  0  0  0
  -26.5603  -34.8927   22.4695 O   0  0  0  0  0  0
  -23.5363  -32.1430   23.7458 O   0  0  0  0  0  0
  -28.4933  -18.7621   20.3381 C   0  0  0  0  0  0
  -28.2841  -20.1869   20.3968 C   0  0  0  0  0  0
  -29.7632  -18.3695   20.6916 C   0  0  0  0  0  0
  -29.3677  -20.8983   20.8596 C   0  0  0  0  0  0
  -28.8840  -24.5905   21.4345 C   0  0  0  0  0  0
  -30.3675  -17.0445   20.6778 C   0  0  0  0  0  0
  -28.7082  -25.9285   21.2294 C   0  0  0  0  0  0
  -29.8311  -15.7895   20.6900 C   0  0  0  0  0  0
  -29.4400  -24.0457   22.7287 C   0  0  0  0  0  0
  -30.1464  -22.7405   22.3403 C   0  0  0  0  0  0
  -28.6999  -23.3711   20.5150 C   0  0  1  0  0  0
  -29.0685  -23.6371   19.0506 C   0  0  0  0  0  0
  -29.5175  -22.2897   21.1054 N   0  0  0  0  0  0
  -30.6855  -19.7757   21.2058 S   0  0  0  0  0  0
  -31.4688  -12.4410   19.1606 H   0  0  0  0  0  0
  -30.3260  -11.3528   19.8966 H   0  0  0  0  0  0
  -29.7633  -11.7499   17.4702 H   0  0  0  0  0  0
  -29.6602  -13.4685   17.7611 H   0  0  0  0  0  0
  -27.8491  -11.2880   18.8536 H   0  0  0  0  0  0
  -27.3737  -12.5813   17.7875 H   0  0  0  0  0  0
  -27.6615  -14.2422   19.5083 H   0  0  0  0  0  0
  -28.6844  -12.0543   21.3886 H   0  0  0  0  0  0
  -28.4501  -13.7204   21.8309 H   0  0  0  0  0  0
  -25.2749   -9.5695   22.4762 H   0  0  0  0  0  0
  -24.0011   -7.4632   22.7463 H   0  0  0  0  0  0
  -21.0839   -8.8734   19.8951 H   0  0  0  0  0  0
  -22.3659  -10.9657   19.6171 H   0  0  0  0  0  0
  -21.2004   -7.6152   23.9728 H   0  0  0  0  0  0
  -21.1495   -6.0524   25.9087 H   0  0  0  0  0  0
  -22.0595   -2.7612   23.2839 H   0  0  0  0  0  0
  -22.4097  -11.9900   22.4808 H   0  0  0  0  0  0
  -21.1097  -13.1258   22.2621 H   0  0  0  0  0  0
  -24.6598  -15.8422   20.5134 H   0  0  0  0  0  0
  -26.2796  -15.6229   20.0832 H   0  0  0  0  0  0
  -26.7128  -32.5525   23.1156 H   0  0  0  0  0  0
  -25.0050  -33.9782   25.0468 H   0  0  0  0  0  0
  -22.6998  -31.3076   21.4092 H   0  0  0  0  0  0
  -23.3747  -35.9650   23.3322 H   0  0  0  0  0  0
  -24.3577  -36.8906   22.2047 H   0  0  0  0  0  0
  -23.7241  -37.6526   23.6636 H   0  0  0  0  0  0
  -26.0578  -31.5796   20.5970 H   0  0  0  0  0  0
  -26.8289  -30.8760   21.9904 H   0  0  0  0  0  0
  -28.1102  -29.0544   21.1919 H   0  0  0  0  0  0
  -26.0548  -25.9518   19.0217 H   0  0  0  0  0  0
  -23.9787  -27.2984   19.0278 H   0  0  0  0  0  0
  -23.7375  -30.5977   19.4068 H   0  0  0  0  0  0
  -22.7447  -29.2465   19.8652 H   0  0  0  0  0  0
  -25.1291  -36.1987   25.0831 H   0  0  0  0  0  0
  -20.9963  -28.3245   24.1436 H   0  0  0  0  0  0
  -20.5687  -26.2285   23.3613 H   0  0  0  0  0  0
  -21.6640  -26.7459   22.1206 H   0  0  0  0  0  0
  -19.6908  -25.6294   21.1252 H   0  0  0  0  0  0
  -19.6689  -27.3203   20.6755 H   0  0  0  0  0  0
  -17.4198  -26.6687   21.4018 H   0  0  0  0  0  0
  -18.0313  -26.0066   22.9022 H   0  0  0  0  0  0
  -19.7926  -30.7265   24.2291 H   0  0  0  0  0  0
  -17.5005  -31.6274   24.5154 H   0  0  0  0  0  0
  -15.5347  -30.2997   23.7640 H   0  0  0  0  0  0
  -15.8665  -28.0834   22.7055 H   0  0  0  0  0  0
  -24.5901  -30.7060   25.7790 H   0  0  0  0  0  0
  -24.8927  -32.2858   26.4933 H   0  0  0  0  0  0
  -25.8073  -30.8849   27.0216 H   0  0  0  0  0  0
  -26.2846  -29.6801   24.1157 H   0  0  0  0  0  0
  -27.4048  -29.7267   25.4581 H   0  0  0  0  0  0
  -27.8696  -30.4347   23.9284 H   0  0  0  0  0  0
  -27.2674  -33.3607   26.2093 H   0  0  0  0  0  0
  -28.3844  -32.6887   25.0299 H   0  0  0  0  0  0
  -28.0734  -31.8419   26.5380 H   0  0  0  0  0  0
  -28.2616  -38.0101   24.7515 H   0  0  0  0  0  0
  -28.1074  -36.2640   24.6294 H   0  0  0  0  0  0
  -27.2305  -37.1465   25.8867 H   0  0  0  0  0  0
  -20.9325  -29.8759   21.6930 H   0  0  0  0  0  0
  -26.0193  -38.2882   24.1403 H   0  0  0  0  0  0
  -27.7181  -18.0914   19.9983 H   0  0  0  0  0  0
  -27.3371  -20.6263   20.1183 H   0  0  0  0  0  0
  -31.4446  -17.0948   20.5860 H   0  0  0  0  0  0
  -28.9171  -26.6463   22.0105 H   0  0  0  0  0  0
  -28.7626  -15.7055   20.8026 H   0  0  0  0  0  0
  -28.6040  -23.8315   23.3966 H   0  0  0  0  0  0
  -30.1044  -24.7488   23.2329 H   0  0  0  0  0  0
  -30.0753  -21.9993   23.1387 H   0  0  0  0  0  0
  -31.2051  -22.9219   22.1480 H   0  0  0  0  0  0
  -27.6506  -23.0756   20.5741 H   0  0  0  0  0  0
  -30.1048  -23.9626   18.9540 H   0  0  0  0  0  0
  -28.4352  -24.4127   18.6201 H   0  0  0  0  0  0
  -28.9418  -22.7416   18.4417 H   0  0  0  0  0  0
  1 25  1  0  0  0
  1 30  2  0  0  0
  1 78  1  0  0  0
  2  3  1  0  0  0
  2 25  1  0  0  0
  2 85  1  0  0  0
  2 86  1  0  0  0
  3  4  1  0  0  0
  3 87  1  0  0  0
  3 88  1  0  0  0
  4  5  1  0  0  0
  4 89  1  0  0  0
  4 90  1  0  0  0
  5  6  1  0  0  0
  5 26  1  0  0  0
  5 91  1  0  0  0
  6 25  1  0  0  0
  6 92  1  0  0  0
  6 93  1  0  0  0
  7  8  2  0  0  0
  7 26  1  0  0  0
  7 29  1  0  0  0
  8  9  1  0  0  0
  8 22  1  0  0  0
  9 10  1  0  0  0
  9 27  2  0  0  0
 10 11  2  0  0  0
 10 15  1  0  0  0
 11 12  1  0  0  0
 11 94  1  0  0  0
 12 13  2  0  0  0
 12 95  1  0  0  0
 13 14  1  0  0  0
 13 31  1  0  0  0
 14 15  2  0  0  0
 14 96  1  0  0  0
 15 97  1  0  0  0
 16 17  2  0  0  0
 16 21  1  0  0  0
 16 31  1  0  0  0
 17 18  1  0  0  0
 17 98  1  0  0  0
 18 19  2  0  0  0
 18 99  1  0  0  0
 19 20  1  0  0  0
 19 24  1  0  0  0
 20 21  2  0  0  0
 20100  1  0  0  0
 21 23  1  0  0  0
 22 28  1  0  0  0
 22 32  2  0  0  0
 26 27  1  0  0  0
 28101  1  0  0  0
 28102  1  0  0  0
 29103  1  0  0  0
 29104  1  0  0  0
 33 34  1  0  0  0
 33 66  1  0  0  0
 33 70  2  0  0  0
 34 36  1  0  0  0
 34 59  1  0  0  0
 34105  1  0  0  0
 35 44  2  0  0  0
 35 45  1  0  0  0
 35 68  1  0  0  0
 36 56  1  0  0  0
 36106  1  0  0  0
 37 39  1  0  0  0
 37 47  1  0  0  0
 37 66  1  0  0  0
 37107  1  0  0  0
 38 43  2  0  0  0
 38 46  1  0  0  0
 38 47  1  0  0  0
 39 64  1  0  0  0
 39 67  2  0  0  0
 40 52  1  0  0  0
 40 53  2  0  0  0
 40 58  1  0  0  0
 41108  1  0  0  0
 41109  1  0  0  0
 41110  1  0  0  0
 41 48  1  0  0  0
 42 43  1  0  0  0
 42 66  1  0  0  0
 42111  1  0  0  0
 42112  1  0  0  0
 43 44  1  0  0  0
 44113  1  0  0  0
 45 46  2  0  0  0
 45114  1  0  0  0
 46115  1  0  0  0
 47116  1  0  0  0
 47117  1  0  0  0
 48 56  1  0  0  0
 48 65  1  0  0  0
 48118  1  0  0  0
 49 50  1  0  0  0
 49 53  1  0  0  0
 49 64  1  0  0  0
 49119  1  0  0  0
 50 51  1  0  0  0
 50120  1  0  0  0
 50121  1  0  0  0
 51 52  1  0  0  0
 51122  1  0  0  0
 51123  1  0  0  0
 52124  1  0  0  0
 52125  1  0  0  0
 53 54  1  0  0  0
 54 55  2  0  0  0
 54126  1  0  0  0
 55 57  1  0  0  0
 55127  1  0  0  0
 56 69  2  0  0  0
 57 58  2  0  0  0
 57128  1  0  0  0
 58129  1  0  0  0
 59 60  1  0  0  0
 59 61  1  0  0  0
 59 62  1  0  0  0
 60130  1  0  0  0
 60131  1  0  0  0
 60132  1  0  0  0
 61133  1  0  0  0
 61134  1  0  0  0
 61135  1  0  0  0
 62136  1  0  0  0
 62137  1  0  0  0
 62138  1  0  0  0
 63 65  1  0  0  0
 63139  1  0  0  0
 63140  1  0  0  0
 63141  1  0  0  0
 64142  1  0  0  0
 65143  1  0  0  0
 68 77  1  0  0  0
 71 72  1  0  0  0
 71 73  2  0  0  0
 71144  1  0  0  0
 72 74  2  0  0  0
 72145  1  0  0  0
 73 76  1  0  0  0
 73 84  1  0  0  0
 74 83  1  0  0  0
 74 84  1  0  0  0
 75 77  2  0  0  0
 75 79  1  0  0  0
 75 81  1  0  0  0
 76 78  2  0  0  0
 76146  1  0  0  0
 77147  1  0  0  0
 78148  1  0  0  0
 79 80  1  0  0  0
 79149  1  0  0  0
 79150  1  0  0  0
 80 83  1  0  0  0
 80151  1  0  0  0
 80152  1  0  0  0
 81 82  1  0  0  0
 81 83  1  0  0  0
 81153  1  0  0  0
 82154  1  0  0  0
 82155  1  0  0  0
 82156  1  0  0  0
M  ISO  4   1 100  68 101  77 101  78 100
M  END
> <chiral flag>
0

> <version>
0

> <s_m_source_file>
/data/baiqing/PycharmProjects/Reinvent-master-3.2/result/LINK_invent/BTK/process_docking_weight1_custom_product_contain_oxygen_bond_distance_aromatic_linkinvent_7_9_3/rearranged_h_0121.sdf

> <i_m_source_file_index>
11

> <r_mmod_Potential_Energy-OPLS-2005>
52.5499801635742

> <r_mmod_Stretch_Energy-OPLS-2005>
45.4339370727539

> <r_mmod_Bend_Energy-OPLS-2005>
147.56233215332

> <r_mmod_Torsional_Energy-OPLS-2005>
236.070541381836

> <r_mmod_Improper_Torsional_Energy-OPLS-2005>
8.10823822021484

> <r_mmod_Van_der_Waal_Energy-OPLS-2005>
116.324478149414

> <r_mmod_Electrostatic_Energy-OPLS-2005>
-324.020324707031

> <r_mmod_Solvation_Energy-OPLS-2005>
-206.45361328125

> <b_mmod_Minimization_Converged-OPLS-2005>
0

> <r_mmod_RMS_Derivative-OPLS-2005>
1.24919652938843

$$$$
11
                    3D
 Structure written by MMmdl.
163171  0  0  1  0            999 V2000
  -30.6269  -14.6016   20.4507 C   0  0  0  0  0  0
  -30.4447  -12.3394   19.4642 C   0  0  0  0  0  0
  -29.5133  -12.4005   18.2332 C   0  0  0  0  0  0
  -28.0241  -12.3298   18.6358 C   0  0  0  0  0  0
  -27.6553  -13.2018   19.8676 C   0  0  2  0  0  0
  -28.7033  -13.0539   20.9922 C   0  0  0  0  0  0
  -25.2594  -13.8141   20.5697 C   0  0  0  0  0  0
  -24.1840  -13.0428   20.9199 C   0  0  0  0  0  0
  -24.6381  -11.6893   20.8758 C   0  0  0  0  0  0
  -23.9036  -10.4285   21.0415 C   0  0  0  0  0  0
  -24.3597   -9.4203   21.9183 C   0  0  0  0  0  0
  -23.6288   -8.2230   22.0736 C   0  0  0  0  0  0
  -22.4271   -8.0270   21.3528 C   0  0  0  0  0  0
  -21.9900   -9.0245   20.4630 C   0  0  0  0  0  0
  -22.7214  -10.2133   20.3055 C   0  0  0  0  0  0
  -21.6853   -6.0734   22.5273 C   0  0  0  0  0  0
  -21.4013   -6.5639   23.8207 C   0  0  0  0  0  0
  -21.3660   -5.6788   24.9164 C   0  0  0  0  0  0
  -21.6047   -4.3054   24.7217 C   0  0  0  0  0  0
  -21.8826   -3.8147   23.4336 C   0  0  0  0  0  0
  -21.9196   -4.6962   22.3391 C   0  0  0  0  0  0
  -22.7867  -13.5233   21.1862 C   0  0  0  0  0  0
  -22.1665   -4.2153   21.0969 F   0  0  0  0  0  0
  -21.5630   -3.4539   25.7728 F   0  0  0  0  0  0
  -30.0185  -13.3783   20.4190 N   0  0  0  0  0  0
  -26.3008  -12.9280   20.3366 N   0  0  0  0  0  0
  -25.9311  -11.6461   20.5815 N   0  0  0  0  0  0
  -22.0498  -12.8224   22.0405 N   0  0  0  0  0  0
  -25.4365  -15.1852   20.4088 N   0  0  0  0  0  0
  -31.8022  -14.7557   20.1099 O   0  0  0  0  0  0
  -21.6631   -6.8874   21.4233 O   0  0  0  0  0  0
  -22.3563  -14.5554   20.6722 O   0  0  0  0  0  0
  -24.6212  -31.8640   23.2068 C   0  0  0  0  0  0
  -25.9082  -32.4798   23.8384 C   0  0  1  0  0  0
  -27.2272  -27.3778   20.1142 C   0  0  0  0  0  0
  -25.5927  -33.8601   24.2314 N   0  0  0  0  0  0
  -23.4120  -30.4880   21.5475 C   0  0  2  0  0  0
  -24.8569  -28.9496   20.1102 C   0  0  0  0  0  0
  -22.7449  -29.4637   22.4956 C   0  0  0  0  0  0
  -18.0279  -28.1414   22.8484 C   0  0  0  0  0  0
  -24.1491  -36.7306   23.2634 C   0  0  0  0  0  0
  -25.9455  -30.8133   21.3674 C   0  0  0  0  0  0
  -26.0190  -29.4445   20.7126 C   0  0  0  0  0  0
  -27.2064  -28.6683   20.7060 C   0  0  0  0  0  0
  -26.0479  -26.9187   19.4838 C   0  0  0  0  0  0
  -24.8694  -27.6911   19.4857 C   0  0  0  0  0  0
  -23.6235  -29.8247   20.1605 C   0  0  0  0  0  0
  -25.4108  -36.3090   24.0332 C   0  0  1  0  0  0
  -20.5876  -28.3694   23.1319 C   0  0  2  0  0  0
  -20.6774  -26.9430   22.5424 C   0  0  0  0  0  0
  -19.5746  -26.6403   21.5231 C   0  0  0  0  0  0
  -18.1922  -26.7956   22.1634 C   0  0  0  0  0  0
  -19.1530  -28.8872   23.2894 C   0  0  0  0  0  0
  -18.9454  -30.1480   23.8901 C   0  0  0  0  0  0
  -17.6453  -30.6605   24.0585 C   0  0  0  0  0  0
  -25.9040  -34.9460   23.5112 C   0  0  0  0  0  0
  -16.5343  -29.9108   23.6344 C   0  0  0  0  0  0
  -16.7267  -28.6543   23.0331 C   0  0  0  0  0  0
  -26.4491  -31.6594   25.0733 C   0  0  0  0  0  0
  -25.3752  -31.3727   26.1483 C   0  0  0  0  0  0
  -27.0319  -30.3028   24.6135 C   0  0  0  0  0  0
  -27.6068  -32.4314   25.7491 C   0  0  0  0  0  0
  -27.5580  -37.1805   24.8457 C   0  0  0  0  0  0
  -21.4168  -29.3054   22.3719 N   0  0  0  0  0  0
  -26.4287  -37.3785   23.9410 N   0  0  0  0  0  0
  -24.6781  -31.0707   22.0986 N   0  0  0  0  0  0
  -23.4194  -28.8179   23.3018 O   0  0  0  0  0  0
  -28.3819  -26.6045   20.1748 O   0  0  0  0  0  0
  -26.5591  -34.8917   22.4664 O   0  0  0  0  0  0
  -23.5388  -32.1410   23.7430 O   0  0  0  0  0  0
  -29.4068  -19.6604   19.1613 C   0  0  0  0  0  0
  -29.7848  -18.1351   21.0124 C   0  0  0  0  0  0
  -29.3986  -18.5714   18.2712 C   0  0  0  0  0  0
  -29.5702  -17.2401   18.7463 C   0  0  0  0  0  0
  -29.7863  -16.9996   20.1428 C   0  0  0  0  0  0
  -29.5820  -19.4692   20.5426 C   0  0  0  0  0  0
  -29.1405  -18.8822   16.8004 C   0  0  0  0  0  0
  -30.7175  -15.7804   16.9727 C   0  0  0  0  0  0
  -29.4251  -16.1021   17.7405 C   0  0  0  0  0  0
  -29.3844  -24.4232   20.8713 C   0  0  0  0  0  0
  -29.7604  -22.9277   20.5452 C   0  0  0  0  0  0
  -28.2874  -25.1563   20.0362 C   0  0  0  0  0  0
  -28.8620  -21.7792   21.1055 C   0  0  0  0  0  0
  -29.8089  -15.6603   20.7193 N   0  0  0  0  0  0
  -29.5594  -20.5418   21.4319 O   0  0  0  0  0  0
  -31.4850  -12.4628   19.1551 H   0  0  0  0  0  0
  -30.3895  -11.3573   19.9361 H   0  0  0  0  0  0
  -29.7430  -11.5698   17.5646 H   0  0  0  0  0  0
  -29.7163  -13.2917   17.6494 H   0  0  0  0  0  0
  -27.8082  -11.2843   18.8569 H   0  0  0  0  0  0
  -27.3920  -12.5926   17.7870 H   0  0  0  0  0  0
  -27.6648  -14.2367   19.5389 H   0  0  0  0  0  0
  -28.7076  -12.0349   21.3831 H   0  0  0  0  0  0
  -28.4620  -13.6965   21.8400 H   0  0  0  0  0  0
  -25.2740   -9.5701   22.4754 H   0  0  0  0  0  0
  -24.0021   -7.4616   22.7444 H   0  0  0  0  0  0
  -21.0835   -8.8758   19.8924 H   0  0  0  0  0  0
  -22.3668  -10.9676   19.6172 H   0  0  0  0  0  0
  -21.2005   -7.6147   23.9718 H   0  0  0  0  0  0
  -21.1476   -6.0506   25.9070 H   0  0  0  0  0  0
  -22.0608   -2.7614   23.2818 H   0  0  0  0  0  0
  -22.4104  -11.9876   22.4788 H   0  0  0  0  0  0
  -21.1119  -13.1259   22.2610 H   0  0  0  0  0  0
  -24.6780  -15.8485   20.5233 H   0  0  0  0  0  0
  -26.2912  -15.6175   20.0821 H   0  0  0  0  0  0
  -26.7155  -32.5495   23.1145 H   0  0  0  0  0  0
  -25.0136  -33.9764   25.0499 H   0  0  0  0  0  0
  -22.7038  -31.3072   21.4082 H   0  0  0  0  0  0
  -23.3750  -35.9642   23.3287 H   0  0  0  0  0  0
  -24.3593  -36.8927   22.2052 H   0  0  0  0  0  0
  -23.7246  -37.6507   23.6659 H   0  0  0  0  0  0
  -26.0651  -31.5770   20.5977 H   0  0  0  0  0  0
  -26.8314  -30.8656   21.9886 H   0  0  0  0  0  0
  -28.1017  -29.0445   21.1808 H   0  0  0  0  0  0
  -26.0194  -25.9616   18.9835 H   0  0  0  0  0  0
  -23.9799  -27.3132   19.0004 H   0  0  0  0  0  0
  -23.7440  -30.6024   19.4053 H   0  0  0  0  0  0
  -22.7448  -29.2524   19.8587 H   0  0  0  0  0  0
  -25.1287  -36.1940   25.0826 H   0  0  0  0  0  0
  -20.9969  -28.3257   24.1439 H   0  0  0  0  0  0
  -20.5717  -26.2295   23.3606 H   0  0  0  0  0  0
  -21.6638  -26.7490   22.1199 H   0  0  0  0  0  0
  -19.6902  -25.6311   21.1269 H   0  0  0  0  0  0
  -19.6694  -27.3211   20.6761 H   0  0  0  0  0  0
  -17.4201  -26.6716   21.4026 H   0  0  0  0  0  0
  -18.0304  -26.0109   22.9045 H   0  0  0  0  0  0
  -19.7925  -30.7309   24.2255 H   0  0  0  0  0  0
  -17.5007  -31.6279   24.5196 H   0  0  0  0  0  0
  -15.5347  -30.3012   23.7672 H   0  0  0  0  0  0
  -15.8669  -28.0888   22.6997 H   0  0  0  0  0  0
  -24.5877  -30.7132   25.7819 H   0  0  0  0  0  0
  -24.9010  -32.2903   26.4979 H   0  0  0  0  0  0
  -25.8094  -30.8844   27.0216 H   0  0  0  0  0  0
  -26.2872  -29.6786   24.1184 H   0  0  0  0  0  0
  -27.4069  -29.7267   25.4603 H   0  0  0  0  0  0
  -27.8721  -30.4337   23.9311 H   0  0  0  0  0  0
  -27.2699  -33.3609   26.2093 H   0  0  0  0  0  0
  -28.3870  -32.6876   25.0311 H   0  0  0  0  0  0
  -28.0754  -31.8425   26.5385 H   0  0  0  0  0  0
  -28.2582  -38.0117   24.7516 H   0  0  0  0  0  0
  -28.1089  -36.2644   24.6262 H   0  0  0  0  0  0
  -27.2306  -37.1431   25.8863 H   0  0  0  0  0  0
  -20.9326  -29.8794   21.6956 H   0  0  0  0  0  0
  -26.0162  -38.2854   24.1420 H   0  0  0  0  0  0
  -29.2587  -20.6537   18.7648 H   0  0  0  0  0  0
  -29.9048  -17.9784   22.0749 H   0  0  0  0  0  0
  -29.1686  -19.9542   16.6052 H   0  0  0  0  0  0
  -28.1547  -18.5269   16.4996 H   0  0  0  0  0  0
  -29.8867  -18.4319   16.1499 H   0  0  0  0  0  0
  -30.5434  -14.9853   16.2472 H   0  0  0  0  0  0
  -31.5131  -15.4523   17.6380 H   0  0  0  0  0  0
  -31.0955  -16.6382   16.4207 H   0  0  0  0  0  0
  -28.6289  -16.3323   17.0336 H   0  0  0  0  0  0
  -29.0570  -15.2218   18.2460 H   0  0  0  0  0  0
  -30.2988  -25.0028   20.7370 H   0  0  0  0  0  0
  -29.1478  -24.5187   21.9318 H   0  0  0  0  0  0
  -30.7483  -22.7699   20.9796 H   0  0  0  0  0  0
  -29.9069  -22.8022   19.4729 H   0  0  0  0  0  0
  -27.3174  -24.7766   20.3606 H   0  0  0  0  0  0
  -28.3934  -24.9048   18.9804 H   0  0  0  0  0  0
  -28.0070  -21.6017   20.4516 H   0  0  0  0  0  0
  -28.4268  -22.1192   22.0455 H   0  0  0  0  0  0
  -28.9518  -15.3939   21.1786 H   0  0  0  0  0  0
  1 25  1  0  0  0
  1 30  2  0  0  0
  1 84  1  0  0  0
  2  3  1  0  0  0
  2 25  1  0  0  0
  2 86  1  0  0  0
  2 87  1  0  0  0
  3  4  1  0  0  0
  3 88  1  0  0  0
  3 89  1  0  0  0
  4  5  1  0  0  0
  4 90  1  0  0  0
  4 91  1  0  0  0
  5  6  1  0  0  0
  5 26  1  0  0  0
  5 92  1  0  0  0
  6 25  1  0  0  0
  6 93  1  0  0  0
  6 94  1  0  0  0
  7  8  2  0  0  0
  7 26  1  0  0  0
  7 29  1  0  0  0
  8  9  1  0  0  0
  8 22  1  0  0  0
  9 10  1  0  0  0
  9 27  2  0  0  0
 10 11  2  0  0  0
 10 15  1  0  0  0
 11 12  1  0  0  0
 11 95  1  0  0  0
 12 13  2  0  0  0
 12 96  1  0  0  0
 13 14  1  0  0  0
 13 31  1  0  0  0
 14 15  2  0  0  0
 14 97  1  0  0  0
 15 98  1  0  0  0
 16 17  2  0  0  0
 16 21  1  0  0  0
 16 31  1  0  0  0
 17 18  1  0  0  0
 17 99  1  0  0  0
 18 19  2  0  0  0
 18100  1  0  0  0
 19 20  1  0  0  0
 19 24  1  0  0  0
 20 21  2  0  0  0
 20101  1  0  0  0
 21 23  1  0  0  0
 22 28  1  0  0  0
 22 32  2  0  0  0
 26 27  1  0  0  0
 28102  1  0  0  0
 28103  1  0  0  0
 29104  1  0  0  0
 29105  1  0  0  0
 33 34  1  0  0  0
 33 66  1  0  0  0
 33 70  2  0  0  0
 34 36  1  0  0  0
 34 59  1  0  0  0
 34106  1  0  0  0
 35 44  2  0  0  0
 35 45  1  0  0  0
 35 68  1  0  0  0
 36 56  1  0  0  0
 36107  1  0  0  0
 37 39  1  0  0  0
 37 47  1  0  0  0
 37 66  1  0  0  0
 37108  1  0  0  0
 38 43  2  0  0  0
 38 46  1  0  0  0
 38 47  1  0  0  0
 39 64  1  0  0  0
 39 67  2  0  0  0
 40 52  1  0  0  0
 40 53  2  0  0  0
 40 58  1  0  0  0
 41109  1  0  0  0
 41110  1  0  0  0
 41111  1  0  0  0
 41 48  1  0  0  0
 42 43  1  0  0  0
 42 66  1  0  0  0
 42112  1  0  0  0
 42113  1  0  0  0
 43 44  1  0  0  0
 44114  1  0  0  0
 45 46  2  0  0  0
 45115  1  0  0  0
 46116  1  0  0  0
 47117  1  0  0  0
 47118  1  0  0  0
 48 56  1  0  0  0
 48 65  1  0  0  0
 48119  1  0  0  0
 49 50  1  0  0  0
 49 53  1  0  0  0
 49 64  1  0  0  0
 49120  1  0  0  0
 50 51  1  0  0  0
 50121  1  0  0  0
 50122  1  0  0  0
 51 52  1  0  0  0
 51123  1  0  0  0
 51124  1  0  0  0
 52125  1  0  0  0
 52126  1  0  0  0
 53 54  1  0  0  0
 54 55  2  0  0  0
 54127  1  0  0  0
 55 57  1  0  0  0
 55128  1  0  0  0
 56 69  2  0  0  0
 57 58  2  0  0  0
 57129  1  0  0  0
 58130  1  0  0  0
 59 60  1  0  0  0
 59 61  1  0  0  0
 59 62  1  0  0  0
 60131  1  0  0  0
 60132  1  0  0  0
 60133  1  0  0  0
 61134  1  0  0  0
 61135  1  0  0  0
 61136  1  0  0  0
 62137  1  0  0  0
 62138  1  0  0  0
 62139  1  0  0  0
 63 65  1  0  0  0
 63140  1  0  0  0
 63141  1  0  0  0
 63142  1  0  0  0
 64143  1  0  0  0
 65144  1  0  0  0
 68 82  1  0  0  0
 71 73  2  0  0  0
 71 76  1  0  0  0
 71145  1  0  0  0
 72 75  1  0  0  0
 72 76  2  0  0  0
 72146  1  0  0  0
 73 74  1  0  0  0
 73 77  1  0  0  0
 74 75  2  0  0  0
 74 79  1  0  0  0
 75 84  1  0  0  0
 76 85  1  0  0  0
 77147  1  0  0  0
 77148  1  0  0  0
 77149  1  0  0  0
 78 79  1  0  0  0
 78150  1  0  0  0
 78151  1  0  0  0
 78152  1  0  0  0
 79153  1  0  0  0
 79154  1  0  0  0
 80 81  1  0  0  0
 80 82  1  0  0  0
 80155  1  0  0  0
 80156  1  0  0  0
 81 83  1  0  0  0
 81157  1  0  0  0
 81158  1  0  0  0
 82159  1  0  0  0
 82160  1  0  0  0
 83 85  1  0  0  0
 83161  1  0  0  0
 83162  1  0  0  0
 84163  1  0  0  0
M  ISO  4   1 100  68 101  82 101  84 100
M  END
> <chiral flag>
0

> <version>
0

> <s_m_source_file>
/data/baiqing/PycharmProjects/Reinvent-master-3.2/result/LINK_invent/BTK/process_docking_weight1_custom_product_contain_oxygen_bond_distance_aromatic_linkinvent_7_9_3/rearranged_h_0121.sdf

> <i_m_source_file_index>
12

> <r_mmod_Potential_Energy-OPLS-2005>
57.8977699279785

> <r_mmod_Stretch_Energy-OPLS-2005>
59.2667007446289

> <r_mmod_Bend_Energy-OPLS-2005>
128.576843261719

> <r_mmod_Torsional_Energy-OPLS-2005>
261.023406982422

> <r_mmod_Improper_Torsional_Energy-OPLS-2005>
5.66913890838623

> <r_mmod_Van_der_Waal_Energy-OPLS-2005>
149.448822021484

> <r_mmod_Electrostatic_Energy-OPLS-2005>
-372.652954101562

> <r_mmod_Solvation_Energy-OPLS-2005>
-209.700790405273

> <b_mmod_Minimization_Converged-OPLS-2005>
0

> <r_mmod_RMS_Derivative-OPLS-2005>
1.66182255744934

$$$$
12
                    3D
 Structure written by MMmdl.
169177  0  0  1  0            999 V2000
  -30.7653  -14.3926   20.7095 C   0  0  0  0  0  0
  -30.4244  -12.3148   19.4005 C   0  0  0  0  0  0
  -29.4956  -12.5449   18.1929 C   0  0  0  0  0  0
  -28.0169  -12.3928   18.5979 C   0  0  0  0  0  0
  -27.6672  -13.2019   19.8752 C   0  0  2  0  0  0
  -28.7007  -12.9338   20.9881 C   0  0  0  0  0  0
  -25.2615  -13.8153   20.5653 C   0  0  0  0  0  0
  -24.1848  -13.0448   20.9158 C   0  0  0  0  0  0
  -24.6374  -11.6901   20.8696 C   0  0  0  0  0  0
  -23.9041  -10.4291   21.0397 C   0  0  0  0  0  0
  -24.3597   -9.4207   21.9188 C   0  0  0  0  0  0
  -23.6275   -8.2242   22.0753 C   0  0  0  0  0  0
  -22.4253   -8.0283   21.3554 C   0  0  0  0  0  0
  -21.9885   -9.0251   20.4656 C   0  0  0  0  0  0
  -22.7219  -10.2129   20.3055 C   0  0  0  0  0  0
  -21.6851   -6.0723   22.5281 C   0  0  0  0  0  0
  -21.4007   -6.5622   23.8212 C   0  0  0  0  0  0
  -21.3662   -5.6784   24.9181 C   0  0  0  0  0  0
  -21.6046   -4.3043   24.7229 C   0  0  0  0  0  0
  -21.8817   -3.8136   23.4356 C   0  0  0  0  0  0
  -21.9194   -4.6950   22.3410 C   0  0  0  0  0  0
  -22.7870  -13.5263   21.1846 C   0  0  0  0  0  0
  -22.1664   -4.2142   21.0987 F   0  0  0  0  0  0
  -21.5635   -3.4530   25.7748 F   0  0  0  0  0  0
  -30.0468  -13.2579   20.4672 N   0  0  0  0  0  0
  -26.3029  -12.9298   20.3317 N   0  0  0  0  0  0
  -25.9293  -11.6460   20.5681 N   0  0  0  0  0  0
  -22.0481  -12.8272   22.0390 N   0  0  0  0  0  0
  -25.4407  -15.1862   20.4079 N   0  0  0  0  0  0
  -31.7645  -14.6747   20.0419 O   0  0  0  0  0  0
  -21.6639   -6.8861   21.4236 O   0  0  0  0  0  0
  -22.3573  -14.5581   20.6715 O   0  0  0  0  0  0
  -24.6143  -31.8699   23.2131 C   0  0  0  0  0  0
  -25.9035  -32.4842   23.8419 C   0  0  1  0  0  0
  -27.2430  -27.4568   20.0846 C   0  0  0  0  0  0
  -25.5883  -33.8640   24.2346 N   0  0  0  0  0  0
  -23.4021  -30.4923   21.5562 C   0  0  2  0  0  0
  -24.8512  -28.9644   20.1185 C   0  0  0  0  0  0
  -22.7411  -29.4654   22.5031 C   0  0  0  0  0  0
  -18.0260  -28.1365   22.8506 C   0  0  0  0  0  0
  -24.1482  -36.7317   23.2642 C   0  0  0  0  0  0
  -25.9304  -30.8426   21.3638 C   0  0  0  0  0  0
  -26.0124  -29.4776   20.7122 C   0  0  0  0  0  0
  -27.2155  -28.7337   20.6976 C   0  0  0  0  0  0
  -26.0614  -26.9525   19.5072 C   0  0  0  0  0  0
  -24.8688  -27.6971   19.5134 C   0  0  0  0  0  0
  -23.6095  -29.8249   20.1713 C   0  0  0  0  0  0
  -25.4098  -36.3128   24.0351 C   0  0  1  0  0  0
  -20.5856  -28.3649   23.1339 C   0  0  2  0  0  0
  -20.6754  -26.9389   22.5432 C   0  0  0  0  0  0
  -19.5736  -26.6386   21.5223 C   0  0  0  0  0  0
  -18.1906  -26.7921   22.1622 C   0  0  0  0  0  0
  -19.1516  -28.8822   23.2914 C   0  0  0  0  0  0
  -18.9443  -30.1433   23.8909 C   0  0  0  0  0  0
  -17.6452  -30.6586   24.0559 C   0  0  0  0  0  0
  -25.9023  -34.9492   23.5147 C   0  0  0  0  0  0
  -16.5336  -29.9085   23.6333 C   0  0  0  0  0  0
  -16.7247  -28.6494   23.0362 C   0  0  0  0  0  0
  -26.4469  -31.6607   25.0729 C   0  0  0  0  0  0
  -25.3743  -31.3727   26.1479 C   0  0  0  0  0  0
  -27.0278  -30.3047   24.6086 C   0  0  0  0  0  0
  -27.6052  -32.4316   25.7485 C   0  0  0  0  0  0
  -27.5582  -37.1807   24.8464 C   0  0  0  0  0  0
  -21.4144  -29.3021   22.3759 N   0  0  0  0  0  0
  -26.4291  -37.3806   23.9422 N   0  0  0  0  0  0
  -24.6673  -31.0806   22.1034 N   0  0  0  0  0  0
  -23.4182  -28.8196   23.3070 O   0  0  0  0  0  0
  -28.3344  -26.6231   20.0012 O   0  0  0  0  0  0
  -26.5587  -34.8943   22.4711 O   0  0  0  0  0  0
  -23.5331  -32.1429   23.7521 O   0  0  0  0  0  0
  -30.2468  -18.7836   21.0146 C   0  0  0  0  0  0
  -32.3224  -17.5476   20.7617 C   0  0  0  0  0  0
  -32.1464  -19.8310   19.9168 C   0  0  0  0  0  0
  -30.9917  -17.6017   21.2262 C   0  0  0  0  0  0
  -30.8079  -19.9047   20.3601 C   0  0  0  0  0  0
  -32.9015  -18.6545   20.1083 C   0  0  0  0  0  0
  -31.8207  -25.9383   20.8366 C   0  0  0  0  0  0
  -30.3973  -16.5160   22.0341 C   0  0  0  0  0  0
  -30.0058  -21.1397   20.2256 C   0  0  0  0  0  0
  -30.3156  -15.1740   21.8613 C   0  0  0  0  0  0
  -30.4768  -22.3875   20.0339 C   0  0  0  0  0  0
  -30.6500  -25.9417   20.1781 C   0  0  0  0  0  0
  -36.7507  -19.2914   20.1196 C   0  0  0  0  0  0
  -34.3424  -18.5934   19.6372 C   0  0  0  0  0  0
  -29.5909  -23.6177   19.8791 C   0  0  0  0  0  0
  -30.3003  -24.8156   19.2036 C   0  0  0  0  0  0
  -29.6258  -27.0632   20.3806 C   0  0  0  0  0  0
  -35.2954  -19.3142   20.6013 C   0  0  0  0  0  0
  -31.4684  -12.4194   19.1000 H   0  0  0  0  0  0
  -30.3289  -11.2907   19.7651 H   0  0  0  0  0  0
  -29.7410  -11.8463   17.3916 H   0  0  0  0  0  0
  -29.6634  -13.5442   17.7881 H   0  0  0  0  0  0
  -27.8198  -11.3334   18.7601 H   0  0  0  0  0  0
  -27.3713  -12.6996   17.7737 H   0  0  0  0  0  0
  -27.7299  -14.2582   19.6136 H   0  0  0  0  0  0
  -28.6724  -11.8821   21.2776 H   0  0  0  0  0  0
  -28.4042  -13.4757   21.8826 H   0  0  0  0  0  0
  -25.2747   -9.5694   22.4756 H   0  0  0  0  0  0
  -24.0010   -7.4616   22.7455 H   0  0  0  0  0  0
  -21.0827   -8.8766   19.8943 H   0  0  0  0  0  0
  -22.3692  -10.9659   19.6151 H   0  0  0  0  0  0
  -21.1990   -7.6130   23.9717 H   0  0  0  0  0  0
  -21.1491   -6.0510   25.9083 H   0  0  0  0  0  0
  -22.0599   -2.7599   23.2863 H   0  0  0  0  0  0
  -22.4042  -11.9934   22.4810 H   0  0  0  0  0  0
  -21.1098  -13.1321   22.2567 H   0  0  0  0  0  0
  -24.6901  -15.8597   20.5251 H   0  0  0  0  0  0
  -26.3154  -15.6138   20.1277 H   0  0  0  0  0  0
  -26.7115  -32.5582   23.1198 H   0  0  0  0  0  0
  -25.0038  -33.9800   25.0495 H   0  0  0  0  0  0
  -22.6892  -31.3083   21.4200 H   0  0  0  0  0  0
  -23.3751  -35.9642   23.3301 H   0  0  0  0  0  0
  -24.3575  -36.8922   22.2056 H   0  0  0  0  0  0
  -23.7215  -37.6520   23.6646 H   0  0  0  0  0  0
  -26.0348  -31.6089   20.5945 H   0  0  0  0  0  0
  -26.8215  -30.9014   21.9771 H   0  0  0  0  0  0
  -28.1025  -29.1446   21.1582 H   0  0  0  0  0  0
  -26.0692  -25.9746   19.0476 H   0  0  0  0  0  0
  -23.9772  -27.2911   19.0556 H   0  0  0  0  0  0
  -23.7090  -30.5996   19.4105 H   0  0  0  0  0  0
  -22.7366  -29.2385   19.8806 H   0  0  0  0  0  0
  -25.1269  -36.2010   25.0845 H   0  0  0  0  0  0
  -20.9930  -28.3206   24.1469 H   0  0  0  0  0  0
  -20.5665  -26.2252   23.3611 H   0  0  0  0  0  0
  -21.6623  -26.7445   22.1217 H   0  0  0  0  0  0
  -19.6897  -25.6308   21.1225 H   0  0  0  0  0  0
  -19.6674  -27.3215   20.6765 H   0  0  0  0  0  0
  -17.4193  -26.6700   21.4002 H   0  0  0  0  0  0
  -18.0272  -26.0043   22.8990 H   0  0  0  0  0  0
  -19.7919  -30.7248   24.2285 H   0  0  0  0  0  0
  -17.5004  -31.6263   24.5159 H   0  0  0  0  0  0
  -15.5335  -30.2986   23.7648 H   0  0  0  0  0  0
  -15.8647  -28.0811   22.7087 H   0  0  0  0  0  0
  -24.5898  -30.7087   25.7831 H   0  0  0  0  0  0
  -24.8957  -32.2895   26.4936 H   0  0  0  0  0  0
  -25.8090  -30.8891   27.0231 H   0  0  0  0  0  0
  -26.2805  -29.6828   24.1141 H   0  0  0  0  0  0
  -27.4045  -29.7260   25.4528 H   0  0  0  0  0  0
  -27.8648  -30.4357   23.9223 H   0  0  0  0  0  0
  -27.2683  -33.3616   26.2079 H   0  0  0  0  0  0
  -28.3851  -32.6865   25.0299 H   0  0  0  0  0  0
  -28.0730  -31.8429   26.5386 H   0  0  0  0  0  0
  -28.2609  -38.0098   24.7508 H   0  0  0  0  0  0
  -28.1059  -36.2625   24.6271 H   0  0  0  0  0  0
  -27.2301  -37.1455   25.8868 H   0  0  0  0  0  0
  -20.9311  -29.8736   21.6969 H   0  0  0  0  0  0
  -26.0185  -38.2892   24.1409 H   0  0  0  0  0  0
  -29.2359  -18.8464   21.3954 H   0  0  0  0  0  0
  -32.9232  -16.6697   20.9492 H   0  0  0  0  0  0
  -32.6121  -20.6756   19.4277 H   0  0  0  0  0  0
  -32.5420  -25.1454   20.6953 H   0  0  0  0  0  0
  -32.0788  -26.7275   21.5283 H   0  0  0  0  0  0
  -29.9798  -16.8740   22.9654 H   0  0  0  0  0  0
  -28.9345  -21.0042   20.2753 H   0  0  0  0  0  0
  -29.8781  -14.6391   22.6895 H   0  0  0  0  0  0
  -31.5430  -22.5625   19.9984 H   0  0  0  0  0  0
  -37.3933  -19.8539   20.7984 H   0  0  0  0  0  0
  -36.8471  -19.7411   19.1304 H   0  0  0  0  0  0
  -37.1323  -18.2707   20.0630 H   0  0  0  0  0  0
  -34.4083  -19.0363   18.6419 H   0  0  0  0  0  0
  -34.6415  -17.5499   19.5268 H   0  0  0  0  0  0
  -29.2115  -23.9007   20.8618 H   0  0  0  0  0  0
  -28.7171  -23.3336   19.2898 H   0  0  0  0  0  0
  -31.2069  -24.4828   18.6967 H   0  0  0  0  0  0
  -29.6743  -25.2196   18.4064 H   0  0  0  0  0  0
  -29.9111  -27.9156   19.7609 H   0  0  0  0  0  0
  -29.6344  -27.3847   21.4223 H   0  0  0  0  0  0
  -34.9744  -20.3494   20.7207 H   0  0  0  0  0  0
  -35.2313  -18.8562   21.5899 H   0  0  0  0  0  0
  1 25  1  0  0  0
  1 30  2  0  0  0
  1 80  1  0  0  0
  2  3  1  0  0  0
  2 25  1  0  0  0
  2 89  1  0  0  0
  2 90  1  0  0  0
  3  4  1  0  0  0
  3 91  1  0  0  0
  3 92  1  0  0  0
  4  5  1  0  0  0
  4 93  1  0  0  0
  4 94  1  0  0  0
  5  6  1  0  0  0
  5 26  1  0  0  0
  5 95  1  0  0  0
  6 25  1  0  0  0
  6 96  1  0  0  0
  6 97  1  0  0  0
  7  8  2  0  0  0
  7 26  1  0  0  0
  7 29  1  0  0  0
  8  9  1  0  0  0
  8 22  1  0  0  0
  9 10  1  0  0  0
  9 27  2  0  0  0
 10 11  2  0  0  0
 10 15  1  0  0  0
 11 12  1  0  0  0
 11 98  1  0  0  0
 12 13  2  0  0  0
 12 99  1  0  0  0
 13 14  1  0  0  0
 13 31  1  0  0  0
 14 15  2  0  0  0
 14100  1  0  0  0
 15101  1  0  0  0
 16 17  2  0  0  0
 16 21  1  0  0  0
 16 31  1  0  0  0
 17 18  1  0  0  0
 17102  1  0  0  0
 18 19  2  0  0  0
 18103  1  0  0  0
 19 20  1  0  0  0
 19 24  1  0  0  0
 20 21  2  0  0  0
 20104  1  0  0  0
 21 23  1  0  0  0
 22 28  1  0  0  0
 22 32  2  0  0  0
 26 27  1  0  0  0
 28105  1  0  0  0
 28106  1  0  0  0
 29107  1  0  0  0
 29108  1  0  0  0
 33 34  1  0  0  0
 33 66  1  0  0  0
 33 70  2  0  0  0
 34 36  1  0  0  0
 34 59  1  0  0  0
 34109  1  0  0  0
 35 44  2  0  0  0
 35 45  1  0  0  0
 35 68  1  0  0  0
 36 56  1  0  0  0
 36110  1  0  0  0
 37 39  1  0  0  0
 37 47  1  0  0  0
 37 66  1  0  0  0
 37111  1  0  0  0
 38 43  2  0  0  0
 38 46  1  0  0  0
 38 47  1  0  0  0
 39 64  1  0  0  0
 39 67  2  0  0  0
 40 52  1  0  0  0
 40 53  2  0  0  0
 40 58  1  0  0  0
 41112  1  0  0  0
 41113  1  0  0  0
 41114  1  0  0  0
 41 48  1  0  0  0
 42 43  1  0  0  0
 42 66  1  0  0  0
 42115  1  0  0  0
 42116  1  0  0  0
 43 44  1  0  0  0
 44117  1  0  0  0
 45 46  2  0  0  0
 45118  1  0  0  0
 46119  1  0  0  0
 47120  1  0  0  0
 47121  1  0  0  0
 48 56  1  0  0  0
 48 65  1  0  0  0
 48122  1  0  0  0
 49 50  1  0  0  0
 49 53  1  0  0  0
 49 64  1  0  0  0
 49123  1  0  0  0
 50 51  1  0  0  0
 50124  1  0  0  0
 50125  1  0  0  0
 51 52  1  0  0  0
 51126  1  0  0  0
 51127  1  0  0  0
 52128  1  0  0  0
 52129  1  0  0  0
 53 54  1  0  0  0
 54 55  2  0  0  0
 54130  1  0  0  0
 55 57  1  0  0  0
 55131  1  0  0  0
 56 69  2  0  0  0
 57 58  2  0  0  0
 57132  1  0  0  0
 58133  1  0  0  0
 59 60  1  0  0  0
 59 61  1  0  0  0
 59 62  1  0  0  0
 60134  1  0  0  0
 60135  1  0  0  0
 60136  1  0  0  0
 61137  1  0  0  0
 61138  1  0  0  0
 61139  1  0  0  0
 62140  1  0  0  0
 62141  1  0  0  0
 62142  1  0  0  0
 63 65  1  0  0  0
 63143  1  0  0  0
 63144  1  0  0  0
 63145  1  0  0  0
 64146  1  0  0  0
 65147  1  0  0  0
 68 87  1  0  0  0
 71 74  2  0  0  0
 71 75  1  0  0  0
 71148  1  0  0  0
 72 74  1  0  0  0
 72 76  2  0  0  0
 72149  1  0  0  0
 73 75  2  0  0  0
 73 76  1  0  0  0
 73150  1  0  0  0
 74 78  1  0  0  0
 75 79  1  0  0  0
 76 84  1  0  0  0
 77 82  2  0  0  0
 77151  1  0  0  0
 77152  1  0  0  0
 78 80  2  0  0  0
 78153  1  0  0  0
 79 81  2  0  0  0
 79154  1  0  0  0
 80155  1  0  0  0
 81 85  1  0  0  0
 81156  1  0  0  0
 82 86  1  0  0  0
 82 87  1  0  0  0
 83 88  1  0  0  0
 83157  1  0  0  0
 83158  1  0  0  0
 83159  1  0  0  0
 84 88  1  0  0  0
 84160  1  0  0  0
 84161  1  0  0  0
 85 86  1  0  0  0
 85162  1  0  0  0
 85163  1  0  0  0
 86164  1  0  0  0
 86165  1  0  0  0
 87166  1  0  0  0
 87167  1  0  0  0
 88168  1  0  0  0
 88169  1  0  0  0
M  ISO  4   1 100  68 101  80 100  87 101
M  END
> <chiral flag>
0

> <version>
0

> <s_m_source_file>
/data/baiqing/PycharmProjects/Reinvent-master-3.2/result/LINK_invent/BTK/process_docking_weight1_custom_product_contain_oxygen_bond_distance_aromatic_linkinvent_7_9_3/rearranged_h_0121.sdf

> <i_m_source_file_index>
13

> <r_mmod_Potential_Energy-OPLS-2005>
36.4791259765625

> <r_mmod_Stretch_Energy-OPLS-2005>
36.0530052185059

> <r_mmod_Bend_Energy-OPLS-2005>
118.409088134766

> <r_mmod_Torsional_Energy-OPLS-2005>
214.14665222168

> <r_mmod_Improper_Torsional_Energy-OPLS-2005>
2.81123685836792

> <r_mmod_Van_der_Waal_Energy-OPLS-2005>
153.943099975586

> <r_mmod_Electrostatic_Energy-OPLS-2005>
-315.174255371094

> <r_mmod_Solvation_Energy-OPLS-2005>
-182.934646606445

> <b_mmod_Minimization_Converged-OPLS-2005>
0

> <r_mmod_RMS_Derivative-OPLS-2005>
2.56556701660156

$$$$
13
                    3D
 Structure written by MMmdl.
157165  0  0  1  0            999 V2000
  -30.6808  -14.5171   20.4799 C   0  0  0  0  0  0
  -30.4202  -12.2996   19.4266 C   0  0  0  0  0  0
  -29.4968  -12.4732   18.2032 C   0  0  0  0  0  0
  -28.0138  -12.3418   18.6087 C   0  0  0  0  0  0
  -27.6536  -13.2050   19.8479 C   0  0  2  0  0  0
  -28.7025  -13.0384   20.9727 C   0  0  0  0  0  0
  -25.2579  -13.8162   20.5662 C   0  0  0  0  0  0
  -24.1858  -13.0463   20.9233 C   0  0  0  0  0  0
  -24.6408  -11.6916   20.8754 C   0  0  0  0  0  0
  -23.9063  -10.4312   21.0393 C   0  0  0  0  0  0
  -24.3614   -9.4219   21.9153 C   0  0  0  0  0  0
  -23.6313   -8.2239   22.0722 C   0  0  0  0  0  0
  -22.4283   -8.0278   21.3527 C   0  0  0  0  0  0
  -21.9920   -9.0246   20.4613 C   0  0  0  0  0  0
  -22.7242  -10.2137   20.3036 C   0  0  0  0  0  0
  -21.6848   -6.0752   22.5291 C   0  0  0  0  0  0
  -21.4007   -6.5654   23.8228 C   0  0  0  0  0  0
  -21.3666   -5.6794   24.9183 C   0  0  0  0  0  0
  -21.6054   -4.3059   24.7225 C   0  0  0  0  0  0
  -21.8821   -3.8159   23.4348 C   0  0  0  0  0  0
  -21.9204   -4.6981   22.3411 C   0  0  0  0  0  0
  -22.7864  -13.5243   21.1866 C   0  0  0  0  0  0
  -22.1665   -4.2175   21.0977 F   0  0  0  0  0  0
  -21.5631   -3.4538   25.7731 F   0  0  0  0  0  0
  -30.0245  -13.3249   20.3997 N   0  0  0  0  0  0
  -26.2983  -12.9328   20.3223 N   0  0  0  0  0  0
  -25.9321  -11.6500   20.5723 N   0  0  0  0  0  0
  -22.0503  -12.8235   22.0404 N   0  0  0  0  0  0
  -25.4288  -15.1887   20.4014 N   0  0  0  0  0  0
  -31.8610  -14.6398   20.1476 O   0  0  0  0  0  0
  -21.6644   -6.8883   21.4239 O   0  0  0  0  0  0
  -22.3549  -14.5555   20.6705 O   0  0  0  0  0  0
  -24.6183  -31.8598   23.1946 C   0  0  0  0  0  0
  -25.9044  -32.4755   23.8271 C   0  0  1  0  0  0
  -27.2805  -27.4034   20.0901 C   0  0  0  0  0  0
  -25.5845  -33.8542   24.2232 N   0  0  0  0  0  0
  -23.4120  -30.4746   21.5342 C   0  0  2  0  0  0
  -24.8711  -28.9243   20.1110 C   0  0  0  0  0  0
  -22.7425  -29.4596   22.4895 C   0  0  0  0  0  0
  -18.0275  -28.1349   22.8470 C   0  0  0  0  0  0
  -24.1498  -36.7301   23.2654 C   0  0  0  0  0  0
  -25.9427  -30.8171   21.3459 C   0  0  0  0  0  0
  -26.0271  -29.4437   20.7029 C   0  0  0  0  0  0
  -27.2263  -28.6900   20.6878 C   0  0  0  0  0  0
  -26.0967  -26.8955   19.5075 C   0  0  0  0  0  0
  -24.9029  -27.6505   19.5118 C   0  0  0  0  0  0
  -23.6259  -29.7864   20.1566 C   0  0  0  0  0  0
  -25.4122  -36.3064   24.0356 C   0  0  1  0  0  0
  -20.5875  -28.3630   23.1281 C   0  0  2  0  0  0
  -20.6765  -26.9335   22.5426 C   0  0  0  0  0  0
  -19.5744  -26.6340   21.5221 C   0  0  0  0  0  0
  -18.1904  -26.7882   22.1617 C   0  0  0  0  0  0
  -19.1525  -28.8805   23.2868 C   0  0  0  0  0  0
  -18.9467  -30.1414   23.8855 C   0  0  0  0  0  0
  -17.6465  -30.6554   24.0533 C   0  0  0  0  0  0
  -25.9059  -34.9431   23.5129 C   0  0  0  0  0  0
  -16.5350  -29.9072   23.6322 C   0  0  0  0  0  0
  -16.7261  -28.6510   23.0317 C   0  0  0  0  0  0
  -26.4472  -31.6548   25.0593 C   0  0  0  0  0  0
  -25.3756  -31.3655   26.1357 C   0  0  0  0  0  0
  -27.0338  -30.3007   24.5956 C   0  0  0  0  0  0
  -27.6009  -32.4318   25.7335 C   0  0  0  0  0  0
  -27.5578  -37.1801   24.8465 C   0  0  0  0  0  0
  -21.4142  -29.3001   22.3674 N   0  0  0  0  0  0
  -26.4291  -37.3772   23.9430 N   0  0  0  0  0  0
  -24.6755  -31.0678   22.0840 N   0  0  0  0  0  0
  -23.4188  -28.8147   23.2948 O   0  0  0  0  0  0
  -28.4910  -26.7168   20.1152 O   0  0  0  0  0  0
  -26.5657  -34.8899   22.4705 O   0  0  0  0  0  0
  -23.5380  -32.1336   23.7360 O   0  0  0  0  0  0
  -30.7359  -19.7754   21.1183 C   0  0  0  0  0  0
  -29.2089  -17.9683   20.5739 C   0  0  0  0  0  0
  -31.4895  -17.4432   21.2145 C   0  0  0  0  0  0
  -29.4467  -19.3681   20.7188 C   0  0  0  0  0  0
  -31.7456  -18.8222   21.3790 C   0  0  0  0  0  0
  -30.2139  -16.9909   20.8089 C   0  0  0  0  0  0
  -28.3154  -20.3098   20.4523 C   0  0  0  0  0  0
  -28.1688  -21.6456   20.2237 C   0  0  0  0  0  0
  -33.1145  -19.2773   21.8429 C   0  0  0  0  0  0
  -29.1441  -22.8240   20.0715 C   0  0  0  0  0  0
  -28.5574  -24.2167   20.5162 C   0  0  0  0  0  0
  -28.7015  -25.4110   19.5168 C   0  0  0  0  0  0
  -29.8792  -15.5914   20.6836 N   0  0  0  0  0  0
  -31.4657  -12.3848   19.1271 H   0  0  0  0  0  0
  -30.3151  -11.3033   19.8635 H   0  0  0  0  0  0
  -29.7433  -11.7365   17.4374 H   0  0  0  0  0  0
  -29.6645  -13.4529   17.7540 H   0  0  0  0  0  0
  -27.8159  -11.2903   18.8186 H   0  0  0  0  0  0
  -27.3748  -12.6072   17.7646 H   0  0  0  0  0  0
  -27.6809  -14.2382   19.5005 H   0  0  0  0  0  0
  -28.6831  -12.0238   21.3757 H   0  0  0  0  0  0
  -28.4802  -13.7010   21.8100 H   0  0  0  0  0  0
  -25.2757   -9.5732   22.4720 H   0  0  0  0  0  0
  -24.0049   -7.4650   22.7453 H   0  0  0  0  0  0
  -21.0854   -8.8780   19.8916 H   0  0  0  0  0  0
  -22.3694  -10.9678   19.6150 H   0  0  0  0  0  0
  -21.1973   -7.6149   23.9752 H   0  0  0  0  0  0
  -21.1474   -6.0502   25.9095 H   0  0  0  0  0  0
  -22.0587   -2.7627   23.2840 H   0  0  0  0  0  0
  -22.4110  -11.9901   22.4804 H   0  0  0  0  0  0
  -21.1085  -13.1189   22.2543 H   0  0  0  0  0  0
  -24.6638  -15.8421   20.5318 H   0  0  0  0  0  0
  -26.2501  -15.6219   20.0018 H   0  0  0  0  0  0
  -26.7109  -32.5443   23.1025 H   0  0  0  0  0  0
  -24.9753  -33.9637   25.0210 H   0  0  0  0  0  0
  -22.7056  -31.2925   21.3820 H   0  0  0  0  0  0
  -23.3719  -35.9665   23.3302 H   0  0  0  0  0  0
  -24.3537  -36.8933   22.2055 H   0  0  0  0  0  0
  -23.7330  -37.6541   23.6678 H   0  0  0  0  0  0
  -26.0559  -31.5720   20.5651 H   0  0  0  0  0  0
  -26.8318  -30.8766   21.9628 H   0  0  0  0  0  0
  -28.1199  -29.0941   21.1439 H   0  0  0  0  0  0
  -26.0776  -25.9127   19.0585 H   0  0  0  0  0  0
  -24.0138  -27.2316   19.0619 H   0  0  0  0  0  0
  -23.7230  -30.5538   19.3865 H   0  0  0  0  0  0
  -22.7583  -29.1871   19.8690 H   0  0  0  0  0  0
  -25.1310  -36.1884   25.0857 H   0  0  0  0  0  0
  -20.9960  -28.3196   24.1410 H   0  0  0  0  0  0
  -20.5686  -26.2199   23.3616 H   0  0  0  0  0  0
  -21.6624  -26.7349   22.1192 H   0  0  0  0  0  0
  -19.6887  -25.6276   21.1199 H   0  0  0  0  0  0
  -19.6701  -27.3182   20.6776 H   0  0  0  0  0  0
  -17.4188  -26.6618   21.4001 H   0  0  0  0  0  0
  -18.0288  -26.0031   22.9021 H   0  0  0  0  0  0
  -19.7964  -30.7221   24.2190 H   0  0  0  0  0  0
  -17.5056  -31.6244   24.5119 H   0  0  0  0  0  0
  -15.5362  -30.2968   23.7704 H   0  0  0  0  0  0
  -15.8642  -28.0856   22.7004 H   0  0  0  0  0  0
  -24.5902  -30.7032   25.7724 H   0  0  0  0  0  0
  -24.8951  -32.2791   26.4843 H   0  0  0  0  0  0
  -25.8123  -30.8809   27.0091 H   0  0  0  0  0  0
  -26.2886  -29.6679   24.1131 H   0  0  0  0  0  0
  -27.4266  -29.7324   25.4390 H   0  0  0  0  0  0
  -27.8604  -30.4303   23.8956 H   0  0  0  0  0  0
  -27.2584  -33.3629   26.1859 H   0  0  0  0  0  0
  -28.3792  -32.6874   25.0146 H   0  0  0  0  0  0
  -28.0669  -31.8476   26.5271 H   0  0  0  0  0  0
  -28.2599  -38.0095   24.7495 H   0  0  0  0  0  0
  -28.1067  -36.2618   24.6296 H   0  0  0  0  0  0
  -27.2256  -37.1460   25.8856 H   0  0  0  0  0  0
  -20.9317  -29.8695   21.6857 H   0  0  0  0  0  0
  -26.0157  -38.2839   24.1448 H   0  0  0  0  0  0
  -30.9561  -20.8197   21.2691 H   0  0  0  0  0  0
  -28.2294  -17.6351   20.2687 H   0  0  0  0  0  0
  -32.2841  -16.7415   21.4230 H   0  0  0  0  0  0
  -27.3666  -19.7887   20.4531 H   0  0  0  0  0  0
  -27.1406  -21.9479   20.0815 H   0  0  0  0  0  0
  -33.0921  -20.3082   22.2022 H   0  0  0  0  0  0
  -33.8217  -19.2164   21.0157 H   0  0  0  0  0  0
  -33.4792  -18.6501   22.6571 H   0  0  0  0  0  0
  -30.0692  -22.6258   20.6058 H   0  0  0  0  0  0
  -29.4055  -22.8759   19.0140 H   0  0  0  0  0  0
  -29.0491  -24.4954   21.4495 H   0  0  0  0  0  0
  -27.4989  -24.1226   20.7558 H   0  0  0  0  0  0
  -29.7331  -25.4181   19.1575 H   0  0  0  0  0  0
  -28.1099  -25.2581   18.6161 H   0  0  0  0  0  0
  -28.8954  -15.3714   20.6940 H   0  0  0  0  0  0
  1 25  1  0  0  0
  1 30  2  0  0  0
  1 83  1  0  0  0
  2  3  1  0  0  0
  2 25  1  0  0  0
  2 84  1  0  0  0
  2 85  1  0  0  0
  3  4  1  0  0  0
  3 86  1  0  0  0
  3 87  1  0  0  0
  4  5  1  0  0  0
  4 88  1  0  0  0
  4 89  1  0  0  0
  5  6  1  0  0  0
  5 26  1  0  0  0
  5 90  1  0  0  0
  6 25  1  0  0  0
  6 91  1  0  0  0
  6 92  1  0  0  0
  7  8  2  0  0  0
  7 26  1  0  0  0
  7 29  1  0  0  0
  8  9  1  0  0  0
  8 22  1  0  0  0
  9 10  1  0  0  0
  9 27  2  0  0  0
 10 11  2  0  0  0
 10 15  1  0  0  0
 11 12  1  0  0  0
 11 93  1  0  0  0
 12 13  2  0  0  0
 12 94  1  0  0  0
 13 14  1  0  0  0
 13 31  1  0  0  0
 14 15  2  0  0  0
 14 95  1  0  0  0
 15 96  1  0  0  0
 16 17  2  0  0  0
 16 21  1  0  0  0
 16 31  1  0  0  0
 17 18  1  0  0  0
 17 97  1  0  0  0
 18 19  2  0  0  0
 18 98  1  0  0  0
 19 20  1  0  0  0
 19 24  1  0  0  0
 20 21  2  0  0  0
 20 99  1  0  0  0
 21 23  1  0  0  0
 22 28  1  0  0  0
 22 32  2  0  0  0
 26 27  1  0  0  0
 28100  1  0  0  0
 28101  1  0  0  0
 29102  1  0  0  0
 29103  1  0  0  0
 33 34  1  0  0  0
 33 66  1  0  0  0
 33 70  2  0  0  0
 34 36  1  0  0  0
 34 59  1  0  0  0
 34104  1  0  0  0
 35 44  2  0  0  0
 35 45  1  0  0  0
 35 68  1  0  0  0
 36 56  1  0  0  0
 36105  1  0  0  0
 37 39  1  0  0  0
 37 47  1  0  0  0
 37 66  1  0  0  0
 37106  1  0  0  0
 38 43  2  0  0  0
 38 46  1  0  0  0
 38 47  1  0  0  0
 39 64  1  0  0  0
 39 67  2  0  0  0
 40 52  1  0  0  0
 40 53  2  0  0  0
 40 58  1  0  0  0
 41107  1  0  0  0
 41108  1  0  0  0
 41109  1  0  0  0
 41 48  1  0  0  0
 42 43  1  0  0  0
 42 66  1  0  0  0
 42110  1  0  0  0
 42111  1  0  0  0
 43 44  1  0  0  0
 44112  1  0  0  0
 45 46  2  0  0  0
 45113  1  0  0  0
 46114  1  0  0  0
 47115  1  0  0  0
 47116  1  0  0  0
 48 56  1  0  0  0
 48 65  1  0  0  0
 48117  1  0  0  0
 49 50  1  0  0  0
 49 53  1  0  0  0
 49 64  1  0  0  0
 49118  1  0  0  0
 50 51  1  0  0  0
 50119  1  0  0  0
 50120  1  0  0  0
 51 52  1  0  0  0
 51121  1  0  0  0
 51122  1  0  0  0
 52123  1  0  0  0
 52124  1  0  0  0
 53 54  1  0  0  0
 54 55  2  0  0  0
 54125  1  0  0  0
 55 57  1  0  0  0
 55126  1  0  0  0
 56 69  2  0  0  0
 57 58  2  0  0  0
 57127  1  0  0  0
 58128  1  0  0  0
 59 60  1  0  0  0
 59 61  1  0  0  0
 59 62  1  0  0  0
 60129  1  0  0  0
 60130  1  0  0  0
 60131  1  0  0  0
 61132  1  0  0  0
 61133  1  0  0  0
 61134  1  0  0  0
 62135  1  0  0  0
 62136  1  0  0  0
 62137  1  0  0  0
 63 65  1  0  0  0
 63138  1  0  0  0
 63139  1  0  0  0
 63140  1  0  0  0
 64141  1  0  0  0
 65142  1  0  0  0
 68 82  1  0  0  0
 71 74  2  0  0  0
 71 75  1  0  0  0
 71143  1  0  0  0
 72 74  1  0  0  0
 72 76  2  0  0  0
 72144  1  0  0  0
 73 75  2  0  0  0
 73 76  1  0  0  0
 73145  1  0  0  0
 74 77  1  0  0  0
 75 79  1  0  0  0
 76 83  1  0  0  0
 77 78  2  0  0  0
 77146  1  0  0  0
 78 80  1  0  0  0
 78147  1  0  0  0
 79148  1  0  0  0
 79149  1  0  0  0
 79150  1  0  0  0
 80 81  1  0  0  0
 80151  1  0  0  0
 80152  1  0  0  0
 81 82  1  0  0  0
 81153  1  0  0  0
 81154  1  0  0  0
 82155  1  0  0  0
 82156  1  0  0  0
 83157  1  0  0  0
M  ISO  4   1 100  68 101  82 101  83 100
M  END
> <chiral flag>
0

> <version>
0

> <s_m_source_file>
/data/baiqing/PycharmProjects/Reinvent-master-3.2/result/LINK_invent/BTK/process_docking_weight1_custom_product_contain_oxygen_bond_distance_aromatic_linkinvent_7_9_3/rearranged_h_0121.sdf

> <i_m_source_file_index>
14

> <r_mmod_Potential_Energy-OPLS-2005>
45.8922233581543

> <r_mmod_Stretch_Energy-OPLS-2005>
49.5810089111328

> <r_mmod_Bend_Energy-OPLS-2005>
146.673873901367

> <r_mmod_Torsional_Energy-OPLS-2005>
220.816741943359

> <r_mmod_Improper_Torsional_Energy-OPLS-2005>
6.86763572692871

> <r_mmod_Van_der_Waal_Energy-OPLS-2005>
146.279846191406

> <r_mmod_Electrostatic_Energy-OPLS-2005>
-344.738891601562

> <r_mmod_Solvation_Energy-OPLS-2005>
-203.217987060547

> <b_mmod_Minimization_Converged-OPLS-2005>
0

> <r_mmod_RMS_Derivative-OPLS-2005>
4.87523412704468

$$$$
14
                    3D
 Structure written by MMmdl.
161169  0  0  1  0            999 V2000
  -30.7105  -14.4255   20.6326 C   0  0  0  0  0  0
  -30.4304  -12.3047   19.4031 C   0  0  0  0  0  0
  -29.4905  -12.5115   18.1978 C   0  0  0  0  0  0
  -28.0149  -12.3519   18.6141 C   0  0  0  0  0  0
  -27.6644  -13.1777   19.8771 C   0  0  2  0  0  0
  -28.7059  -12.9353   20.9915 C   0  0  0  0  0  0
  -25.2628  -13.8077   20.5648 C   0  0  0  0  0  0
  -24.1845  -13.0402   20.9143 C   0  0  0  0  0  0
  -24.6350  -11.6858   20.8716 C   0  0  0  0  0  0
  -23.9002  -10.4269   21.0399 C   0  0  0  0  0  0
  -24.3576   -9.4200   21.9181 C   0  0  0  0  0  0
  -23.6266   -8.2230   22.0755 C   0  0  0  0  0  0
  -22.4251   -8.0257   21.3549 C   0  0  0  0  0  0
  -21.9869   -9.0219   20.4657 C   0  0  0  0  0  0
  -22.7172  -10.2108   20.3058 C   0  0  0  0  0  0
  -21.6847   -6.0715   22.5277 C   0  0  0  0  0  0
  -21.4009   -6.5636   23.8200 C   0  0  0  0  0  0
  -21.3662   -5.6798   24.9169 C   0  0  0  0  0  0
  -21.6045   -4.3054   24.7226 C   0  0  0  0  0  0
  -21.8822   -3.8144   23.4347 C   0  0  0  0  0  0
  -21.9191   -4.6950   22.3402 C   0  0  0  0  0  0
  -22.7885  -13.5243   21.1820 C   0  0  0  0  0  0
  -22.1667   -4.2138   21.0975 F   0  0  0  0  0  0
  -21.5628   -3.4540   25.7738 F   0  0  0  0  0  0
  -30.0385  -13.2588   20.4481 N   0  0  0  0  0  0
  -26.3026  -12.9186   20.3368 N   0  0  0  0  0  0
  -25.9272  -11.6376   20.5763 N   0  0  0  0  0  0
  -22.0519  -12.8256   22.0394 N   0  0  0  0  0  0
  -25.4373  -15.1788   20.4046 N   0  0  0  0  0  0
  -31.8086  -14.6665   20.1213 O   0  0  0  0  0  0
  -21.6634   -6.8850   21.4235 O   0  0  0  0  0  0
  -22.3579  -14.5558   20.6670 O   0  0  0  0  0  0
  -24.6128  -31.8711   23.2119 C   0  0  0  0  0  0
  -25.9045  -32.4828   23.8403 C   0  0  1  0  0  0
  -27.2326  -27.4593   20.0999 C   0  0  0  0  0  0
  -25.5914  -33.8621   24.2345 N   0  0  0  0  0  0
  -23.3966  -30.4926   21.5543 C   0  0  2  0  0  0
  -24.8394  -28.9594   20.1160 C   0  0  0  0  0  0
  -22.7412  -29.4666   22.5044 C   0  0  0  0  0  0
  -18.0271  -28.1380   22.8511 C   0  0  0  0  0  0
  -24.1484  -36.7321   23.2634 C   0  0  0  0  0  0
  -25.9210  -30.8428   21.3604 C   0  0  0  0  0  0
  -25.9969  -29.4786   20.7109 C   0  0  0  0  0  0
  -27.1949  -28.7363   20.6954 C   0  0  0  0  0  0
  -26.0620  -26.9463   19.4964 C   0  0  0  0  0  0
  -24.8668  -27.6926   19.5055 C   0  0  0  0  0  0
  -23.5991  -29.8221   20.1678 C   0  0  0  0  0  0
  -25.4102  -36.3120   24.0340 C   0  0  1  0  0  0
  -20.5859  -28.3664   23.1356 C   0  0  2  0  0  0
  -20.6759  -26.9406   22.5431 C   0  0  0  0  0  0
  -19.5727  -26.6400   21.5227 C   0  0  0  0  0  0
  -18.1912  -26.7938   22.1640 C   0  0  0  0  0  0
  -19.1519  -28.8839   23.2929 C   0  0  0  0  0  0
  -18.9440  -30.1454   23.8922 C   0  0  0  0  0  0
  -17.6433  -30.6588   24.0570 C   0  0  0  0  0  0
  -25.9034  -34.9472   23.5140 C   0  0  0  0  0  0
  -16.5331  -29.9077   23.6329 C   0  0  0  0  0  0
  -16.7261  -28.6491   23.0349 C   0  0  0  0  0  0
  -26.4473  -31.6596   25.0726 C   0  0  0  0  0  0
  -25.3739  -31.3687   26.1481 C   0  0  0  0  0  0
  -27.0289  -30.3036   24.6089 C   0  0  0  0  0  0
  -27.6064  -32.4304   25.7480 C   0  0  0  0  0  0
  -27.5582  -37.1816   24.8470 C   0  0  0  0  0  0
  -21.4145  -29.3016   22.3764 N   0  0  0  0  0  0
  -26.4297  -37.3793   23.9414 N   0  0  0  0  0  0
  -24.6612  -31.0837   22.1003 N   0  0  0  0  0  0
  -23.4204  -28.8227   23.3085 O   0  0  0  0  0  0
  -28.4359  -26.7934   20.0765 O   0  0  0  0  0  0
  -26.5580  -34.8923   22.4693 O   0  0  0  0  0  0
  -23.5337  -32.1449   23.7546 O   0  0  0  0  0  0
  -31.5435  -18.3285   22.9697 C   0  0  0  0  0  0
  -31.2823  -16.9950   22.6012 C   0  0  0  0  0  0
  -30.0568  -19.0972   21.2155 C   0  0  0  0  0  0
  -30.9074  -19.3937   22.3020 C   0  0  0  0  0  0
  -29.7729  -17.7673   20.8285 C   0  0  0  0  0  0
  -30.3821  -16.6999   21.5532 C   0  0  0  0  0  0
  -31.1026  -20.7780   22.7728 C   0  0  0  0  0  0
  -30.6684  -21.8889   22.1415 C   0  0  0  0  0  0
  -28.7755  -17.5699   19.7286 C   0  0  0  0  0  0
  -30.8266  -23.2327   22.7147 C   0  0  0  0  0  0
  -28.7089  -18.6359   18.6374 C   0  0  0  0  0  0
  -30.6995  -24.4265   21.7587 C   0  0  0  0  0  0
  -29.2594  -25.0235   21.6294 C   0  0  0  0  0  0
  -28.4593  -25.3813   20.3320 C   0  0  0  0  0  0
  -30.0371  -15.3381   21.3478 N   0  0  0  0  0  0
  -28.0062  -16.6099   19.6585 O   0  0  0  0  0  0
  -31.0407  -23.4400   23.9120 O   0  0  0  0  0  0
  -31.4710  -12.4259   19.0977 H   0  0  0  0  0  0
  -30.3497  -11.2845   19.7836 H   0  0  0  0  0  0
  -29.7336  -11.8026   17.4057 H   0  0  0  0  0  0
  -29.6457  -13.5063   17.7752 H   0  0  0  0  0  0
  -27.8354  -11.2924   18.8039 H   0  0  0  0  0  0
  -27.3582  -12.6279   17.7890 H   0  0  0  0  0  0
  -27.7151  -14.2202   19.5829 H   0  0  0  0  0  0
  -28.6876  -11.8884   21.2975 H   0  0  0  0  0  0
  -28.4547  -13.4947   21.8931 H   0  0  0  0  0  0
  -25.2703   -9.5703   22.4758 H   0  0  0  0  0  0
  -23.9984   -7.4634   22.7482 H   0  0  0  0  0  0
  -21.0788   -8.8709   19.8977 H   0  0  0  0  0  0
  -22.3587  -10.9642   19.6185 H   0  0  0  0  0  0
  -21.2004   -7.6142   23.9697 H   0  0  0  0  0  0
  -21.1487   -6.0530   25.9068 H   0  0  0  0  0  0
  -22.0601   -2.7601   23.2843 H   0  0  0  0  0  0
  -22.4129  -11.9921   22.4800 H   0  0  0  0  0  0
  -21.1156  -13.1320   22.2630 H   0  0  0  0  0  0
  -24.6663  -15.8317   20.4830 H   0  0  0  0  0  0
  -26.3070  -15.6186   20.1101 H   0  0  0  0  0  0
  -26.7124  -32.5543   23.1169 H   0  0  0  0  0  0
  -25.0094  -33.9769   25.0511 H   0  0  0  0  0  0
  -22.6841  -31.3077   21.4183 H   0  0  0  0  0  0
  -23.3737  -35.9664   23.3315 H   0  0  0  0  0  0
  -24.3581  -36.8908   22.2047 H   0  0  0  0  0  0
  -23.7232  -37.6531   23.6627 H   0  0  0  0  0  0
  -26.0328  -31.6089   20.5917 H   0  0  0  0  0  0
  -26.8088  -30.8935   21.9774 H   0  0  0  0  0  0
  -28.0921  -29.1392   21.1427 H   0  0  0  0  0  0
  -26.0686  -25.9868   18.9992 H   0  0  0  0  0  0
  -23.9797  -27.2903   19.0345 H   0  0  0  0  0  0
  -23.6928  -30.5944   19.4025 H   0  0  0  0  0  0
  -22.7237  -29.2356   19.8848 H   0  0  0  0  0  0
  -25.1266  -36.1995   25.0829 H   0  0  0  0  0  0
  -20.9937  -28.3200   24.1482 H   0  0  0  0  0  0
  -20.5684  -26.2255   23.3606 H   0  0  0  0  0  0
  -21.6629  -26.7457   22.1202 H   0  0  0  0  0  0
  -19.6886  -25.6317   21.1233 H   0  0  0  0  0  0
  -19.6666  -27.3232   20.6779 H   0  0  0  0  0  0
  -17.4189  -26.6716   21.4033 H   0  0  0  0  0  0
  -18.0297  -26.0062   22.9022 H   0  0  0  0  0  0
  -19.7903  -30.7281   24.2304 H   0  0  0  0  0  0
  -17.4971  -31.6268   24.5174 H   0  0  0  0  0  0
  -15.5325  -30.2975   23.7641 H   0  0  0  0  0  0
  -15.8669  -28.0816   22.7053 H   0  0  0  0  0  0
  -24.5933  -30.7004   25.7830 H   0  0  0  0  0  0
  -24.8891  -32.2822   26.4941 H   0  0  0  0  0  0
  -25.8100  -30.8867   27.0239 H   0  0  0  0  0  0
  -26.2814  -29.6815   24.1148 H   0  0  0  0  0  0
  -27.4067  -29.7269   25.4548 H   0  0  0  0  0  0
  -27.8656  -30.4366   23.9218 H   0  0  0  0  0  0
  -27.2709  -33.3604   26.2088 H   0  0  0  0  0  0
  -28.3852  -32.6867   25.0282 H   0  0  0  0  0  0
  -28.0761  -31.8407   26.5366 H   0  0  0  0  0  0
  -28.2615  -38.0102   24.7509 H   0  0  0  0  0  0
  -28.1065  -36.2632   24.6302 H   0  0  0  0  0  0
  -27.2312  -37.1477   25.8879 H   0  0  0  0  0  0
  -20.9337  -29.8703   21.6939 H   0  0  0  0  0  0
  -26.0200  -38.2881   24.1389 H   0  0  0  0  0  0
  -32.2059  -18.5257   23.8014 H   0  0  0  0  0  0
  -31.7483  -16.1966   23.1634 H   0  0  0  0  0  0
  -29.5574  -19.9042   20.7035 H   0  0  0  0  0  0
  -31.6149  -20.8845   23.7194 H   0  0  0  0  0  0
  -30.1733  -21.8378   21.1852 H   0  0  0  0  0  0
  -28.2533  -18.2246   17.7382 H   0  0  0  0  0  0
  -29.7060  -18.9924   18.3826 H   0  0  0  0  0  0
  -28.1112  -19.4838   18.9696 H   0  0  0  0  0  0
  -31.0848  -24.1236   20.7829 H   0  0  0  0  0  0
  -31.4112  -25.1670   22.1381 H   0  0  0  0  0  0
  -29.0063  -24.0144   21.3006 H   0  0  0  0  0  0
  -29.8896  -25.8365   21.2796 H   0  0  0  0  0  0
  -28.9047  -24.9120   19.4506 H   0  0  0  0  0  0
  -27.4489  -24.9730   20.4167 H   0  0  0  0  0  0
  -29.1082  -15.0634   21.6283 H   0  0  0  0  0  0
  1 25  1  0  0  0
  1 30  2  0  0  0
  1 85  1  0  0  0
  2  3  1  0  0  0
  2 25  1  0  0  0
  2 88  1  0  0  0
  2 89  1  0  0  0
  3  4  1  0  0  0
  3 90  1  0  0  0
  3 91  1  0  0  0
  4  5  1  0  0  0
  4 92  1  0  0  0
  4 93  1  0  0  0
  5  6  1  0  0  0
  5 26  1  0  0  0
  5 94  1  0  0  0
  6 25  1  0  0  0
  6 95  1  0  0  0
  6 96  1  0  0  0
  7  8  2  0  0  0
  7 26  1  0  0  0
  7 29  1  0  0  0
  8  9  1  0  0  0
  8 22  1  0  0  0
  9 10  1  0  0  0
  9 27  2  0  0  0
 10 11  2  0  0  0
 10 15  1  0  0  0
 11 12  1  0  0  0
 11 97  1  0  0  0
 12 13  2  0  0  0
 12 98  1  0  0  0
 13 14  1  0  0  0
 13 31  1  0  0  0
 14 15  2  0  0  0
 14 99  1  0  0  0
 15100  1  0  0  0
 16 17  2  0  0  0
 16 21  1  0  0  0
 16 31  1  0  0  0
 17 18  1  0  0  0
 17101  1  0  0  0
 18 19  2  0  0  0
 18102  1  0  0  0
 19 20  1  0  0  0
 19 24  1  0  0  0
 20 21  2  0  0  0
 20103  1  0  0  0
 21 23  1  0  0  0
 22 28  1  0  0  0
 22 32  2  0  0  0
 26 27  1  0  0  0
 28104  1  0  0  0
 28105  1  0  0  0
 29106  1  0  0  0
 29107  1  0  0  0
 33 34  1  0  0  0
 33 66  1  0  0  0
 33 70  2  0  0  0
 34 36  1  0  0  0
 34 59  1  0  0  0
 34108  1  0  0  0
 35 44  2  0  0  0
 35 45  1  0  0  0
 35 68  1  0  0  0
 36 56  1  0  0  0
 36109  1  0  0  0
 37 39  1  0  0  0
 37 47  1  0  0  0
 37 66  1  0  0  0
 37110  1  0  0  0
 38 43  2  0  0  0
 38 46  1  0  0  0
 38 47  1  0  0  0
 39 64  1  0  0  0
 39 67  2  0  0  0
 40 52  1  0  0  0
 40 53  2  0  0  0
 40 58  1  0  0  0
 41111  1  0  0  0
 41112  1  0  0  0
 41113  1  0  0  0
 41 48  1  0  0  0
 42 43  1  0  0  0
 42 66  1  0  0  0
 42114  1  0  0  0
 42115  1  0  0  0
 43 44  1  0  0  0
 44116  1  0  0  0
 45 46  2  0  0  0
 45117  1  0  0  0
 46118  1  0  0  0
 47119  1  0  0  0
 47120  1  0  0  0
 48 56  1  0  0  0
 48 65  1  0  0  0
 48121  1  0  0  0
 49 50  1  0  0  0
 49 53  1  0  0  0
 49 64  1  0  0  0
 49122  1  0  0  0
 50 51  1  0  0  0
 50123  1  0  0  0
 50124  1  0  0  0
 51 52  1  0  0  0
 51125  1  0  0  0
 51126  1  0  0  0
 52127  1  0  0  0
 52128  1  0  0  0
 53 54  1  0  0  0
 54 55  2  0  0  0
 54129  1  0  0  0
 55 57  1  0  0  0
 55130  1  0  0  0
 56 69  2  0  0  0
 57 58  2  0  0  0
 57131  1  0  0  0
 58132  1  0  0  0
 59 60  1  0  0  0
 59 61  1  0  0  0
 59 62  1  0  0  0
 60133  1  0  0  0
 60134  1  0  0  0
 60135  1  0  0  0
 61136  1  0  0  0
 61137  1  0  0  0
 61138  1  0  0  0
 62139  1  0  0  0
 62140  1  0  0  0
 62141  1  0  0  0
 63 65  1  0  0  0
 63142  1  0  0  0
 63143  1  0  0  0
 63144  1  0  0  0
 64145  1  0  0  0
 65146  1  0  0  0
 68 84  1  0  0  0
 71 72  2  0  0  0
 71 74  1  0  0  0
 71147  1  0  0  0
 72 76  1  0  0  0
 72148  1  0  0  0
 73 74  2  0  0  0
 73 75  1  0  0  0
 73149  1  0  0  0
 74 77  1  0  0  0
 75 76  2  0  0  0
 75 79  1  0  0  0
 76 85  1  0  0  0
 77 78  2  0  0  0
 77150  1  0  0  0
 78 80  1  0  0  0
 78151  1  0  0  0
 79 81  1  0  0  0
 79 86  2  0  0  0
 80 82  1  0  0  0
 80 87  2  0  0  0
 81152  1  0  0  0
 81153  1  0  0  0
 81154  1  0  0  0
 82 83  1  0  0  0
 82155  1  0  0  0
 82156  1  0  0  0
 83 84  1  0  0  0
 83157  1  0  0  0
 83158  1  0  0  0
 84159  1  0  0  0
 84160  1  0  0  0
 85161  1  0  0  0
M  ISO  4   1 100  68 101  84 101  85 100
M  END
> <chiral flag>
0

> <version>
0

> <s_m_source_file>
/data/baiqing/PycharmProjects/Reinvent-master-3.2/result/LINK_invent/BTK/process_docking_weight1_custom_product_contain_oxygen_bond_distance_aromatic_linkinvent_7_9_3/rearranged_h_0121.sdf

> <i_m_source_file_index>
15

> <r_mmod_Potential_Energy-OPLS-2005>
210.483627319336

> <r_mmod_Stretch_Energy-OPLS-2005>
37.2314987182617

> <r_mmod_Bend_Energy-OPLS-2005>
323.771484375

> <r_mmod_Torsional_Energy-OPLS-2005>
286.115478515625

> <r_mmod_Improper_Torsional_Energy-OPLS-2005>
3.43462562561035

> <r_mmod_Van_der_Waal_Energy-OPLS-2005>
180.177062988281

> <r_mmod_Electrostatic_Energy-OPLS-2005>
-406.290588378906

> <r_mmod_Solvation_Energy-OPLS-2005>
-223.472229003906

> <b_mmod_Minimization_Converged-OPLS-2005>
0

> <r_mmod_RMS_Derivative-OPLS-2005>
2.50955271720886

$$$$
15
                    3D
 Structure written by MMmdl.
160168  0  0  1  0            999 V2000
  -30.7121  -14.4914   20.5926 C   0  0  0  0  0  0
  -30.4202  -12.3330   19.4155 C   0  0  0  0  0  0
  -29.4894  -12.5160   18.2002 C   0  0  0  0  0  0
  -28.0128  -12.3685   18.6166 C   0  0  0  0  0  0
  -27.6578  -13.2128   19.8703 C   0  0  2  0  0  0
  -28.7021  -13.0095   20.9901 C   0  0  0  0  0  0
  -25.2570  -13.8164   20.5672 C   0  0  0  0  0  0
  -24.1830  -13.0438   20.9171 C   0  0  0  0  0  0
  -24.6397  -11.6905   20.8735 C   0  0  0  0  0  0
  -23.9065  -10.4293   21.0410 C   0  0  0  0  0  0
  -24.3612   -9.4207   21.9184 C   0  0  0  0  0  0
  -23.6285   -8.2243   22.0755 C   0  0  0  0  0  0
  -22.4271   -8.0280   21.3540 C   0  0  0  0  0  0
  -21.9909   -9.0259   20.4647 C   0  0  0  0  0  0
  -22.7242  -10.2137   20.3057 C   0  0  0  0  0  0
  -21.6860   -6.0741   22.5278 C   0  0  0  0  0  0
  -21.4023   -6.5641   23.8212 C   0  0  0  0  0  0
  -21.3658   -5.6793   24.9173 C   0  0  0  0  0  0
  -21.6032   -4.3054   24.7225 C   0  0  0  0  0  0
  -21.8817   -3.8150   23.4350 C   0  0  0  0  0  0
  -21.9189   -4.6966   22.3406 C   0  0  0  0  0  0
  -22.7846  -13.5232   21.1843 C   0  0  0  0  0  0
  -22.1655   -4.2151   21.0985 F   0  0  0  0  0  0
  -21.5624   -3.4537   25.7742 F   0  0  0  0  0  0
  -30.0271  -13.3235   20.4313 N   0  0  0  0  0  0
  -26.3015  -12.9351   20.3355 N   0  0  0  0  0  0
  -25.9327  -11.6502   20.5754 N   0  0  0  0  0  0
  -22.0492  -12.8231   22.0405 N   0  0  0  0  0  0
  -25.4271  -15.1888   20.4089 N   0  0  0  0  0  0
  -31.8381  -14.6695   20.1208 O   0  0  0  0  0  0
  -21.6632   -6.8884   21.4240 O   0  0  0  0  0  0
  -22.3530  -14.5542   20.6702 O   0  0  0  0  0  0
  -24.6206  -31.8661   23.2087 C   0  0  0  0  0  0
  -25.9083  -32.4808   23.8387 C   0  0  1  0  0  0
  -27.2225  -27.3786   20.0988 C   0  0  0  0  0  0
  -25.5916  -33.8606   24.2322 N   0  0  0  0  0  0
  -23.4090  -30.4943   21.5513 C   0  0  2  0  0  0
  -24.8529  -28.9606   20.1102 C   0  0  0  0  0  0
  -22.7433  -29.4679   22.4969 C   0  0  0  0  0  0
  -18.0278  -28.1375   22.8498 C   0  0  0  0  0  0
  -24.1485  -36.7319   23.2638 C   0  0  0  0  0  0
  -25.9455  -30.8128   21.3727 C   0  0  0  0  0  0
  -26.0177  -29.4451   20.7168 C   0  0  0  0  0  0
  -27.2027  -28.6611   20.7121 C   0  0  0  0  0  0
  -26.0355  -26.9417   19.4596 C   0  0  0  0  0  0
  -24.8598  -27.7094   19.4786 C   0  0  0  0  0  0
  -23.6177  -29.8326   20.1644 C   0  0  0  0  0  0
  -25.4102  -36.3107   24.0340 C   0  0  1  0  0  0
  -20.5880  -28.3685   23.1290 C   0  0  2  0  0  0
  -20.6770  -26.9413   22.5412 C   0  0  0  0  0  0
  -19.5745  -26.6382   21.5216 C   0  0  0  0  0  0
  -18.1925  -26.7916   22.1632 C   0  0  0  0  0  0
  -19.1530  -28.8843   23.2889 C   0  0  0  0  0  0
  -18.9459  -30.1442   23.8907 C   0  0  0  0  0  0
  -17.6462  -30.6583   24.0566 C   0  0  0  0  0  0
  -25.9037  -34.9470   23.5127 C   0  0  0  0  0  0
  -16.5354  -29.9088   23.6324 C   0  0  0  0  0  0
  -16.7266  -28.6502   23.0356 C   0  0  0  0  0  0
  -26.4476  -31.6592   25.0732 C   0  0  0  0  0  0
  -25.3715  -31.3746   26.1465 C   0  0  0  0  0  0
  -27.0311  -30.3018   24.6154 C   0  0  0  0  0  0
  -27.6033  -32.4321   25.7506 C   0  0  0  0  0  0
  -27.5578  -37.1817   24.8462 C   0  0  0  0  0  0
  -21.4162  -29.3051   22.3690 N   0  0  0  0  0  0
  -26.4288  -37.3792   23.9410 N   0  0  0  0  0  0
  -24.6771  -31.0731   22.1010 N   0  0  0  0  0  0
  -23.4181  -28.8214   23.3020 O   0  0  0  0  0  0
  -28.3629  -26.5748   20.1524 O   0  0  0  0  0  0
  -26.5603  -34.8932   22.4692 O   0  0  0  0  0  0
  -23.5386  -32.1433   23.7450 O   0  0  0  0  0  0
  -29.4310  -19.4913   19.3435 C   0  0  0  0  0  0
  -29.5911  -18.2170   19.9399 C   0  0  0  0  0  0
  -30.8747  -19.2532   21.7049 C   0  0  0  0  0  0
  -30.0142  -20.6670   19.8833 C   0  0  0  0  0  0
  -30.3459  -18.0769   21.1219 C   0  0  0  0  0  0
  -30.7279  -20.5344   21.1070 C   0  0  0  0  0  0
  -29.9838  -21.8764   19.0011 C   0  0  0  0  0  0
  -29.7537  -23.2153   19.1045 C   0  0  0  0  0  0
  -32.7927  -22.0171   21.1012 C   0  0  0  0  0  0
  -31.4447  -21.7045   21.7613 C   0  0  0  0  0  0
  -30.6576  -16.7158   21.7819 C   0  0  0  0  0  0
  -29.3182  -24.1651   20.2293 C   0  0  0  0  0  0
  -28.2213  -25.1787   19.7580 C   0  0  0  0  0  0
  -30.0580  -15.4811   21.2345 N   0  0  0  0  0  0
  -31.4631  -12.4351   19.1106 H   0  0  0  0  0  0
  -30.3275  -11.3241   19.8197 H   0  0  0  0  0  0
  -29.7326  -11.7901   17.4229 H   0  0  0  0  0  0
  -29.6498  -13.5008   17.7581 H   0  0  0  0  0  0
  -27.8275  -11.3120   18.8155 H   0  0  0  0  0  0
  -27.3587  -12.6379   17.7872 H   0  0  0  0  0  0
  -27.6966  -14.2597   19.5675 H   0  0  0  0  0  0
  -28.6871  -11.9755   21.3379 H   0  0  0  0  0  0
  -28.4581  -13.6135   21.8649 H   0  0  0  0  0  0
  -25.2760   -9.5673   22.4758 H   0  0  0  0  0  0
  -23.9989   -7.4634   22.7480 H   0  0  0  0  0  0
  -21.0835   -8.8790   19.8957 H   0  0  0  0  0  0
  -22.3707  -10.9676   19.6166 H   0  0  0  0  0  0
  -21.2029   -7.6149   23.9720 H   0  0  0  0  0  0
  -21.1475   -6.0523   25.9074 H   0  0  0  0  0  0
  -22.0599   -2.7611   23.2855 H   0  0  0  0  0  0
  -22.4108  -11.9883   22.4780 H   0  0  0  0  0  0
  -21.1116  -13.1266   22.2629 H   0  0  0  0  0  0
  -24.6605  -15.8440   20.5181 H   0  0  0  0  0  0
  -26.2834  -15.6308   20.0992 H   0  0  0  0  0  0
  -26.7156  -32.5506   23.1146 H   0  0  0  0  0  0
  -25.0050  -33.9750   25.0459 H   0  0  0  0  0  0
  -22.6998  -31.3132   21.4139 H   0  0  0  0  0  0
  -23.3741  -35.9662   23.3306 H   0  0  0  0  0  0
  -24.3581  -36.8923   22.2050 H   0  0  0  0  0  0
  -23.7243  -37.6530   23.6643 H   0  0  0  0  0  0
  -26.0693  -31.5760   20.6027 H   0  0  0  0  0  0
  -26.8294  -30.8614   21.9970 H   0  0  0  0  0  0
  -28.0946  -29.0260   21.2022 H   0  0  0  0  0  0
  -25.9787  -25.9992   18.9366 H   0  0  0  0  0  0
  -23.9677  -27.3335   18.9964 H   0  0  0  0  0  0
  -23.7269  -30.6087   19.4059 H   0  0  0  0  0  0
  -22.7390  -29.2566   19.8694 H   0  0  0  0  0  0
  -25.1280  -36.1977   25.0835 H   0  0  0  0  0  0
  -20.9975  -28.3263   24.1408 H   0  0  0  0  0  0
  -20.5675  -26.2303   23.3612 H   0  0  0  0  0  0
  -21.6641  -26.7447   22.1208 H   0  0  0  0  0  0
  -19.6911  -25.6296   21.1236 H   0  0  0  0  0  0
  -19.6672  -27.3202   20.6750 H   0  0  0  0  0  0
  -17.4195  -26.6666   21.4030 H   0  0  0  0  0  0
  -18.0325  -26.0048   22.9018 H   0  0  0  0  0  0
  -19.7939  -30.7250   24.2285 H   0  0  0  0  0  0
  -17.5025  -31.6263   24.5169 H   0  0  0  0  0  0
  -15.5358  -30.3001   23.7634 H   0  0  0  0  0  0
  -15.8665  -28.0819   22.7076 H   0  0  0  0  0  0
  -24.5873  -30.7105   25.7815 H   0  0  0  0  0  0
  -24.8924  -32.2925   26.4878 H   0  0  0  0  0  0
  -25.8031  -30.8936   27.0248 H   0  0  0  0  0  0
  -26.2892  -29.6790   24.1140 H   0  0  0  0  0  0
  -27.3981  -29.7244   25.4651 H   0  0  0  0  0  0
  -27.8769  -30.4314   23.9397 H   0  0  0  0  0  0
  -27.2631  -33.3611   26.2095 H   0  0  0  0  0  0
  -28.3839  -32.6895   25.0335 H   0  0  0  0  0  0
  -28.0700  -31.8437   26.5413 H   0  0  0  0  0  0
  -28.2607  -38.0103   24.7502 H   0  0  0  0  0  0
  -28.1064  -36.2637   24.6300 H   0  0  0  0  0  0
  -27.2298  -37.1481   25.8864 H   0  0  0  0  0  0
  -20.9322  -29.8783   21.6922 H   0  0  0  0  0  0
  -26.0184  -38.2881   24.1384 H   0  0  0  0  0  0
  -28.8937  -19.5510   18.4068 H   0  0  0  0  0  0
  -29.1654  -17.3471   19.4590 H   0  0  0  0  0  0
  -31.4552  -19.1614   22.6132 H   0  0  0  0  0  0
  -30.2724  -21.6037   17.9949 H   0  0  0  0  0  0
  -29.9083  -23.7515   18.1786 H   0  0  0  0  0  0
  -33.4607  -21.1566   21.1474 H   0  0  0  0  0  0
  -33.2860  -22.8488   21.6058 H   0  0  0  0  0  0
  -32.6687  -22.2927   20.0540 H   0  0  0  0  0  0
  -31.6075  -21.4788   22.8159 H   0  0  0  0  0  0
  -30.8122  -22.5850   21.7526 H   0  0  0  0  0  0
  -31.7431  -16.6094   21.8234 H   0  0  0  0  0  0
  -30.3400  -16.7809   22.8225 H   0  0  0  0  0  0
  -30.2025  -24.7157   20.5482 H   0  0  0  0  0  0
  -28.9608  -23.6012   21.0916 H   0  0  0  0  0  0
  -28.1562  -25.1689   18.6686 H   0  0  0  0  0  0
  -27.2784  -24.7706   20.1259 H   0  0  0  0  0  0
  -29.1153  -15.2738   21.5260 H   0  0  0  0  0  0
  1 25  1  0  0  0
  1 30  2  0  0  0
  1 84  1  0  0  0
  2  3  1  0  0  0
  2 25  1  0  0  0
  2 85  1  0  0  0
  2 86  1  0  0  0
  3  4  1  0  0  0
  3 87  1  0  0  0
  3 88  1  0  0  0
  4  5  1  0  0  0
  4 89  1  0  0  0
  4 90  1  0  0  0
  5  6  1  0  0  0
  5 26  1  0  0  0
  5 91  1  0  0  0
  6 25  1  0  0  0
  6 92  1  0  0  0
  6 93  1  0  0  0
  7  8  2  0  0  0
  7 26  1  0  0  0
  7 29  1  0  0  0
  8  9  1  0  0  0
  8 22  1  0  0  0
  9 10  1  0  0  0
  9 27  2  0  0  0
 10 11  2  0  0  0
 10 15  1  0  0  0
 11 12  1  0  0  0
 11 94  1  0  0  0
 12 13  2  0  0  0
 12 95  1  0  0  0
 13 14  1  0  0  0
 13 31  1  0  0  0
 14 15  2  0  0  0
 14 96  1  0  0  0
 15 97  1  0  0  0
 16 17  2  0  0  0
 16 21  1  0  0  0
 16 31  1  0  0  0
 17 18  1  0  0  0
 17 98  1  0  0  0
 18 19  2  0  0  0
 18 99  1  0  0  0
 19 20  1  0  0  0
 19 24  1  0  0  0
 20 21  2  0  0  0
 20100  1  0  0  0
 21 23  1  0  0  0
 22 28  1  0  0  0
 22 32  2  0  0  0
 26 27  1  0  0  0
 28101  1  0  0  0
 28102  1  0  0  0
 29103  1  0  0  0
 29104  1  0  0  0
 33 34  1  0  0  0
 33 66  1  0  0  0
 33 70  2  0  0  0
 34 36  1  0  0  0
 34 59  1  0  0  0
 34105  1  0  0  0
 35 44  2  0  0  0
 35 45  1  0  0  0
 35 68  1  0  0  0
 36 56  1  0  0  0
 36106  1  0  0  0
 37 39  1  0  0  0
 37 47  1  0  0  0
 37 66  1  0  0  0
 37107  1  0  0  0
 38 43  2  0  0  0
 38 46  1  0  0  0
 38 47  1  0  0  0
 39 64  1  0  0  0
 39 67  2  0  0  0
 40 52  1  0  0  0
 40 53  2  0  0  0
 40 58  1  0  0  0
 41108  1  0  0  0
 41109  1  0  0  0
 41110  1  0  0  0
 41 48  1  0  0  0
 42 43  1  0  0  0
 42 66  1  0  0  0
 42111  1  0  0  0
 42112  1  0  0  0
 43 44  1  0  0  0
 44113  1  0  0  0
 45 46  2  0  0  0
 45114  1  0  0  0
 46115  1  0  0  0
 47116  1  0  0  0
 47117  1  0  0  0
 48 56  1  0  0  0
 48 65  1  0  0  0
 48118  1  0  0  0
 49 50  1  0  0  0
 49 53  1  0  0  0
 49 64  1  0  0  0
 49119  1  0  0  0
 50 51  1  0  0  0
 50120  1  0  0  0
 50121  1  0  0  0
 51 52  1  0  0  0
 51122  1  0  0  0
 51123  1  0  0  0
 52124  1  0  0  0
 52125  1  0  0  0
 53 54  1  0  0  0
 54 55  2  0  0  0
 54126  1  0  0  0
 55 57  1  0  0  0
 55127  1  0  0  0
 56 69  2  0  0  0
 57 58  2  0  0  0
 57128  1  0  0  0
 58129  1  0  0  0
 59 60  1  0  0  0
 59 61  1  0  0  0
 59 62  1  0  0  0
 60130  1  0  0  0
 60131  1  0  0  0
 60132  1  0  0  0
 61133  1  0  0  0
 61134  1  0  0  0
 61135  1  0  0  0
 62136  1  0  0  0
 62137  1  0  0  0
 62138  1  0  0  0
 63 65  1  0  0  0
 63139  1  0  0  0
 63140  1  0  0  0
 63141  1  0  0  0
 64142  1  0  0  0
 65143  1  0  0  0
 68 83  1  0  0  0
 71 72  2  0  0  0
 71 74  1  0  0  0
 71144  1  0  0  0
 72 75  1  0  0  0
 72145  1  0  0  0
 73 75  2  0  0  0
 73 76  1  0  0  0
 73146  1  0  0  0
 74 76  2  0  0  0
 74 77  1  0  0  0
 75 81  1  0  0  0
 76 80  1  0  0  0
 77 78  2  0  0  0
 77147  1  0  0  0
 78 82  1  0  0  0
 78148  1  0  0  0
 79 80  1  0  0  0
 79149  1  0  0  0
 79150  1  0  0  0
 79151  1  0  0  0
 80152  1  0  0  0
 80153  1  0  0  0
 81 84  1  0  0  0
 81154  1  0  0  0
 81155  1  0  0  0
 82 83  1  0  0  0
 82156  1  0  0  0
 82157  1  0  0  0
 83158  1  0  0  0
 83159  1  0  0  0
 84160  1  0  0  0
M  ISO  4   1 100  68 101  83 101  84 100
M  END
> <chiral flag>
0

> <version>
0

> <s_m_source_file>
/data/baiqing/PycharmProjects/Reinvent-master-3.2/result/LINK_invent/BTK/process_docking_weight1_custom_product_contain_oxygen_bond_distance_aromatic_linkinvent_7_9_3/rearranged_h_0121.sdf

> <i_m_source_file_index>
16

> <r_mmod_Potential_Energy-OPLS-2005>
-21.1814289093018

> <r_mmod_Stretch_Energy-OPLS-2005>
48.2505111694336

> <r_mmod_Bend_Energy-OPLS-2005>
147.785354614258

> <r_mmod_Torsional_Energy-OPLS-2005>
217.434219360352

> <r_mmod_Improper_Torsional_Energy-OPLS-2005>
3.97231888771057

> <r_mmod_Van_der_Waal_Energy-OPLS-2005>
154.569549560547

> <r_mmod_Electrostatic_Energy-OPLS-2005>
-407.472045898438

> <r_mmod_Solvation_Energy-OPLS-2005>
-206.869964599609

> <b_mmod_Minimization_Converged-OPLS-2005>
0

> <r_mmod_RMS_Derivative-OPLS-2005>
1.36624944210052

$$$$
16
                    3D
 Structure written by MMmdl.
165173  0  0  1  0            999 V2000
  -30.6539  -14.5522   20.5232 C   0  0  0  0  0  0
  -30.4253  -12.3506   19.4280 C   0  0  0  0  0  0
  -29.4900  -12.5354   18.2089 C   0  0  0  0  0  0
  -28.0083  -12.3778   18.6098 C   0  0  0  0  0  0
  -27.6566  -13.1836   19.8876 C   0  0  2  0  0  0
  -28.7108  -12.9348   20.9926 C   0  0  0  0  0  0
  -25.2616  -13.8023   20.5746 C   0  0  0  0  0  0
  -24.1830  -13.0364   20.9110 C   0  0  0  0  0  0
  -24.6314  -11.6800   20.8682 C   0  0  0  0  0  0
  -23.8965  -10.4225   21.0397 C   0  0  0  0  0  0
  -24.3531   -9.4171   21.9200 C   0  0  0  0  0  0
  -23.6251   -8.2198   22.0789 C   0  0  0  0  0  0
  -22.4252   -8.0203   21.3555 C   0  0  0  0  0  0
  -21.9830   -9.0140   20.4661 C   0  0  0  0  0  0
  -22.7119  -10.2039   20.3072 C   0  0  0  0  0  0
  -21.6852   -6.0675   22.5258 C   0  0  0  0  0  0
  -21.4006   -6.5610   23.8165 C   0  0  0  0  0  0
  -21.3677   -5.6793   24.9144 C   0  0  0  0  0  0
  -21.6062   -4.3051   24.7228 C   0  0  0  0  0  0
  -21.8822   -3.8125   23.4354 C   0  0  0  0  0  0
  -21.9190   -4.6917   22.3398 C   0  0  0  0  0  0
  -22.7875  -13.5194   21.1805 C   0  0  0  0  0  0
  -22.1674   -4.2097   21.0985 F   0  0  0  0  0  0
  -21.5626   -3.4552   25.7769 F   0  0  0  0  0  0
  -30.0197  -13.3341   20.4489 N   0  0  0  0  0  0
  -26.3012  -12.9141   20.3485 N   0  0  0  0  0  0
  -25.9237  -11.6311   20.5761 N   0  0  0  0  0  0
  -22.0575  -12.8158   22.0355 N   0  0  0  0  0  0
  -25.4478  -15.1749   20.4300 N   0  0  0  0  0  0
  -31.8126  -14.6982   20.1168 O   0  0  0  0  0  0
  -21.6647   -6.8799   21.4218 O   0  0  0  0  0  0
  -22.3578  -14.5538   20.6719 O   0  0  0  0  0  0
  -24.6125  -31.8725   23.2164 C   0  0  0  0  0  0
  -25.9082  -32.4813   23.8407 C   0  0  1  0  0  0
  -27.2194  -27.4733   20.0686 C   0  0  0  0  0  0
  -25.5995  -33.8623   24.2345 N   0  0  0  0  0  0
  -23.3896  -30.4988   21.5604 C   0  0  2  0  0  0
  -24.8266  -28.9755   20.1176 C   0  0  0  0  0  0
  -22.7334  -29.4705   22.5069 C   0  0  0  0  0  0
  -18.0258  -28.1387   22.8510 C   0  0  0  0  0  0
  -24.1488  -36.7285   23.2604 C   0  0  0  0  0  0
  -25.9114  -30.8516   21.3561 C   0  0  0  0  0  0
  -25.9876  -29.4887   20.7059 C   0  0  0  0  0  0
  -27.1837  -28.7434   20.6831 C   0  0  0  0  0  0
  -26.0363  -26.9748   19.4717 C   0  0  0  0  0  0
  -24.8425  -27.7133   19.5076 C   0  0  0  0  0  0
  -23.5865  -29.8351   20.1736 C   0  0  0  0  0  0
  -25.4106  -36.3097   24.0320 C   0  0  1  0  0  0
  -20.5823  -28.3667   23.1321 C   0  0  2  0  0  0
  -20.6772  -26.9400   22.5438 C   0  0  0  0  0  0
  -19.5750  -26.6394   21.5229 C   0  0  0  0  0  0
  -18.1900  -26.7952   22.1586 C   0  0  0  0  0  0
  -19.1498  -28.8851   23.2909 C   0  0  0  0  0  0
  -18.9445  -30.1476   23.8884 C   0  0  0  0  0  0
  -17.6454  -30.6601   24.0585 C   0  0  0  0  0  0
  -25.9065  -34.9474   23.5108 C   0  0  0  0  0  0
  -16.5355  -29.9094   23.6361 C   0  0  0  0  0  0
  -16.7254  -28.6523   23.0362 C   0  0  0  0  0  0
  -26.4537  -31.6553   25.0696 C   0  0  0  0  0  0
  -25.3813  -31.3635   26.1439 C   0  0  0  0  0  0
  -27.0351  -30.2995   24.6028 C   0  0  0  0  0  0
  -27.6152  -32.4238   25.7434 C   0  0  0  0  0  0
  -27.5621  -37.1727   24.8413 C   0  0  0  0  0  0
  -21.4075  -29.3039   22.3744 N   0  0  0  0  0  0
  -26.4256  -37.3820   23.9488 N   0  0  0  0  0  0
  -24.6564  -31.0857   22.1053 N   0  0  0  0  0  0
  -23.4117  -28.8273   23.3131 O   0  0  0  0  0  0
  -28.4149  -26.7907   20.0884 O   0  0  0  0  0  0
  -26.5572  -34.8925   22.4637 O   0  0  0  0  0  0
  -23.5347  -32.1517   23.7578 O   0  0  0  0  0  0
  -30.3414  -18.1346   21.6255 C   0  0  0  0  0  0
  -30.5870  -19.4987   21.4110 C   0  0  0  0  0  0
  -30.3458  -17.1917   20.5686 C   0  0  0  0  0  0
  -31.1145  -19.0288   19.0807 C   0  0  0  0  0  0
  -30.6782  -17.6690   19.2541 C   0  0  0  0  0  0
  -30.9548  -19.9660   20.1360 C   0  0  0  0  0  0
  -32.6078  -18.8833   17.0298 C   0  0  0  0  0  0
  -31.7888  -19.5502   17.8625 C   0  0  0  0  0  0
  -29.8188  -15.8161   20.9267 C   0  0  0  0  0  0
  -29.6137  -17.4735   16.8991 C   0  0  0  0  0  0
  -30.4110  -16.7792   18.0239 C   0  0  0  0  0  0
  -29.5684  -24.7004   20.3117 C   0  0  0  0  0  0
  -29.8537  -23.3214   19.6878 C   0  0  0  0  0  0
  -28.4716  -25.4698   19.5644 C   0  0  0  0  0  0
  -30.5427  -22.3249   20.6417 C   0  0  0  0  0  0
  -28.7163  -15.8004   21.5582 N   0  0  0  0  0  0
  -31.1929  -21.3035   19.8699 O   0  0  0  0  0  0
  -31.4696  -12.4638   19.1314 H   0  0  0  0  0  0
  -30.3340  -11.3369   19.8225 H   0  0  0  0  0  0
  -29.7418  -11.8245   17.4225 H   0  0  0  0  0  0
  -29.6429  -13.5278   17.7804 H   0  0  0  0  0  0
  -27.8182  -11.3184   18.7799 H   0  0  0  0  0  0
  -27.3586  -12.6745   17.7849 H   0  0  0  0  0  0
  -27.6880  -14.2337   19.6063 H   0  0  0  0  0  0
  -28.7236  -11.8747   21.2577 H   0  0  0  0  0  0
  -28.4656  -13.4242   21.9338 H   0  0  0  0  0  0
  -25.2664   -9.5678   22.4781 H   0  0  0  0  0  0
  -23.9966   -7.4591   22.7513 H   0  0  0  0  0  0
  -21.0760   -8.8571   19.8972 H   0  0  0  0  0  0
  -22.3526  -10.9541   19.6188 H   0  0  0  0  0  0
  -21.2017   -7.6113   23.9639 H   0  0  0  0  0  0
  -21.1516   -6.0554   25.9023 H   0  0  0  0  0  0
  -22.0600   -2.7585   23.2881 H   0  0  0  0  0  0
  -22.4223  -11.9727   22.4527 H   0  0  0  0  0  0
  -21.1231  -13.1180   22.2742 H   0  0  0  0  0  0
  -24.7219  -15.8445   20.6528 H   0  0  0  0  0  0
  -26.3657  -15.5918   20.3225 H   0  0  0  0  0  0
  -26.7148  -32.5521   23.1167 H   0  0  0  0  0  0
  -25.0372  -33.9826   25.0626 H   0  0  0  0  0  0
  -22.6779  -31.3160   21.4255 H   0  0  0  0  0  0
  -23.3872  -35.9480   23.3004 H   0  0  0  0  0  0
  -24.3674  -36.9184   22.2094 H   0  0  0  0  0  0
  -23.7062  -37.6316   23.6798 H   0  0  0  0  0  0
  -26.0069  -31.6122   20.5789 H   0  0  0  0  0  0
  -26.8076  -30.9124   21.9620 H   0  0  0  0  0  0
  -28.0842  -29.1405   21.1304 H   0  0  0  0  0  0
  -25.9921  -26.0285   18.9584 H   0  0  0  0  0  0
  -23.9438  -27.3075   19.0643 H   0  0  0  0  0  0
  -23.6783  -30.6102   19.4109 H   0  0  0  0  0  0
  -22.7115  -29.2479   19.8883 H   0  0  0  0  0  0
  -25.1254  -36.1932   25.0804 H   0  0  0  0  0  0
  -20.9928  -28.3295   24.1433 H   0  0  0  0  0  0
  -20.5730  -26.2276   23.3647 H   0  0  0  0  0  0
  -21.6636  -26.7493   22.1196 H   0  0  0  0  0  0
  -19.6913  -25.6312   21.1248 H   0  0  0  0  0  0
  -19.6719  -27.3230   20.6791 H   0  0  0  0  0  0
  -17.4218  -26.6820   21.3921 H   0  0  0  0  0  0
  -18.0202  -26.0046   22.8903 H   0  0  0  0  0  0
  -19.7922  -30.7332   24.2185 H   0  0  0  0  0  0
  -17.5002  -31.6259   24.5220 H   0  0  0  0  0  0
  -15.5355  -30.3001   23.7693 H   0  0  0  0  0  0
  -15.8655  -28.0871   22.7031 H   0  0  0  0  0  0
  -24.6149  -30.6764   25.7827 H   0  0  0  0  0  0
  -24.8797  -32.2735   26.4732 H   0  0  0  0  0  0
  -25.8206  -30.9012   27.0282 H   0  0  0  0  0  0
  -26.2854  -29.6704   24.1199 H   0  0  0  0  0  0
  -27.4268  -29.7278   25.4457 H   0  0  0  0  0  0
  -27.8623  -30.4291   23.9040 H   0  0  0  0  0  0
  -27.2902  -33.3666   26.1848 H   0  0  0  0  0  0
  -28.4062  -32.6554   25.0278 H   0  0  0  0  0  0
  -28.0687  -31.8410   26.5464 H   0  0  0  0  0  0
  -28.2411  -38.0242   24.7828 H   0  0  0  0  0  0
  -28.1349  -36.2818   24.5767 H   0  0  0  0  0  0
  -27.2405  -37.0816   25.8801 H   0  0  0  0  0  0
  -20.9249  -29.8725   21.6919 H   0  0  0  0  0  0
  -26.0117  -38.2811   24.1781 H   0  0  0  0  0  0
  -30.0623  -17.8302   22.6256 H   0  0  0  0  0  0
  -30.5022  -20.1697   22.2526 H   0  0  0  0  0  0
  -33.0370  -19.3877   16.1756 H   0  0  0  0  0  0
  -32.8717  -17.8464   17.1713 H   0  0  0  0  0  0
  -31.6028  -20.5867   17.6128 H   0  0  0  0  0  0
  -29.1792  -16.7449   16.2140 H   0  0  0  0  0  0
  -30.2268  -18.1386   16.2924 H   0  0  0  0  0  0
  -28.7946  -18.0653   17.3044 H   0  0  0  0  0  0
  -29.7896  -15.9314   18.2973 H   0  0  0  0  0  0
  -31.3384  -16.3441   17.6528 H   0  0  0  0  0  0
  -30.4864  -25.2887   20.3219 H   0  0  0  0  0  0
  -29.2594  -24.5926   21.3524 H   0  0  0  0  0  0
  -30.4678  -23.4769   18.8011 H   0  0  0  0  0  0
  -28.9216  -22.8741   19.3358 H   0  0  0  0  0  0
  -27.5465  -24.9129   19.7127 H   0  0  0  0  0  0
  -28.6679  -25.5313   18.4938 H   0  0  0  0  0  0
  -29.7791  -21.9564   21.3257 H   0  0  0  0  0  0
  -31.2990  -22.8285   21.2463 H   0  0  0  0  0  0
  -28.3822  -16.7442   21.7101 H   0  0  0  0  0  0
  1 25  1  0  0  0
  1 30  2  0  0  0
  1 79  1  0  0  0
  2  3  1  0  0  0
  2 25  1  0  0  0
  2 88  1  0  0  0
  2 89  1  0  0  0
  3  4  1  0  0  0
  3 90  1  0  0  0
  3 91  1  0  0  0
  4  5  1  0  0  0
  4 92  1  0  0  0
  4 93  1  0  0  0
  5  6  1  0  0  0
  5 26  1  0  0  0
  5 94  1  0  0  0
  6 25  1  0  0  0
  6 95  1  0  0  0
  6 96  1  0  0  0
  7  8  2  0  0  0
  7 26  1  0  0  0
  7 29  1  0  0  0
  8  9  1  0  0  0
  8 22  1  0  0  0
  9 10  1  0  0  0
  9 27  2  0  0  0
 10 11  2  0  0  0
 10 15  1  0  0  0
 11 12  1  0  0  0
 11 97  1  0  0  0
 12 13  2  0  0  0
 12 98  1  0  0  0
 13 14  1  0  0  0
 13 31  1  0  0  0
 14 15  2  0  0  0
 14 99  1  0  0  0
 15100  1  0  0  0
 16 17  2  0  0  0
 16 21  1  0  0  0
 16 31  1  0  0  0
 17 18  1  0  0  0
 17101  1  0  0  0
 18 19  2  0  0  0
 18102  1  0  0  0
 19 20  1  0  0  0
 19 24  1  0  0  0
 20 21  2  0  0  0
 20103  1  0  0  0
 21 23  1  0  0  0
 22 28  1  0  0  0
 22 32  2  0  0  0
 26 27  1  0  0  0
 28104  1  0  0  0
 28105  1  0  0  0
 29106  1  0  0  0
 29107  1  0  0  0
 33 34  1  0  0  0
 33 66  1  0  0  0
 33 70  2  0  0  0
 34 36  1  0  0  0
 34 59  1  0  0  0
 34108  1  0  0  0
 35 44  2  0  0  0
 35 45  1  0  0  0
 35 68  1  0  0  0
 36 56  1  0  0  0
 36109  1  0  0  0
 37 39  1  0  0  0
 37 47  1  0  0  0
 37 66  1  0  0  0
 37110  1  0  0  0
 38 43  2  0  0  0
 38 46  1  0  0  0
 38 47  1  0  0  0
 39 64  1  0  0  0
 39 67  2  0  0  0
 40 52  1  0  0  0
 40 53  2  0  0  0
 40 58  1  0  0  0
 41111  1  0  0  0
 41112  1  0  0  0
 41113  1  0  0  0
 41 48  1  0  0  0
 42 43  1  0  0  0
 42 66  1  0  0  0
 42114  1  0  0  0
 42115  1  0  0  0
 43 44  1  0  0  0
 44116  1  0  0  0
 45 46  2  0  0  0
 45117  1  0  0  0
 46118  1  0  0  0
 47119  1  0  0  0
 47120  1  0  0  0
 48 56  1  0  0  0
 48 65  1  0  0  0
 48121  1  0  0  0
 49 50  1  0  0  0
 49 53  1  0  0  0
 49 64  1  0  0  0
 49122  1  0  0  0
 50 51  1  0  0  0
 50123  1  0  0  0
 50124  1  0  0  0
 51 52  1  0  0  0
 51125  1  0  0  0
 51126  1  0  0  0
 52127  1  0  0  0
 52128  1  0  0  0
 53 54  1  0  0  0
 54 55  2  0  0  0
 54129  1  0  0  0
 55 57  1  0  0  0
 55130  1  0  0  0
 56 69  2  0  0  0
 57 58  2  0  0  0
 57131  1  0  0  0
 58132  1  0  0  0
 59 60  1  0  0  0
 59 61  1  0  0  0
 59 62  1  0  0  0
 60133  1  0  0  0
 60134  1  0  0  0
 60135  1  0  0  0
 61136  1  0  0  0
 61137  1  0  0  0
 61138  1  0  0  0
 62139  1  0  0  0
 62140  1  0  0  0
 62141  1  0  0  0
 63 65  1  0  0  0
 63142  1  0  0  0
 63143  1  0  0  0
 63144  1  0  0  0
 64145  1  0  0  0
 65146  1  0  0  0
 68 84  1  0  0  0
 71 72  2  0  0  0
 71 73  1  0  0  0
 71147  1  0  0  0
 72 76  1  0  0  0
 72148  1  0  0  0
 73 75  2  0  0  0
 73 79  1  0  0  0
 74 75  1  0  0  0
 74 76  2  0  0  0
 74 78  1  0  0  0
 75 81  1  0  0  0
 76 87  1  0  0  0
 77 78  2  0  0  0
 77149  1  0  0  0
 77150  1  0  0  0
 78151  1  0  0  0
 79 86  2  0  0  0
 80 81  1  0  0  0
 80152  1  0  0  0
 80153  1  0  0  0
 80154  1  0  0  0
 81155  1  0  0  0
 81156  1  0  0  0
 82 83  1  0  0  0
 82 84  1  0  0  0
 82157  1  0  0  0
 82158  1  0  0  0
 83 85  1  0  0  0
 83159  1  0  0  0
 83160  1  0  0  0
 84161  1  0  0  0
 84162  1  0  0  0
 85 87  1  0  0  0
 85163  1  0  0  0
 85164  1  0  0  0
 86165  1  0  0  0
M  ISO  4   1 100  68 101  79 100  84 101
M  END
> <chiral flag>
0

> <version>
0

> <s_m_source_file>
/data/baiqing/PycharmProjects/Reinvent-master-3.2/result/LINK_invent/BTK/process_docking_weight1_custom_product_contain_oxygen_bond_distance_aromatic_linkinvent_7_9_3/rearranged_h_0121.sdf

> <i_m_source_file_index>
17

> <r_mmod_Potential_Energy-OPLS-2005>
219.85676574707

> <r_mmod_Stretch_Energy-OPLS-2005>
53.1836700439453

> <r_mmod_Bend_Energy-OPLS-2005>
137.88117980957

> <r_mmod_Torsional_Energy-OPLS-2005>
235.556427001953

> <r_mmod_Improper_Torsional_Energy-OPLS-2005>
6.12421751022339

> <r_mmod_Van_der_Waal_Energy-OPLS-2005>
188.956970214844

> <r_mmod_Electrostatic_Energy-OPLS-2005>
-231.956680297852

> <r_mmod_Solvation_Energy-OPLS-2005>
-189.054916381836

> <b_mmod_Minimization_Converged-OPLS-2005>
0

> <r_mmod_RMS_Derivative-OPLS-2005>
5.12509918212891

$$$$
17
                    3D
 Structure written by MMmdl.
166174  0  0  1  0            999 V2000
  -30.7510  -14.4319   20.5514 C   0  0  0  0  0  0
  -30.3900  -12.2963   19.3892 C   0  0  0  0  0  0
  -29.4624  -12.5568   18.1857 C   0  0  0  0  0  0
  -27.9829  -12.4385   18.6004 C   0  0  0  0  0  0
  -27.6620  -13.2204   19.9054 C   0  0  2  0  0  0
  -28.7181  -12.9673   21.0057 C   0  0  0  0  0  0
  -25.2573  -13.8177   20.5795 C   0  0  0  0  0  0
  -24.1825  -13.0441   20.9216 C   0  0  0  0  0  0
  -24.6406  -11.6902   20.8787 C   0  0  0  0  0  0
  -23.9064  -10.4280   21.0414 C   0  0  0  0  0  0
  -24.3623   -9.4201   21.9194 C   0  0  0  0  0  0
  -23.6333   -8.2217   22.0748 C   0  0  0  0  0  0
  -22.4311   -8.0241   21.3521 C   0  0  0  0  0  0
  -21.9940   -9.0195   20.4622 C   0  0  0  0  0  0
  -22.7234  -10.2106   20.3058 C   0  0  0  0  0  0
  -21.6856   -6.0737   22.5284 C   0  0  0  0  0  0
  -21.4003   -6.5658   23.8213 C   0  0  0  0  0  0
  -21.3674   -5.6810   24.9176 C   0  0  0  0  0  0
  -21.6040   -4.3075   24.7247 C   0  0  0  0  0  0
  -21.8804   -3.8160   23.4360 C   0  0  0  0  0  0
  -21.9185   -4.6976   22.3423 C   0  0  0  0  0  0
  -22.7841  -13.5214   21.1879 C   0  0  0  0  0  0
  -22.1669   -4.2168   21.0992 F   0  0  0  0  0  0
  -21.5634   -3.4543   25.7755 F   0  0  0  0  0  0
  -30.0383  -13.2717   20.4387 N   0  0  0  0  0  0
  -26.3054  -12.9378   20.3632 N   0  0  0  0  0  0
  -25.9367  -11.6507   20.5916 N   0  0  0  0  0  0
  -22.0503  -12.8128   22.0383 N   0  0  0  0  0  0
  -25.4253  -15.1907   20.4195 N   0  0  0  0  0  0
  -31.8507  -14.5487   20.0057 O   0  0  0  0  0  0
  -21.6653   -6.8863   21.4233 O   0  0  0  0  0  0
  -22.3496  -14.5556   20.6786 O   0  0  0  0  0  0
  -24.6177  -31.8669   23.2054 C   0  0  0  0  0  0
  -25.9058  -32.4814   23.8350 C   0  0  1  0  0  0
  -27.2197  -27.4059   20.1323 C   0  0  0  0  0  0
  -25.5913  -33.8612   24.2298 N   0  0  0  0  0  0
  -23.4027  -30.4892   21.5460 C   0  0  2  0  0  0
  -24.8499  -28.9506   20.1113 C   0  0  0  0  0  0
  -22.7397  -29.4664   22.4981 C   0  0  0  0  0  0
  -18.0272  -28.1369   22.8493 C   0  0  0  0  0  0
  -24.1479  -36.7301   23.2629 C   0  0  0  0  0  0
  -25.9310  -30.8296   21.3564 C   0  0  0  0  0  0
  -26.0098  -29.4605   20.7105 C   0  0  0  0  0  0
  -27.2027  -28.6977   20.7143 C   0  0  0  0  0  0
  -26.0518  -26.9226   19.5066 C   0  0  0  0  0  0
  -24.8682  -27.6858   19.4968 C   0  0  0  0  0  0
  -23.6076  -29.8137   20.1627 C   0  0  0  0  0  0
  -25.4116  -36.3102   24.0302 C   0  0  1  0  0  0
  -20.5868  -28.3636   23.1308 C   0  0  2  0  0  0
  -20.6763  -26.9370   22.5397 C   0  0  0  0  0  0
  -19.5738  -26.6359   21.5205 C   0  0  0  0  0  0
  -18.1913  -26.7919   22.1599 C   0  0  0  0  0  0
  -19.1534  -28.8811   23.2909 C   0  0  0  0  0  0
  -18.9455  -30.1445   23.8884 C   0  0  0  0  0  0
  -17.6462  -30.6563   24.0538 C   0  0  0  0  0  0
  -25.9056  -34.9469   23.5100 C   0  0  0  0  0  0
  -16.5343  -29.9051   23.6363 C   0  0  0  0  0  0
  -16.7268  -28.6480   23.0358 C   0  0  0  0  0  0
  -26.4479  -31.6578   25.0676 C   0  0  0  0  0  0
  -25.3744  -31.3620   26.1405 C   0  0  0  0  0  0
  -27.0331  -30.3034   24.6016 C   0  0  0  0  0  0
  -27.6011  -32.4295   25.7502 C   0  0  0  0  0  0
  -27.5583  -37.1835   24.8457 C   0  0  0  0  0  0
  -21.4121  -29.3041   22.3731 N   0  0  0  0  0  0
  -26.4293  -37.3793   23.9400 N   0  0  0  0  0  0
  -24.6687  -31.0747   22.0958 N   0  0  0  0  0  0
  -23.4167  -28.8234   23.3029 O   0  0  0  0  0  0
  -28.3368  -26.5970   20.1753 O   0  0  0  0  0  0
  -26.5612  -34.8917   22.4668 O   0  0  0  0  0  0
  -23.5363  -32.1420   23.7465 O   0  0  0  0  0  0
  -31.1076  -19.6938   23.2018 C   0  0  0  0  0  0
  -29.8033  -19.2240   20.7754 C   0  0  0  0  0  0
  -30.6813  -20.7986   22.4312 C   0  0  0  0  0  0
  -30.3560  -18.1258   21.4851 C   0  0  0  0  0  0
  -30.9739  -18.3686   22.7399 C   0  0  0  0  0  0
  -29.9353  -20.5652   21.2410 C   0  0  0  0  0  0
  -31.5862  -22.5451   24.0243 C   0  0  0  0  0  0
  -31.0602  -22.1669   22.8468 C   0  0  0  0  0  0
  -30.4782  -16.8046   20.8251 C   0  0  0  0  0  0
  -30.1854  -15.5624   21.2873 C   0  0  0  0  0  0
  -28.8386  -24.1719   20.5743 C   0  0  0  0  0  0
  -28.6244  -22.8967   21.0051 C   0  0  0  0  0  0
  -31.6213  -17.2716   23.5759 C   0  0  0  0  0  0
  -26.4813  -21.6381   21.6717 C   0  0  0  0  0  0
  -29.3956  -21.7186   20.3622 C   0  0  0  0  0  0
  -28.2125  -25.4777   21.0895 C   0  0  0  0  0  0
  -27.6481  -22.5288   22.1306 C   0  0  0  0  0  0
  -31.4316  -12.3631   19.0689 H   0  0  0  0  0  0
  -30.2641  -11.2734   19.7479 H   0  0  0  0  0  0
  -29.6855  -11.8729   17.3681 H   0  0  0  0  0  0
  -29.6439  -13.5595   17.7916 H   0  0  0  0  0  0
  -27.7372  -11.3826   18.7141 H   0  0  0  0  0  0
  -27.3423  -12.8047   17.7963 H   0  0  0  0  0  0
  -27.7125  -14.2833   19.6675 H   0  0  0  0  0  0
  -28.6963  -11.9175   21.3106 H   0  0  0  0  0  0
  -28.5107  -13.5375   21.9115 H   0  0  0  0  0  0
  -25.2767   -9.5667   22.4797 H   0  0  0  0  0  0
  -24.0052   -7.4591   22.7450 H   0  0  0  0  0  0
  -21.0880   -8.8639   19.8927 H   0  0  0  0  0  0
  -22.3655  -10.9626   19.6154 H   0  0  0  0  0  0
  -21.1999   -7.6170   23.9720 H   0  0  0  0  0  0
  -21.1535   -6.0569   25.9093 H   0  0  0  0  0  0
  -22.0608   -2.7620   23.2866 H   0  0  0  0  0  0
  -22.4202  -11.9818   22.4730 H   0  0  0  0  0  0
  -21.1075  -13.1008   22.2591 H   0  0  0  0  0  0
  -24.6573  -15.8453   20.5221 H   0  0  0  0  0  0
  -26.2912  -15.6344   20.1383 H   0  0  0  0  0  0
  -26.7121  -32.5529   23.1100 H   0  0  0  0  0  0
  -25.0061  -33.9763   25.0438 H   0  0  0  0  0  0
  -22.6944  -31.3078   21.4028 H   0  0  0  0  0  0
  -23.3769  -35.9602   23.3221 H   0  0  0  0  0  0
  -24.3583  -36.9016   22.2061 H   0  0  0  0  0  0
  -23.7164  -37.6425   23.6741 H   0  0  0  0  0  0
  -26.0359  -31.5871   20.5779 H   0  0  0  0  0  0
  -26.8203  -30.8909   21.9704 H   0  0  0  0  0  0
  -28.0952  -29.0821   21.1870 H   0  0  0  0  0  0
  -26.0491  -25.9427   19.0467 H   0  0  0  0  0  0
  -23.9755  -27.2866   19.0325 H   0  0  0  0  0  0
  -23.7039  -30.5802   19.3935 H   0  0  0  0  0  0
  -22.7302  -29.2268   19.8823 H   0  0  0  0  0  0
  -25.1313  -36.1936   25.0783 H   0  0  0  0  0  0
  -20.9972  -28.3181   24.1418 H   0  0  0  0  0  0
  -20.5655  -26.2241   23.3592 H   0  0  0  0  0  0
  -21.6646  -26.7416   22.1188 H   0  0  0  0  0  0
  -19.6899  -25.6267   21.1237 H   0  0  0  0  0  0
  -19.6694  -27.3186   20.6755 H   0  0  0  0  0  0
  -17.4198  -26.6702   21.3974 H   0  0  0  0  0  0
  -18.0280  -26.0043   22.8969 H   0  0  0  0  0  0
  -19.7929  -30.7305   24.2188 H   0  0  0  0  0  0
  -17.4992  -31.6286   24.5089 H   0  0  0  0  0  0
  -15.5334  -30.2934   23.7715 H   0  0  0  0  0  0
  -15.8661  -28.0818   22.7054 H   0  0  0  0  0  0
  -24.5901  -30.7010   25.7688 H   0  0  0  0  0  0
  -24.8981  -32.2763   26.4956 H   0  0  0  0  0  0
  -25.8089  -30.8667   27.0101 H   0  0  0  0  0  0
  -26.2877  -29.6766   24.1099 H   0  0  0  0  0  0
  -27.4160  -29.7261   25.4444 H   0  0  0  0  0  0
  -27.8674  -30.4368   23.9119 H   0  0  0  0  0  0
  -27.2619  -33.3638   26.1982 H   0  0  0  0  0  0
  -28.3923  -32.6764   25.0415 H   0  0  0  0  0  0
  -28.0539  -31.8458   26.5523 H   0  0  0  0  0  0
  -28.2548  -38.0187   24.7582 H   0  0  0  0  0  0
  -28.1144  -36.2724   24.6225 H   0  0  0  0  0  0
  -27.2304  -37.1352   25.8853 H   0  0  0  0  0  0
  -20.9251  -29.8770   21.6978 H   0  0  0  0  0  0
  -26.0164  -38.2846   24.1438 H   0  0  0  0  0  0
  -31.6419  -19.8497   24.1283 H   0  0  0  0  0  0
  -29.3402  -19.0382   19.8160 H   0  0  0  0  0  0
  -31.8376  -23.5834   24.1980 H   0  0  0  0  0  0
  -31.7805  -21.8520   24.8284 H   0  0  0  0  0  0
  -30.9368  -22.9447   22.1103 H   0  0  0  0  0  0
  -30.9808  -16.8717   19.8684 H   0  0  0  0  0  0
  -29.6365  -15.4272   22.2071 H   0  0  0  0  0  0
  -29.5630  -24.3197   19.7887 H   0  0  0  0  0  0
  -32.4658  -17.6675   24.1427 H   0  0  0  0  0  0
  -32.0198  -16.4596   22.9690 H   0  0  0  0  0  0
  -30.9046  -16.8584   24.2862 H   0  0  0  0  0  0
  -25.8631  -21.3426   22.5220 H   0  0  0  0  0  0
  -26.8410  -20.7230   21.2032 H   0  0  0  0  0  0
  -25.8345  -22.1526   20.9608 H   0  0  0  0  0  0
  -28.7244  -21.2886   19.6174 H   0  0  0  0  0  0
  -30.2403  -22.1035   19.7915 H   0  0  0  0  0  0
  -28.7518  -25.7568   21.9940 H   0  0  0  0  0  0
  -27.1802  -25.2990   21.3911 H   0  0  0  0  0  0
  -27.2415  -23.4169   22.6113 H   0  0  0  0  0  0
  -28.1997  -22.0115   22.9173 H   0  0  0  0  0  0
  1 25  1  0  0  0
  1 30  2  0  0  0
  1 80  1  0  0  0
  2  3  1  0  0  0
  2 25  1  0  0  0
  2 88  1  0  0  0
  2 89  1  0  0  0
  3  4  1  0  0  0
  3 90  1  0  0  0
  3 91  1  0  0  0
  4  5  1  0  0  0
  4 92  1  0  0  0
  4 93  1  0  0  0
  5  6  1  0  0  0
  5 26  1  0  0  0
  5 94  1  0  0  0
  6 25  1  0  0  0
  6 95  1  0  0  0
  6 96  1  0  0  0
  7  8  2  0  0  0
  7 26  1  0  0  0
  7 29  1  0  0  0
  8  9  1  0  0  0
  8 22  1  0  0  0
  9 10  1  0  0  0
  9 27  2  0  0  0
 10 11  2  0  0  0
 10 15  1  0  0  0
 11 12  1  0  0  0
 11 97  1  0  0  0
 12 13  2  0  0  0
 12 98  1  0  0  0
 13 14  1  0  0  0
 13 31  1  0  0  0
 14 15  2  0  0  0
 14 99  1  0  0  0
 15100  1  0  0  0
 16 17  2  0  0  0
 16 21  1  0  0  0
 16 31  1  0  0  0
 17 18  1  0  0  0
 17101  1  0  0  0
 18 19  2  0  0  0
 18102  1  0  0  0
 19 20  1  0  0  0
 19 24  1  0  0  0
 20 21  2  0  0  0
 20103  1  0  0  0
 21 23  1  0  0  0
 22 28  1  0  0  0
 22 32  2  0  0  0
 26 27  1  0  0  0
 28104  1  0  0  0
 28105  1  0  0  0
 29106  1  0  0  0
 29107  1  0  0  0
 33 34  1  0  0  0
 33 66  1  0  0  0
 33 70  2  0  0  0
 34 36  1  0  0  0
 34 59  1  0  0  0
 34108  1  0  0  0
 35 44  2  0  0  0
 35 45  1  0  0  0
 35 68  1  0  0  0
 36 56  1  0  0  0
 36109  1  0  0  0
 37 39  1  0  0  0
 37 47  1  0  0  0
 37 66  1  0  0  0
 37110  1  0  0  0
 38 43  2  0  0  0
 38 46  1  0  0  0
 38 47  1  0  0  0
 39 64  1  0  0  0
 39 67  2  0  0  0
 40 52  1  0  0  0
 40 53  2  0  0  0
 40 58  1  0  0  0
 41111  1  0  0  0
 41112  1  0  0  0
 41113  1  0  0  0
 41 48  1  0  0  0
 42 43  1  0  0  0
 42 66  1  0  0  0
 42114  1  0  0  0
 42115  1  0  0  0
 43 44  1  0  0  0
 44116  1  0  0  0
 45 46  2  0  0  0
 45117  1  0  0  0
 46118  1  0  0  0
 47119  1  0  0  0
 47120  1  0  0  0
 48 56  1  0  0  0
 48 65  1  0  0  0
 48121  1  0  0  0
 49 50  1  0  0  0
 49 53  1  0  0  0
 49 64  1  0  0  0
 49122  1  0  0  0
 50 51  1  0  0  0
 50123  1  0  0  0
 50124  1  0  0  0
 51 52  1  0  0  0
 51125  1  0  0  0
 51126  1  0  0  0
 52127  1  0  0  0
 52128  1  0  0  0
 53 54  1  0  0  0
 54 55  2  0  0  0
 54129  1  0  0  0
 55 57  1  0  0  0
 55130  1  0  0  0
 56 69  2  0  0  0
 57 58  2  0  0  0
 57131  1  0  0  0
 58132  1  0  0  0
 59 60  1  0  0  0
 59 61  1  0  0  0
 59 62  1  0  0  0
 60133  1  0  0  0
 60134  1  0  0  0
 60135  1  0  0  0
 61136  1  0  0  0
 61137  1  0  0  0
 61138  1  0  0  0
 62139  1  0  0  0
 62140  1  0  0  0
 62141  1  0  0  0
 63 65  1  0  0  0
 63142  1  0  0  0
 63143  1  0  0  0
 63144  1  0  0  0
 64145  1  0  0  0
 65146  1  0  0  0
 68 86  1  0  0  0
 71 73  2  0  0  0
 71 75  1  0  0  0
 71147  1  0  0  0
 72 74  1  0  0  0
 72 76  2  0  0  0
 72148  1  0  0  0
 73 76  1  0  0  0
 73 78  1  0  0  0
 74 75  2  0  0  0
 74 79  1  0  0  0
 75 83  1  0  0  0
 76 85  1  0  0  0
 77 78  2  0  0  0
 77149  1  0  0  0
 77150  1  0  0  0
 78151  1  0  0  0
 79 80  2  0  0  0
 79152  1  0  0  0
 80153  1  0  0  0
 81 82  2  0  0  0
 81 86  1  0  0  0
 81154  1  0  0  0
 82 85  1  0  0  0
 82 87  1  0  0  0
 83155  1  0  0  0
 83156  1  0  0  0
 83157  1  0  0  0
 84 87  1  0  0  0
 84158  1  0  0  0
 84159  1  0  0  0
 84160  1  0  0  0
 85161  1  0  0  0
 85162  1  0  0  0
 86163  1  0  0  0
 86164  1  0  0  0
 87165  1  0  0  0
 87166  1  0  0  0
M  ISO  4   1 100  68 101  80 100  86 101
M  END
> <chiral flag>
0

> <version>
0

> <s_m_source_file>
/data/baiqing/PycharmProjects/Reinvent-master-3.2/result/LINK_invent/BTK/process_docking_weight1_custom_product_contain_oxygen_bond_distance_aromatic_linkinvent_7_9_3/rearranged_h_0121.sdf

> <i_m_source_file_index>
18

> <r_mmod_Potential_Energy-OPLS-2005>
71.1813201904297

> <r_mmod_Stretch_Energy-OPLS-2005>
47.2976455688477

> <r_mmod_Bend_Energy-OPLS-2005>
115.979393005371

> <r_mmod_Torsional_Energy-OPLS-2005>
251.811584472656

> <r_mmod_Improper_Torsional_Energy-OPLS-2005>
7.00824737548828

> <r_mmod_Van_der_Waal_Energy-OPLS-2005>
162.546661376953

> <r_mmod_Electrostatic_Energy-OPLS-2005>
-351.079376220703

> <r_mmod_Solvation_Energy-OPLS-2005>
-180.238967895508

> <b_mmod_Minimization_Converged-OPLS-2005>
0

> <r_mmod_RMS_Derivative-OPLS-2005>
5.04883337020874

$$$$
18
                    3D
 Structure written by MMmdl.
162170  0  0  1  0            999 V2000
  -30.6881  -14.5251   20.6035 C   0  0  0  0  0  0
  -30.4548  -12.3681   19.3937 C   0  0  0  0  0  0
  -29.4923  -12.5359   18.1976 C   0  0  0  0  0  0
  -28.0140  -12.4132   18.6189 C   0  0  0  0  0  0
  -27.6806  -13.2131   19.9022 C   0  0  2  0  0  0
  -28.7390  -12.9589   20.9983 C   0  0  0  0  0  0
  -25.2665  -13.8121   20.5681 C   0  0  0  0  0  0
  -24.1900  -13.0413   20.9142 C   0  0  0  0  0  0
  -24.6458  -11.6892   20.8727 C   0  0  0  0  0  0
  -23.9072  -10.4292   21.0379 C   0  0  0  0  0  0
  -24.3603   -9.4230   21.9176 C   0  0  0  0  0  0
  -23.6317   -8.2248   22.0750 C   0  0  0  0  0  0
  -22.4306   -8.0278   21.3518 C   0  0  0  0  0  0
  -21.9919   -9.0248   20.4632 C   0  0  0  0  0  0
  -22.7218  -10.2142   20.3053 C   0  0  0  0  0  0
  -21.6881   -6.0749   22.5260 C   0  0  0  0  0  0
  -21.4028   -6.5653   23.8190 C   0  0  0  0  0  0
  -21.3655   -5.6789   24.9147 C   0  0  0  0  0  0
  -21.6056   -4.3048   24.7187 C   0  0  0  0  0  0
  -21.8831   -3.8161   23.4299 C   0  0  0  0  0  0
  -21.9206   -4.6981   22.3371 C   0  0  0  0  0  0
  -22.7916  -13.5245   21.1755 C   0  0  0  0  0  0
  -22.1692   -4.2163   21.0951 F   0  0  0  0  0  0
  -21.5609   -3.4541   25.7704 F   0  0  0  0  0  0
  -30.0644  -13.3166   20.4521 N   0  0  0  0  0  0
  -26.3177  -12.9323   20.3578 N   0  0  0  0  0  0
  -25.9438  -11.6469   20.5914 N   0  0  0  0  0  0
  -22.0539  -12.8281   22.0321 N   0  0  0  0  0  0
  -25.4328  -15.1802   20.3936 N   0  0  0  0  0  0
  -31.7191  -14.8250   19.9909 O   0  0  0  0  0  0
  -21.6658   -6.8886   21.4222 O   0  0  0  0  0  0
  -22.3603  -14.5555   20.6609 O   0  0  0  0  0  0
  -24.6203  -31.8655   23.2105 C   0  0  0  0  0  0
  -25.9074  -32.4814   23.8402 C   0  0  1  0  0  0
  -27.2147  -27.3653   20.0985 C   0  0  0  0  0  0
  -25.5927  -33.8607   24.2347 N   0  0  0  0  0  0
  -23.4091  -30.4948   21.5522 C   0  0  2  0  0  0
  -24.8487  -28.9600   20.1105 C   0  0  0  0  0  0
  -22.7437  -29.4659   22.4960 C   0  0  0  0  0  0
  -18.0277  -28.1372   22.8480 C   0  0  0  0  0  0
  -24.1482  -36.7323   23.2634 C   0  0  0  0  0  0
  -25.9437  -30.8156   21.3655 C   0  0  0  0  0  0
  -26.0183  -29.4440   20.7106 C   0  0  0  0  0  0
  -27.2015  -28.6562   20.7001 C   0  0  0  0  0  0
  -26.0262  -26.9321   19.4619 C   0  0  0  0  0  0
  -24.8528  -27.7064   19.4799 C   0  0  0  0  0  0
  -23.6192  -29.8410   20.1633 C   0  0  0  0  0  0
  -25.4093  -36.3111   24.0347 C   0  0  1  0  0  0
  -20.5869  -28.3670   23.1310 C   0  0  2  0  0  0
  -20.6772  -26.9405   22.5416 C   0  0  0  0  0  0
  -19.5759  -26.6376   21.5206 C   0  0  0  0  0  0
  -18.1931  -26.7924   22.1608 C   0  0  0  0  0  0
  -19.1526  -28.8830   23.2901 C   0  0  0  0  0  0
  -18.9450  -30.1428   23.8917 C   0  0  0  0  0  0
  -17.6457  -30.6576   24.0557 C   0  0  0  0  0  0
  -25.9025  -34.9476   23.5140 C   0  0  0  0  0  0
  -16.5347  -29.9082   23.6311 C   0  0  0  0  0  0
  -16.7266  -28.6501   23.0325 C   0  0  0  0  0  0
  -26.4486  -31.6577   25.0723 C   0  0  0  0  0  0
  -25.3787  -31.3633   26.1497 C   0  0  0  0  0  0
  -27.0300  -30.3038   24.6041 C   0  0  0  0  0  0
  -27.6064  -32.4274   25.7499 C   0  0  0  0  0  0
  -27.5578  -37.1816   24.8460 C   0  0  0  0  0  0
  -21.4153  -29.3051   22.3719 N   0  0  0  0  0  0
  -26.4274  -37.3807   23.9428 N   0  0  0  0  0  0
  -24.6778  -31.0716   22.1026 N   0  0  0  0  0  0
  -23.4188  -28.8170   23.2997 O   0  0  0  0  0  0
  -28.3480  -26.5513   20.1546 O   0  0  0  0  0  0
  -26.5572  -34.8926   22.4691 O   0  0  0  0  0  0
  -23.5394  -32.1409   23.7490 O   0  0  0  0  0  0
  -29.8647  -17.7972   20.7886 C   0  0  0  0  0  0
  -28.1497  -16.5359   21.9668 C   0  0  0  0  0  0
  -29.0242  -18.9668   20.7761 C   0  0  0  0  0  0
  -27.3073  -17.6583   21.9686 C   0  0  0  0  0  0
  -27.7155  -18.8668   21.3484 C   0  0  0  0  0  0
  -29.4199  -16.5652   21.3709 C   0  0  0  0  0  0
  -29.4625  -20.2580   20.1246 C   0  0  0  0  0  0
  -29.3265  -21.5208   20.6333 C   0  0  0  0  0  0
  -29.5241  -22.7902   19.8587 C   0  0  0  0  0  0
  -25.9536  -17.5139   22.6497 C   0  0  0  0  0  0
  -26.1549  -20.1637   19.7990 C   0  0  0  0  0  0
  -26.6824  -20.0028   21.2310 C   0  0  0  0  0  0
  -29.2682  -24.1732   20.5413 C   0  0  0  0  0  0
  -28.1986  -25.1167   19.8809 C   0  0  0  0  0  0
  -30.1615  -15.3423   21.5381 N   0  0  0  0  0  0
  -29.8839  -22.7833   18.6788 O   0  0  0  0  0  0
  -31.4827  -12.5262   19.0585 H   0  0  0  0  0  0
  -30.4281  -11.3468   19.7756 H   0  0  0  0  0  0
  -29.7149  -11.7927   17.4316 H   0  0  0  0  0  0
  -29.6565  -13.5082   17.7307 H   0  0  0  0  0  0
  -27.7913  -11.3576   18.7684 H   0  0  0  0  0  0
  -27.3668  -12.7436   17.8069 H   0  0  0  0  0  0
  -27.7312  -14.2712   19.6450 H   0  0  0  0  0  0
  -28.7423  -11.9059   21.2871 H   0  0  0  0  0  0
  -28.4967  -13.5015   21.9092 H   0  0  0  0  0  0
  -25.2716   -9.5767   22.4764 H   0  0  0  0  0  0
  -24.0044   -7.4670   22.7489 H   0  0  0  0  0  0
  -21.0836   -8.8736   19.8954 H   0  0  0  0  0  0
  -22.3626  -10.9679   19.6199 H   0  0  0  0  0  0
  -21.2037   -7.6152   23.9705 H   0  0  0  0  0  0
  -21.1471   -6.0502   25.9044 H   0  0  0  0  0  0
  -22.0626   -2.7624   23.2778 H   0  0  0  0  0  0
  -22.4151  -11.9949   22.4732 H   0  0  0  0  0  0
  -21.1177  -13.1370   22.2528 H   0  0  0  0  0  0
  -24.6714  -15.8374   20.5137 H   0  0  0  0  0  0
  -26.3080  -15.6298   20.1555 H   0  0  0  0  0  0
  -26.7135  -32.5518   23.1154 H   0  0  0  0  0  0
  -25.0129  -33.9763   25.0533 H   0  0  0  0  0  0
  -22.7010  -31.3159   21.4205 H   0  0  0  0  0  0
  -23.3749  -35.9649   23.3267 H   0  0  0  0  0  0
  -24.3597  -36.8959   22.2055 H   0  0  0  0  0  0
  -23.7210  -37.6515   23.6654 H   0  0  0  0  0  0
  -26.0495  -31.5783   20.5922 H   0  0  0  0  0  0
  -26.8360  -30.8780   21.9765 H   0  0  0  0  0  0
  -28.0989  -29.0248   21.1773 H   0  0  0  0  0  0
  -25.9755  -25.9865   18.9433 H   0  0  0  0  0  0
  -23.9564  -27.3358   18.9993 H   0  0  0  0  0  0
  -23.7449  -30.6263   19.4169 H   0  0  0  0  0  0
  -22.7350  -29.2819   19.8531 H   0  0  0  0  0  0
  -25.1256  -36.1979   25.0839 H   0  0  0  0  0  0
  -20.9963  -28.3231   24.1428 H   0  0  0  0  0  0
  -20.5659  -26.2279   23.3599 H   0  0  0  0  0  0
  -21.6647  -26.7442   22.1220 H   0  0  0  0  0  0
  -19.6926  -25.6284   21.1236 H   0  0  0  0  0  0
  -19.6710  -27.3179   20.6726 H   0  0  0  0  0  0
  -17.4213  -26.6665   21.3999 H   0  0  0  0  0  0
  -18.0337  -26.0052   22.8988 H   0  0  0  0  0  0
  -19.7921  -30.7227   24.2316 H   0  0  0  0  0  0
  -17.5008  -31.6258   24.5155 H   0  0  0  0  0  0
  -15.5344  -30.2988   23.7615 H   0  0  0  0  0  0
  -15.8667  -28.0827   22.7019 H   0  0  0  0  0  0
  -24.5999  -30.6913   25.7869 H   0  0  0  0  0  0
  -24.8932  -32.2751   26.4983 H   0  0  0  0  0  0
  -25.8212  -30.8821   27.0233 H   0  0  0  0  0  0
  -26.2802  -29.6809   24.1148 H   0  0  0  0  0  0
  -27.4160  -29.7243   25.4432 H   0  0  0  0  0  0
  -27.8602  -30.4379   23.9105 H   0  0  0  0  0  0
  -27.2700  -33.3576   26.2087 H   0  0  0  0  0  0
  -28.3894  -32.6814   25.0343 H   0  0  0  0  0  0
  -28.0707  -31.8380   26.5418 H   0  0  0  0  0  0
  -28.2573  -38.0136   24.7543 H   0  0  0  0  0  0
  -28.1095  -36.2672   24.6226 H   0  0  0  0  0  0
  -27.2321  -37.1399   25.8870 H   0  0  0  0  0  0
  -20.9286  -29.8838   21.7013 H   0  0  0  0  0  0
  -26.0164  -38.2880   24.1461 H   0  0  0  0  0  0
  -30.8566  -17.8512   20.3628 H   0  0  0  0  0  0
  -27.7910  -15.6295   22.4358 H   0  0  0  0  0  0
  -29.8400  -20.1556   19.1158 H   0  0  0  0  0  0
  -29.0172  -21.6378   21.6587 H   0  0  0  0  0  0
  -25.8217  -16.5253   23.0884 H   0  0  0  0  0  0
  -25.1423  -17.6679   21.9367 H   0  0  0  0  0  0
  -25.8594  -18.2362   23.4615 H   0  0  0  0  0  0
  -25.3698  -20.9194   19.7630 H   0  0  0  0  0  0
  -25.7395  -19.2212   19.4385 H   0  0  0  0  0  0
  -26.9354  -20.4698   19.1035 H   0  0  0  0  0  0
  -27.0590  -20.9414   21.6194 H   0  0  0  0  0  0
  -25.8205  -19.8408   21.8706 H   0  0  0  0  0  0
  -30.2220  -24.6956   20.5655 H   0  0  0  0  0  0
  -28.9930  -23.9991   21.5805 H   0  0  0  0  0  0
  -27.2344  -24.7614   20.2501 H   0  0  0  0  0  0
  -28.1799  -24.9755   18.8000 H   0  0  0  0  0  0
  -29.7202  -14.7582   22.2325 H   0  0  0  0  0  0
  1 25  1  0  0  0
  1 30  2  0  0  0
  1 85  1  0  0  0
  2  3  1  0  0  0
  2 25  1  0  0  0
  2 87  1  0  0  0
  2 88  1  0  0  0
  3  4  1  0  0  0
  3 89  1  0  0  0
  3 90  1  0  0  0
  4  5  1  0  0  0
  4 91  1  0  0  0
  4 92  1  0  0  0
  5  6  1  0  0  0
  5 26  1  0  0  0
  5 93  1  0  0  0
  6 25  1  0  0  0
  6 94  1  0  0  0
  6 95  1  0  0  0
  7  8  2  0  0  0
  7 26  1  0  0  0
  7 29  1  0  0  0
  8  9  1  0  0  0
  8 22  1  0  0  0
  9 10  1  0  0  0
  9 27  2  0  0  0
 10 11  2  0  0  0
 10 15  1  0  0  0
 11 12  1  0  0  0
 11 96  1  0  0  0
 12 13  2  0  0  0
 12 97  1  0  0  0
 13 14  1  0  0  0
 13 31  1  0  0  0
 14 15  2  0  0  0
 14 98  1  0  0  0
 15 99  1  0  0  0
 16 17  2  0  0  0
 16 21  1  0  0  0
 16 31  1  0  0  0
 17 18  1  0  0  0
 17100  1  0  0  0
 18 19  2  0  0  0
 18101  1  0  0  0
 19 20  1  0  0  0
 19 24  1  0  0  0
 20 21  2  0  0  0
 20102  1  0  0  0
 21 23  1  0  0  0
 22 28  1  0  0  0
 22 32  2  0  0  0
 26 27  1  0  0  0
 28103  1  0  0  0
 28104  1  0  0  0
 29105  1  0  0  0
 29106  1  0  0  0
 33 34  1  0  0  0
 33 66  1  0  0  0
 33 70  2  0  0  0
 34 36  1  0  0  0
 34 59  1  0  0  0
 34107  1  0  0  0
 35 44  2  0  0  0
 35 45  1  0  0  0
 35 68  1  0  0  0
 36 56  1  0  0  0
 36108  1  0  0  0
 37 39  1  0  0  0
 37 47  1  0  0  0
 37 66  1  0  0  0
 37109  1  0  0  0
 38 43  2  0  0  0
 38 46  1  0  0  0
 38 47  1  0  0  0
 39 64  1  0  0  0
 39 67  2  0  0  0
 40 52  1  0  0  0
 40 53  2  0  0  0
 40 58  1  0  0  0
 41110  1  0  0  0
 41111  1  0  0  0
 41112  1  0  0  0
 41 48  1  0  0  0
 42 43  1  0  0  0
 42 66  1  0  0  0
 42113  1  0  0  0
 42114  1  0  0  0
 43 44  1  0  0  0
 44115  1  0  0  0
 45 46  2  0  0  0
 45116  1  0  0  0
 46117  1  0  0  0
 47118  1  0  0  0
 47119  1  0  0  0
 48 56  1  0  0  0
 48 65  1  0  0  0
 48120  1  0  0  0
 49 50  1  0  0  0
 49 53  1  0  0  0
 49 64  1  0  0  0
 49121  1  0  0  0
 50 51  1  0  0  0
 50122  1  0  0  0
 50123  1  0  0  0
 51 52  1  0  0  0
 51124  1  0  0  0
 51125  1  0  0  0
 52126  1  0  0  0
 52127  1  0  0  0
 53 54  1  0  0  0
 54 55  2  0  0  0
 54128  1  0  0  0
 55 57  1  0  0  0
 55129  1  0  0  0
 56 69  2  0  0  0
 57 58  2  0  0  0
 57130  1  0  0  0
 58131  1  0  0  0
 59 60  1  0  0  0
 59 61  1  0  0  0
 59 62  1  0  0  0
 60132  1  0  0  0
 60133  1  0  0  0
 60134  1  0  0  0
 61135  1  0  0  0
 61136  1  0  0  0
 61137  1  0  0  0
 62138  1  0  0  0
 62139  1  0  0  0
 62140  1  0  0  0
 63 65  1  0  0  0
 63141  1  0  0  0
 63142  1  0  0  0
 63143  1  0  0  0
 64144  1  0  0  0
 65145  1  0  0  0
 68 84  1  0  0  0
 71 73  2  0  0  0
 71 76  1  0  0  0
 71146  1  0  0  0
 72 74  1  0  0  0
 72 76  2  0  0  0
 72147  1  0  0  0
 73 75  1  0  0  0
 73 77  1  0  0  0
 74 75  2  0  0  0
 74 80  1  0  0  0
 75 82  1  0  0  0
 76 85  1  0  0  0
 77 78  2  0  0  0
 77148  1  0  0  0
 78 79  1  0  0  0
 78149  1  0  0  0
 79 83  1  0  0  0
 79 86  2  0  0  0
 80150  1  0  0  0
 80151  1  0  0  0
 80152  1  0  0  0
 81 82  1  0  0  0
 81153  1  0  0  0
 81154  1  0  0  0
 81155  1  0  0  0
 82156  1  0  0  0
 82157  1  0  0  0
 83 84  1  0  0  0
 83158  1  0  0  0
 83159  1  0  0  0
 84160  1  0  0  0
 84161  1  0  0  0
 85162  1  0  0  0
M  ISO  4   1 100  68 101  84 101  85 100
M  END
> <chiral flag>
0

> <version>
0

> <s_m_source_file>
/data/baiqing/PycharmProjects/Reinvent-master-3.2/result/LINK_invent/BTK/process_docking_weight1_custom_product_contain_oxygen_bond_distance_aromatic_linkinvent_7_9_3/rearranged_h_0121.sdf

> <i_m_source_file_index>
19

> <r_mmod_Potential_Energy-OPLS-2005>
30.0409564971924

> <r_mmod_Stretch_Energy-OPLS-2005>
62.7117919921875

> <r_mmod_Bend_Energy-OPLS-2005>
130.785369873047

> <r_mmod_Torsional_Energy-OPLS-2005>
268.057983398438

> <r_mmod_Improper_Torsional_Energy-OPLS-2005>
8.34227085113525

> <r_mmod_Van_der_Waal_Energy-OPLS-2005>
152.00602722168

> <r_mmod_Electrostatic_Energy-OPLS-2005>
-402.602325439453

> <r_mmod_Solvation_Energy-OPLS-2005>
-216.216125488281

> <b_mmod_Minimization_Converged-OPLS-2005>
0

> <r_mmod_RMS_Derivative-OPLS-2005>
3.91745805740356

$$$$
19
                    3D
 Structure written by MMmdl.
166174  0  0  1  0            999 V2000
  -30.6952  -14.4403   20.5988 C   0  0  0  0  0  0
  -30.4281  -12.2868   19.4247 C   0  0  0  0  0  0
  -29.5062  -12.5013   18.2069 C   0  0  0  0  0  0
  -28.0228  -12.3674   18.6096 C   0  0  0  0  0  0
  -27.6656  -13.1972   19.8735 C   0  0  2  0  0  0
  -28.6997  -12.9480   20.9942 C   0  0  0  0  0  0
  -25.2583  -13.8123   20.5616 C   0  0  0  0  0  0
  -24.1848  -13.0410   20.9175 C   0  0  0  0  0  0
  -24.6395  -11.6886   20.8724 C   0  0  0  0  0  0
  -23.9049  -10.4294   21.0410 C   0  0  0  0  0  0
  -24.3601   -9.4215   21.9196 C   0  0  0  0  0  0
  -23.6274   -8.2253   22.0761 C   0  0  0  0  0  0
  -22.4262   -8.0286   21.3543 C   0  0  0  0  0  0
  -21.9887   -9.0265   20.4649 C   0  0  0  0  0  0
  -22.7213  -10.2145   20.3066 C   0  0  0  0  0  0
  -21.6852   -6.0744   22.5281 C   0  0  0  0  0  0
  -21.4023   -6.5651   23.8217 C   0  0  0  0  0  0
  -21.3652   -5.6790   24.9167 C   0  0  0  0  0  0
  -21.6035   -4.3054   24.7213 C   0  0  0  0  0  0
  -21.8827   -3.8145   23.4335 C   0  0  0  0  0  0
  -21.9198   -4.6969   22.3393 C   0  0  0  0  0  0
  -22.7870  -13.5242   21.1813 C   0  0  0  0  0  0
  -22.1665   -4.2157   21.0971 F   0  0  0  0  0  0
  -21.5602   -3.4540   25.7723 F   0  0  0  0  0  0
  -30.0410  -13.2548   20.4606 N   0  0  0  0  0  0
  -26.3031  -12.9285   20.3294 N   0  0  0  0  0  0
  -25.9317  -11.6460   20.5731 N   0  0  0  0  0  0
  -22.0487  -12.8299   22.0385 N   0  0  0  0  0  0
  -25.4194  -15.1838   20.3934 N   0  0  0  0  0  0
  -31.7972  -14.6719   20.0932 O   0  0  0  0  0  0
  -21.6619   -6.8889   21.4251 O   0  0  0  0  0  0
  -22.3577  -14.5547   20.6627 O   0  0  0  0  0  0
  -24.6116  -31.8690   23.2126 C   0  0  0  0  0  0
  -25.9018  -32.4829   23.8406 C   0  0  1  0  0  0
  -27.2367  -27.4612   20.0844 C   0  0  0  0  0  0
  -25.5887  -33.8626   24.2327 N   0  0  0  0  0  0
  -23.3981  -30.4926   21.5523 C   0  0  2  0  0  0
  -24.8455  -28.9597   20.1148 C   0  0  0  0  0  0
  -22.7386  -29.4668   22.5013 C   0  0  0  0  0  0
  -18.0267  -28.1393   22.8493 C   0  0  0  0  0  0
  -24.1471  -36.7301   23.2637 C   0  0  0  0  0  0
  -25.9242  -30.8401   21.3633 C   0  0  0  0  0  0
  -26.0021  -29.4735   20.7158 C   0  0  0  0  0  0
  -27.1987  -28.7237   20.7126 C   0  0  0  0  0  0
  -26.0635  -26.9493   19.4906 C   0  0  0  0  0  0
  -24.8680  -27.6926   19.5052 C   0  0  0  0  0  0
  -23.6046  -29.8233   20.1671 C   0  0  0  0  0  0
  -25.4096  -36.3107   24.0329 C   0  0  1  0  0  0
  -20.5858  -28.3661   23.1333 C   0  0  2  0  0  0
  -20.6756  -26.9404   22.5426 C   0  0  0  0  0  0
  -19.5739  -26.6396   21.5217 C   0  0  0  0  0  0
  -18.1915  -26.7936   22.1625 C   0  0  0  0  0  0
  -19.1518  -28.8841   23.2916 C   0  0  0  0  0  0
  -18.9456  -30.1443   23.8937 C   0  0  0  0  0  0
  -17.6460  -30.6588   24.0576 C   0  0  0  0  0  0
  -25.9036  -34.9477   23.5128 C   0  0  0  0  0  0
  -16.5347  -29.9101   23.6333 C   0  0  0  0  0  0
  -16.7258  -28.6522   23.0348 C   0  0  0  0  0  0
  -26.4473  -31.6605   25.0713 C   0  0  0  0  0  0
  -25.3759  -31.3721   26.1481 C   0  0  0  0  0  0
  -27.0273  -30.3040   24.6069 C   0  0  0  0  0  0
  -27.6066  -32.4319   25.7450 C   0  0  0  0  0  0
  -27.5570  -37.1794   24.8457 C   0  0  0  0  0  0
  -21.4126  -29.3013   22.3727 N   0  0  0  0  0  0
  -26.4277  -37.3794   23.9416 N   0  0  0  0  0  0
  -24.6628  -31.0806   22.1019 N   0  0  0  0  0  0
  -23.4163  -28.8239   23.3071 O   0  0  0  0  0  0
  -28.3955  -26.7233   20.0867 O   0  0  0  0  0  0
  -26.5622  -34.8932   22.4706 O   0  0  0  0  0  0
  -23.5314  -32.1457   23.7527 O   0  0  0  0  0  0
  -28.6610  -17.2344   20.4945 C   0  0  0  0  0  0
  -31.0030  -17.6250   20.9877 C   0  0  0  0  0  0
  -28.5052  -18.5719   20.0664 C   0  0  0  0  0  0
  -29.6063  -19.4727   20.1398 C   0  0  0  0  0  0
  -30.8491  -18.9882   20.6401 C   0  0  0  0  0  0
  -29.9111  -16.7397   20.9041 C   0  0  0  0  0  0
  -30.8526  -23.0038   17.0621 C   0  0  0  0  0  0
  -29.4687  -20.8909   19.7180 C   0  0  0  0  0  0
  -30.1763  -21.4157   18.6994 C   0  0  0  0  0  0
  -27.1494  -18.9529   19.5760 C   0  0  0  0  0  0
  -30.1213  -22.7780   18.1718 C   0  0  0  0  0  0
  -32.0289  -19.9243   20.8503 C   0  0  0  0  0  0
  -27.0620  -19.6680   18.2330 C   0  0  0  0  0  0
  -29.2741  -23.8976   18.7948 C   0  0  0  0  0  0
  -29.9422  -25.3016   18.8252 C   0  0  0  0  0  0
  -28.9569  -26.4854   18.8015 C   0  0  0  0  0  0
  -30.0019  -15.3726   21.2725 N   0  0  0  0  0  0
  -26.1072  -18.6328   20.1528 O   0  0  0  0  0  0
  -31.4754  -12.3868   19.1347 H   0  0  0  0  0  0
  -30.3247  -11.2701   19.8107 H   0  0  0  0  0  0
  -29.7465  -11.7785   17.4245 H   0  0  0  0  0  0
  -29.6874  -13.4883   17.7788 H   0  0  0  0  0  0
  -27.8249  -11.3112   18.7918 H   0  0  0  0  0  0
  -27.3824  -12.6524   17.7748 H   0  0  0  0  0  0
  -27.7172  -14.2484   19.5937 H   0  0  0  0  0  0
  -28.6655  -11.9028   21.3049 H   0  0  0  0  0  0
  -28.4489  -13.5153   21.8909 H   0  0  0  0  0  0
  -25.2759   -9.5679   22.4752 H   0  0  0  0  0  0
  -23.9975   -7.4657   22.7491 H   0  0  0  0  0  0
  -21.0808   -8.8794   19.8973 H   0  0  0  0  0  0
  -22.3685  -10.9679   19.6165 H   0  0  0  0  0  0
  -21.2038   -7.6162   23.9729 H   0  0  0  0  0  0
  -21.1443   -6.0510   25.9063 H   0  0  0  0  0  0
  -22.0607   -2.7606   23.2841 H   0  0  0  0  0  0
  -22.4053  -11.9961   22.4841 H   0  0  0  0  0  0
  -21.1113  -13.1380   22.2533 H   0  0  0  0  0  0
  -24.6391  -15.8249   20.4879 H   0  0  0  0  0  0
  -26.2363  -15.6190   19.9899 H   0  0  0  0  0  0
  -26.7092  -32.5551   23.1176 H   0  0  0  0  0  0
  -24.9997  -33.9785   25.0443 H   0  0  0  0  0  0
  -22.6865  -31.3098   21.4153 H   0  0  0  0  0  0
  -23.3731  -35.9635   23.3303 H   0  0  0  0  0  0
  -24.3563  -36.8918   22.2052 H   0  0  0  0  0  0
  -23.7223  -37.6500   23.6662 H   0  0  0  0  0  0
  -26.0310  -31.6041   20.5912 H   0  0  0  0  0  0
  -26.8147  -30.8984   21.9777 H   0  0  0  0  0  0
  -28.0919  -29.1116   21.1835 H   0  0  0  0  0  0
  -26.0703  -25.9737   19.0246 H   0  0  0  0  0  0
  -23.9755  -27.2882   19.0475 H   0  0  0  0  0  0
  -23.7075  -30.5982   19.4074 H   0  0  0  0  0  0
  -22.7278  -29.2424   19.8743 H   0  0  0  0  0  0
  -25.1267  -36.1969   25.0818 H   0  0  0  0  0  0
  -20.9950  -28.3238   24.1452 H   0  0  0  0  0  0
  -20.5666  -26.2275   23.3608 H   0  0  0  0  0  0
  -21.6632  -26.7444   22.1231 H   0  0  0  0  0  0
  -19.6909  -25.6318   21.1216 H   0  0  0  0  0  0
  -19.6685  -27.3234   20.6770 H   0  0  0  0  0  0
  -17.4186  -26.6689   21.4028 H   0  0  0  0  0  0
  -18.0313  -26.0074   22.9015 H   0  0  0  0  0  0
  -19.7933  -30.7249   24.2333 H   0  0  0  0  0  0
  -17.5015  -31.6268   24.5178 H   0  0  0  0  0  0
  -15.5350  -30.3023   23.7635 H   0  0  0  0  0  0
  -15.8653  -28.0848   22.7058 H   0  0  0  0  0  0
  -24.5881  -30.7127   25.7824 H   0  0  0  0  0  0
  -24.9019  -32.2887   26.4997 H   0  0  0  0  0  0
  -25.8115  -30.8826   27.0195 H   0  0  0  0  0  0
  -26.2782  -29.6809   24.1165 H   0  0  0  0  0  0
  -27.4088  -29.7280   25.4509 H   0  0  0  0  0  0
  -27.8610  -30.4350   23.9164 H   0  0  0  0  0  0
  -27.2698  -33.3610   26.2064 H   0  0  0  0  0  0
  -28.3839  -32.6893   25.0239 H   0  0  0  0  0  0
  -28.0773  -31.8423   26.5327 H   0  0  0  0  0  0
  -28.2593  -38.0086   24.7503 H   0  0  0  0  0  0
  -28.1054  -36.2618   24.6264 H   0  0  0  0  0  0
  -27.2295  -37.1420   25.8862 H   0  0  0  0  0  0
  -20.9303  -29.8699   21.6908 H   0  0  0  0  0  0
  -26.0153  -38.2856   24.1466 H   0  0  0  0  0  0
  -27.8133  -16.5675   20.4568 H   0  0  0  0  0  0
  -31.9587  -17.2666   21.3475 H   0  0  0  0  0  0
  -31.4529  -22.2227   16.6172 H   0  0  0  0  0  0
  -30.8751  -23.9554   16.5530 H   0  0  0  0  0  0
  -28.7659  -21.4949   20.2728 H   0  0  0  0  0  0
  -30.8576  -20.7316   18.2108 H   0  0  0  0  0  0
  -32.7532  -19.5025   21.5473 H   0  0  0  0  0  0
  -31.6970  -20.8724   21.2761 H   0  0  0  0  0  0
  -32.5402  -20.1216   19.9081 H   0  0  0  0  0  0
  -27.9754  -19.5235   17.6561 H   0  0  0  0  0  0
  -26.9034  -20.7367   18.3774 H   0  0  0  0  0  0
  -26.2283  -19.2728   17.6517 H   0  0  0  0  0  0
  -28.9699  -23.6395   19.8085 H   0  0  0  0  0  0
  -28.3523  -23.9466   18.2133 H   0  0  0  0  0  0
  -30.5883  -25.4526   17.9649 H   0  0  0  0  0  0
  -30.6033  -25.3778   19.6893 H   0  0  0  0  0  0
  -28.2031  -26.3248   18.0299 H   0  0  0  0  0  0
  -29.4932  -27.3928   18.5175 H   0  0  0  0  0  0
  -29.1609  -14.9888   21.6743 H   0  0  0  0  0  0
  1 25  1  0  0  0
  1 30  2  0  0  0
  1 87  1  0  0  0
  2  3  1  0  0  0
  2 25  1  0  0  0
  2 89  1  0  0  0
  2 90  1  0  0  0
  3  4  1  0  0  0
  3 91  1  0  0  0
  3 92  1  0  0  0
  4  5  1  0  0  0
  4 93  1  0  0  0
  4 94  1  0  0  0
  5  6  1  0  0  0
  5 26  1  0  0  0
  5 95  1  0  0  0
  6 25  1  0  0  0
  6 96  1  0  0  0
  6 97  1  0  0  0
  7  8  2  0  0  0
  7 26  1  0  0  0
  7 29  1  0  0  0
  8  9  1  0  0  0
  8 22  1  0  0  0
  9 10  1  0  0  0
  9 27  2  0  0  0
 10 11  2  0  0  0
 10 15  1  0  0  0
 11 12  1  0  0  0
 11 98  1  0  0  0
 12 13  2  0  0  0
 12 99  1  0  0  0
 13 14  1  0  0  0
 13 31  1  0  0  0
 14 15  2  0  0  0
 14100  1  0  0  0
 15101  1  0  0  0
 16 17  2  0  0  0
 16 21  1  0  0  0
 16 31  1  0  0  0
 17 18  1  0  0  0
 17102  1  0  0  0
 18 19  2  0  0  0
 18103  1  0  0  0
 19 20  1  0  0  0
 19 24  1  0  0  0
 20 21  2  0  0  0
 20104  1  0  0  0
 21 23  1  0  0  0
 22 28  1  0  0  0
 22 32  2  0  0  0
 26 27  1  0  0  0
 28105  1  0  0  0
 28106  1  0  0  0
 29107  1  0  0  0
 29108  1  0  0  0
 33 34  1  0  0  0
 33 66  1  0  0  0
 33 70  2  0  0  0
 34 36  1  0  0  0
 34 59  1  0  0  0
 34109  1  0  0  0
 35 44  2  0  0  0
 35 45  1  0  0  0
 35 68  1  0  0  0
 36 56  1  0  0  0
 36110  1  0  0  0
 37 39  1  0  0  0
 37 47  1  0  0  0
 37 66  1  0  0  0
 37111  1  0  0  0
 38 43  2  0  0  0
 38 46  1  0  0  0
 38 47  1  0  0  0
 39 64  1  0  0  0
 39 67  2  0  0  0
 40 52  1  0  0  0
 40 53  2  0  0  0
 40 58  1  0  0  0
 41112  1  0  0  0
 41113  1  0  0  0
 41114  1  0  0  0
 41 48  1  0  0  0
 42 43  1  0  0  0
 42 66  1  0  0  0
 42115  1  0  0  0
 42116  1  0  0  0
 43 44  1  0  0  0
 44117  1  0  0  0
 45 46  2  0  0  0
 45118  1  0  0  0
 46119  1  0  0  0
 47120  1  0  0  0
 47121  1  0  0  0
 48 56  1  0  0  0
 48 65  1  0  0  0
 48122  1  0  0  0
 49 50  1  0  0  0
 49 53  1  0  0  0
 49 64  1  0  0  0
 49123  1  0  0  0
 50 51  1  0  0  0
 50124  1  0  0  0
 50125  1  0  0  0
 51 52  1  0  0  0
 51126  1  0  0  0
 51127  1  0  0  0
 52128  1  0  0  0
 52129  1  0  0  0
 53 54  1  0  0  0
 54 55  2  0  0  0
 54130  1  0  0  0
 55 57  1  0  0  0
 55131  1  0  0  0
 56 69  2  0  0  0
 57 58  2  0  0  0
 57132  1  0  0  0
 58133  1  0  0  0
 59 60  1  0  0  0
 59 61  1  0  0  0
 59 62  1  0  0  0
 60134  1  0  0  0
 60135  1  0  0  0
 60136  1  0  0  0
 61137  1  0  0  0
 61138  1  0  0  0
 61139  1  0  0  0
 62140  1  0  0  0
 62141  1  0  0  0
 62142  1  0  0  0
 63 65  1  0  0  0
 63143  1  0  0  0
 63144  1  0  0  0
 63145  1  0  0  0
 64146  1  0  0  0
 65147  1  0  0  0
 68 86  1  0  0  0
 71 73  2  0  0  0
 71 76  1  0  0  0
 71148  1  0  0  0
 72 75  1  0  0  0
 72 76  2  0  0  0
 72149  1  0  0  0
 73 74  1  0  0  0
 73 80  1  0  0  0
 74 75  2  0  0  0
 74 78  1  0  0  0
 75 82  1  0  0  0
 76 87  1  0  0  0
 77 81  2  0  0  0
 77150  1  0  0  0
 77151  1  0  0  0
 78 79  2  0  0  0
 78152  1  0  0  0
 79 81  1  0  0  0
 79153  1  0  0  0
 80 83  1  0  0  0
 80 88  2  0  0  0
 81 84  1  0  0  0
 82154  1  0  0  0
 82155  1  0  0  0
 82156  1  0  0  0
 83157  1  0  0  0
 83158  1  0  0  0
 83159  1  0  0  0
 84 85  1  0  0  0
 84160  1  0  0  0
 84161  1  0  0  0
 85 86  1  0  0  0
 85162  1  0  0  0
 85163  1  0  0  0
 86164  1  0  0  0
 86165  1  0  0  0
 87166  1  0  0  0
M  ISO  4   1 100  68 101  86 101  87 100
M  END
> <chiral flag>
0

> <version>
0

> <s_m_source_file>
/data/baiqing/PycharmProjects/Reinvent-master-3.2/result/LINK_invent/BTK/process_docking_weight1_custom_product_contain_oxygen_bond_distance_aromatic_linkinvent_7_9_3/rearranged_h_0121.sdf

> <i_m_source_file_index>
20

> <r_mmod_Potential_Energy-OPLS-2005>
7.7985315322876

> <r_mmod_Stretch_Energy-OPLS-2005>
37.1948051452637

> <r_mmod_Bend_Energy-OPLS-2005>
101.987915039062

> <r_mmod_Torsional_Energy-OPLS-2005>
316.745208740234

> <r_mmod_Improper_Torsional_Energy-OPLS-2005>
6.57317399978638

> <r_mmod_Van_der_Waal_Energy-OPLS-2005>
157.839080810547

> <r_mmod_Electrostatic_Energy-OPLS-2005>
-417.668273925781

> <r_mmod_Solvation_Energy-OPLS-2005>
-204.318099975586

> <b_mmod_Minimization_Converged-OPLS-2005>
0

> <r_mmod_RMS_Derivative-OPLS-2005>
2.87136816978455

$$$$
20
                    3D
 Structure written by MMmdl.
158166  0  0  1  0            999 V2000
  -30.5902  -14.7588   20.4124 C   0  0  0  0  0  0
  -30.4388  -12.4409   19.4942 C   0  0  0  0  0  0
  -29.5261  -12.4471   18.2467 C   0  0  0  0  0  0
  -28.0397  -12.3284   18.6434 C   0  0  0  0  0  0
  -27.6421  -13.2300   19.8429 C   0  0  2  0  0  0
  -28.6839  -13.1709   20.9817 C   0  0  0  0  0  0
  -25.2491  -13.8198   20.5642 C   0  0  0  0  0  0
  -24.1781  -13.0438   20.9163 C   0  0  0  0  0  0
  -24.6369  -11.6917   20.8679 C   0  0  0  0  0  0
  -23.9055  -10.4282   21.0354 C   0  0  0  0  0  0
  -24.3612   -9.4203   21.9138 C   0  0  0  0  0  0
  -23.6281   -8.2241   22.0736 C   0  0  0  0  0  0
  -22.4253   -8.0266   21.3542 C   0  0  0  0  0  0
  -21.9880   -9.0245   20.4642 C   0  0  0  0  0  0
  -22.7210  -10.2120   20.3031 C   0  0  0  0  0  0
  -21.6862   -6.0712   22.5260 C   0  0  0  0  0  0
  -21.4033   -6.5614   23.8191 C   0  0  0  0  0  0
  -21.3660   -5.6762   24.9153 C   0  0  0  0  0  0
  -21.6044   -4.3024   24.7207 C   0  0  0  0  0  0
  -21.8819   -3.8120   23.4327 C   0  0  0  0  0  0
  -21.9201   -4.6943   22.3384 C   0  0  0  0  0  0
  -22.7805  -13.5207   21.1850 C   0  0  0  0  0  0
  -22.1659   -4.2129   21.0969 F   0  0  0  0  0  0
  -21.5649   -3.4513   25.7725 F   0  0  0  0  0  0
  -29.9850  -13.5197   20.4028 N   0  0  0  0  0  0
  -26.2928  -12.9402   20.3219 N   0  0  0  0  0  0
  -25.9305  -11.6549   20.5697 N   0  0  0  0  0  0
  -22.0452  -12.8195   22.0410 N   0  0  0  0  0  0
  -25.4186  -15.1921   20.4085 N   0  0  0  0  0  0
  -31.7867  -14.8503   20.1203 O   0  0  0  0  0  0
  -21.6641   -6.8853   21.4217 O   0  0  0  0  0  0
  -22.3477  -14.5521   20.6713 O   0  0  0  0  0  0
  -24.6380  -31.8518   23.1952 C   0  0  0  0  0  0
  -25.9196  -32.4723   23.8303 C   0  0  1  0  0  0
  -27.2112  -27.2288   20.1121 C   0  0  0  0  0  0
  -25.5973  -33.8528   24.2236 N   0  0  0  0  0  0
  -23.4328  -30.4768   21.5402 C   0  0  2  0  0  0
  -24.8749  -28.9186   20.1041 C   0  0  0  0  0  0
  -22.7535  -29.4575   22.4874 C   0  0  0  0  0  0
  -18.0299  -28.1395   22.8468 C   0  0  0  0  0  0
  -24.1497  -36.7261   23.2631 C   0  0  0  0  0  0
  -25.9829  -30.7493   21.3827 C   0  0  0  0  0  0
  -26.0492  -29.3720   20.7172 C   0  0  0  0  0  0
  -27.2165  -28.5391   20.7101 C   0  0  0  0  0  0
  -26.0066  -26.8448   19.4813 C   0  0  0  0  0  0
  -24.8598  -27.6632   19.4763 C   0  0  0  0  0  0
  -23.6532  -29.8171   20.1537 C   0  0  0  0  0  0
  -25.4118  -36.3042   24.0321 C   0  0  1  0  0  0
  -20.5910  -28.3711   23.1258 C   0  0  2  0  0  0
  -20.6785  -26.9421   22.5416 C   0  0  0  0  0  0
  -19.5771  -26.6391   21.5205 C   0  0  0  0  0  0
  -18.1942  -26.7941   22.1602 C   0  0  0  0  0  0
  -19.1550  -28.8861   23.2863 C   0  0  0  0  0  0
  -18.9471  -30.1459   23.8887 C   0  0  0  0  0  0
  -17.6469  -30.6588   24.0559 C   0  0  0  0  0  0
  -25.9068  -34.9421   23.5076 C   0  0  0  0  0  0
  -16.5368  -29.9080   23.6336 C   0  0  0  0  0  0
  -16.7280  -28.6507   23.0341 C   0  0  0  0  0  0
  -26.4533  -31.6554   25.0711 C   0  0  0  0  0  0
  -25.3737  -31.3740   26.1418 C   0  0  0  0  0  0
  -27.0367  -30.2948   24.6242 C   0  0  0  0  0  0
  -27.6092  -32.4278   25.7493 C   0  0  0  0  0  0
  -27.5598  -37.1770   24.8441 C   0  0  0  0  0  0
  -21.4224  -29.3045   22.3622 N   0  0  0  0  0  0
  -26.4273  -37.3765   23.9435 N   0  0  0  0  0  0
  -24.7045  -31.0443   22.0955 N   0  0  0  0  0  0
  -23.4210  -28.8105   23.2980 O   0  0  0  0  0  0
  -28.3006  -26.3200   20.1875 O   0  0  0  0  0  0
  -26.5644  -34.8906   22.4647 O   0  0  0  0  0  0
  -23.5528  -32.1360   23.7232 O   0  0  0  0  0  0
  -29.9408  -19.7811   18.5347 C   0  0  0  0  0  0
  -30.1619  -18.5709   17.8568 C   0  0  0  0  0  0
  -29.5776  -18.5186   20.5663 C   0  0  0  0  0  0
  -29.5821  -19.8254   19.8969 C   0  0  0  0  0  0
  -30.0796  -17.3222   18.5020 C   0  0  0  0  0  0
  -29.8603  -17.2382   19.9080 C   0  0  0  0  0  0
  -28.7090  -23.8077   20.3907 C   0  0  0  0  0  0
  -28.2269  -24.9524   19.7535 C   0  0  0  0  0  0
  -29.3714  -21.2594   20.4934 C   0  0  0  0  0  0
  -28.6959  -22.3483   19.9115 C   0  0  0  0  0  0
  -30.1471  -16.0985   17.6038 C   0  0  0  0  0  0
  -30.1544  -21.4199   21.7874 C   0  0  0  0  0  0
  -27.8387  -22.0607   18.6851 C   0  0  0  0  0  0
  -29.7957  -15.8952   20.5698 N   0  0  0  0  0  0
  -31.4824  -12.5555   19.1998 H   0  0  0  0  0  0
  -30.3848  -11.4775   20.0025 H   0  0  0  0  0  0
  -29.7951  -11.6183   17.5913 H   0  0  0  0  0  0
  -29.6935  -13.3438   17.6547 H   0  0  0  0  0  0
  -27.8600  -11.2817   18.8949 H   0  0  0  0  0  0
  -27.4051  -12.5470   17.7833 H   0  0  0  0  0  0
  -27.6359  -14.2490   19.4566 H   0  0  0  0  0  0
  -28.7144  -12.1771   21.4340 H   0  0  0  0  0  0
  -28.4171  -13.8604   21.7815 H   0  0  0  0  0  0
  -25.2762   -9.5711   22.4699 H   0  0  0  0  0  0
  -24.0011   -7.4634   22.7450 H   0  0  0  0  0  0
  -21.0822   -8.8753   19.8942 H   0  0  0  0  0  0
  -22.3639  -10.9663   19.6151 H   0  0  0  0  0  0
  -21.2026   -7.6117   23.9685 H   0  0  0  0  0  0
  -21.1493   -6.0492   25.9052 H   0  0  0  0  0  0
  -22.0605   -2.7589   23.2816 H   0  0  0  0  0  0
  -22.4044  -11.9867   22.4847 H   0  0  0  0  0  0
  -21.1069  -13.1235   22.2601 H   0  0  0  0  0  0
  -24.6478  -15.8443   20.5085 H   0  0  0  0  0  0
  -26.2729  -15.6347   20.0944 H   0  0  0  0  0  0
  -26.7240  -32.5345   23.1019 H   0  0  0  0  0  0
  -25.0141  -33.9652   25.0391 H   0  0  0  0  0  0
  -22.7310  -31.3012   21.3979 H   0  0  0  0  0  0
  -23.3783  -35.9563   23.3223 H   0  0  0  0  0  0
  -24.3606  -36.8969   22.2063 H   0  0  0  0  0  0
  -23.7214  -37.6421   23.6704 H   0  0  0  0  0  0
  -26.1367  -31.5103   20.6158 H   0  0  0  0  0  0
  -26.8569  -30.7860   22.0226 H   0  0  0  0  0  0
  -28.1154  -28.8795   21.2043 H   0  0  0  0  0  0
  -25.9072  -25.8782   19.0121 H   0  0  0  0  0  0
  -23.9591  -27.3056   18.9976 H   0  0  0  0  0  0
  -23.7934  -30.6014   19.4096 H   0  0  0  0  0  0
  -22.7661  -29.2688   19.8342 H   0  0  0  0  0  0
  -25.1288  -36.1864   25.0807 H   0  0  0  0  0  0
  -20.9992  -28.3304   24.1386 H   0  0  0  0  0  0
  -20.5664  -26.2320   23.3623 H   0  0  0  0  0  0
  -21.6659  -26.7426   22.1229 H   0  0  0  0  0  0
  -19.6934  -25.6292   21.1255 H   0  0  0  0  0  0
  -19.6732  -27.3188   20.6721 H   0  0  0  0  0  0
  -17.4216  -26.6688   21.3998 H   0  0  0  0  0  0
  -18.0341  -26.0094   22.9012 H   0  0  0  0  0  0
  -19.7942  -30.7278   24.2271 H   0  0  0  0  0  0
  -17.5021  -31.6271   24.5168 H   0  0  0  0  0  0
  -15.5361  -30.2975   23.7662 H   0  0  0  0  0  0
  -15.8683  -28.0823   22.7051 H   0  0  0  0  0  0
  -24.5945  -30.7035   25.7777 H   0  0  0  0  0  0
  -24.8876  -32.2912   26.4746 H   0  0  0  0  0  0
  -25.8042  -30.9013   27.0249 H   0  0  0  0  0  0
  -26.2953  -29.6696   24.1254 H   0  0  0  0  0  0
  -27.3999  -29.7219   25.4784 H   0  0  0  0  0  0
  -27.8860  -30.4186   23.9522 H   0  0  0  0  0  0
  -27.2720  -33.3602   26.2030 H   0  0  0  0  0  0
  -28.3929  -32.6785   25.0332 H   0  0  0  0  0  0
  -28.0716  -31.8412   26.5442 H   0  0  0  0  0  0
  -28.2516  -38.0166   24.7587 H   0  0  0  0  0  0
  -28.1183  -36.2689   24.6094 H   0  0  0  0  0  0
  -27.2345  -37.1231   25.8849 H   0  0  0  0  0  0
  -20.9402  -29.8791   21.6847 H   0  0  0  0  0  0
  -26.0135  -38.2816   24.1498 H   0  0  0  0  0  0
  -30.0431  -20.7001   17.9762 H   0  0  0  0  0  0
  -30.3701  -18.6173   16.7961 H   0  0  0  0  0  0
  -29.3561  -18.4943   21.6227 H   0  0  0  0  0  0
  -29.1473  -24.0094   21.3543 H   0  0  0  0  0  0
  -27.7669  -24.8836   18.7766 H   0  0  0  0  0  0
  -30.0906  -16.3725   16.5498 H   0  0  0  0  0  0
  -29.2888  -15.4593   17.8030 H   0  0  0  0  0  0
  -31.0714  -15.5388   17.7392 H   0  0  0  0  0  0
  -31.2225  -21.3418   21.5816 H   0  0  0  0  0  0
  -29.8889  -20.6308   22.4907 H   0  0  0  0  0  0
  -29.9759  -22.3609   22.2986 H   0  0  0  0  0  0
  -26.9476  -22.6874   18.6721 H   0  0  0  0  0  0
  -27.4799  -21.0295   18.6849 H   0  0  0  0  0  0
  -28.3967  -22.2302   17.7650 H   0  0  0  0  0  0
  -28.9241  -15.7111   21.0418 H   0  0  0  0  0  0
  1 25  1  0  0  0
  1 30  2  0  0  0
  1 84  1  0  0  0
  2  3  1  0  0  0
  2 25  1  0  0  0
  2 85  1  0  0  0
  2 86  1  0  0  0
  3  4  1  0  0  0
  3 87  1  0  0  0
  3 88  1  0  0  0
  4  5  1  0  0  0
  4 89  1  0  0  0
  4 90  1  0  0  0
  5  6  1  0  0  0
  5 26  1  0  0  0
  5 91  1  0  0  0
  6 25  1  0  0  0
  6 92  1  0  0  0
  6 93  1  0  0  0
  7  8  2  0  0  0
  7 26  1  0  0  0
  7 29  1  0  0  0
  8  9  1  0  0  0
  8 22  1  0  0  0
  9 10  1  0  0  0
  9 27  2  0  0  0
 10 11  2  0  0  0
 10 15  1  0  0  0
 11 12  1  0  0  0
 11 94  1  0  0  0
 12 13  2  0  0  0
 12 95  1  0  0  0
 13 14  1  0  0  0
 13 31  1  0  0  0
 14 15  2  0  0  0
 14 96  1  0  0  0
 15 97  1  0  0  0
 16 17  2  0  0  0
 16 21  1  0  0  0
 16 31  1  0  0  0
 17 18  1  0  0  0
 17 98  1  0  0  0
 18 19  2  0  0  0
 18 99  1  0  0  0
 19 20  1  0  0  0
 19 24  1  0  0  0
 20 21  2  0  0  0
 20100  1  0  0  0
 21 23  1  0  0  0
 22 28  1  0  0  0
 22 32  2  0  0  0
 26 27  1  0  0  0
 28101  1  0  0  0
 28102  1  0  0  0
 29103  1  0  0  0
 29104  1  0  0  0
 33 34  1  0  0  0
 33 66  1  0  0  0
 33 70  2  0  0  0
 34 36  1  0  0  0
 34 59  1  0  0  0
 34105  1  0  0  0
 35 44  2  0  0  0
 35 45  1  0  0  0
 35 68  1  0  0  0
 36 56  1  0  0  0
 36106  1  0  0  0
 37 39  1  0  0  0
 37 47  1  0  0  0
 37 66  1  0  0  0
 37107  1  0  0  0
 38 43  2  0  0  0
 38 46  1  0  0  0
 38 47  1  0  0  0
 39 64  1  0  0  0
 39 67  2  0  0  0
 40 52  1  0  0  0
 40 53  2  0  0  0
 40 58  1  0  0  0
 41108  1  0  0  0
 41109  1  0  0  0
 41110  1  0  0  0
 41 48  1  0  0  0
 42 43  1  0  0  0
 42 66  1  0  0  0
 42111  1  0  0  0
 42112  1  0  0  0
 43 44  1  0  0  0
 44113  1  0  0  0
 45 46  2  0  0  0
 45114  1  0  0  0
 46115  1  0  0  0
 47116  1  0  0  0
 47117  1  0  0  0
 48 56  1  0  0  0
 48 65  1  0  0  0
 48118  1  0  0  0
 49 50  1  0  0  0
 49 53  1  0  0  0
 49 64  1  0  0  0
 49119  1  0  0  0
 50 51  1  0  0  0
 50120  1  0  0  0
 50121  1  0  0  0
 51 52  1  0  0  0
 51122  1  0  0  0
 51123  1  0  0  0
 52124  1  0  0  0
 52125  1  0  0  0
 53 54  1  0  0  0
 54 55  2  0  0  0
 54126  1  0  0  0
 55 57  1  0  0  0
 55127  1  0  0  0
 56 69  2  0  0  0
 57 58  2  0  0  0
 57128  1  0  0  0
 58129  1  0  0  0
 59 60  1  0  0  0
 59 61  1  0  0  0
 59 62  1  0  0  0
 60130  1  0  0  0
 60131  1  0  0  0
 60132  1  0  0  0
 61133  1  0  0  0
 61134  1  0  0  0
 61135  1  0  0  0
 62136  1  0  0  0
 62137  1  0  0  0
 62138  1  0  0  0
 63 65  1  0  0  0
 63139  1  0  0  0
 63140  1  0  0  0
 63141  1  0  0  0
 64142  1  0  0  0
 65143  1  0  0  0
 68 78  1  0  0  0
 71 72  2  0  0  0
 71 74  1  0  0  0
 71144  1  0  0  0
 72 75  1  0  0  0
 72145  1  0  0  0
 73 74  2  0  0  0
 73 76  1  0  0  0
 73146  1  0  0  0
 74 79  1  0  0  0
 75 76  2  0  0  0
 75 81  1  0  0  0
 76 84  1  0  0  0
 77 78  2  0  0  0
 77 80  1  0  0  0
 77147  1  0  0  0
 78148  1  0  0  0
 79 80  2  0  0  0
 79 82  1  0  0  0
 80 83  1  0  0  0
 81149  1  0  0  0
 81150  1  0  0  0
 81151  1  0  0  0
 82152  1  0  0  0
 82153  1  0  0  0
 82154  1  0  0  0
 83155  1  0  0  0
 83156  1  0  0  0
 83157  1  0  0  0
 84158  1  0  0  0
M  ISO  4   1 100  68 101  78 101  84 100
M  END
> <chiral flag>
0

> <version>
0

> <s_m_source_file>
/data/baiqing/PycharmProjects/Reinvent-master-3.2/result/LINK_invent/BTK/process_docking_weight1_custom_product_contain_oxygen_bond_distance_aromatic_linkinvent_7_9_3/rearranged_h_0121.sdf

> <i_m_source_file_index>
21

> <r_mmod_Potential_Energy-OPLS-2005>
243.381439208984

> <r_mmod_Stretch_Energy-OPLS-2005>
144.281646728516

> <r_mmod_Bend_Energy-OPLS-2005>
166.128814697266

> <r_mmod_Torsional_Energy-OPLS-2005>
254.086944580078

> <r_mmod_Improper_Torsional_Energy-OPLS-2005>
7.46017265319824

> <r_mmod_Van_der_Waal_Energy-OPLS-2005>
152.749252319336

> <r_mmod_Electrostatic_Energy-OPLS-2005>
-385.851531982422

> <r_mmod_Solvation_Energy-OPLS-2005>
-196.101623535156

> <b_mmod_Minimization_Converged-OPLS-2005>
0

> <r_mmod_RMS_Derivative-OPLS-2005>
3.31003046035767

$$$$
21
                    3D
 Structure written by MMmdl.
153161  0  0  1  0            999 V2000
  -30.6591  -14.5560   20.5181 C   0  0  0  0  0  0
  -30.4325  -12.3450   19.4300 C   0  0  0  0  0  0
  -29.4985  -12.4962   18.2118 C   0  0  0  0  0  0
  -28.0238  -12.3424   18.6331 C   0  0  0  0  0  0
  -27.6573  -13.2093   19.8662 C   0  0  2  0  0  0
  -28.7031  -13.0341   20.9900 C   0  0  0  0  0  0
  -25.2591  -13.8173   20.5684 C   0  0  0  0  0  0
  -24.1849  -13.0435   20.9193 C   0  0  0  0  0  0
  -24.6418  -11.6910   20.8774 C   0  0  0  0  0  0
  -23.9101  -10.4291   21.0436 C   0  0  0  0  0  0
  -24.3637   -9.4198   21.9208 C   0  0  0  0  0  0
  -23.6301   -8.2240   22.0769 C   0  0  0  0  0  0
  -22.4279   -8.0287   21.3554 C   0  0  0  0  0  0
  -21.9932   -9.0277   20.4664 C   0  0  0  0  0  0
  -22.7284  -10.2150   20.3081 C   0  0  0  0  0  0
  -21.6849   -6.0749   22.5291 C   0  0  0  0  0  0
  -21.4002   -6.5648   23.8223 C   0  0  0  0  0  0
  -21.3660   -5.6797   24.9190 C   0  0  0  0  0  0
  -21.6040   -4.3063   24.7233 C   0  0  0  0  0  0
  -21.8816   -3.8156   23.4350 C   0  0  0  0  0  0
  -21.9188   -4.6974   22.3413 C   0  0  0  0  0  0
  -22.7879  -13.5239   21.1859 C   0  0  0  0  0  0
  -22.1656   -4.2160   21.0992 F   0  0  0  0  0  0
  -21.5637   -3.4544   25.7749 F   0  0  0  0  0  0
  -30.0233  -13.3529   20.4229 N   0  0  0  0  0  0
  -26.3014  -12.9338   20.3361 N   0  0  0  0  0  0
  -25.9336  -11.6499   20.5799 N   0  0  0  0  0  0
  -22.0517  -12.8228   22.0413 N   0  0  0  0  0  0
  -25.4319  -15.1890   20.4084 N   0  0  0  0  0  0
  -31.8177  -14.7246   20.1308 O   0  0  0  0  0  0
  -21.6629   -6.8890   21.4249 O   0  0  0  0  0  0
  -22.3561  -14.5553   20.6735 O   0  0  0  0  0  0
  -24.6217  -31.8622   23.2081 C   0  0  0  0  0  0
  -25.9088  -32.4789   23.8389 C   0  0  1  0  0  0
  -27.2317  -27.3756   20.1147 C   0  0  0  0  0  0
  -25.5906  -33.8583   24.2308 N   0  0  0  0  0  0
  -23.4147  -30.4857   21.5493 C   0  0  2  0  0  0
  -24.8622  -28.9488   20.1145 C   0  0  0  0  0  0
  -22.7457  -29.4625   22.4967 C   0  0  0  0  0  0
  -18.0277  -28.1364   22.8487 C   0  0  0  0  0  0
  -24.1497  -36.7300   23.2637 C   0  0  0  0  0  0
  -25.9502  -30.8115   21.3748 C   0  0  0  0  0  0
  -26.0272  -29.4436   20.7175 C   0  0  0  0  0  0
  -27.2151  -28.6652   20.7105 C   0  0  0  0  0  0
  -26.0512  -26.9189   19.4885 C   0  0  0  0  0  0
  -24.8744  -27.6887   19.4956 C   0  0  0  0  0  0
  -23.6264  -29.8199   20.1635 C   0  0  0  0  0  0
  -25.4110  -36.3069   24.0322 C   0  0  1  0  0  0
  -20.5876  -28.3672   23.1270 C   0  0  2  0  0  0
  -20.6758  -26.9396   22.5396 C   0  0  0  0  0  0
  -19.5740  -26.6371   21.5189 C   0  0  0  0  0  0
  -18.1918  -26.7914   22.1599 C   0  0  0  0  0  0
  -19.1530  -28.8833   23.2874 C   0  0  0  0  0  0
  -18.9464  -30.1421   23.8906 C   0  0  0  0  0  0
  -17.6465  -30.6570   24.0539 C   0  0  0  0  0  0
  -25.9036  -34.9453   23.5117 C   0  0  0  0  0  0
  -16.5352  -29.9075   23.6331 C   0  0  0  0  0  0
  -16.7262  -28.6478   23.0377 C   0  0  0  0  0  0
  -26.4498  -31.6581   25.0749 C   0  0  0  0  0  0
  -25.3766  -31.3650   26.1509 C   0  0  0  0  0  0
  -27.0370  -30.3030   24.6157 C   0  0  0  0  0  0
  -27.6075  -32.4326   25.7482 C   0  0  0  0  0  0
  -27.5593  -37.1768   24.8450 C   0  0  0  0  0  0
  -21.4170  -29.3037   22.3694 N   0  0  0  0  0  0
  -26.4285  -37.3762   23.9418 N   0  0  0  0  0  0
  -24.6806  -31.0688   22.1015 N   0  0  0  0  0  0
  -23.4187  -28.8165   23.3040 O   0  0  0  0  0  0
  -28.3739  -26.5838   20.1187 O   0  0  0  0  0  0
  -26.5622  -34.8914   22.4701 O   0  0  0  0  0  0
  -23.5387  -32.1376   23.7433 O   0  0  0  0  0  0
  -29.7902  -19.4417   20.1170 C   0  0  0  0  0  0
  -29.0830  -19.7917   17.8203 C   0  0  0  0  0  0
  -29.3436  -17.5205   18.6683 C   0  0  0  0  0  0
  -29.4722  -20.3485   19.0585 C   0  0  0  0  0  0
  -29.7645  -18.0197   19.9211 C   0  0  0  0  0  0
  -29.0030  -18.4004   17.6268 C   0  0  0  0  0  0
  -29.4943  -21.8491   19.1057 C   0  0  0  0  0  0
  -29.1439  -22.7337   20.0774 C   0  0  0  0  0  0
  -29.2418  -24.2186   19.8464 C   0  0  0  0  0  0
  -30.2332  -17.0390   21.0247 C   0  0  0  0  0  0
  -28.1961  -25.1780   20.4867 C   0  0  0  0  0  0
  -29.8770  -15.6006   20.8888 N   0  0  0  0  0  0
  -30.1335  -24.7041   19.1411 O   0  0  0  0  0  0
  -28.6065  -17.9078   16.4281 F   0  0  0  0  0  0
  -31.4742  -12.4592   19.1262 H   0  0  0  0  0  0
  -30.3532  -11.3432   19.8550 H   0  0  0  0  0  0
  -29.7469  -11.7551   17.4528 H   0  0  0  0  0  0
  -29.6475  -13.4707   17.7460 H   0  0  0  0  0  0
  -27.8606  -11.2908   18.8681 H   0  0  0  0  0  0
  -27.3610  -12.5720   17.7990 H   0  0  0  0  0  0
  -27.6874  -14.2482   19.5371 H   0  0  0  0  0  0
  -28.6982  -12.0091   21.3633 H   0  0  0  0  0  0
  -28.4662  -13.6612   21.8507 H   0  0  0  0  0  0
  -25.2784   -9.5651   22.4786 H   0  0  0  0  0  0
  -24.0005   -7.4620   22.7485 H   0  0  0  0  0  0
  -21.0860   -8.8820   19.8966 H   0  0  0  0  0  0
  -22.3763  -10.9698   19.6189 H   0  0  0  0  0  0
  -21.1982   -7.6156   23.9734 H   0  0  0  0  0  0
  -21.1484   -6.0530   25.9096 H   0  0  0  0  0  0
  -22.0592   -2.7617   23.2859 H   0  0  0  0  0  0
  -22.4100  -11.9840   22.4741 H   0  0  0  0  0  0
  -21.1164  -13.1294   22.2696 H   0  0  0  0  0  0
  -24.6642  -15.8450   20.5105 H   0  0  0  0  0  0
  -26.2850  -15.6278   20.0858 H   0  0  0  0  0  0
  -26.7167  -32.5471   23.1147 H   0  0  0  0  0  0
  -25.0047  -33.9722   25.0456 H   0  0  0  0  0  0
  -22.7071  -31.3053   21.4078 H   0  0  0  0  0  0
  -23.3746  -35.9641   23.3278 H   0  0  0  0  0  0
  -24.3591  -36.8958   22.2056 H   0  0  0  0  0  0
  -23.7279  -37.6500   23.6707 H   0  0  0  0  0  0
  -26.0715  -31.5767   20.6079 H   0  0  0  0  0  0
  -26.8334  -30.8587   22.0009 H   0  0  0  0  0  0
  -28.1140  -29.0378   21.1836 H   0  0  0  0  0  0
  -26.0296  -25.9671   18.9775 H   0  0  0  0  0  0
  -23.9822  -27.3028   19.0220 H   0  0  0  0  0  0
  -23.7389  -30.5941   19.4046 H   0  0  0  0  0  0
  -22.7491  -29.2391   19.8692 H   0  0  0  0  0  0
  -25.1282  -36.1908   25.0807 H   0  0  0  0  0  0
  -20.9937  -28.3255   24.1392 H   0  0  0  0  0  0
  -20.5630  -26.2292   23.3606 H   0  0  0  0  0  0
  -21.6641  -26.7420   22.1212 H   0  0  0  0  0  0
  -19.6916  -25.6282   21.1229 H   0  0  0  0  0  0
  -19.6683  -27.3171   20.6729 H   0  0  0  0  0  0
  -17.4194  -26.6652   21.3996 H   0  0  0  0  0  0
  -18.0302  -26.0039   22.8972 H   0  0  0  0  0  0
  -19.7959  -30.7189   24.2316 H   0  0  0  0  0  0
  -17.5056  -31.6265   24.5115 H   0  0  0  0  0  0
  -15.5350  -30.2984   23.7676 H   0  0  0  0  0  0
  -15.8652  -28.0785   22.7135 H   0  0  0  0  0  0
  -24.5996  -30.6945   25.7841 H   0  0  0  0  0  0
  -24.8901  -32.2771   26.4972 H   0  0  0  0  0  0
  -25.8154  -30.8831   27.0265 H   0  0  0  0  0  0
  -26.2926  -29.6710   24.1327 H   0  0  0  0  0  0
  -27.4254  -29.7350   25.4613 H   0  0  0  0  0  0
  -27.8702  -30.4335   23.9255 H   0  0  0  0  0  0
  -27.2744  -33.3661   26.2024 H   0  0  0  0  0  0
  -28.3895  -32.6829   25.0308 H   0  0  0  0  0  0
  -28.0764  -31.8498   26.5412 H   0  0  0  0  0  0
  -28.2533  -38.0144   24.7570 H   0  0  0  0  0  0
  -28.1169  -36.2662   24.6179 H   0  0  0  0  0  0
  -27.2312  -37.1290   25.8852 H   0  0  0  0  0  0
  -20.9374  -29.8798   21.6908 H   0  0  0  0  0  0
  -26.0158  -38.2820   24.1480 H   0  0  0  0  0  0
  -30.1042  -19.8372   21.0741 H   0  0  0  0  0  0
  -28.8347  -20.4440   16.9939 H   0  0  0  0  0  0
  -29.2938  -16.4578   18.4811 H   0  0  0  0  0  0
  -29.8571  -22.2895   18.1854 H   0  0  0  0  0  0
  -28.7728  -22.3899   21.0309 H   0  0  0  0  0  0
  -29.8138  -17.3840   21.9702 H   0  0  0  0  0  0
  -31.3144  -17.1400   21.1273 H   0  0  0  0  0  0
  -28.2621  -25.0917   21.5725 H   0  0  0  0  0  0
  -27.2142  -24.7994   20.2128 H   0  0  0  0  0  0
  -28.9345  -15.3554   21.1487 H   0  0  0  0  0  0
  1 25  1  0  0  0
  1 30  2  0  0  0
  1 82  1  0  0  0
  2  3  1  0  0  0
  2 25  1  0  0  0
  2 85  1  0  0  0
  2 86  1  0  0  0
  3  4  1  0  0  0
  3 87  1  0  0  0
  3 88  1  0  0  0
  4  5  1  0  0  0
  4 89  1  0  0  0
  4 90  1  0  0  0
  5  6  1  0  0  0
  5 26  1  0  0  0
  5 91  1  0  0  0
  6 25  1  0  0  0
  6 92  1  0  0  0
  6 93  1  0  0  0
  7  8  2  0  0  0
  7 26  1  0  0  0
  7 29  1  0  0  0
  8  9  1  0  0  0
  8 22  1  0  0  0
  9 10  1  0  0  0
  9 27  2  0  0  0
 10 11  2  0  0  0
 10 15  1  0  0  0
 11 12  1  0  0  0
 11 94  1  0  0  0
 12 13  2  0  0  0
 12 95  1  0  0  0
 13 14  1  0  0  0
 13 31  1  0  0  0
 14 15  2  0  0  0
 14 96  1  0  0  0
 15 97  1  0  0  0
 16 17  2  0  0  0
 16 21  1  0  0  0
 16 31  1  0  0  0
 17 18  1  0  0  0
 17 98  1  0  0  0
 18 19  2  0  0  0
 18 99  1  0  0  0
 19 20  1  0  0  0
 19 24  1  0  0  0
 20 21  2  0  0  0
 20100  1  0  0  0
 21 23  1  0  0  0
 22 28  1  0  0  0
 22 32  2  0  0  0
 26 27  1  0  0  0
 28101  1  0  0  0
 28102  1  0  0  0
 29103  1  0  0  0
 29104  1  0  0  0
 33 34  1  0  0  0
 33 66  1  0  0  0
 33 70  2  0  0  0
 34 36  1  0  0  0
 34 59  1  0  0  0
 34105  1  0  0  0
 35 44  2  0  0  0
 35 45  1  0  0  0
 35 68  1  0  0  0
 36 56  1  0  0  0
 36106  1  0  0  0
 37 39  1  0  0  0
 37 47  1  0  0  0
 37 66  1  0  0  0
 37107  1  0  0  0
 38 43  2  0  0  0
 38 46  1  0  0  0
 38 47  1  0  0  0
 39 64  1  0  0  0
 39 67  2  0  0  0
 40 52  1  0  0  0
 40 53  2  0  0  0
 40 58  1  0  0  0
 41108  1  0  0  0
 41109  1  0  0  0
 41110  1  0  0  0
 41 48  1  0  0  0
 42 43  1  0  0  0
 42 66  1  0  0  0
 42111  1  0  0  0
 42112  1  0  0  0
 43 44  1  0  0  0
 44113  1  0  0  0
 45 46  2  0  0  0
 45114  1  0  0  0
 46115  1  0  0  0
 47116  1  0  0  0
 47117  1  0  0  0
 48 56  1  0  0  0
 48 65  1  0  0  0
 48118  1  0  0  0
 49 50  1  0  0  0
 49 53  1  0  0  0
 49 64  1  0  0  0
 49119  1  0  0  0
 50 51  1  0  0  0
 50120  1  0  0  0
 50121  1  0  0  0
 51 52  1  0  0  0
 51122  1  0  0  0
 51123  1  0  0  0
 52124  1  0  0  0
 52125  1  0  0  0
 53 54  1  0  0  0
 54 55  2  0  0  0
 54126  1  0  0  0
 55 57  1  0  0  0
 55127  1  0  0  0
 56 69  2  0  0  0
 57 58  2  0  0  0
 57128  1  0  0  0
 58129  1  0  0  0
 59 60  1  0  0  0
 59 61  1  0  0  0
 59 62  1  0  0  0
 60130  1  0  0  0
 60131  1  0  0  0
 60132  1  0  0  0
 61133  1  0  0  0
 61134  1  0  0  0
 61135  1  0  0  0
 62136  1  0  0  0
 62137  1  0  0  0
 62138  1  0  0  0
 63 65  1  0  0  0
 63139  1  0  0  0
 63140  1  0  0  0
 63141  1  0  0  0
 64142  1  0  0  0
 65143  1  0  0  0
 68 81  1  0  0  0
 71 74  2  0  0  0
 71 75  1  0  0  0
 71144  1  0  0  0
 72 74  1  0  0  0
 72 76  2  0  0  0
 72145  1  0  0  0
 73 75  2  0  0  0
 73 76  1  0  0  0
 73146  1  0  0  0
 74 77  1  0  0  0
 75 80  1  0  0  0
 76 84  1  0  0  0
 77 78  2  0  0  0
 77147  1  0  0  0
 78 79  1  0  0  0
 78148  1  0  0  0
 79 81  1  0  0  0
 79 83  2  0  0  0
 80 82  1  0  0  0
 80149  1  0  0  0
 80150  1  0  0  0
 81151  1  0  0  0
 81152  1  0  0  0
 82153  1  0  0  0
M  ISO  4   1 100  68 101  81 101  82 100
M  END
> <chiral flag>
0

> <version>
0

> <s_m_source_file>
/data/baiqing/PycharmProjects/Reinvent-master-3.2/result/LINK_invent/BTK/process_docking_weight1_custom_product_contain_oxygen_bond_distance_aromatic_linkinvent_7_9_3/rearranged_h_0121.sdf

> <i_m_source_file_index>
22

> <r_mmod_Potential_Energy-OPLS-2005>
-63.167610168457

> <r_mmod_Stretch_Energy-OPLS-2005>
53.5244674682617

> <r_mmod_Bend_Energy-OPLS-2005>
110.447204589844

> <r_mmod_Torsional_Energy-OPLS-2005>
223.272567749023

> <r_mmod_Improper_Torsional_Energy-OPLS-2005>
4.18440961837769

> <r_mmod_Van_der_Waal_Energy-OPLS-2005>
144.902038574219

> <r_mmod_Electrostatic_Energy-OPLS-2005>
-392.104125976562

> <r_mmod_Solvation_Energy-OPLS-2005>
-233.746551513672

> <b_mmod_Minimization_Converged-OPLS-2005>
0

> <r_mmod_RMS_Derivative-OPLS-2005>
3.25687885284424

$$$$
22
                    3D
 Structure written by MMmdl.
157165  0  0  1  0            999 V2000
  -30.7577  -14.3910   20.5390 C   0  0  0  0  0  0
  -30.3972  -12.2458   19.4169 C   0  0  0  0  0  0
  -29.4901  -12.5019   18.1975 C   0  0  0  0  0  0
  -28.0064  -12.3872   18.6009 C   0  0  0  0  0  0
  -27.6624  -13.2133   19.8716 C   0  0  2  0  0  0
  -28.7038  -12.9862   20.9937 C   0  0  0  0  0  0
  -25.2568  -13.8206   20.5643 C   0  0  0  0  0  0
  -24.1839  -13.0465   20.9156 C   0  0  0  0  0  0
  -24.6406  -11.6944   20.8696 C   0  0  0  0  0  0
  -23.9073  -10.4318   21.0362 C   0  0  0  0  0  0
  -24.3637   -9.4243   21.9148 C   0  0  0  0  0  0
  -23.6316   -8.2274   22.0732 C   0  0  0  0  0  0
  -22.4287   -8.0303   21.3539 C   0  0  0  0  0  0
  -21.9916   -9.0273   20.4638 C   0  0  0  0  0  0
  -22.7237  -10.2153   20.3028 C   0  0  0  0  0  0
  -21.6870   -6.0745   22.5283 C   0  0  0  0  0  0
  -21.4035   -6.5643   23.8220 C   0  0  0  0  0  0
  -21.3652   -5.6785   24.9169 C   0  0  0  0  0  0
  -21.6038   -4.3047   24.7214 C   0  0  0  0  0  0
  -21.8826   -3.8154   23.4327 C   0  0  0  0  0  0
  -21.9200   -4.6977   22.3391 C   0  0  0  0  0  0
  -22.7857  -13.5250   21.1812 C   0  0  0  0  0  0
  -22.1670   -4.2169   21.0967 F   0  0  0  0  0  0
  -21.5603   -3.4524   25.7718 F   0  0  0  0  0  0
  -30.0432  -13.2406   20.4400 N   0  0  0  0  0  0
  -26.3022  -12.9386   20.3330 N   0  0  0  0  0  0
  -25.9337  -11.6542   20.5748 N   0  0  0  0  0  0
  -22.0488  -12.8273   22.0385 N   0  0  0  0  0  0
  -25.4233  -15.1933   20.4009 N   0  0  0  0  0  0
  -31.9022  -14.4909   20.0938 O   0  0  0  0  0  0
  -21.6641   -6.8904   21.4251 O   0  0  0  0  0  0
  -22.3541  -14.5547   20.6640 O   0  0  0  0  0  0
  -24.6116  -31.8716   23.2164 C   0  0  0  0  0  0
  -25.9033  -32.4840   23.8425 C   0  0  1  0  0  0
  -27.2276  -27.4854   20.0735 C   0  0  0  0  0  0
  -25.5891  -33.8639   24.2350 N   0  0  0  0  0  0
  -23.3949  -30.5024   21.5537 C   0  0  2  0  0  0
  -24.8360  -28.9711   20.1206 C   0  0  0  0  0  0
  -22.7368  -29.4715   22.4976 C   0  0  0  0  0  0
  -18.0273  -28.1386   22.8495 C   0  0  0  0  0  0
  -24.1473  -36.7332   23.2633 C   0  0  0  0  0  0
  -25.9213  -30.8508   21.3631 C   0  0  0  0  0  0
  -25.9949  -29.4872   20.7146 C   0  0  0  0  0  0
  -27.1920  -28.7446   20.7023 C   0  0  0  0  0  0
  -26.0444  -26.9569   19.5111 C   0  0  0  0  0  0
  -24.8497  -27.6986   19.5259 C   0  0  0  0  0  0
  -23.6023  -29.8401   20.1659 C   0  0  0  0  0  0
  -25.4103  -36.3129   24.0326 C   0  0  1  0  0  0
  -20.5864  -28.3679   23.1304 C   0  0  2  0  0  0
  -20.6769  -26.9418   22.5409 C   0  0  0  0  0  0
  -19.5753  -26.6394   21.5207 C   0  0  0  0  0  0
  -18.1926  -26.7935   22.1611 C   0  0  0  0  0  0
  -19.1517  -28.8842   23.2911 C   0  0  0  0  0  0
  -18.9454  -30.1435   23.8926 C   0  0  0  0  0  0
  -17.6465  -30.6594   24.0573 C   0  0  0  0  0  0
  -25.9026  -34.9489   23.5136 C   0  0  0  0  0  0
  -16.5356  -29.9117   23.6304 C   0  0  0  0  0  0
  -16.7256  -28.6523   23.0336 C   0  0  0  0  0  0
  -26.4489  -31.6609   25.0723 C   0  0  0  0  0  0
  -25.3781  -31.3708   26.1481 C   0  0  0  0  0  0
  -27.0291  -30.3044   24.6079 C   0  0  0  0  0  0
  -27.6052  -32.4338   25.7497 C   0  0  0  0  0  0
  -27.5579  -37.1834   24.8461 C   0  0  0  0  0  0
  -21.4098  -29.3064   22.3710 N   0  0  0  0  0  0
  -26.4290  -37.3817   23.9403 N   0  0  0  0  0  0
  -24.6613  -31.0869   22.1048 N   0  0  0  0  0  0
  -23.4148  -28.8248   23.3000 O   0  0  0  0  0  0
  -28.4119  -26.7951   20.0354 O   0  0  0  0  0  0
  -26.5598  -34.8931   22.4692 O   0  0  0  0  0  0
  -23.5319  -32.1449   23.7590 O   0  0  0  0  0  0
  -29.6020  -18.9077   19.6237 C   0  0  0  0  0  0
  -31.9778  -18.5618   19.9892 C   0  0  0  0  0  0
  -29.3294  -17.6259   20.1451 C   0  0  0  0  0  0
  -31.7052  -17.3012   20.5457 C   0  0  0  0  0  0
  -30.9314  -19.3824   19.5112 C   0  0  0  0  0  0
  -30.3833  -16.7972   20.5794 C   0  0  0  0  0  0
  -30.2478  -21.8042   19.0260 C   0  0  0  0  0  0
  -30.5165  -22.9797   19.6175 C   0  0  0  0  0  0
  -31.2417  -20.7255   18.9577 C   0  0  0  0  0  0
  -29.5155  -24.1017   19.7357 C   0  0  0  0  0  0
  -29.9473  -25.3322   18.9277 C   0  0  0  0  0  0
  -28.7866  -26.3097   18.7511 C   0  0  0  0  0  0
  -32.3617  -20.9876   18.4247 N   0  0  0  0  0  0
  -30.0920  -15.4650   20.9964 N   0  0  0  0  0  0
  -31.4480  -12.2832   19.1268 H   0  0  0  0  0  0
  -30.2364  -11.2366   19.7984 H   0  0  0  0  0  0
  -29.7148  -11.7909   17.4009 H   0  0  0  0  0  0
  -29.6879  -13.4934   17.7895 H   0  0  0  0  0  0
  -27.7890  -11.3326   18.7703 H   0  0  0  0  0  0
  -27.3694  -12.6936   17.7704 H   0  0  0  0  0  0
  -27.7136  -14.2642   19.5860 H   0  0  0  0  0  0
  -28.6534  -11.9573   21.3556 H   0  0  0  0  0  0
  -28.4901  -13.6138   21.8590 H   0  0  0  0  0  0
  -25.2791   -9.5728   22.4691 H   0  0  0  0  0  0
  -24.0039   -7.4666   22.7440 H   0  0  0  0  0  0
  -21.0838   -8.8777   19.8951 H   0  0  0  0  0  0
  -22.3686  -10.9668   19.6124 H   0  0  0  0  0  0
  -21.2050   -7.6155   23.9755 H   0  0  0  0  0  0
  -21.1451   -6.0482   25.9074 H   0  0  0  0  0  0
  -22.0609   -2.7617   23.2804 H   0  0  0  0  0  0
  -22.4126  -11.9977   22.4834 H   0  0  0  0  0  0
  -21.1084  -13.1263   22.2529 H   0  0  0  0  0  0
  -24.6457  -15.8362   20.4940 H   0  0  0  0  0  0
  -26.2619  -15.6333   20.0449 H   0  0  0  0  0  0
  -26.7106  -32.5580   23.1203 H   0  0  0  0  0  0
  -25.0043  -33.9823   25.0493 H   0  0  0  0  0  0
  -22.6845  -31.3219   21.4210 H   0  0  0  0  0  0
  -23.3723  -35.9678   23.3310 H   0  0  0  0  0  0
  -24.3575  -36.8930   22.2047 H   0  0  0  0  0  0
  -23.7248  -37.6544   23.6641 H   0  0  0  0  0  0
  -26.0288  -31.6185   20.5959 H   0  0  0  0  0  0
  -26.8142  -30.9071   21.9745 H   0  0  0  0  0  0
  -28.0897  -29.1433   21.1542 H   0  0  0  0  0  0
  -26.0284  -25.9723   19.0667 H   0  0  0  0  0  0
  -23.9540  -27.2830   19.0845 H   0  0  0  0  0  0
  -23.7277  -30.6205   19.4137 H   0  0  0  0  0  0
  -22.7229  -29.2715   19.8559 H   0  0  0  0  0  0
  -25.1294  -36.1991   25.0825 H   0  0  0  0  0  0
  -20.9989  -28.3265   24.1412 H   0  0  0  0  0  0
  -20.5665  -26.2308   23.3605 H   0  0  0  0  0  0
  -21.6653  -26.7480   22.1222 H   0  0  0  0  0  0
  -19.6926  -25.6311   21.1218 H   0  0  0  0  0  0
  -19.6679  -27.3215   20.6745 H   0  0  0  0  0  0
  -17.4208  -26.6664   21.4002 H   0  0  0  0  0  0
  -18.0336  -26.0087   22.9014 H   0  0  0  0  0  0
  -19.7934  -30.7233   24.2321 H   0  0  0  0  0  0
  -17.5029  -31.6278   24.5186 H   0  0  0  0  0  0
  -15.5354  -30.3048   23.7604 H   0  0  0  0  0  0
  -15.8648  -28.0852   22.7044 H   0  0  0  0  0  0
  -24.5946  -30.7060   25.7836 H   0  0  0  0  0  0
  -24.8997  -32.2860   26.4962 H   0  0  0  0  0  0
  -25.8164  -30.8860   27.0208 H   0  0  0  0  0  0
  -26.2804  -29.6843   24.1130 H   0  0  0  0  0  0
  -27.4043  -29.7266   25.4537 H   0  0  0  0  0  0
  -27.8662  -30.4345   23.9220 H   0  0  0  0  0  0
  -27.2633  -33.3610   26.2120 H   0  0  0  0  0  0
  -28.3848  -32.6959   25.0328 H   0  0  0  0  0  0
  -28.0733  -31.8441   26.5392 H   0  0  0  0  0  0
  -28.2620  -38.0112   24.7510 H   0  0  0  0  0  0
  -28.1055  -36.2650   24.6292 H   0  0  0  0  0  0
  -27.2297  -37.1504   25.8864 H   0  0  0  0  0  0
  -20.9227  -29.8789   21.6951 H   0  0  0  0  0  0
  -26.0163  -38.2877   24.1427 H   0  0  0  0  0  0
  -28.7735  -19.5080   19.2753 H   0  0  0  0  0  0
  -33.0043  -18.8970   19.9494 H   0  0  0  0  0  0
  -28.3064  -17.2758   20.1724 H   0  0  0  0  0  0
  -32.5376  -16.7130   20.9095 H   0  0  0  0  0  0
  -29.2810  -21.5939   18.5913 H   0  0  0  0  0  0
  -31.4957  -23.1606   20.0422 H   0  0  0  0  0  0
  -29.3898  -24.3604   20.7892 H   0  0  0  0  0  0
  -28.5471  -23.7448   19.3854 H   0  0  0  0  0  0
  -30.2899  -25.0237   17.9397 H   0  0  0  0  0  0
  -30.7929  -25.8277   19.4067 H   0  0  0  0  0  0
  -27.9796  -25.7972   18.2272 H   0  0  0  0  0  0
  -29.0840  -27.1495   18.1226 H   0  0  0  0  0  0
  -32.9675  -20.1750   18.4089 H   0  0  0  0  0  0
  -29.1549  -15.2801   21.3200 H   0  0  0  0  0  0
  1 25  1  0  0  0
  1 30  2  0  0  0
  1 84  1  0  0  0
  2  3  1  0  0  0
  2 25  1  0  0  0
  2 85  1  0  0  0
  2 86  1  0  0  0
  3  4  1  0  0  0
  3 87  1  0  0  0
  3 88  1  0  0  0
  4  5  1  0  0  0
  4 89  1  0  0  0
  4 90  1  0  0  0
  5  6  1  0  0  0
  5 26  1  0  0  0
  5 91  1  0  0  0
  6 25  1  0  0  0
  6 92  1  0  0  0
  6 93  1  0  0  0
  7  8  2  0  0  0
  7 26  1  0  0  0
  7 29  1  0  0  0
  8  9  1  0  0  0
  8 22  1  0  0  0
  9 10  1  0  0  0
  9 27  2  0  0  0
 10 11  2  0  0  0
 10 15  1  0  0  0
 11 12  1  0  0  0
 11 94  1  0  0  0
 12 13  2  0  0  0
 12 95  1  0  0  0
 13 14  1  0  0  0
 13 31  1  0  0  0
 14 15  2  0  0  0
 14 96  1  0  0  0
 15 97  1  0  0  0
 16 17  2  0  0  0
 16 21  1  0  0  0
 16 31  1  0  0  0
 17 18  1  0  0  0
 17 98  1  0  0  0
 18 19  2  0  0  0
 18 99  1  0  0  0
 19 20  1  0  0  0
 19 24  1  0  0  0
 20 21  2  0  0  0
 20100  1  0  0  0
 21 23  1  0  0  0
 22 28  1  0  0  0
 22 32  2  0  0  0
 26 27  1  0  0  0
 28101  1  0  0  0
 28102  1  0  0  0
 29103  1  0  0  0
 29104  1  0  0  0
 33 34  1  0  0  0
 33 66  1  0  0  0
 33 70  2  0  0  0
 34 36  1  0  0  0
 34 59  1  0  0  0
 34105  1  0  0  0
 35 44  2  0  0  0
 35 45  1  0  0  0
 35 68  1  0  0  0
 36 56  1  0  0  0
 36106  1  0  0  0
 37 39  1  0  0  0
 37 47  1  0  0  0
 37 66  1  0  0  0
 37107  1  0  0  0
 38 43  2  0  0  0
 38 46  1  0  0  0
 38 47  1  0  0  0
 39 64  1  0  0  0
 39 67  2  0  0  0
 40 52  1  0  0  0
 40 53  2  0  0  0
 40 58  1  0  0  0
 41108  1  0  0  0
 41109  1  0  0  0
 41110  1  0  0  0
 41 48  1  0  0  0
 42 43  1  0  0  0
 42 66  1  0  0  0
 42111  1  0  0  0
 42112  1  0  0  0
 43 44  1  0  0  0
 44113  1  0  0  0
 45 46  2  0  0  0
 45114  1  0  0  0
 46115  1  0  0  0
 47116  1  0  0  0
 47117  1  0  0  0
 48 56  1  0  0  0
 48 65  1  0  0  0
 48118  1  0  0  0
 49 50  1  0  0  0
 49 53  1  0  0  0
 49 64  1  0  0  0
 49119  1  0  0  0
 50 51  1  0  0  0
 50120  1  0  0  0
 50121  1  0  0  0
 51 52  1  0  0  0
 51122  1  0  0  0
 51123  1  0  0  0
 52124  1  0  0  0
 52125  1  0  0  0
 53 54  1  0  0  0
 54 55  2  0  0  0
 54126  1  0  0  0
 55 57  1  0  0  0
 55127  1  0  0  0
 56 69  2  0  0  0
 57 58  2  0  0  0
 57128  1  0  0  0
 58129  1  0  0  0
 59 60  1  0  0  0
 59 61  1  0  0  0
 59 62  1  0  0  0
 60130  1  0  0  0
 60131  1  0  0  0
 60132  1  0  0  0
 61133  1  0  0  0
 61134  1  0  0  0
 61135  1  0  0  0
 62136  1  0  0  0
 62137  1  0  0  0
 62138  1  0  0  0
 63 65  1  0  0  0
 63139  1  0  0  0
 63140  1  0  0  0
 63141  1  0  0  0
 64142  1  0  0  0
 65143  1  0  0  0
 68 82  1  0  0  0
 71 73  2  0  0  0
 71 75  1  0  0  0
 71144  1  0  0  0
 72 74  1  0  0  0
 72 75  2  0  0  0
 72145  1  0  0  0
 73 76  1  0  0  0
 73146  1  0  0  0
 74 76  2  0  0  0
 74147  1  0  0  0
 75 79  1  0  0  0
 76 84  1  0  0  0
 77 78  2  0  0  0
 77 79  1  0  0  0
 77148  1  0  0  0
 78 80  1  0  0  0
 78149  1  0  0  0
 79 83  2  0  0  0
 80 81  1  0  0  0
 80150  1  0  0  0
 80151  1  0  0  0
 81 82  1  0  0  0
 81152  1  0  0  0
 81153  1  0  0  0
 82154  1  0  0  0
 82155  1  0  0  0
 83156  1  0  0  0
 84157  1  0  0  0
M  ISO  4   1 100  68 101  82 101  84 100
M  END
> <chiral flag>
0

> <version>
0

> <s_m_source_file>
/data/baiqing/PycharmProjects/Reinvent-master-3.2/result/LINK_invent/BTK/process_docking_weight1_custom_product_contain_oxygen_bond_distance_aromatic_linkinvent_7_9_3/rearranged_h_0121.sdf

> <i_m_source_file_index>
23

> <r_mmod_Potential_Energy-OPLS-2005>
-15.179271697998

> <r_mmod_Stretch_Energy-OPLS-2005>
31.4860935211182

> <r_mmod_Bend_Energy-OPLS-2005>
87.6413497924805

> <r_mmod_Torsional_Energy-OPLS-2005>
259.355804443359

> <r_mmod_Improper_Torsional_Energy-OPLS-2005>
5.64319372177124

> <r_mmod_Van_der_Waal_Energy-OPLS-2005>
168.722106933594

> <r_mmod_Electrostatic_Energy-OPLS-2005>
-367.092559814453

> <r_mmod_Solvation_Energy-OPLS-2005>
-214.507949829102

> <b_mmod_Minimization_Converged-OPLS-2005>
0

> <r_mmod_RMS_Derivative-OPLS-2005>
2.96940183639526

$$$$
23
                    3D
 Structure written by MMmdl.
161169  0  0  1  0            999 V2000
  -30.7435  -14.4542   20.4457 C   0  0  0  0  0  0
  -30.3913  -12.2538   19.4504 C   0  0  0  0  0  0
  -29.4878  -12.4434   18.2142 C   0  0  0  0  0  0
  -28.0045  -12.3317   18.6187 C   0  0  0  0  0  0
  -27.6443  -13.2106   19.8474 C   0  0  2  0  0  0
  -28.6891  -13.0760   20.9789 C   0  0  0  0  0  0
  -25.2539  -13.8152   20.5716 C   0  0  0  0  0  0
  -24.1815  -13.0423   20.9220 C   0  0  0  0  0  0
  -24.6366  -11.6892   20.8747 C   0  0  0  0  0  0
  -23.9025  -10.4293   21.0401 C   0  0  0  0  0  0
  -24.3596   -9.4212   21.9179 C   0  0  0  0  0  0
  -23.6268   -8.2252   22.0761 C   0  0  0  0  0  0
  -22.4260   -8.0282   21.3533 C   0  0  0  0  0  0
  -21.9890   -9.0246   20.4646 C   0  0  0  0  0  0
  -22.7209  -10.2123   20.3032 C   0  0  0  0  0  0
  -21.6844   -6.0728   22.5262 C   0  0  0  0  0  0
  -21.4013   -6.5634   23.8191 C   0  0  0  0  0  0
  -21.3665   -5.6795   24.9156 C   0  0  0  0  0  0
  -21.6047   -4.3057   24.7229 C   0  0  0  0  0  0
  -21.8806   -3.8133   23.4363 C   0  0  0  0  0  0
  -21.9187   -4.6945   22.3414 C   0  0  0  0  0  0
  -22.7836  -13.5219   21.1887 C   0  0  0  0  0  0
  -22.1652   -4.2125   21.0992 F   0  0  0  0  0  0
  -21.5643   -3.4545   25.7757 F   0  0  0  0  0  0
  -30.0276  -13.2997   20.4160 N   0  0  0  0  0  0
  -26.2952  -12.9330   20.3289 N   0  0  0  0  0  0
  -25.9297  -11.6488   20.5774 N   0  0  0  0  0  0
  -22.0485  -12.8156   22.0412 N   0  0  0  0  0  0
  -25.4234  -15.1864   20.4130 N   0  0  0  0  0  0
  -31.9480  -14.4647   20.1787 O   0  0  0  0  0  0
  -21.6634   -6.8866   21.4221 O   0  0  0  0  0  0
  -22.3528  -14.5546   20.6777 O   0  0  0  0  0  0
  -24.6083  -31.8729   23.2146 C   0  0  0  0  0  0
  -25.8996  -32.4853   23.8427 C   0  0  1  0  0  0
  -27.2359  -27.4906   20.0916 C   0  0  0  0  0  0
  -25.5872  -33.8646   24.2370 N   0  0  0  0  0  0
  -23.3933  -30.4948   21.5543 C   0  0  2  0  0  0
  -24.8399  -28.9621   20.1236 C   0  0  0  0  0  0
  -22.7369  -29.4676   22.5031 C   0  0  0  0  0  0
  -18.0252  -28.1379   22.8493 C   0  0  0  0  0  0
  -24.1478  -36.7330   23.2639 C   0  0  0  0  0  0
  -25.9132  -30.8558   21.3560 C   0  0  0  0  0  0
  -25.9938  -29.4871   20.7204 C   0  0  0  0  0  0
  -27.1961  -28.7528   20.7128 C   0  0  0  0  0  0
  -26.0679  -26.9557   19.5117 C   0  0  0  0  0  0
  -24.8673  -27.6900   19.5235 C   0  0  0  0  0  0
  -23.5991  -29.8228   20.1695 C   0  0  0  0  0  0
  -25.4095  -36.3132   24.0350 C   0  0  1  0  0  0
  -20.5840  -28.3642   23.1344 C   0  0  2  0  0  0
  -20.6740  -26.9389   22.5425 C   0  0  0  0  0  0
  -19.5728  -26.6394   21.5210 C   0  0  0  0  0  0
  -18.1901  -26.7933   22.1616 C   0  0  0  0  0  0
  -19.1506  -28.8821   23.2919 C   0  0  0  0  0  0
  -18.9434  -30.1430   23.8929 C   0  0  0  0  0  0
  -17.6441  -30.6585   24.0567 C   0  0  0  0  0  0
  -25.9007  -34.9489   23.5155 C   0  0  0  0  0  0
  -16.5329  -29.9091   23.6324 C   0  0  0  0  0  0
  -16.7246  -28.6509   23.0338 C   0  0  0  0  0  0
  -26.4453  -31.6601   25.0713 C   0  0  0  0  0  0
  -25.3747  -31.3659   26.1475 C   0  0  0  0  0  0
  -27.0272  -30.3065   24.6010 C   0  0  0  0  0  0
  -27.6060  -32.4280   25.7462 C   0  0  0  0  0  0
  -27.5579  -37.1816   24.8466 C   0  0  0  0  0  0
  -21.4102  -29.3034   22.3776 N   0  0  0  0  0  0
  -26.4291  -37.3813   23.9411 N   0  0  0  0  0  0
  -24.6571  -31.0871   22.1024 N   0  0  0  0  0  0
  -23.4167  -28.8227   23.3054 O   0  0  0  0  0  0
  -28.4140  -26.8034   20.0051 O   0  0  0  0  0  0
  -26.5582  -34.8938   22.4722 O   0  0  0  0  0  0
  -23.5289  -32.1449   23.7571 O   0  0  0  0  0  0
  -28.3208  -19.7271   19.4204 C   0  0  0  0  0  0
  -28.7870  -18.4394   19.7489 C   0  0  0  0  0  0
  -30.5366  -20.6236   19.8268 C   0  0  0  0  0  0
  -29.2008  -20.8268   19.4215 C   0  0  0  0  0  0
  -30.1418  -18.2239   20.0814 C   0  0  0  0  0  0
  -31.0156  -19.3423   20.1717 C   0  0  0  0  0  0
  -28.7225  -22.1375   18.9491 C   0  0  0  0  0  0
  -30.6548  -16.8560   20.2599 C   0  0  0  0  0  0
  -29.5069  -23.1973   18.6697 C   0  0  0  0  0  0
  -29.9810  -15.7030   20.4757 C   0  0  0  0  0  0
  -28.9514  -24.4693   18.1962 C   0  0  0  0  0  0
  -32.7147  -18.6834   21.9991 C   0  0  0  0  0  0
  -32.4867  -19.2216   20.5757 C   0  0  0  0  0  0
  -29.8320  -25.7074   18.3747 C   0  0  0  0  0  0
  -29.0376  -26.9673   18.7340 C   0  0  0  0  0  0
  -27.8445  -24.5649   17.6568 O   0  0  0  0  0  0
  -31.4448  -12.2804   19.1644 H   0  0  0  0  0  0
  -30.2302  -11.2691   19.8920 H   0  0  0  0  0  0
  -29.7221  -11.6932   17.4565 H   0  0  0  0  0  0
  -29.6826  -13.4110   17.7528 H   0  0  0  0  0  0
  -27.8086  -11.2832   18.8470 H   0  0  0  0  0  0
  -27.3596  -12.5827   17.7747 H   0  0  0  0  0  0
  -27.6536  -14.2392   19.4910 H   0  0  0  0  0  0
  -28.6427  -12.0849   21.4309 H   0  0  0  0  0  0
  -28.4800  -13.7818   21.7852 H   0  0  0  0  0  0
  -25.2758   -9.5713   22.4713 H   0  0  0  0  0  0
  -23.9965   -7.4655   22.7495 H   0  0  0  0  0  0
  -21.0827   -8.8750   19.8964 H   0  0  0  0  0  0
  -22.3676  -10.9637   19.6095 H   0  0  0  0  0  0
  -21.1993   -7.6141   23.9679 H   0  0  0  0  0  0
  -21.1507   -6.0543   25.9061 H   0  0  0  0  0  0
  -22.0595   -2.7612   23.2844 H   0  0  0  0  0  0
  -22.4123  -11.9786   22.4723 H   0  0  0  0  0  0
  -21.1110  -13.1153   22.2674 H   0  0  0  0  0  0
  -24.6535  -15.8394   20.5245 H   0  0  0  0  0  0
  -26.2706  -15.6268   20.0779 H   0  0  0  0  0  0
  -26.7074  -32.5591   23.1212 H   0  0  0  0  0  0
  -25.0016  -33.9826   25.0509 H   0  0  0  0  0  0
  -22.6799  -31.3101   21.4148 H   0  0  0  0  0  0
  -23.3736  -35.9665   23.3314 H   0  0  0  0  0  0
  -24.3585  -36.8922   22.2049 H   0  0  0  0  0  0
  -23.7222  -37.6543   23.6634 H   0  0  0  0  0  0
  -25.9993  -31.6139   20.5763 H   0  0  0  0  0  0
  -26.8121  -30.9305   21.9555 H   0  0  0  0  0  0
  -28.0941  -29.1593   21.1575 H   0  0  0  0  0  0
  -26.0931  -25.9863   19.0356 H   0  0  0  0  0  0
  -23.9784  -27.2768   19.0662 H   0  0  0  0  0  0
  -23.7019  -30.5937   19.4055 H   0  0  0  0  0  0
  -22.7259  -29.2355   19.8789 H   0  0  0  0  0  0
  -25.1263  -36.2023   25.0847 H   0  0  0  0  0  0
  -20.9926  -28.3187   24.1466 H   0  0  0  0  0  0
  -20.5617  -26.2252   23.3598 H   0  0  0  0  0  0
  -21.6607  -26.7427   22.1221 H   0  0  0  0  0  0
  -19.6878  -25.6313   21.1214 H   0  0  0  0  0  0
  -19.6677  -27.3226   20.6758 H   0  0  0  0  0  0
  -17.4175  -26.6691   21.4007 H   0  0  0  0  0  0
  -18.0292  -26.0057   22.8995 H   0  0  0  0  0  0
  -19.7913  -30.7240   24.2307 H   0  0  0  0  0  0
  -17.4998  -31.6271   24.5162 H   0  0  0  0  0  0
  -15.5335  -30.3007   23.7630 H   0  0  0  0  0  0
  -15.8638  -28.0850   22.7028 H   0  0  0  0  0  0
  -24.5942  -30.6980   25.7812 H   0  0  0  0  0  0
  -24.8905  -32.2787   26.4950 H   0  0  0  0  0  0
  -25.8122  -30.8819   27.0218 H   0  0  0  0  0  0
  -26.2783  -29.6822   24.1116 H   0  0  0  0  0  0
  -27.4151  -29.7285   25.4413 H   0  0  0  0  0  0
  -27.8566  -30.4426   23.9064 H   0  0  0  0  0  0
  -27.2726  -33.3575   26.2084 H   0  0  0  0  0  0
  -28.3845  -32.6831   25.0263 H   0  0  0  0  0  0
  -28.0750  -31.8360   26.5330 H   0  0  0  0  0  0
  -28.2605  -38.0105   24.7512 H   0  0  0  0  0  0
  -28.1066  -36.2643   24.6287 H   0  0  0  0  0  0
  -27.2307  -37.1455   25.8873 H   0  0  0  0  0  0
  -20.9248  -29.8795   21.7043 H   0  0  0  0  0  0
  -26.0189  -38.2895   24.1430 H   0  0  0  0  0  0
  -27.2899  -19.8550   19.1254 H   0  0  0  0  0  0
  -28.0997  -17.6098   19.6823 H   0  0  0  0  0  0
  -31.2256  -21.4539   19.8599 H   0  0  0  0  0  0
  -27.6515  -22.2368   18.8291 H   0  0  0  0  0  0
  -31.7246  -16.7947   20.1325 H   0  0  0  0  0  0
  -30.5790  -23.1570   18.7773 H   0  0  0  0  0  0
  -28.9123  -15.7148   20.6172 H   0  0  0  0  0  0
  -33.7715  -18.7320   22.2621 H   0  0  0  0  0  0
  -32.4167  -17.6419   22.1052 H   0  0  0  0  0  0
  -32.1609  -19.2600   22.7400 H   0  0  0  0  0  0
  -32.9563  -20.2037   20.5141 H   0  0  0  0  0  0
  -33.0194  -18.6114   19.8457 H   0  0  0  0  0  0
  -30.3714  -25.8743   17.4419 H   0  0  0  0  0  0
  -30.5801  -25.5141   19.1433 H   0  0  0  0  0  0
  -28.3244  -27.1977   17.9388 H   0  0  0  0  0  0
  -29.7135  -27.8210   18.7935 H   0  0  0  0  0  0
  1 25  1  0  0  0
  1 30  2  0  0  0
  1 80  1  0  0  0
  2  3  1  0  0  0
  2 25  1  0  0  0
  2 87  1  0  0  0
  2 88  1  0  0  0
  3  4  1  0  0  0
  3 89  1  0  0  0
  3 90  1  0  0  0
  4  5  1  0  0  0
  4 91  1  0  0  0
  4 92  1  0  0  0
  5  6  1  0  0  0
  5 26  1  0  0  0
  5 93  1  0  0  0
  6 25  1  0  0  0
  6 94  1  0  0  0
  6 95  1  0  0  0
  7  8  2  0  0  0
  7 26  1  0  0  0
  7 29  1  0  0  0
  8  9  1  0  0  0
  8 22  1  0  0  0
  9 10  1  0  0  0
  9 27  2  0  0  0
 10 11  2  0  0  0
 10 15  1  0  0  0
 11 12  1  0  0  0
 11 96  1  0  0  0
 12 13  2  0  0  0
 12 97  1  0  0  0
 13 14  1  0  0  0
 13 31  1  0  0  0
 14 15  2  0  0  0
 14 98  1  0  0  0
 15 99  1  0  0  0
 16 17  2  0  0  0
 16 21  1  0  0  0
 16 31  1  0  0  0
 17 18  1  0  0  0
 17100  1  0  0  0
 18 19  2  0  0  0
 18101  1  0  0  0
 19 20  1  0  0  0
 19 24  1  0  0  0
 20 21  2  0  0  0
 20102  1  0  0  0
 21 23  1  0  0  0
 22 28  1  0  0  0
 22 32  2  0  0  0
 26 27  1  0  0  0
 28103  1  0  0  0
 28104  1  0  0  0
 29105  1  0  0  0
 29106  1  0  0  0
 33 34  1  0  0  0
 33 66  1  0  0  0
 33 70  2  0  0  0
 34 36  1  0  0  0
 34 59  1  0  0  0
 34107  1  0  0  0
 35 44  2  0  0  0
 35 45  1  0  0  0
 35 68  1  0  0  0
 36 56  1  0  0  0
 36108  1  0  0  0
 37 39  1  0  0  0
 37 47  1  0  0  0
 37 66  1  0  0  0
 37109  1  0  0  0
 38 43  2  0  0  0
 38 46  1  0  0  0
 38 47  1  0  0  0
 39 64  1  0  0  0
 39 67  2  0  0  0
 40 52  1  0  0  0
 40 53  2  0  0  0
 40 58  1  0  0  0
 41110  1  0  0  0
 41111  1  0  0  0
 41112  1  0  0  0
 41 48  1  0  0  0
 42 43  1  0  0  0
 42 66  1  0  0  0
 42113  1  0  0  0
 42114  1  0  0  0
 43 44  1  0  0  0
 44115  1  0  0  0
 45 46  2  0  0  0
 45116  1  0  0  0
 46117  1  0  0  0
 47118  1  0  0  0
 47119  1  0  0  0
 48 56  1  0  0  0
 48 65  1  0  0  0
 48120  1  0  0  0
 49 50  1  0  0  0
 49 53  1  0  0  0
 49 64  1  0  0  0
 49121  1  0  0  0
 50 51  1  0  0  0
 50122  1  0  0  0
 50123  1  0  0  0
 51 52  1  0  0  0
 51124  1  0  0  0
 51125  1  0  0  0
 52126  1  0  0  0
 52127  1  0  0  0
 53 54  1  0  0  0
 54 55  2  0  0  0
 54128  1  0  0  0
 55 57  1  0  0  0
 55129  1  0  0  0
 56 69  2  0  0  0
 57 58  2  0  0  0
 57130  1  0  0  0
 58131  1  0  0  0
 59 60  1  0  0  0
 59 61  1  0  0  0
 59 62  1  0  0  0
 60132  1  0  0  0
 60133  1  0  0  0
 60134  1  0  0  0
 61135  1  0  0  0
 61136  1  0  0  0
 61137  1  0  0  0
 62138  1  0  0  0
 62139  1  0  0  0
 62140  1  0  0  0
 63 65  1  0  0  0
 63141  1  0  0  0
 63142  1  0  0  0
 63143  1  0  0  0
 64144  1  0  0  0
 65145  1  0  0  0
 68 85  1  0  0  0
 71 72  2  0  0  0
 71 74  1  0  0  0
 71146  1  0  0  0
 72 75  1  0  0  0
 72147  1  0  0  0
 73 74  2  0  0  0
 73 76  1  0  0  0
 73148  1  0  0  0
 74 77  1  0  0  0
 75 76  2  0  0  0
 75 78  1  0  0  0
 76 83  1  0  0  0
 77 79  2  0  0  0
 77149  1  0  0  0
 78 80  2  0  0  0
 78150  1  0  0  0
 79 81  1  0  0  0
 79151  1  0  0  0
 80152  1  0  0  0
 81 84  1  0  0  0
 81 86  2  0  0  0
 82 83  1  0  0  0
 82153  1  0  0  0
 82154  1  0  0  0
 82155  1  0  0  0
 83156  1  0  0  0
 83157  1  0  0  0
 84 85  1  0  0  0
 84158  1  0  0  0
 84159  1  0  0  0
 85160  1  0  0  0
 85161  1  0  0  0
M  ISO  4   1 100  68 101  80 100  85 101
M  END
> <chiral flag>
0

> <version>
0

> <s_m_source_file>
/data/baiqing/PycharmProjects/Reinvent-master-3.2/result/LINK_invent/BTK/process_docking_weight1_custom_product_contain_oxygen_bond_distance_aromatic_linkinvent_7_9_3/rearranged_h_0121.sdf

> <i_m_source_file_index>
24

> <r_mmod_Potential_Energy-OPLS-2005>
-25.009256362915

> <r_mmod_Stretch_Energy-OPLS-2005>
32.0886039733887

> <r_mmod_Bend_Energy-OPLS-2005>
92.5957870483398

> <r_mmod_Torsional_Energy-OPLS-2005>
221.431045532227

> <r_mmod_Improper_Torsional_Energy-OPLS-2005>
8.92738819122314

> <r_mmod_Van_der_Waal_Energy-OPLS-2005>
169.706558227539

> <r_mmod_Electrostatic_Energy-OPLS-2005>
-370.167419433594

> <r_mmod_Solvation_Energy-OPLS-2005>
-204.180557250977

> <b_mmod_Minimization_Converged-OPLS-2005>
0

> <r_mmod_RMS_Derivative-OPLS-2005>
3.29269242286682

$$$$
24
                    3D
 Structure written by MMmdl.
165174  0  0  1  0            999 V2000
  -30.7368  -14.4977   20.5500 C   0  0  0  0  0  0
  -30.4077  -12.3181   19.4398 C   0  0  0  0  0  0
  -29.4920  -12.5016   18.2145 C   0  0  0  0  0  0
  -28.0143  -12.3676   18.6257 C   0  0  0  0  0  0
  -27.6560  -13.2219   19.8720 C   0  0  2  0  0  0
  -28.7006  -13.0536   20.9999 C   0  0  0  0  0  0
  -25.2552  -13.8206   20.5701 C   0  0  0  0  0  0
  -24.1823  -13.0455   20.9198 C   0  0  0  0  0  0
  -24.6404  -11.6933   20.8760 C   0  0  0  0  0  0
  -23.9078  -10.4303   21.0420 C   0  0  0  0  0  0
  -24.3624   -9.4214   21.9196 C   0  0  0  0  0  0
  -23.6296   -8.2248   22.0762 C   0  0  0  0  0  0
  -22.4281   -8.0294   21.3546 C   0  0  0  0  0  0
  -21.9923   -9.0269   20.4646 C   0  0  0  0  0  0
  -22.7254  -10.2148   20.3060 C   0  0  0  0  0  0
  -21.6848   -6.0746   22.5280 C   0  0  0  0  0  0
  -21.4010   -6.5647   23.8217 C   0  0  0  0  0  0
  -21.3658   -5.6801   24.9177 C   0  0  0  0  0  0
  -21.6043   -4.3061   24.7224 C   0  0  0  0  0  0
  -21.8819   -3.8154   23.4343 C   0  0  0  0  0  0
  -21.9193   -4.6973   22.3401 C   0  0  0  0  0  0
  -22.7835  -13.5234   21.1853 C   0  0  0  0  0  0
  -22.1659   -4.2162   21.0977 F   0  0  0  0  0  0
  -21.5632   -3.4540   25.7733 F   0  0  0  0  0  0
  -30.0271  -13.3386   20.4332 N   0  0  0  0  0  0
  -26.3000  -12.9401   20.3373 N   0  0  0  0  0  0
  -25.9335  -11.6544   20.5788 N   0  0  0  0  0  0
  -22.0477  -12.8219   22.0404 N   0  0  0  0  0  0
  -25.4252  -15.1927   20.4102 N   0  0  0  0  0  0
  -31.8655  -14.6038   20.0653 O   0  0  0  0  0  0
  -21.6642   -6.8891   21.4242 O   0  0  0  0  0  0
  -22.3525  -14.5542   20.6710 O   0  0  0  0  0  0
  -24.6182  -31.8661   23.2089 C   0  0  0  0  0  0
  -25.9064  -32.4815   23.8399 C   0  0  1  0  0  0
  -27.2334  -27.4138   20.1043 C   0  0  0  0  0  0
  -25.5914  -33.8611   24.2326 N   0  0  0  0  0  0
  -23.4083  -30.4895   21.5495 C   0  0  2  0  0  0
  -24.8568  -28.9539   20.1126 C   0  0  0  0  0  0
  -22.7439  -29.4652   22.4983 C   0  0  0  0  0  0
  -18.0282  -28.1383   22.8506 C   0  0  0  0  0  0
  -24.1485  -36.7303   23.2641 C   0  0  0  0  0  0
  -25.9401  -30.8267   21.3646 C   0  0  0  0  0  0
  -26.0196  -29.4606   20.7094 C   0  0  0  0  0  0
  -27.2153  -28.6992   20.6998 C   0  0  0  0  0  0
  -26.0582  -26.9312   19.4918 C   0  0  0  0  0  0
  -24.8728  -27.6897   19.4978 C   0  0  0  0  0  0
  -23.6177  -29.8210   20.1653 C   0  0  0  0  0  0
  -25.4110  -36.3100   24.0333 C   0  0  1  0  0  0
  -20.5879  -28.3673   23.1321 C   0  0  2  0  0  0
  -20.6765  -26.9406   22.5422 C   0  0  0  0  0  0
  -19.5738  -26.6387   21.5227 C   0  0  0  0  0  0
  -18.1919  -26.7931   22.1639 C   0  0  0  0  0  0
  -19.1531  -28.8848   23.2906 C   0  0  0  0  0  0
  -18.9452  -30.1460   23.8908 C   0  0  0  0  0  0
  -17.6451  -30.6587   24.0575 C   0  0  0  0  0  0
  -25.9041  -34.9469   23.5126 C   0  0  0  0  0  0
  -16.5344  -29.9084   23.6334 C   0  0  0  0  0  0
  -16.7269  -28.6503   23.0357 C   0  0  0  0  0  0
  -26.4485  -31.6597   25.0735 C   0  0  0  0  0  0
  -25.3740  -31.3677   26.1469 C   0  0  0  0  0  0
  -27.0340  -30.3051   24.6112 C   0  0  0  0  0  0
  -27.6054  -32.4325   25.7498 C   0  0  0  0  0  0
  -27.5576  -37.1806   24.8469 C   0  0  0  0  0  0
  -21.4163  -29.3031   22.3716 N   0  0  0  0  0  0
  -26.4292  -37.3790   23.9411 N   0  0  0  0  0  0
  -24.6741  -31.0748   22.0995 N   0  0  0  0  0  0
  -23.4198  -28.8188   23.3034 O   0  0  0  0  0  0
  -28.3555  -26.6072   20.1294 O   0  0  0  0  0  0
  -26.5603  -34.8923   22.4689 O   0  0  0  0  0  0
  -23.5368  -32.1416   23.7466 O   0  0  0  0  0  0
  -32.5589  -18.3191   21.8863 C   0  0  0  0  0  0
  -32.0186  -17.0524   21.6239 C   0  0  0  0  0  0
  -29.8506  -18.0743   21.2183 C   0  0  0  0  0  0
  -30.3858  -19.3761   21.4704 C   0  0  0  0  0  0
  -31.7561  -19.4734   21.8417 C   0  0  0  0  0  0
  -30.6555  -16.8964   21.2836 C   0  0  0  0  0  0
  -28.8388  -22.9721   21.2564 C   0  0  0  0  0  0
  -28.9000  -24.1382   20.5350 C   0  0  0  0  0  0
  -29.6329  -21.7819   20.8580 C   0  0  0  0  0  0
  -29.4981  -20.5810   21.5006 C   0  0  0  0  0  0
  -29.7081  -24.2504   19.2441 C   0  0  0  0  0  0
  -30.6678  -21.9676   19.7573 C   0  0  0  0  0  0
  -30.1133  -22.8849   18.6639 C   0  0  0  0  0  0
  -32.4085  -20.7759   22.2837 C   0  0  0  0  0  0
  -28.0257  -22.9071   22.5491 C   0  0  0  0  0  0
  -28.2054  -25.4461   20.9856 C   0  0  0  0  0  0
  -30.0978  -15.5791   21.0659 N   0  0  0  0  0  0
  -31.4546  -12.3838   19.1392 H   0  0  0  0  0  0
  -30.2876  -11.3196   19.8644 H   0  0  0  0  0  0
  -29.7347  -11.7651   17.4476 H   0  0  0  0  0  0
  -29.6648  -13.4809   17.7657 H   0  0  0  0  0  0
  -27.8223  -11.3138   18.8296 H   0  0  0  0  0  0
  -27.3671  -12.6365   17.7904 H   0  0  0  0  0  0
  -27.6869  -14.2641   19.5529 H   0  0  0  0  0  0
  -28.6779  -12.0361   21.3933 H   0  0  0  0  0  0
  -28.4670  -13.7048   21.8437 H   0  0  0  0  0  0
  -25.2771   -9.5685   22.4774 H   0  0  0  0  0  0
  -24.0004   -7.4638   22.7483 H   0  0  0  0  0  0
  -21.0860   -8.8795   19.8943 H   0  0  0  0  0  0
  -22.3724  -10.9694   19.6168 H   0  0  0  0  0  0
  -21.2002   -7.6156   23.9718 H   0  0  0  0  0  0
  -21.1477   -6.0531   25.9082 H   0  0  0  0  0  0
  -22.0600   -2.7617   23.2840 H   0  0  0  0  0  0
  -22.4090  -11.9872   22.4774 H   0  0  0  0  0  0
  -21.1097  -13.1244   22.2612 H   0  0  0  0  0  0
  -24.6579  -15.8480   20.5166 H   0  0  0  0  0  0
  -26.2766  -15.6304   20.0815 H   0  0  0  0  0  0
  -26.7132  -32.5535   23.1161 H   0  0  0  0  0  0
  -25.0068  -33.9758   25.0474 H   0  0  0  0  0  0
  -22.6983  -31.3078   21.4107 H   0  0  0  0  0  0
  -23.3754  -35.9631   23.3301 H   0  0  0  0  0  0
  -24.3575  -36.8934   22.2057 H   0  0  0  0  0  0
  -23.7235  -37.6497   23.6678 H   0  0  0  0  0  0
  -26.0562  -31.5935   20.5972 H   0  0  0  0  0  0
  -26.8254  -30.8794   21.9863 H   0  0  0  0  0  0
  -28.1112  -29.0817   21.1682 H   0  0  0  0  0  0
  -26.0574  -25.9562   19.0241 H   0  0  0  0  0  0
  -23.9796  -27.2950   19.0331 H   0  0  0  0  0  0
  -23.7241  -30.5962   19.4057 H   0  0  0  0  0  0
  -22.7422  -29.2395   19.8720 H   0  0  0  0  0  0
  -25.1290  -36.1952   25.0825 H   0  0  0  0  0  0
  -20.9984  -28.3242   24.1443 H   0  0  0  0  0  0
  -20.5696  -26.2276   23.3614 H   0  0  0  0  0  0
  -21.6632  -26.7449   22.1205 H   0  0  0  0  0  0
  -19.6893  -25.6303   21.1243 H   0  0  0  0  0  0
  -19.6667  -27.3208   20.6770 H   0  0  0  0  0  0
  -17.4197  -26.6720   21.4025 H   0  0  0  0  0  0
  -18.0279  -26.0059   22.9014 H   0  0  0  0  0  0
  -19.7927  -30.7284   24.2265 H   0  0  0  0  0  0
  -17.5005  -31.6266   24.5185 H   0  0  0  0  0  0
  -15.5345  -30.2992   23.7642 H   0  0  0  0  0  0
  -15.8674  -28.0824   22.7055 H   0  0  0  0  0  0
  -24.5935  -30.7004   25.7788 H   0  0  0  0  0  0
  -24.8894  -32.2813   26.4922 H   0  0  0  0  0  0
  -25.8086  -30.8844   27.0226 H   0  0  0  0  0  0
  -26.2889  -29.6780   24.1200 H   0  0  0  0  0  0
  -27.4161  -29.7318   25.4569 H   0  0  0  0  0  0
  -27.8702  -30.4389   23.9244 H   0  0  0  0  0  0
  -27.2681  -33.3637   26.2062 H   0  0  0  0  0  0
  -28.3865  -32.6858   25.0317 H   0  0  0  0  0  0
  -28.0722  -31.8459   26.5417 H   0  0  0  0  0  0
  -28.2593  -38.0100   24.7535 H   0  0  0  0  0  0
  -28.1070  -36.2639   24.6288 H   0  0  0  0  0  0
  -27.2296  -37.1449   25.8868 H   0  0  0  0  0  0
  -20.9332  -29.8743   21.6923 H   0  0  0  0  0  0
  -26.0175  -38.2865   24.1419 H   0  0  0  0  0  0
  -33.6005  -18.3935   22.1668 H   0  0  0  0  0  0
  -32.6773  -16.2012   21.7167 H   0  0  0  0  0  0
  -28.7990  -17.9833   20.9841 H   0  0  0  0  0  0
  -28.7486  -20.4995   22.2723 H   0  0  0  0  0  0
  -30.5963  -24.8489   19.4505 H   0  0  0  0  0  0
  -29.1320  -24.7961   18.4955 H   0  0  0  0  0  0
  -30.9497  -21.0068   19.3240 H   0  0  0  0  0  0
  -31.5685  -22.4127   20.1778 H   0  0  0  0  0  0
  -30.8466  -23.0175   17.8668 H   0  0  0  0  0  0
  -29.2433  -22.4125   18.2051 H   0  0  0  0  0  0
  -33.0985  -20.5911   23.1081 H   0  0  0  0  0  0
  -31.6923  -21.5134   22.6431 H   0  0  0  0  0  0
  -32.9863  -21.2102   21.4682 H   0  0  0  0  0  0
  -27.6591  -23.8662   22.9067 H   0  0  0  0  0  0
  -28.6330  -22.4995   23.3580 H   0  0  0  0  0  0
  -27.1589  -22.2595   22.4122 H   0  0  0  0  0  0
  -28.6214  -25.7256   21.9543 H   0  0  0  0  0  0
  -27.1539  -25.2139   21.1637 H   0  0  0  0  0  0
  -29.1194  -15.4536   21.2770 H   0  0  0  0  0  0
  1 25  1  0  0  0
  1 30  2  0  0  0
  1 87  1  0  0  0
  2  3  1  0  0  0
  2 25  1  0  0  0
  2 88  1  0  0  0
  2 89  1  0  0  0
  3  4  1  0  0  0
  3 90  1  0  0  0
  3 91  1  0  0  0
  4  5  1  0  0  0
  4 92  1  0  0  0
  4 93  1  0  0  0
  5  6  1  0  0  0
  5 26  1  0  0  0
  5 94  1  0  0  0
  6 25  1  0  0  0
  6 95  1  0  0  0
  6 96  1  0  0  0
  7  8  2  0  0  0
  7 26  1  0  0  0
  7 29  1  0  0  0
  8  9  1  0  0  0
  8 22  1  0  0  0
  9 10  1  0  0  0
  9 27  2  0  0  0
 10 11  2  0  0  0
 10 15  1  0  0  0
 11 12  1  0  0  0
 11 97  1  0  0  0
 12 13  2  0  0  0
 12 98  1  0  0  0
 13 14  1  0  0  0
 13 31  1  0  0  0
 14 15  2  0  0  0
 14 99  1  0  0  0
 15100  1  0  0  0
 16 17  2  0  0  0
 16 21  1  0  0  0
 16 31  1  0  0  0
 17 18  1  0  0  0
 17101  1  0  0  0
 18 19  2  0  0  0
 18102  1  0  0  0
 19 20  1  0  0  0
 19 24  1  0  0  0
 20 21  2  0  0  0
 20103  1  0  0  0
 21 23  1  0  0  0
 22 28  1  0  0  0
 22 32  2  0  0  0
 26 27  1  0  0  0
 28104  1  0  0  0
 28105  1  0  0  0
 29106  1  0  0  0
 29107  1  0  0  0
 33 34  1  0  0  0
 33 66  1  0  0  0
 33 70  2  0  0  0
 34 36  1  0  0  0
 34 59  1  0  0  0
 34108  1  0  0  0
 35 44  2  0  0  0
 35 45  1  0  0  0
 35 68  1  0  0  0
 36 56  1  0  0  0
 36109  1  0  0  0
 37 39  1  0  0  0
 37 47  1  0  0  0
 37 66  1  0  0  0
 37110  1  0  0  0
 38 43  2  0  0  0
 38 46  1  0  0  0
 38 47  1  0  0  0
 39 64  1  0  0  0
 39 67  2  0  0  0
 40 52  1  0  0  0
 40 53  2  0  0  0
 40 58  1  0  0  0
 41111  1  0  0  0
 41112  1  0  0  0
 41113  1  0  0  0
 41 48  1  0  0  0
 42 43  1  0  0  0
 42 66  1  0  0  0
 42114  1  0  0  0
 42115  1  0  0  0
 43 44  1  0  0  0
 44116  1  0  0  0
 45 46  2  0  0  0
 45117  1  0  0  0
 46118  1  0  0  0
 47119  1  0  0  0
 47120  1  0  0  0
 48 56  1  0  0  0
 48 65  1  0  0  0
 48121  1  0  0  0
 49 50  1  0  0  0
 49 53  1  0  0  0
 49 64  1  0  0  0
 49122  1  0  0  0
 50 51  1  0  0  0
 50123  1  0  0  0
 50124  1  0  0  0
 51 52  1  0  0  0
 51125  1  0  0  0
 51126  1  0  0  0
 52127  1  0  0  0
 52128  1  0  0  0
 53 54  1  0  0  0
 54 55  2  0  0  0
 54129  1  0  0  0
 55 57  1  0  0  0
 55130  1  0  0  0
 56 69  2  0  0  0
 57 58  2  0  0  0
 57131  1  0  0  0
 58132  1  0  0  0
 59 60  1  0  0  0
 59 61  1  0  0  0
 59 62  1  0  0  0
 60133  1  0  0  0
 60134  1  0  0  0
 60135  1  0  0  0
 61136  1  0  0  0
 61137  1  0  0  0
 61138  1  0  0  0
 62139  1  0  0  0
 62140  1  0  0  0
 62141  1  0  0  0
 63 65  1  0  0  0
 63142  1  0  0  0
 63143  1  0  0  0
 63144  1  0  0  0
 64145  1  0  0  0
 65146  1  0  0  0
 68 86  1  0  0  0
 71 72  2  0  0  0
 71 75  1  0  0  0
 71147  1  0  0  0
 72 76  1  0  0  0
 72148  1  0  0  0
 73 74  1  0  0  0
 73 76  2  0  0  0
 73149  1  0  0  0
 74 75  2  0  0  0
 74 80  1  0  0  0
 75 84  1  0  0  0
 76 87  1  0  0  0
 77 78  2  0  0  0
 77 79  1  0  0  0
 77 85  1  0  0  0
 78 81  1  0  0  0
 78 86  1  0  0  0
 79 80  2  0  0  0
 79 82  1  0  0  0
 80150  1  0  0  0
 81 83  1  0  0  0
 81151  1  0  0  0
 81152  1  0  0  0
 82 83  1  0  0  0
 82153  1  0  0  0
 82154  1  0  0  0
 83155  1  0  0  0
 83156  1  0  0  0
 84157  1  0  0  0
 84158  1  0  0  0
 84159  1  0  0  0
 85160  1  0  0  0
 85161  1  0  0  0
 85162  1  0  0  0
 86163  1  0  0  0
 86164  1  0  0  0
 87165  1  0  0  0
M  ISO  4   1 100  68 101  86 101  87 100
M  END
> <chiral flag>
0

> <version>
0

> <s_m_source_file>
/data/baiqing/PycharmProjects/Reinvent-master-3.2/result/LINK_invent/BTK/process_docking_weight1_custom_product_contain_oxygen_bond_distance_aromatic_linkinvent_7_9_3/rearranged_h_0121.sdf

> <i_m_source_file_index>
25

> <r_mmod_Potential_Energy-OPLS-2005>
77.8538131713867

> <r_mmod_Stretch_Energy-OPLS-2005>
53.8492698669434

> <r_mmod_Bend_Energy-OPLS-2005>
112.862449645996

> <r_mmod_Torsional_Energy-OPLS-2005>
272.616821289062

> <r_mmod_Improper_Torsional_Energy-OPLS-2005>
4.62547492980957

> <r_mmod_Van_der_Waal_Energy-OPLS-2005>
176.784851074219

> <r_mmod_Electrostatic_Energy-OPLS-2005>
-368.733367919922

> <r_mmod_Solvation_Energy-OPLS-2005>
-193.543045043945

> <b_mmod_Minimization_Converged-OPLS-2005>
0

> <r_mmod_RMS_Derivative-OPLS-2005>
1.38962459564209

$$$$
25
                    3D
 Structure written by MMmdl.
154162  0  0  1  0            999 V2000
  -30.5601  -14.8755   20.4355 C   0  0  0  0  0  0
  -30.4373  -12.5344   19.5091 C   0  0  0  0  0  0
  -29.5249  -12.5365   18.2606 C   0  0  0  0  0  0
  -28.0508  -12.3346   18.6621 C   0  0  0  0  0  0
  -27.6352  -13.2461   19.8467 C   0  0  2  0  0  0
  -28.6730  -13.2301   20.9875 C   0  0  0  0  0  0
  -25.2479  -13.8215   20.5716 C   0  0  0  0  0  0
  -24.1789  -13.0438   20.9224 C   0  0  0  0  0  0
  -24.6404  -11.6923   20.8746 C   0  0  0  0  0  0
  -23.9084  -10.4293   21.0387 C   0  0  0  0  0  0
  -24.3638   -9.4205   21.9162 C   0  0  0  0  0  0
  -23.6320   -8.2234   22.0734 C   0  0  0  0  0  0
  -22.4297   -8.0268   21.3538 C   0  0  0  0  0  0
  -21.9940   -9.0234   20.4628 C   0  0  0  0  0  0
  -22.7258  -10.2120   20.3032 C   0  0  0  0  0  0
  -21.6851   -6.0744   22.5280 C   0  0  0  0  0  0
  -21.4011   -6.5645   23.8215 C   0  0  0  0  0  0
  -21.3665   -5.6789   24.9174 C   0  0  0  0  0  0
  -21.6056   -4.3052   24.7213 C   0  0  0  0  0  0
  -21.8819   -3.8150   23.4326 C   0  0  0  0  0  0
  -21.9195   -4.6976   22.3395 C   0  0  0  0  0  0
  -22.7807  -13.5204   21.1891 C   0  0  0  0  0  0
  -22.1664   -4.2168   21.0966 F   0  0  0  0  0  0
  -21.5632   -3.4534   25.7722 F   0  0  0  0  0  0
  -29.9664  -13.6194   20.4144 N   0  0  0  0  0  0
  -26.2904  -12.9451   20.3256 N   0  0  0  0  0  0
  -25.9335  -11.6579   20.5724 N   0  0  0  0  0  0
  -22.0481  -12.8155   22.0437 N   0  0  0  0  0  0
  -25.4141  -15.1946   20.4146 N   0  0  0  0  0  0
  -31.7562  -14.9266   20.1241 O   0  0  0  0  0  0
  -21.6644   -6.8877   21.4238 O   0  0  0  0  0  0
  -22.3477  -14.5501   20.6729 O   0  0  0  0  0  0
  -24.6395  -31.8476   23.1912 C   0  0  0  0  0  0
  -25.9196  -32.4713   23.8268 C   0  0  1  0  0  0
  -27.2063  -27.1769   20.1479 C   0  0  0  0  0  0
  -25.5971  -33.8520   24.2195 N   0  0  0  0  0  0
  -23.4399  -30.4713   21.5337 C   0  0  2  0  0  0
  -24.8877  -28.9066   20.1029 C   0  0  0  0  0  0
  -22.7524  -29.4582   22.4829 C   0  0  0  0  0  0
  -18.0305  -28.1403   22.8474 C   0  0  0  0  0  0
  -24.1501  -36.7266   23.2634 C   0  0  0  0  0  0
  -25.9922  -30.7347   21.3830 C   0  0  0  0  0  0
  -26.0613  -29.3509   20.7239 C   0  0  0  0  0  0
  -27.2227  -28.5005   20.7312 C   0  0  0  0  0  0
  -26.0140  -26.8277   19.4767 C   0  0  0  0  0  0
  -24.8751  -27.6587   19.4629 C   0  0  0  0  0  0
  -23.6632  -29.8041   20.1502 C   0  0  0  0  0  0
  -25.4131  -36.3038   24.0302 C   0  0  1  0  0  0
  -20.5911  -28.3736   23.1227 C   0  0  2  0  0  0
  -20.6796  -26.9438   22.5403 C   0  0  0  0  0  0
  -19.5771  -26.6392   21.5210 C   0  0  0  0  0  0
  -18.1950  -26.7943   22.1617 C   0  0  0  0  0  0
  -19.1561  -28.8881   23.2857 C   0  0  0  0  0  0
  -18.9482  -30.1472   23.8893 C   0  0  0  0  0  0
  -17.6482  -30.6599   24.0569 C   0  0  0  0  0  0
  -25.9074  -34.9416   23.5047 C   0  0  0  0  0  0
  -16.5371  -29.9094   23.6343 C   0  0  0  0  0  0
  -16.7288  -28.6515   23.0352 C   0  0  0  0  0  0
  -26.4532  -31.6556   25.0688 C   0  0  0  0  0  0
  -25.3726  -31.3751   26.1387 C   0  0  0  0  0  0
  -27.0379  -30.2943   24.6247 C   0  0  0  0  0  0
  -27.6058  -32.4309   25.7496 C   0  0  0  0  0  0
  -27.5585  -37.1792   24.8451 C   0  0  0  0  0  0
  -21.4218  -29.3074   22.3581 N   0  0  0  0  0  0
  -26.4292  -37.3758   23.9398 N   0  0  0  0  0  0
  -24.7102  -31.0373   22.0920 N   0  0  0  0  0  0
  -23.4190  -28.8118   23.2952 O   0  0  0  0  0  0
  -28.2604  -26.2147   20.2482 O   0  0  0  0  0  0
  -26.5645  -34.8916   22.4618 O   0  0  0  0  0  0
  -23.5526  -32.1336   23.7165 O   0  0  0  0  0  0
  -29.8445  -19.8005   21.6511 C   0  0  0  0  0  0
  -29.5705  -21.2187   21.6838 C   0  0  0  0  0  0
  -28.9370  -19.6964   19.4887 C   0  0  0  0  0  0
  -29.5546  -18.9439   20.5480 C   0  0  0  0  0  0
  -28.9812  -21.9908   20.6241 C   0  0  0  0  0  0
  -28.6450  -21.1288   19.5128 C   0  0  0  0  0  0
  -30.1522  -17.4768   20.4264 C   0  0  0  0  0  0
  -29.7244  -16.1550   20.6555 C   0  0  0  0  0  0
  -28.9081  -23.6027   20.7913 C   0  0  0  0  0  0
  -29.0445  -22.3355   17.3219 C   0  0  0  0  0  0
  -28.0051  -21.7225   18.2681 C   0  0  0  0  0  0
  -28.0129  -24.7104   19.9951 C   0  0  0  0  0  0
  -29.6062  -24.0985   21.6829 O   0  0  0  0  0  0
  -31.4776  -12.6679   19.2086 H   0  0  0  0  0  0
  -30.4007  -11.5694   20.0172 H   0  0  0  0  0  0
  -29.8355  -11.7602   17.5604 H   0  0  0  0  0  0
  -29.6309  -13.4850   17.7313 H   0  0  0  0  0  0
  -27.9245  -11.2869   18.9380 H   0  0  0  0  0  0
  -27.3962  -12.5035   17.8064 H   0  0  0  0  0  0
  -27.6111  -14.2589   19.4456 H   0  0  0  0  0  0
  -28.7363  -12.2427   21.4468 H   0  0  0  0  0  0
  -28.3833  -13.9145   21.7849 H   0  0  0  0  0  0
  -25.2788   -9.5670   22.4728 H   0  0  0  0  0  0
  -24.0042   -7.4616   22.7425 H   0  0  0  0  0  0
  -21.0881   -8.8720   19.8915 H   0  0  0  0  0  0
  -22.3711  -10.9639   19.6125 H   0  0  0  0  0  0
  -21.1997   -7.6151   23.9738 H   0  0  0  0  0  0
  -21.1499   -6.0505   25.9081 H   0  0  0  0  0  0
  -22.0601   -2.7617   23.2813 H   0  0  0  0  0  0
  -22.4146  -11.9846   22.4841 H   0  0  0  0  0  0
  -21.1060  -13.1078   22.2605 H   0  0  0  0  0  0
  -24.6472  -15.8485   20.5295 H   0  0  0  0  0  0
  -26.2655  -15.6366   20.0900 H   0  0  0  0  0  0
  -26.7248  -32.5330   23.0985 H   0  0  0  0  0  0
  -25.0122  -33.9633   25.0344 H   0  0  0  0  0  0
  -22.7433  -31.2989   21.3822 H   0  0  0  0  0  0
  -23.3771  -35.9591   23.3263 H   0  0  0  0  0  0
  -24.3595  -36.8934   22.2057 H   0  0  0  0  0  0
  -23.7253  -37.6450   23.6694 H   0  0  0  0  0  0
  -26.1412  -31.4918   20.6123 H   0  0  0  0  0  0
  -26.8667  -30.7849   22.0199 H   0  0  0  0  0  0
  -28.1172  -28.8322   21.2392 H   0  0  0  0  0  0
  -25.9304  -25.8788   18.9688 H   0  0  0  0  0  0
  -23.9796  -27.3211   18.9597 H   0  0  0  0  0  0
  -23.7947  -30.5814   19.3957 H   0  0  0  0  0  0
  -22.7789  -29.2429   19.8422 H   0  0  0  0  0  0
  -25.1325  -36.1855   25.0795 H   0  0  0  0  0  0
  -21.0035  -28.3356   24.1334 H   0  0  0  0  0  0
  -20.5700  -26.2355   23.3628 H   0  0  0  0  0  0
  -21.6660  -26.7453   22.1194 H   0  0  0  0  0  0
  -19.6935  -25.6298   21.1258 H   0  0  0  0  0  0
  -19.6714  -27.3196   20.6734 H   0  0  0  0  0  0
  -17.4220  -26.6695   21.4020 H   0  0  0  0  0  0
  -18.0344  -26.0090   22.9016 H   0  0  0  0  0  0
  -19.7953  -30.7292   24.2261 H   0  0  0  0  0  0
  -17.5033  -31.6278   24.5167 H   0  0  0  0  0  0
  -15.5374  -30.2999   23.7669 H   0  0  0  0  0  0
  -15.8683  -28.0840   22.7065 H   0  0  0  0  0  0
  -24.5905  -30.7097   25.7713 H   0  0  0  0  0  0
  -24.8924  -32.2944   26.4745 H   0  0  0  0  0  0
  -25.8014  -30.8967   27.0199 H   0  0  0  0  0  0
  -26.2974  -29.6669   24.1271 H   0  0  0  0  0  0
  -27.4006  -29.7236   25.4804 H   0  0  0  0  0  0
  -27.8880  -30.4157   23.9533 H   0  0  0  0  0  0
  -27.2636  -33.3620   26.2023 H   0  0  0  0  0  0
  -28.3922  -32.6844   25.0376 H   0  0  0  0  0  0
  -28.0660  -31.8459   26.5468 H   0  0  0  0  0  0
  -28.2563  -38.0129   24.7530 H   0  0  0  0  0  0
  -28.1124  -36.2655   24.6236 H   0  0  0  0  0  0
  -27.2300  -37.1374   25.8853 H   0  0  0  0  0  0
  -20.9397  -29.8791   21.6778 H   0  0  0  0  0  0
  -26.0147  -38.2814   24.1444 H   0  0  0  0  0  0
  -30.3492  -19.3717   22.5045 H   0  0  0  0  0  0
  -29.8736  -21.7421   22.5805 H   0  0  0  0  0  0
  -28.7160  -19.1546   18.5792 H   0  0  0  0  0  0
  -31.1726  -17.5230   20.0708 H   0  0  0  0  0  0
  -28.7132  -16.0315   21.0119 H   0  0  0  0  0  0
  -28.5660  -22.7749   16.4460 H   0  0  0  0  0  0
  -29.7463  -21.5770   16.9707 H   0  0  0  0  0  0
  -29.6252  -23.1184   17.8108 H   0  0  0  0  0  0
  -27.2511  -22.4563   18.5523 H   0  0  0  0  0  0
  -27.4538  -20.9429   17.7404 H   0  0  0  0  0  0
  -26.9785  -24.4824   20.2515 H   0  0  0  0  0  0
  -28.1110  -24.5362   18.9245 H   0  0  0  0  0  0
  1 25  1  0  0  0
  1 30  2  0  0  0
  1 78  1  0  0  0
  2  3  1  0  0  0
  2 25  1  0  0  0
  2 84  1  0  0  0
  2 85  1  0  0  0
  3  4  1  0  0  0
  3 86  1  0  0  0
  3 87  1  0  0  0
  4  5  1  0  0  0
  4 88  1  0  0  0
  4 89  1  0  0  0
  5  6  1  0  0  0
  5 26  1  0  0  0
  5 90  1  0  0  0
  6 25  1  0  0  0
  6 91  1  0  0  0
  6 92  1  0  0  0
  7  8  2  0  0  0
  7 26  1  0  0  0
  7 29  1  0  0  0
  8  9  1  0  0  0
  8 22  1  0  0  0
  9 10  1  0  0  0
  9 27  2  0  0  0
 10 11  2  0  0  0
 10 15  1  0  0  0
 11 12  1  0  0  0
 11 93  1  0  0  0
 12 13  2  0  0  0
 12 94  1  0  0  0
 13 14  1  0  0  0
 13 31  1  0  0  0
 14 15  2  0  0  0
 14 95  1  0  0  0
 15 96  1  0  0  0
 16 17  2  0  0  0
 16 21  1  0  0  0
 16 31  1  0  0  0
 17 18  1  0  0  0
 17 97  1  0  0  0
 18 19  2  0  0  0
 18 98  1  0  0  0
 19 20  1  0  0  0
 19 24  1  0  0  0
 20 21  2  0  0  0
 20 99  1  0  0  0
 21 23  1  0  0  0
 22 28  1  0  0  0
 22 32  2  0  0  0
 26 27  1  0  0  0
 28100  1  0  0  0
 28101  1  0  0  0
 29102  1  0  0  0
 29103  1  0  0  0
 33 34  1  0  0  0
 33 66  1  0  0  0
 33 70  2  0  0  0
 34 36  1  0  0  0
 34 59  1  0  0  0
 34104  1  0  0  0
 35 44  2  0  0  0
 35 45  1  0  0  0
 35 68  1  0  0  0
 36 56  1  0  0  0
 36105  1  0  0  0
 37 39  1  0  0  0
 37 47  1  0  0  0
 37 66  1  0  0  0
 37106  1  0  0  0
 38 43  2  0  0  0
 38 46  1  0  0  0
 38 47  1  0  0  0
 39 64  1  0  0  0
 39 67  2  0  0  0
 40 52  1  0  0  0
 40 53  2  0  0  0
 40 58  1  0  0  0
 41107  1  0  0  0
 41108  1  0  0  0
 41109  1  0  0  0
 41 48  1  0  0  0
 42 43  1  0  0  0
 42 66  1  0  0  0
 42110  1  0  0  0
 42111  1  0  0  0
 43 44  1  0  0  0
 44112  1  0  0  0
 45 46  2  0  0  0
 45113  1  0  0  0
 46114  1  0  0  0
 47115  1  0  0  0
 47116  1  0  0  0
 48 56  1  0  0  0
 48 65  1  0  0  0
 48117  1  0  0  0
 49 50  1  0  0  0
 49 53  1  0  0  0
 49 64  1  0  0  0
 49118  1  0  0  0
 50 51  1  0  0  0
 50119  1  0  0  0
 50120  1  0  0  0
 51 52  1  0  0  0
 51121  1  0  0  0
 51122  1  0  0  0
 52123  1  0  0  0
 52124  1  0  0  0
 53 54  1  0  0  0
 54 55  2  0  0  0
 54125  1  0  0  0
 55 57  1  0  0  0
 55126  1  0  0  0
 56 69  2  0  0  0
 57 58  2  0  0  0
 57127  1  0  0  0
 58128  1  0  0  0
 59 60  1  0  0  0
 59 61  1  0  0  0
 59 62  1  0  0  0
 60129  1  0  0  0
 60130  1  0  0  0
 60131  1  0  0  0
 61132  1  0  0  0
 61133  1  0  0  0
 61134  1  0  0  0
 62135  1  0  0  0
 62136  1  0  0  0
 62137  1  0  0  0
 63 65  1  0  0  0
 63138  1  0  0  0
 63139  1  0  0  0
 63140  1  0  0  0
 64141  1  0  0  0
 65142  1  0  0  0
 68 82  1  0  0  0
 71 72  2  0  0  0
 71 74  1  0  0  0
 71143  1  0  0  0
 72 75  1  0  0  0
 72144  1  0  0  0
 73 74  2  0  0  0
 73 76  1  0  0  0
 73145  1  0  0  0
 74 77  1  0  0  0
 75 76  2  0  0  0
 75 79  1  0  0  0
 76 81  1  0  0  0
 77 78  2  0  0  0
 77146  1  0  0  0
 78147  1  0  0  0
 79 82  1  0  0  0
 79 83  2  0  0  0
 80 81  1  0  0  0
 80148  1  0  0  0
 80149  1  0  0  0
 80150  1  0  0  0
 81151  1  0  0  0
 81152  1  0  0  0
 82153  1  0  0  0
 82154  1  0  0  0
M  ISO  4   1 100  68 101  78 100  82 101
M  END
> <chiral flag>
0

> <version>
0

> <s_m_source_file>
/data/baiqing/PycharmProjects/Reinvent-master-3.2/result/LINK_invent/BTK/process_docking_weight1_custom_product_contain_oxygen_bond_distance_aromatic_linkinvent_7_9_3/rearranged_h_0121.sdf

> <i_m_source_file_index>
26

> <r_mmod_Potential_Energy-OPLS-2005>
464.048950195312

> <r_mmod_Stretch_Energy-OPLS-2005>
197.161865234375

> <r_mmod_Bend_Energy-OPLS-2005>
223.025527954102

> <r_mmod_Torsional_Energy-OPLS-2005>
236.517486572266

> <r_mmod_Improper_Torsional_Energy-OPLS-2005>
6.45172500610352

> <r_mmod_Van_der_Waal_Energy-OPLS-2005>
137.214630126953

> <r_mmod_Electrostatic_Energy-OPLS-2005>
-276.140808105469

> <r_mmod_Solvation_Energy-OPLS-2005>
-210.606246948242

> <b_mmod_Minimization_Converged-OPLS-2005>
0

> <r_mmod_RMS_Derivative-OPLS-2005>
1.90051257610321

$$$$
26
                    3D
 Structure written by MMmdl.
162170  0  0  1  0            999 V2000
  -30.7382  -14.4533   20.4216 C   0  0  0  0  0  0
  -30.4214  -12.2312   19.4509 C   0  0  0  0  0  0
  -29.4814  -12.2665   18.2236 C   0  0  0  0  0  0
  -27.9957  -12.2830   18.6301 C   0  0  0  0  0  0
  -27.6518  -13.2018   19.8346 C   0  0  2  0  0  0
  -28.7020  -13.0869   20.9577 C   0  0  0  0  0  0
  -25.2615  -13.8184   20.5695 C   0  0  0  0  0  0
  -24.1857  -13.0470   20.9210 C   0  0  0  0  0  0
  -24.6399  -11.6933   20.8795 C   0  0  0  0  0  0
  -23.9070  -10.4311   21.0442 C   0  0  0  0  0  0
  -24.3626   -9.4214   21.9200 C   0  0  0  0  0  0
  -23.6305   -8.2249   22.0755 C   0  0  0  0  0  0
  -22.4285   -8.0299   21.3548 C   0  0  0  0  0  0
  -21.9928   -9.0274   20.4646 C   0  0  0  0  0  0
  -22.7256  -10.2156   20.3073 C   0  0  0  0  0  0
  -21.6854   -6.0757   22.5288 C   0  0  0  0  0  0
  -21.4015   -6.5659   23.8224 C   0  0  0  0  0  0
  -21.3643   -5.6806   24.9182 C   0  0  0  0  0  0
  -21.6036   -4.3071   24.7230 C   0  0  0  0  0  0
  -21.8817   -3.8168   23.4352 C   0  0  0  0  0  0
  -21.9196   -4.6985   22.3409 C   0  0  0  0  0  0
  -22.7874  -13.5258   21.1859 C   0  0  0  0  0  0
  -22.1661   -4.2169   21.0986 F   0  0  0  0  0  0
  -21.5614   -3.4553   25.7742 F   0  0  0  0  0  0
  -30.0348  -13.2955   20.3825 N   0  0  0  0  0  0
  -26.3013  -12.9339   20.3295 N   0  0  0  0  0  0
  -25.9325  -11.6521   20.5872 N   0  0  0  0  0  0
  -22.0516  -12.8233   22.0405 N   0  0  0  0  0  0
  -25.4396  -15.1893   20.4106 N   0  0  0  0  0  0
  -31.9601  -14.5113   20.2999 O   0  0  0  0  0  0
  -21.6640   -6.8905   21.4254 O   0  0  0  0  0  0
  -22.3547  -14.5558   20.6705 O   0  0  0  0  0  0
  -24.6069  -31.8744   23.2167 C   0  0  0  0  0  0
  -25.8999  -32.4856   23.8440 C   0  0  1  0  0  0
  -27.2403  -27.4975   20.0991 C   0  0  0  0  0  0
  -25.5893  -33.8653   24.2385 N   0  0  0  0  0  0
  -23.3918  -30.4978   21.5550 C   0  0  2  0  0  0
  -24.8397  -28.9708   20.1202 C   0  0  0  0  0  0
  -22.7373  -29.4677   22.5025 C   0  0  0  0  0  0
  -18.0263  -28.1372   22.8490 C   0  0  0  0  0  0
  -24.1483  -36.7323   23.2632 C   0  0  0  0  0  0
  -25.9139  -30.8575   21.3625 C   0  0  0  0  0  0
  -25.9922  -29.4941   20.7180 C   0  0  0  0  0  0
  -27.1934  -28.7613   20.7111 C   0  0  0  0  0  0
  -26.0726  -26.9742   19.4922 C   0  0  0  0  0  0
  -24.8699  -27.7050   19.5085 C   0  0  0  0  0  0
  -23.5987  -29.8303   20.1691 C   0  0  0  0  0  0
  -25.4097  -36.3138   24.0349 C   0  0  1  0  0  0
  -20.5848  -28.3642   23.1343 C   0  0  2  0  0  0
  -20.6757  -26.9385   22.5424 C   0  0  0  0  0  0
  -19.5745  -26.6383   21.5208 C   0  0  0  0  0  0
  -18.1918  -26.7926   22.1612 C   0  0  0  0  0  0
  -19.1509  -28.8826   23.2914 C   0  0  0  0  0  0
  -18.9440  -30.1435   23.8920 C   0  0  0  0  0  0
  -17.6445  -30.6579   24.0562 C   0  0  0  0  0  0
  -25.9018  -34.9493   23.5160 C   0  0  0  0  0  0
  -16.5337  -29.9084   23.6319 C   0  0  0  0  0  0
  -16.7251  -28.6501   23.0339 C   0  0  0  0  0  0
  -26.4459  -31.6606   25.0730 C   0  0  0  0  0  0
  -25.3745  -31.3700   26.1497 C   0  0  0  0  0  0
  -27.0255  -30.3054   24.6046 C   0  0  0  0  0  0
  -27.6070  -32.4289   25.7474 C   0  0  0  0  0  0
  -27.5591  -37.1807   24.8461 C   0  0  0  0  0  0
  -21.4110  -29.3022   22.3761 N   0  0  0  0  0  0
  -26.4297  -37.3811   23.9415 N   0  0  0  0  0  0
  -24.6550  -31.0899   22.1040 N   0  0  0  0  0  0
  -23.4177  -28.8209   23.3030 O   0  0  0  0  0  0
  -28.4419  -26.8388   20.0802 O   0  0  0  0  0  0
  -26.5562  -34.8932   22.4711 O   0  0  0  0  0  0
  -23.5279  -32.1473   23.7604 O   0  0  0  0  0  0
  -29.4129  -16.9365   17.9152 C   0  0  0  0  0  0
  -29.8016  -15.7579   18.5454 C   0  0  0  0  0  0
  -29.5216  -18.0840   20.0538 C   0  0  0  0  0  0
  -29.3146  -18.1179   18.6533 C   0  0  0  0  0  0
  -30.0382  -15.6908   19.9315 C   0  0  0  0  0  0
  -29.8673  -16.8707   20.7068 C   0  0  0  0  0  0
  -29.1947  -19.3250   17.8404 C   0  0  0  0  0  0
  -29.7139  -20.5277   18.1231 C   0  0  0  0  0  0
  -28.9364  -24.8575   18.9570 C   0  0  0  0  0  0
  -29.5160  -22.9979   17.6115 C   0  0  0  0  0  0
  -28.4028  -25.4852   20.0092 C   0  0  0  0  0  0
  -28.8740  -23.4306   18.7197 C   0  0  0  0  0  0
  -29.5948  -21.6123   17.1386 C   0  0  0  0  0  0
  -28.0840  -22.5213   19.6626 C   0  0  0  0  0  0
  -31.5586  -17.3621   22.5313 C   0  0  0  0  0  0
  -30.1356  -16.8931   22.2057 C   0  0  0  0  0  0
  -29.5850  -21.3775   15.9263 O   0  0  0  0  0  0
  -31.4610  -12.3122   19.1280 H   0  0  0  0  0  0
  -30.3411  -11.2701   19.9611 H   0  0  0  0  0  0
  -29.6618  -11.3673   17.6329 H   0  0  0  0  0  0
  -29.7080  -13.0600   17.5266 H   0  0  0  0  0  0
  -27.7457  -11.2522   18.8807 H   0  0  0  0  0  0
  -27.3697  -12.5326   17.7723 H   0  0  0  0  0  0
  -27.6661  -14.2245   19.4619 H   0  0  0  0  0  0
  -28.6581  -12.1039   21.4286 H   0  0  0  0  0  0
  -28.5022  -13.8172   21.7430 H   0  0  0  0  0  0
  -25.2771   -9.5683   22.4771 H   0  0  0  0  0  0
  -24.0016   -7.4634   22.7464 H   0  0  0  0  0  0
  -21.0865   -8.8811   19.8939 H   0  0  0  0  0  0
  -22.3732  -10.9709   19.6190 H   0  0  0  0  0  0
  -21.2012   -7.6169   23.9737 H   0  0  0  0  0  0
  -21.1450   -6.0533   25.9083 H   0  0  0  0  0  0
  -22.0605   -2.7631   23.2852 H   0  0  0  0  0  0
  -22.4128  -11.9877   22.4764 H   0  0  0  0  0  0
  -21.1141  -13.1261   22.2635 H   0  0  0  0  0  0
  -24.6864  -15.8586   20.5260 H   0  0  0  0  0  0
  -26.3118  -15.6173   20.1217 H   0  0  0  0  0  0
  -26.7063  -32.5607   23.1205 H   0  0  0  0  0  0
  -25.0099  -33.9824   25.0568 H   0  0  0  0  0  0
  -22.6757  -31.3110   21.4188 H   0  0  0  0  0  0
  -23.3753  -35.9651   23.3306 H   0  0  0  0  0  0
  -24.3584  -36.8911   22.2041 H   0  0  0  0  0  0
  -23.7222  -37.6531   23.6619 H   0  0  0  0  0  0
  -26.0156  -31.6210   20.5904 H   0  0  0  0  0  0
  -26.8060  -30.9172   21.9734 H   0  0  0  0  0  0
  -28.0875  -29.1650   21.1653 H   0  0  0  0  0  0
  -26.0854  -26.0138   18.9976 H   0  0  0  0  0  0
  -23.9845  -27.2967   19.0416 H   0  0  0  0  0  0
  -23.7045  -30.6043   19.4083 H   0  0  0  0  0  0
  -22.7257  -29.2450   19.8745 H   0  0  0  0  0  0
  -25.1264  -36.2022   25.0844 H   0  0  0  0  0  0
  -20.9938  -28.3201   24.1463 H   0  0  0  0  0  0
  -20.5659  -26.2237   23.3594 H   0  0  0  0  0  0
  -21.6629  -26.7441   22.1216 H   0  0  0  0  0  0
  -19.6903  -25.6298   21.1221 H   0  0  0  0  0  0
  -19.6700  -27.3200   20.6741 H   0  0  0  0  0  0
  -17.4191  -26.6675   21.4010 H   0  0  0  0  0  0
  -18.0317  -26.0065   22.9007 H   0  0  0  0  0  0
  -19.7913  -30.7244   24.2303 H   0  0  0  0  0  0
  -17.4999  -31.6262   24.5157 H   0  0  0  0  0  0
  -15.5337  -30.2987   23.7640 H   0  0  0  0  0  0
  -15.8649  -28.0826   22.7041 H   0  0  0  0  0  0
  -24.5931  -30.7022   25.7857 H   0  0  0  0  0  0
  -24.8908  -32.2841   26.4953 H   0  0  0  0  0  0
  -25.8124  -30.8889   27.0250 H   0  0  0  0  0  0
  -26.2767  -29.6853   24.1109 H   0  0  0  0  0  0
  -27.4048  -29.7261   25.4473 H   0  0  0  0  0  0
  -27.8599  -30.4382   23.9157 H   0  0  0  0  0  0
  -27.2734  -33.3584   26.2106 H   0  0  0  0  0  0
  -28.3856  -32.6852   25.0273 H   0  0  0  0  0  0
  -28.0765  -31.8366   26.5340 H   0  0  0  0  0  0
  -28.2609  -38.0105   24.7531 H   0  0  0  0  0  0
  -28.1086  -36.2642   24.6254 H   0  0  0  0  0  0
  -27.2316  -37.1426   25.8865 H   0  0  0  0  0  0
  -20.9259  -29.8752   21.7000 H   0  0  0  0  0  0
  -26.0204  -38.2896   24.1426 H   0  0  0  0  0  0
  -29.3127  -16.9460   16.8386 H   0  0  0  0  0  0
  -30.0449  -14.9366   17.9068 H   0  0  0  0  0  0
  -29.4665  -19.0008   20.6256 H   0  0  0  0  0  0
  -28.6486  -19.2061   16.9141 H   0  0  0  0  0  0
  -30.2460  -20.7191   19.0433 H   0  0  0  0  0  0
  -29.4222  -25.4862   18.2224 H   0  0  0  0  0  0
  -30.0265  -23.7143   16.9831 H   0  0  0  0  0  0
  -27.8914  -25.0372   20.8502 H   0  0  0  0  0  0
  -27.3324  -23.0576   20.2390 H   0  0  0  0  0  0
  -28.7497  -22.0242   20.3686 H   0  0  0  0  0  0
  -27.5322  -21.7629   19.1079 H   0  0  0  0  0  0
  -31.7399  -17.3375   23.6062 H   0  0  0  0  0  0
  -31.7203  -18.3848   22.1898 H   0  0  0  0  0  0
  -32.3071  -16.7286   22.0540 H   0  0  0  0  0  0
  -29.9546  -15.9107   22.6422 H   0  0  0  0  0  0
  -29.4155  -17.5584   22.6838 H   0  0  0  0  0  0
  1 25  1  0  0  0
  1 30  2  0  0  0
  1 75  1  0  0  0
  2  3  1  0  0  0
  2 25  1  0  0  0
  2 88  1  0  0  0
  2 89  1  0  0  0
  3  4  1  0  0  0
  3 90  1  0  0  0
  3 91  1  0  0  0
  4  5  1  0  0  0
  4 92  1  0  0  0
  4 93  1  0  0  0
  5  6  1  0  0  0
  5 26  1  0  0  0
  5 94  1  0  0  0
  6 25  1  0  0  0
  6 95  1  0  0  0
  6 96  1  0  0  0
  7  8  2  0  0  0
  7 26  1  0  0  0
  7 29  1  0  0  0
  8  9  1  0  0  0
  8 22  1  0  0  0
  9 10  1  0  0  0
  9 27  2  0  0  0
 10 11  2  0  0  0
 10 15  1  0  0  0
 11 12  1  0  0  0
 11 97  1  0  0  0
 12 13  2  0  0  0
 12 98  1  0  0  0
 13 14  1  0  0  0
 13 31  1  0  0  0
 14 15  2  0  0  0
 14 99  1  0  0  0
 15100  1  0  0  0
 16 17  2  0  0  0
 16 21  1  0  0  0
 16 31  1  0  0  0
 17 18  1  0  0  0
 17101  1  0  0  0
 18 19  2  0  0  0
 18102  1  0  0  0
 19 20  1  0  0  0
 19 24  1  0  0  0
 20 21  2  0  0  0
 20103  1  0  0  0
 21 23  1  0  0  0
 22 28  1  0  0  0
 22 32  2  0  0  0
 26 27  1  0  0  0
 28104  1  0  0  0
 28105  1  0  0  0
 29106  1  0  0  0
 29107  1  0  0  0
 33 34  1  0  0  0
 33 66  1  0  0  0
 33 70  2  0  0  0
 34 36  1  0  0  0
 34 59  1  0  0  0
 34108  1  0  0  0
 35 44  2  0  0  0
 35 45  1  0  0  0
 35 68  1  0  0  0
 36 56  1  0  0  0
 36109  1  0  0  0
 37 39  1  0  0  0
 37 47  1  0  0  0
 37 66  1  0  0  0
 37110  1  0  0  0
 38 43  2  0  0  0
 38 46  1  0  0  0
 38 47  1  0  0  0
 39 64  1  0  0  0
 39 67  2  0  0  0
 40 52  1  0  0  0
 40 53  2  0  0  0
 40 58  1  0  0  0
 41111  1  0  0  0
 41112  1  0  0  0
 41113  1  0  0  0
 41 48  1  0  0  0
 42 43  1  0  0  0
 42 66  1  0  0  0
 42114  1  0  0  0
 42115  1  0  0  0
 43 44  1  0  0  0
 44116  1  0  0  0
 45 46  2  0  0  0
 45117  1  0  0  0
 46118  1  0  0  0
 47119  1  0  0  0
 47120  1  0  0  0
 48 56  1  0  0  0
 48 65  1  0  0  0
 48121  1  0  0  0
 49 50  1  0  0  0
 49 53  1  0  0  0
 49 64  1  0  0  0
 49122  1  0  0  0
 50 51  1  0  0  0
 50123  1  0  0  0
 50124  1  0  0  0
 51 52  1  0  0  0
 51125  1  0  0  0
 51126  1  0  0  0
 52127  1  0  0  0
 52128  1  0  0  0
 53 54  1  0  0  0
 54 55  2  0  0  0
 54129  1  0  0  0
 55 57  1  0  0  0
 55130  1  0  0  0
 56 69  2  0  0  0
 57 58  2  0  0  0
 57131  1  0  0  0
 58132  1  0  0  0
 59 60  1  0  0  0
 59 61  1  0  0  0
 59 62  1  0  0  0
 60133  1  0  0  0
 60134  1  0  0  0
 60135  1  0  0  0
 61136  1  0  0  0
 61137  1  0  0  0
 61138  1  0  0  0
 62139  1  0  0  0
 62140  1  0  0  0
 62141  1  0  0  0
 63 65  1  0  0  0
 63142  1  0  0  0
 63143  1  0  0  0
 63144  1  0  0  0
 64145  1  0  0  0
 65146  1  0  0  0
 68 81  1  0  0  0
 71 72  2  0  0  0
 71 74  1  0  0  0
 71147  1  0  0  0
 72 75  1  0  0  0
 72148  1  0  0  0
 73 74  2  0  0  0
 73 76  1  0  0  0
 73149  1  0  0  0
 74 77  1  0  0  0
 75 76  2  0  0  0
 76 86  1  0  0  0
 77 78  2  0  0  0
 77150  1  0  0  0
 78 83  1  0  0  0
 78151  1  0  0  0
 79 81  2  0  0  0
 79 82  1  0  0  0
 79152  1  0  0  0
 80 82  2  0  0  0
 80 83  1  0  0  0
 80153  1  0  0  0
 81154  1  0  0  0
 82 84  1  0  0  0
 83 87  2  0  0  0
 84155  1  0  0  0
 84156  1  0  0  0
 84157  1  0  0  0
 85 86  1  0  0  0
 85158  1  0  0  0
 85159  1  0  0  0
 85160  1  0  0  0
 86161  1  0  0  0
 86162  1  0  0  0
M  ISO  4   1 100  68 101  75 100  81 101
M  END
> <chiral flag>
0

> <version>
0

> <s_m_source_file>
/data/baiqing/PycharmProjects/Reinvent-master-3.2/result/LINK_invent/BTK/process_docking_weight1_custom_product_contain_oxygen_bond_distance_aromatic_linkinvent_7_9_3/rearranged_h_0121.sdf

> <i_m_source_file_index>
27

> <r_mmod_Potential_Energy-OPLS-2005>
155.506896972656

> <r_mmod_Stretch_Energy-OPLS-2005>
31.8237571716309

> <r_mmod_Bend_Energy-OPLS-2005>
113.805130004883

> <r_mmod_Torsional_Energy-OPLS-2005>
260.477600097656

> <r_mmod_Improper_Torsional_Energy-OPLS-2005>
24.1243648529053

> <r_mmod_Van_der_Waal_Energy-OPLS-2005>
167.350250244141

> <r_mmod_Electrostatic_Energy-OPLS-2005>
-287.899780273438

> <r_mmod_Solvation_Energy-OPLS-2005>
-192.401123046875

> <b_mmod_Minimization_Converged-OPLS-2005>
0

> <r_mmod_RMS_Derivative-OPLS-2005>
1.53921186923981

$$$$
27
                    3D
 Structure written by MMmdl.
156164  0  0  1  0            999 V2000
  -30.6436  -14.6634   20.4749 C   0  0  0  0  0  0
  -30.4405  -12.4050   19.4525 C   0  0  0  0  0  0
  -29.5079  -12.5073   18.2250 C   0  0  0  0  0  0
  -28.0318  -12.3440   18.6400 C   0  0  0  0  0  0
  -27.6482  -13.2190   19.8634 C   0  0  2  0  0  0
  -28.7043  -13.1030   20.9882 C   0  0  0  0  0  0
  -25.2374  -13.7993   20.5628 C   0  0  0  0  0  0
  -24.1732  -13.0271   20.9246 C   0  0  0  0  0  0
  -24.6388  -11.6797   20.8795 C   0  0  0  0  0  0
  -23.9069  -10.4206   21.0424 C   0  0  0  0  0  0
  -24.3617   -9.4138   21.9204 C   0  0  0  0  0  0
  -23.6273   -8.2191   22.0767 C   0  0  0  0  0  0
  -22.4259   -8.0250   21.3545 C   0  0  0  0  0  0
  -21.9897   -9.0227   20.4648 C   0  0  0  0  0  0
  -22.7246  -10.2087   20.3062 C   0  0  0  0  0  0
  -21.6836   -6.0720   22.5279 C   0  0  0  0  0  0
  -21.4010   -6.5629   23.8211 C   0  0  0  0  0  0
  -21.3654   -5.6782   24.9171 C   0  0  0  0  0  0
  -21.6042   -4.3045   24.7220 C   0  0  0  0  0  0
  -21.8822   -3.8133   23.4343 C   0  0  0  0  0  0
  -21.9188   -4.6951   22.3400 C   0  0  0  0  0  0
  -22.7760  -13.5096   21.1873 C   0  0  0  0  0  0
  -22.1659   -4.2142   21.0973 F   0  0  0  0  0  0
  -21.5625   -3.4527   25.7732 F   0  0  0  0  0  0
  -30.0184  -13.4418   20.4135 N   0  0  0  0  0  0
  -26.2941  -12.9302   20.3342 N   0  0  0  0  0  0
  -25.9338  -11.6453   20.5833 N   0  0  0  0  0  0
  -22.0393  -12.8146   22.0452 N   0  0  0  0  0  0
  -25.3621  -15.1652   20.3823 N   0  0  0  0  0  0
  -31.8221  -14.7983   20.1349 O   0  0  0  0  0  0
  -21.6613   -6.8860   21.4241 O   0  0  0  0  0  0
  -22.3477  -14.5408   20.6697 O   0  0  0  0  0  0
  -24.6246  -31.8607   23.2039 C   0  0  0  0  0  0
  -25.9097  -32.4782   23.8371 C   0  0  1  0  0  0
  -27.2370  -27.3366   20.1043 C   0  0  0  0  0  0
  -25.5916  -33.8579   24.2300 N   0  0  0  0  0  0
  -23.4191  -30.4840   21.5459 C   0  0  2  0  0  0
  -24.8674  -28.9414   20.1127 C   0  0  0  0  0  0
  -22.7473  -29.4618   22.4930 C   0  0  0  0  0  0
  -18.0292  -28.1383   22.8481 C   0  0  0  0  0  0
  -24.1491  -36.7296   23.2636 C   0  0  0  0  0  0
  -25.9598  -30.7951   21.3752 C   0  0  0  0  0  0
  -26.0362  -29.4242   20.7158 C   0  0  0  0  0  0
  -27.2221  -28.6330   20.7038 C   0  0  0  0  0  0
  -26.0402  -26.9024   19.4845 C   0  0  0  0  0  0
  -24.8700  -27.6843   19.4921 C   0  0  0  0  0  0
  -23.6355  -29.8211   20.1607 C   0  0  0  0  0  0
  -25.4107  -36.3081   24.0337 C   0  0  1  0  0  0
  -20.5888  -28.3686   23.1273 C   0  0  2  0  0  0
  -20.6780  -26.9410   22.5400 C   0  0  0  0  0  0
  -19.5754  -26.6382   21.5202 C   0  0  0  0  0  0
  -18.1938  -26.7925   22.1624 C   0  0  0  0  0  0
  -19.1542  -28.8851   23.2876 C   0  0  0  0  0  0
  -18.9467  -30.1453   23.8896 C   0  0  0  0  0  0
  -17.6466  -30.6581   24.0563 C   0  0  0  0  0  0
  -25.9044  -34.9449   23.5120 C   0  0  0  0  0  0
  -16.5358  -29.9080   23.6326 C   0  0  0  0  0  0
  -16.7278  -28.6498   23.0345 C   0  0  0  0  0  0
  -26.4493  -31.6582   25.0730 C   0  0  0  0  0  0
  -25.3738  -31.3725   26.1472 C   0  0  0  0  0  0
  -27.0331  -30.3008   24.6174 C   0  0  0  0  0  0
  -27.6080  -32.4299   25.7474 C   0  0  0  0  0  0
  -27.5586  -37.1789   24.8456 C   0  0  0  0  0  0
  -21.4186  -29.3041   22.3670 N   0  0  0  0  0  0
  -26.4284  -37.3776   23.9419 N   0  0  0  0  0  0
  -24.6865  -31.0625   22.0992 N   0  0  0  0  0  0
  -23.4199  -28.8153   23.3007 O   0  0  0  0  0  0
  -28.3696  -26.5070   20.1400 O   0  0  0  0  0  0
  -26.5610  -34.8910   22.4685 O   0  0  0  0  0  0
  -23.5410  -32.1399   23.7370 O   0  0  0  0  0  0
  -31.2314  -19.3421   20.7370 C   0  0  0  0  0  0
  -31.1867  -17.9127   20.7971 C   0  0  0  0  0  0
  -28.9087  -19.4207   20.1753 C   0  0  0  0  0  0
  -30.0906  -20.1437   20.4443 C   0  0  0  0  0  0
  -28.8516  -17.9994   20.2369 C   0  0  0  0  0  0
  -29.9844  -17.1923   20.5655 C   0  0  0  0  0  0
  -30.1510  -21.6646   20.4451 C   0  0  0  0  0  0
  -29.1706  -22.5917   20.1853 C   0  0  0  0  0  0
  -29.3556  -24.1004   20.2574 C   0  0  0  0  0  0
  -27.4346  -16.9071   18.4617 C   0  0  0  0  0  0
  -27.5188  -17.3648   19.9252 C   0  0  0  0  0  0
  -28.1623  -25.0626   19.8954 C   0  0  0  0  0  0
  -29.8295  -15.7374   20.7234 N   0  0  0  0  0  0
  -30.4317  -24.6033   20.5982 O   0  0  0  0  0  0
  -31.4814  -12.5248   19.1462 H   0  0  0  0  0  0
  -30.3740  -11.4158   19.9091 H   0  0  0  0  0  0
  -29.7725  -11.7495   17.4861 H   0  0  0  0  0  0
  -29.6469  -13.4739   17.7361 H   0  0  0  0  0  0
  -27.8744  -11.2909   18.8788 H   0  0  0  0  0  0
  -27.3764  -12.5648   17.7967 H   0  0  0  0  0  0
  -27.6503  -14.2487   19.5135 H   0  0  0  0  0  0
  -28.7215  -12.0900   21.3936 H   0  0  0  0  0  0
  -28.4551  -13.7559   21.8259 H   0  0  0  0  0  0
  -25.2763   -9.5610   22.4781 H   0  0  0  0  0  0
  -23.9963   -7.4579   22.7491 H   0  0  0  0  0  0
  -21.0822   -8.8766   19.8956 H   0  0  0  0  0  0
  -22.3730  -10.9636   19.6169 H   0  0  0  0  0  0
  -21.2014   -7.6143   23.9714 H   0  0  0  0  0  0
  -21.1466   -6.0510   25.9073 H   0  0  0  0  0  0
  -22.0609   -2.7594   23.2844 H   0  0  0  0  0  0
  -22.3983  -11.9817   22.4878 H   0  0  0  0  0  0
  -21.1018  -13.1213   22.2635 H   0  0  0  0  0  0
  -24.5451  -15.7650   20.4260 H   0  0  0  0  0  0
  -26.1364  -15.5875   19.8903 H   0  0  0  0  0  0
  -26.7167  -32.5465   23.1125 H   0  0  0  0  0  0
  -25.0062  -33.9730   25.0445 H   0  0  0  0  0  0
  -22.7123  -31.3041   21.4031 H   0  0  0  0  0  0
  -23.3750  -35.9630   23.3278 H   0  0  0  0  0  0
  -24.3603  -36.8930   22.2056 H   0  0  0  0  0  0
  -23.7238  -37.6492   23.6666 H   0  0  0  0  0  0
  -26.0916  -31.5610   20.6097 H   0  0  0  0  0  0
  -26.8391  -30.8421   22.0056 H   0  0  0  0  0  0
  -28.1187  -28.9996   21.1843 H   0  0  0  0  0  0
  -25.9777  -25.9458   18.9882 H   0  0  0  0  0  0
  -23.9741  -27.3081   19.0158 H   0  0  0  0  0  0
  -23.7578  -30.5995   19.4066 H   0  0  0  0  0  0
  -22.7561  -29.2520   19.8539 H   0  0  0  0  0  0
  -25.1277  -36.1941   25.0828 H   0  0  0  0  0  0
  -20.9985  -28.3268   24.1394 H   0  0  0  0  0  0
  -20.5678  -26.2301   23.3601 H   0  0  0  0  0  0
  -21.6652  -26.7436   22.1197 H   0  0  0  0  0  0
  -19.6915  -25.6293   21.1233 H   0  0  0  0  0  0
  -19.6684  -27.3190   20.6730 H   0  0  0  0  0  0
  -17.4201  -26.6655   21.4039 H   0  0  0  0  0  0
  -18.0351  -26.0070   22.9023 H   0  0  0  0  0  0
  -19.7945  -30.7268   24.2266 H   0  0  0  0  0  0
  -17.5021  -31.6262   24.5164 H   0  0  0  0  0  0
  -15.5359  -30.2984   23.7640 H   0  0  0  0  0  0
  -15.8682  -28.0814   22.7058 H   0  0  0  0  0  0
  -24.5876  -30.7117   25.7799 H   0  0  0  0  0  0
  -24.8977  -32.2898   26.4949 H   0  0  0  0  0  0
  -25.8060  -30.8848   27.0218 H   0  0  0  0  0  0
  -26.2899  -29.6746   24.1224 H   0  0  0  0  0  0
  -27.4066  -29.7276   25.4669 H   0  0  0  0  0  0
  -27.8756  -30.4303   23.9376 H   0  0  0  0  0  0
  -27.2733  -33.3612   26.2053 H   0  0  0  0  0  0
  -28.3878  -32.6822   25.0276 H   0  0  0  0  0  0
  -28.0757  -31.8414   26.5377 H   0  0  0  0  0  0
  -28.2569  -38.0120   24.7548 H   0  0  0  0  0  0
  -28.1115  -36.2655   24.6213 H   0  0  0  0  0  0
  -27.2319  -37.1353   25.8860 H   0  0  0  0  0  0
  -20.9362  -29.8791   21.6901 H   0  0  0  0  0  0
  -26.0166  -38.2845   24.1443 H   0  0  0  0  0  0
  -32.1730  -19.8331   20.9404 H   0  0  0  0  0  0
  -32.0891  -17.3769   21.0553 H   0  0  0  0  0  0
  -28.0084  -19.9646   19.9282 H   0  0  0  0  0  0
  -31.1237  -22.0611   20.7042 H   0  0  0  0  0  0
  -28.1822  -22.2528   19.9139 H   0  0  0  0  0  0
  -26.4579  -16.4848   18.2283 H   0  0  0  0  0  0
  -28.1904  -16.1566   18.2303 H   0  0  0  0  0  0
  -27.5913  -17.7473   17.7847 H   0  0  0  0  0  0
  -26.7116  -18.0680   20.1387 H   0  0  0  0  0  0
  -27.3851  -16.5477   20.6266 H   0  0  0  0  0  0
  -27.2953  -24.7236   20.4634 H   0  0  0  0  0  0
  -27.9324  -24.9161   18.8399 H   0  0  0  0  0  0
  -28.8832  -15.4443   20.9062 H   0  0  0  0  0  0
  1 25  1  0  0  0
  1 30  2  0  0  0
  1 83  1  0  0  0
  2  3  1  0  0  0
  2 25  1  0  0  0
  2 85  1  0  0  0
  2 86  1  0  0  0
  3  4  1  0  0  0
  3 87  1  0  0  0
  3 88  1  0  0  0
  4  5  1  0  0  0
  4 89  1  0  0  0
  4 90  1  0  0  0
  5  6  1  0  0  0
  5 26  1  0  0  0
  5 91  1  0  0  0
  6 25  1  0  0  0
  6 92  1  0  0  0
  6 93  1  0  0  0
  7  8  2  0  0  0
  7 26  1  0  0  0
  7 29  1  0  0  0
  8  9  1  0  0  0
  8 22  1  0  0  0
  9 10  1  0  0  0
  9 27  2  0  0  0
 10 11  2  0  0  0
 10 15  1  0  0  0
 11 12  1  0  0  0
 11 94  1  0  0  0
 12 13  2  0  0  0
 12 95  1  0  0  0
 13 14  1  0  0  0
 13 31  1  0  0  0
 14 15  2  0  0  0
 14 96  1  0  0  0
 15 97  1  0  0  0
 16 17  2  0  0  0
 16 21  1  0  0  0
 16 31  1  0  0  0
 17 18  1  0  0  0
 17 98  1  0  0  0
 18 19  2  0  0  0
 18 99  1  0  0  0
 19 20  1  0  0  0
 19 24  1  0  0  0
 20 21  2  0  0  0
 20100  1  0  0  0
 21 23  1  0  0  0
 22 28  1  0  0  0
 22 32  2  0  0  0
 26 27  1  0  0  0
 28101  1  0  0  0
 28102  1  0  0  0
 29103  1  0  0  0
 29104  1  0  0  0
 33 34  1  0  0  0
 33 66  1  0  0  0
 33 70  2  0  0  0
 34 36  1  0  0  0
 34 59  1  0  0  0
 34105  1  0  0  0
 35 44  2  0  0  0
 35 45  1  0  0  0
 35 68  1  0  0  0
 36 56  1  0  0  0
 36106  1  0  0  0
 37 39  1  0  0  0
 37 47  1  0  0  0
 37 66  1  0  0  0
 37107  1  0  0  0
 38 43  2  0  0  0
 38 46  1  0  0  0
 38 47  1  0  0  0
 39 64  1  0  0  0
 39 67  2  0  0  0
 40 52  1  0  0  0
 40 53  2  0  0  0
 40 58  1  0  0  0
 41108  1  0  0  0
 41109  1  0  0  0
 41110  1  0  0  0
 41 48  1  0  0  0
 42 43  1  0  0  0
 42 66  1  0  0  0
 42111  1  0  0  0
 42112  1  0  0  0
 43 44  1  0  0  0
 44113  1  0  0  0
 45 46  2  0  0  0
 45114  1  0  0  0
 46115  1  0  0  0
 47116  1  0  0  0
 47117  1  0  0  0
 48 56  1  0  0  0
 48 65  1  0  0  0
 48118  1  0  0  0
 49 50  1  0  0  0
 49 53  1  0  0  0
 49 64  1  0  0  0
 49119  1  0  0  0
 50 51  1  0  0  0
 50120  1  0  0  0
 50121  1  0  0  0
 51 52  1  0  0  0
 51122  1  0  0  0
 51123  1  0  0  0
 52124  1  0  0  0
 52125  1  0  0  0
 53 54  1  0  0  0
 54 55  2  0  0  0
 54126  1  0  0  0
 55 57  1  0  0  0
 55127  1  0  0  0
 56 69  2  0  0  0
 57 58  2  0  0  0
 57128  1  0  0  0
 58129  1  0  0  0
 59 60  1  0  0  0
 59 61  1  0  0  0
 59 62  1  0  0  0
 60130  1  0  0  0
 60131  1  0  0  0
 60132  1  0  0  0
 61133  1  0  0  0
 61134  1  0  0  0
 61135  1  0  0  0
 62136  1  0  0  0
 62137  1  0  0  0
 62138  1  0  0  0
 63 65  1  0  0  0
 63139  1  0  0  0
 63140  1  0  0  0
 63141  1  0  0  0
 64142  1  0  0  0
 65143  1  0  0  0
 68 82  1  0  0  0
 71 72  2  0  0  0
 71 74  1  0  0  0
 71144  1  0  0  0
 72 76  1  0  0  0
 72145  1  0  0  0
 73 74  2  0  0  0
 73 75  1  0  0  0
 73146  1  0  0  0
 74 77  1  0  0  0
 75 76  2  0  0  0
 75 81  1  0  0  0
 76 83  1  0  0  0
 77 78  2  0  0  0
 77147  1  0  0  0
 78 79  1  0  0  0
 78148  1  0  0  0
 79 82  1  0  0  0
 79 84  2  0  0  0
 80 81  1  0  0  0
 80149  1  0  0  0
 80150  1  0  0  0
 80151  1  0  0  0
 81152  1  0  0  0
 81153  1  0  0  0
 82154  1  0  0  0
 82155  1  0  0  0
 83156  1  0  0  0
M  ISO  4   1 100  68 101  82 101  83 100
M  END
> <chiral flag>
0

> <version>
0

> <s_m_source_file>
/data/baiqing/PycharmProjects/Reinvent-master-3.2/result/LINK_invent/BTK/process_docking_weight1_custom_product_contain_oxygen_bond_distance_aromatic_linkinvent_7_9_3/rearranged_h_0121.sdf

> <i_m_source_file_index>
28

> <r_mmod_Potential_Energy-OPLS-2005>
31.8995704650879

> <r_mmod_Stretch_Energy-OPLS-2005>
77.0539016723633

> <r_mmod_Bend_Energy-OPLS-2005>
127.921928405762

> <r_mmod_Torsional_Energy-OPLS-2005>
216.776718139648

> <r_mmod_Improper_Torsional_Energy-OPLS-2005>
6.49543905258179

> <r_mmod_Van_der_Waal_Energy-OPLS-2005>
146.129379272461

> <r_mmod_Electrostatic_Energy-OPLS-2005>
-364.775726318359

> <r_mmod_Solvation_Energy-OPLS-2005>
-227.465255737305

> <b_mmod_Minimization_Converged-OPLS-2005>
0

> <r_mmod_RMS_Derivative-OPLS-2005>
1.43183290958405

$$$$
28
                    3D
 Structure written by MMmdl.
163171  0  0  1  0            999 V2000
  -30.8475  -14.4825   20.5994 C   0  0  0  0  0  0
  -30.3812  -12.3341   19.4701 C   0  0  0  0  0  0
  -29.4799  -12.5030   18.2341 C   0  0  0  0  0  0
  -28.0106  -12.3355   18.6475 C   0  0  0  0  0  0
  -27.6416  -13.2137   19.8726 C   0  0  2  0  0  0
  -28.6987  -13.1389   21.0167 C   0  0  0  0  0  0
  -25.2239  -13.7886   20.5346 C   0  0  0  0  0  0
  -24.1663  -13.0234   20.9203 C   0  0  0  0  0  0
  -24.6361  -11.6780   20.8862 C   0  0  0  0  0  0
  -23.9053  -10.4204   21.0462 C   0  0  0  0  0  0
  -24.3599   -9.4117   21.9222 C   0  0  0  0  0  0
  -23.6257   -8.2177   22.0775 C   0  0  0  0  0  0
  -22.4233   -8.0254   21.3567 C   0  0  0  0  0  0
  -21.9890   -9.0222   20.4657 C   0  0  0  0  0  0
  -22.7243  -10.2079   20.3076 C   0  0  0  0  0  0
  -21.6827   -6.0722   22.5282 C   0  0  0  0  0  0
  -21.4005   -6.5627   23.8221 C   0  0  0  0  0  0
  -21.3654   -5.6779   24.9188 C   0  0  0  0  0  0
  -21.6042   -4.3044   24.7235 C   0  0  0  0  0  0
  -21.8819   -3.8143   23.4359 C   0  0  0  0  0  0
  -21.9179   -4.6954   22.3409 C   0  0  0  0  0  0
  -22.7693  -13.5055   21.1854 C   0  0  0  0  0  0
  -22.1649   -4.2157   21.0980 F   0  0  0  0  0  0
  -21.5629   -3.4520   25.7748 F   0  0  0  0  0  0
  -30.0355  -13.3847   20.4565 N   0  0  0  0  0  0
  -26.2905  -12.9260   20.3434 N   0  0  0  0  0  0
  -25.9339  -11.6431   20.6045 N   0  0  0  0  0  0
  -22.0349  -12.8118   22.0471 N   0  0  0  0  0  0
  -25.3347  -15.1445   20.2951 N   0  0  0  0  0  0
  -31.8630  -14.5914   19.9119 O   0  0  0  0  0  0
  -21.6593   -6.8861   21.4250 O   0  0  0  0  0  0
  -22.3385  -14.5378   20.6699 O   0  0  0  0  0  0
  -24.6142  -31.8636   23.2073 C   0  0  0  0  0  0
  -25.9027  -32.4776   23.8368 C   0  0  1  0  0  0
  -27.2271  -27.3833   20.1299 C   0  0  0  0  0  0
  -25.5879  -33.8587   24.2278 N   0  0  0  0  0  0
  -23.4023  -30.4834   21.5528 C   0  0  2  0  0  0
  -24.8487  -28.9437   20.1185 C   0  0  0  0  0  0
  -22.7366  -29.4626   22.5028 C   0  0  0  0  0  0
  -18.0257  -28.1309   22.8511 C   0  0  0  0  0  0
  -24.1500  -36.7307   23.2629 C   0  0  0  0  0  0
  -25.9369  -30.8086   21.3747 C   0  0  0  0  0  0
  -26.0088  -29.4446   20.7168 C   0  0  0  0  0  0
  -27.1973  -28.6738   20.7146 C   0  0  0  0  0  0
  -26.0427  -26.9038   19.5222 C   0  0  0  0  0  0
  -24.8628  -27.6758   19.5153 C   0  0  0  0  0  0
  -23.6076  -29.8080   20.1715 C   0  0  0  0  0  0
  -25.4122  -36.3078   24.0314 C   0  0  1  0  0  0
  -20.5834  -28.3598   23.1324 C   0  0  2  0  0  0
  -20.6749  -26.9329   22.5402 C   0  0  0  0  0  0
  -19.5740  -26.6344   21.5172 C   0  0  0  0  0  0
  -18.1911  -26.7875   22.1580 C   0  0  0  0  0  0
  -19.1497  -28.8778   23.2917 C   0  0  0  0  0  0
  -18.9434  -30.1406   23.8896 C   0  0  0  0  0  0
  -17.6437  -30.6544   24.0534 C   0  0  0  0  0  0
  -25.9043  -34.9441   23.5102 C   0  0  0  0  0  0
  -16.5336  -29.9015   23.6344 C   0  0  0  0  0  0
  -16.7247  -28.6420   23.0391 C   0  0  0  0  0  0
  -26.4442  -31.6604   25.0734 C   0  0  0  0  0  0
  -25.3679  -31.3738   26.1474 C   0  0  0  0  0  0
  -27.0278  -30.3019   24.6210 C   0  0  0  0  0  0
  -27.6040  -32.4345   25.7449 C   0  0  0  0  0  0
  -27.5597  -37.1779   24.8432 C   0  0  0  0  0  0
  -21.4098  -29.2989   22.3731 N   0  0  0  0  0  0
  -26.4297  -37.3776   23.9398 N   0  0  0  0  0  0
  -24.6691  -31.0685   22.1011 N   0  0  0  0  0  0
  -23.4112  -28.8195   23.3096 O   0  0  0  0  0  0
  -28.4097  -26.6594   20.1878 O   0  0  0  0  0  0
  -26.5614  -34.8889   22.4670 O   0  0  0  0  0  0
  -23.5336  -32.1440   23.7440 O   0  0  0  0  0  0
  -31.7735  -15.7253   22.5336 C   0  0  0  0  0  0
  -31.3582  -18.1016   22.9062 C   0  0  0  0  0  0
  -30.7220  -15.6350   21.5919 C   0  0  0  0  0  0
  -29.9288  -16.8149   21.3881 C   0  0  0  0  0  0
  -30.2610  -18.0554   22.0262 C   0  0  0  0  0  0
  -32.0917  -16.9338   23.1778 C   0  0  0  0  0  0
  -28.0016  -21.6235   22.5856 C   0  0  0  0  0  0
  -28.9591  -21.6769   21.6433 C   0  0  0  0  0  0
  -27.4461  -16.8981   21.4018 C   0  0  0  0  0  0
  -28.6970  -16.8162   20.5109 C   0  0  0  0  0  0
  -29.0654  -22.8349   20.6275 C   0  0  0  0  0  0
  -29.9920  -20.5373   21.4985 C   0  0  0  0  0  0
  -28.4317  -24.2277   20.9868 C   0  0  0  0  0  0
  -28.4980  -25.2617   19.8175 C   0  0  0  0  0  0
  -29.4592  -19.2077   21.8248 N   0  0  0  0  0  0
  -33.1399  -16.9777   24.0339 F   0  0  0  0  0  0
  -31.4306  -12.3435   19.1709 H   0  0  0  0  0  0
  -30.2331  -11.3500   19.9165 H   0  0  0  0  0  0
  -29.7418  -11.7696   17.4697 H   0  0  0  0  0  0
  -29.6395  -13.4854   17.7877 H   0  0  0  0  0  0
  -27.8452  -11.2821   18.8807 H   0  0  0  0  0  0
  -27.3561  -12.5682   17.8070 H   0  0  0  0  0  0
  -27.6214  -14.2223   19.4790 H   0  0  0  0  0  0
  -28.6723  -12.1545   21.4849 H   0  0  0  0  0  0
  -28.4710  -13.8645   21.7980 H   0  0  0  0  0  0
  -25.2754   -9.5588   22.4788 H   0  0  0  0  0  0
  -23.9958   -7.4554   22.7483 H   0  0  0  0  0  0
  -21.0835   -8.8750   19.8938 H   0  0  0  0  0  0
  -22.3737  -10.9618   19.6166 H   0  0  0  0  0  0
  -21.1996   -7.6127   23.9740 H   0  0  0  0  0  0
  -21.1464   -6.0498   25.9089 H   0  0  0  0  0  0
  -22.0593   -2.7610   23.2848 H   0  0  0  0  0  0
  -22.3959  -11.9787   22.4887 H   0  0  0  0  0  0
  -21.0976  -13.1175   22.2688 H   0  0  0  0  0  0
  -24.5432  -15.7705   20.3897 H   0  0  0  0  0  0
  -26.1829  -15.6101   20.0034 H   0  0  0  0  0  0
  -26.7081  -32.5422   23.1110 H   0  0  0  0  0  0
  -25.0022  -33.9804   25.0405 H   0  0  0  0  0  0
  -22.6932  -31.3014   21.4106 H   0  0  0  0  0  0
  -23.3757  -35.9636   23.3256 H   0  0  0  0  0  0
  -24.3615  -36.8997   22.2056 H   0  0  0  0  0  0
  -23.7275  -37.6498   23.6701 H   0  0  0  0  0  0
  -26.0736  -31.5763   20.6139 H   0  0  0  0  0  0
  -26.8120  -30.8443   22.0108 H   0  0  0  0  0  0
  -28.0900  -29.0597   21.1870 H   0  0  0  0  0  0
  -25.9861  -25.9326   19.0569 H   0  0  0  0  0  0
  -23.9654  -27.2816   19.0602 H   0  0  0  0  0  0
  -23.6949  -30.5746   19.4017 H   0  0  0  0  0  0
  -22.7317  -29.2163   19.8967 H   0  0  0  0  0  0
  -25.1298  -36.1932   25.0810 H   0  0  0  0  0  0
  -20.9936  -28.3143   24.1432 H   0  0  0  0  0  0
  -20.5629  -26.2164   23.3559 H   0  0  0  0  0  0
  -21.6636  -26.7370   22.1199 H   0  0  0  0  0  0
  -19.6912  -25.6253   21.1208 H   0  0  0  0  0  0
  -19.6709  -27.3146   20.6698 H   0  0  0  0  0  0
  -17.4183  -26.6640   21.3975 H   0  0  0  0  0  0
  -18.0325  -25.9958   22.8924 H   0  0  0  0  0  0
  -19.7914  -30.7233   24.2235 H   0  0  0  0  0  0
  -17.4990  -31.6240   24.5084 H   0  0  0  0  0  0
  -15.5341  -30.2903   23.7715 H   0  0  0  0  0  0
  -15.8633  -28.0747   22.7133 H   0  0  0  0  0  0
  -24.5938  -30.6957   25.7859 H   0  0  0  0  0  0
  -24.8707  -32.2863   26.4775 H   0  0  0  0  0  0
  -25.8029  -30.9072   27.0324 H   0  0  0  0  0  0
  -26.2865  -29.6758   24.1230 H   0  0  0  0  0  0
  -27.3956  -29.7309   25.4752 H   0  0  0  0  0  0
  -27.8730  -30.4288   23.9440 H   0  0  0  0  0  0
  -27.2710  -33.3676   26.2020 H   0  0  0  0  0  0
  -28.3817  -32.6901   25.0225 H   0  0  0  0  0  0
  -28.0727  -31.8460   26.5350 H   0  0  0  0  0  0
  -28.2574  -38.0108   24.7555 H   0  0  0  0  0  0
  -28.1167  -36.2670   24.6194 H   0  0  0  0  0  0
  -27.2334  -37.1343   25.8830 H   0  0  0  0  0  0
  -20.9225  -29.8679   21.6950 H   0  0  0  0  0  0
  -26.0178  -38.2852   24.1421 H   0  0  0  0  0  0
  -32.4237  -14.8763   22.6916 H   0  0  0  0  0  0
  -31.6274  -19.0208   23.4046 H   0  0  0  0  0  0
  -27.2469  -22.3863   22.6994 H   0  0  0  0  0  0
  -27.9495  -20.7900   23.2737 H   0  0  0  0  0  0
  -26.5755  -17.1824   20.8173 H   0  0  0  0  0  0
  -27.5139  -17.6475   22.1888 H   0  0  0  0  0  0
  -27.2742  -15.9510   21.9141 H   0  0  0  0  0  0
  -28.6771  -15.9468   19.8678 H   0  0  0  0  0  0
  -28.7365  -17.6632   19.8246 H   0  0  0  0  0  0
  -28.6233  -22.4700   19.6996 H   0  0  0  0  0  0
  -30.1221  -22.9894   20.4151 H   0  0  0  0  0  0
  -30.8771  -20.7698   22.0893 H   0  0  0  0  0  0
  -30.3129  -20.5154   20.4559 H   0  0  0  0  0  0
  -28.9586  -24.6280   21.8540 H   0  0  0  0  0  0
  -27.3882  -24.1186   21.2839 H   0  0  0  0  0  0
  -27.8063  -24.9755   19.0270 H   0  0  0  0  0  0
  -29.4774  -25.1680   19.3480 H   0  0  0  0  0  0
  -28.5731  -19.0154   21.3693 H   0  0  0  0  0  0
  1 25  1  0  0  0
  1 30  2  0  0  0
  1 73  1  0  0  0
  2  3  1  0  0  0
  2 25  1  0  0  0
  2 87  1  0  0  0
  2 88  1  0  0  0
  3  4  1  0  0  0
  3 89  1  0  0  0
  3 90  1  0  0  0
  4  5  1  0  0  0
  4 91  1  0  0  0
  4 92  1  0  0  0
  5  6  1  0  0  0
  5 26  1  0  0  0
  5 93  1  0  0  0
  6 25  1  0  0  0
  6 94  1  0  0  0
  6 95  1  0  0  0
  7  8  2  0  0  0
  7 26  1  0  0  0
  7 29  1  0  0  0
  8  9  1  0  0  0
  8 22  1  0  0  0
  9 10  1  0  0  0
  9 27  2  0  0  0
 10 11  2  0  0  0
 10 15  1  0  0  0
 11 12  1  0  0  0
 11 96  1  0  0  0
 12 13  2  0  0  0
 12 97  1  0  0  0
 13 14  1  0  0  0
 13 31  1  0  0  0
 14 15  2  0  0  0
 14 98  1  0  0  0
 15 99  1  0  0  0
 16 17  2  0  0  0
 16 21  1  0  0  0
 16 31  1  0  0  0
 17 18  1  0  0  0
 17100  1  0  0  0
 18 19  2  0  0  0
 18101  1  0  0  0
 19 20  1  0  0  0
 19 24  1  0  0  0
 20 21  2  0  0  0
 20102  1  0  0  0
 21 23  1  0  0  0
 22 28  1  0  0  0
 22 32  2  0  0  0
 26 27  1  0  0  0
 28103  1  0  0  0
 28104  1  0  0  0
 29105  1  0  0  0
 29106  1  0  0  0
 33 34  1  0  0  0
 33 66  1  0  0  0
 33 70  2  0  0  0
 34 36  1  0  0  0
 34 59  1  0  0  0
 34107  1  0  0  0
 35 44  2  0  0  0
 35 45  1  0  0  0
 35 68  1  0  0  0
 36 56  1  0  0  0
 36108  1  0  0  0
 37 39  1  0  0  0
 37 47  1  0  0  0
 37 66  1  0  0  0
 37109  1  0  0  0
 38 43  2  0  0  0
 38 46  1  0  0  0
 38 47  1  0  0  0
 39 64  1  0  0  0
 39 67  2  0  0  0
 40 52  1  0  0  0
 40 53  2  0  0  0
 40 58  1  0  0  0
 41110  1  0  0  0
 41111  1  0  0  0
 41112  1  0  0  0
 41 48  1  0  0  0
 42 43  1  0  0  0
 42 66  1  0  0  0
 42113  1  0  0  0
 42114  1  0  0  0
 43 44  1  0  0  0
 44115  1  0  0  0
 45 46  2  0  0  0
 45116  1  0  0  0
 46117  1  0  0  0
 47118  1  0  0  0
 47119  1  0  0  0
 48 56  1  0  0  0
 48 65  1  0  0  0
 48120  1  0  0  0
 49 50  1  0  0  0
 49 53  1  0  0  0
 49 64  1  0  0  0
 49121  1  0  0  0
 50 51  1  0  0  0
 50122  1  0  0  0
 50123  1  0  0  0
 51 52  1  0  0  0
 51124  1  0  0  0
 51125  1  0  0  0
 52126  1  0  0  0
 52127  1  0  0  0
 53 54  1  0  0  0
 54 55  2  0  0  0
 54128  1  0  0  0
 55 57  1  0  0  0
 55129  1  0  0  0
 56 69  2  0  0  0
 57 58  2  0  0  0
 57130  1  0  0  0
 58131  1  0  0  0
 59 60  1  0  0  0
 59 61  1  0  0  0
 59 62  1  0  0  0
 60132  1  0  0  0
 60133  1  0  0  0
 60134  1  0  0  0
 61135  1  0  0  0
 61136  1  0  0  0
 61137  1  0  0  0
 62138  1  0  0  0
 62139  1  0  0  0
 62140  1  0  0  0
 63 65  1  0  0  0
 63141  1  0  0  0
 63142  1  0  0  0
 63143  1  0  0  0
 64144  1  0  0  0
 65145  1  0  0  0
 68 84  1  0  0  0
 71 73  2  0  0  0
 71 76  1  0  0  0
 71146  1  0  0  0
 72 75  1  0  0  0
 72 76  2  0  0  0
 72147  1  0  0  0
 73 74  1  0  0  0
 74 75  2  0  0  0
 74 80  1  0  0  0
 75 85  1  0  0  0
 76 86  1  0  0  0
 77 78  2  0  0  0
 77148  1  0  0  0
 77149  1  0  0  0
 78 81  1  0  0  0
 78 82  1  0  0  0
 79 80  1  0  0  0
 79150  1  0  0  0
 79151  1  0  0  0
 79152  1  0  0  0
 80153  1  0  0  0
 80154  1  0  0  0
 81 83  1  0  0  0
 81155  1  0  0  0
 81156  1  0  0  0
 82 85  1  0  0  0
 82157  1  0  0  0
 82158  1  0  0  0
 83 84  1  0  0  0
 83159  1  0  0  0
 83160  1  0  0  0
 84161  1  0  0  0
 84162  1  0  0  0
 85163  1  0  0  0
M  ISO  4   1 100  68 101  73 100  84 101
M  END
> <chiral flag>
0

> <version>
0

> <s_m_source_file>
/data/baiqing/PycharmProjects/Reinvent-master-3.2/result/LINK_invent/BTK/process_docking_weight1_custom_product_contain_oxygen_bond_distance_aromatic_linkinvent_7_9_3/rearranged_h_0121.sdf

> <i_m_source_file_index>
29

> <r_mmod_Potential_Energy-OPLS-2005>
86.0113983154297

> <r_mmod_Stretch_Energy-OPLS-2005>
51.6513137817383

> <r_mmod_Bend_Energy-OPLS-2005>
163.057998657227

> <r_mmod_Torsional_Energy-OPLS-2005>
221.560913085938

> <r_mmod_Improper_Torsional_Energy-OPLS-2005>
9.78274059295654

> <r_mmod_Van_der_Waal_Energy-OPLS-2005>
167.075622558594

> <r_mmod_Electrostatic_Energy-OPLS-2005>
-380.983795166016

> <r_mmod_Solvation_Energy-OPLS-2005>
-177.666397094727

> <b_mmod_Minimization_Converged-OPLS-2005>
0

> <r_mmod_RMS_Derivative-OPLS-2005>
3.73957705497742

$$$$
29
                    3D
 Structure written by MMmdl.
156165  0  0  1  0            999 V2000
  -30.7210  -14.5411   20.5154 C   0  0  0  0  0  0
  -30.4169  -12.3300   19.4612 C   0  0  0  0  0  0
  -29.5042  -12.4858   18.2274 C   0  0  0  0  0  0
  -28.0252  -12.3442   18.6346 C   0  0  0  0  0  0
  -27.6549  -13.2194   19.8629 C   0  0  2  0  0  0
  -28.6955  -13.0784   20.9959 C   0  0  0  0  0  0
  -25.2566  -13.8189   20.5680 C   0  0  0  0  0  0
  -24.1838  -13.0449   20.9184 C   0  0  0  0  0  0
  -24.6408  -11.6925   20.8740 C   0  0  0  0  0  0
  -23.9087  -10.4303   21.0404 C   0  0  0  0  0  0
  -24.3639   -9.4217   21.9174 C   0  0  0  0  0  0
  -23.6319   -8.2250   22.0749 C   0  0  0  0  0  0
  -22.4297   -8.0289   21.3554 C   0  0  0  0  0  0
  -21.9932   -9.0260   20.4651 C   0  0  0  0  0  0
  -22.7261  -10.2137   20.3056 C   0  0  0  0  0  0
  -21.6855   -6.0744   22.5281 C   0  0  0  0  0  0
  -21.4005   -6.5643   23.8219 C   0  0  0  0  0  0
  -21.3658   -5.6795   24.9182 C   0  0  0  0  0  0
  -21.6049   -4.3058   24.7225 C   0  0  0  0  0  0
  -21.8820   -3.8152   23.4346 C   0  0  0  0  0  0
  -21.9194   -4.6973   22.3405 C   0  0  0  0  0  0
  -22.7860  -13.5228   21.1838 C   0  0  0  0  0  0
  -22.1660   -4.2154   21.0989 F   0  0  0  0  0  0
  -21.5640   -3.4547   25.7736 F   0  0  0  0  0  0
  -30.0231  -13.3667   20.4358 N   0  0  0  0  0  0
  -26.3001  -12.9374   20.3322 N   0  0  0  0  0  0
  -25.9337  -11.6523   20.5768 N   0  0  0  0  0  0
  -22.0497  -12.8239   22.0403 N   0  0  0  0  0  0
  -25.4275  -15.1910   20.4083 N   0  0  0  0  0  0
  -31.8884  -14.5937   20.1213 O   0  0  0  0  0  0
  -21.6659   -6.8890   21.4245 O   0  0  0  0  0  0
  -22.3546  -14.5529   20.6680 O   0  0  0  0  0  0
  -24.6169  -31.8659   23.2080 C   0  0  0  0  0  0
  -25.9041  -32.4809   23.8406 C   0  0  1  0  0  0
  -27.2420  -27.4165   20.1161 C   0  0  0  0  0  0
  -25.5890  -33.8607   24.2325 N   0  0  0  0  0  0
  -23.4095  -30.4898   21.5443 C   0  0  2  0  0  0
  -24.8624  -28.9528   20.1132 C   0  0  0  0  0  0
  -22.7441  -29.4663   22.4936 C   0  0  0  0  0  0
  -18.0295  -28.1420   22.8486 C   0  0  0  0  0  0
  -24.1474  -36.7295   23.2644 C   0  0  0  0  0  0
  -25.9409  -30.8292   21.3657 C   0  0  0  0  0  0
  -26.0224  -29.4628   20.7123 C   0  0  0  0  0  0
  -27.2181  -28.7033   20.7107 C   0  0  0  0  0  0
  -26.0703  -26.9278   19.5064 C   0  0  0  0  0  0
  -24.8825  -27.6846   19.5045 C   0  0  0  0  0  0
  -23.6233  -29.8196   20.1602 C   0  0  0  0  0  0
  -25.4094  -36.3100   24.0350 C   0  0  1  0  0  0
  -20.5888  -28.3708   23.1298 C   0  0  2  0  0  0
  -20.6789  -26.9434   22.5433 C   0  0  0  0  0  0
  -19.5771  -26.6400   21.5233 C   0  0  0  0  0  0
  -18.1937  -26.7974   22.1610 C   0  0  0  0  0  0
  -19.1548  -28.8877   23.2896 C   0  0  0  0  0  0
  -18.9476  -30.1475   23.8920 C   0  0  0  0  0  0
  -17.6475  -30.6610   24.0584 C   0  0  0  0  0  0
  -25.9029  -34.9471   23.5136 C   0  0  0  0  0  0
  -16.5363  -29.9124   23.6334 C   0  0  0  0  0  0
  -16.7283  -28.6547   23.0336 C   0  0  0  0  0  0
  -26.4451  -31.6605   25.0758 C   0  0  0  0  0  0
  -25.3701  -31.3766   26.1508 C   0  0  0  0  0  0
  -27.0287  -30.3038   24.6174 C   0  0  0  0  0  0
  -27.6031  -32.4329   25.7502 C   0  0  0  0  0  0
  -27.5582  -37.1794   24.8453 C   0  0  0  0  0  0
  -21.4166  -29.3053   22.3676 N   0  0  0  0  0  0
  -26.4269  -37.3797   23.9440 N   0  0  0  0  0  0
  -24.6735  -31.0765   22.0973 N   0  0  0  0  0  0
  -23.4205  -28.8213   23.2993 O   0  0  0  0  0  0
  -28.3505  -26.5916   20.1312 O   0  0  0  0  0  0
  -26.5586  -34.8920   22.4695 O   0  0  0  0  0  0
  -23.5346  -32.1414   23.7448 O   0  0  0  0  0  0
  -28.8265  -18.7899   21.0159 C   0  0  0  0  0  0
  -31.1506  -19.3617   21.3409 C   0  0  0  0  0  0
  -28.4716  -20.1508   21.2303 C   0  0  0  0  0  0
  -30.7995  -20.7117   21.5624 C   0  0  0  0  0  0
  -30.1778  -18.3725   21.0636 C   0  0  0  0  0  0
  -29.4504  -21.1312   21.5259 C   0  0  0  0  0  0
  -28.9852  -24.8397   21.7295 C   0  0  0  0  0  0
  -30.6493  -16.9728   20.8411 C   0  0  0  0  0  0
  -28.7281  -26.1242   21.3700 C   0  0  0  0  0  0
  -29.9937  -15.7776   20.8827 C   0  0  0  0  0  0
  -29.3236  -24.4691   23.1546 C   0  0  0  0  0  0
  -28.9403  -23.5447   20.9146 C   0  0  0  0  0  0
  -29.6542  -22.9769   23.1227 C   0  0  0  0  0  0
  -29.0710  -22.4484   21.8908 N   0  0  0  0  0  0
  -31.4646  -12.3984   19.1632 H   0  0  0  0  0  0
  -30.3033  -11.3377   19.9018 H   0  0  0  0  0  0
  -29.7594  -11.7349   17.4786 H   0  0  0  0  0  0
  -29.6703  -13.4583   17.7591 H   0  0  0  0  0  0
  -27.8533  -11.2924   18.8673 H   0  0  0  0  0  0
  -27.3748  -12.5787   17.7924 H   0  0  0  0  0  0
  -27.6771  -14.2542   19.5192 H   0  0  0  0  0  0
  -28.6821  -12.0672   21.4050 H   0  0  0  0  0  0
  -28.4554  -13.7355   21.8328 H   0  0  0  0  0  0
  -25.2782   -9.5700   22.4746 H   0  0  0  0  0  0
  -24.0044   -7.4635   22.7461 H   0  0  0  0  0  0
  -21.0868   -8.8776   19.8951 H   0  0  0  0  0  0
  -22.3722  -10.9674   19.6171 H   0  0  0  0  0  0
  -21.1981   -7.6146   23.9730 H   0  0  0  0  0  0
  -21.1476   -6.0517   25.9087 H   0  0  0  0  0  0
  -22.0595   -2.7613   23.2843 H   0  0  0  0  0  0
  -22.4109  -11.9926   22.4839 H   0  0  0  0  0  0
  -21.1104  -13.1262   22.2562 H   0  0  0  0  0  0
  -24.6613  -15.8460   20.5185 H   0  0  0  0  0  0
  -26.2830  -15.6303   20.0908 H   0  0  0  0  0  0
  -26.7139  -32.5511   23.1199 H   0  0  0  0  0  0
  -25.0043  -33.9772   25.0472 H   0  0  0  0  0  0
  -22.7002  -31.3081   21.3993 H   0  0  0  0  0  0
  -23.3747  -35.9611   23.3278 H   0  0  0  0  0  0
  -24.3584  -36.8925   22.2064 H   0  0  0  0  0  0
  -23.7198  -37.6487   23.6662 H   0  0  0  0  0  0
  -26.0626  -31.5977   20.6010 H   0  0  0  0  0  0
  -26.8249  -30.8789   21.9908 H   0  0  0  0  0  0
  -28.1131  -29.0937   21.1756 H   0  0  0  0  0  0
  -26.0741  -25.9440   19.0579 H   0  0  0  0  0  0
  -23.9904  -27.2833   19.0443 H   0  0  0  0  0  0
  -23.7375  -30.5942   19.4005 H   0  0  0  0  0  0
  -22.7481  -29.2416   19.8585 H   0  0  0  0  0  0
  -25.1268  -36.1956   25.0839 H   0  0  0  0  0  0
  -21.0001  -28.3306   24.1409 H   0  0  0  0  0  0
  -20.5693  -26.2330   23.3638 H   0  0  0  0  0  0
  -21.6662  -26.7475   22.1223 H   0  0  0  0  0  0
  -19.6933  -25.6308   21.1274 H   0  0  0  0  0  0
  -19.6736  -27.3203   20.6760 H   0  0  0  0  0  0
  -17.4230  -26.6755   21.3981 H   0  0  0  0  0  0
  -18.0289  -26.0116   22.8994 H   0  0  0  0  0  0
  -19.7951  -30.7286   24.2294 H   0  0  0  0  0  0
  -17.5039  -31.6288   24.5196 H   0  0  0  0  0  0
  -15.5370  -30.3039   23.7658 H   0  0  0  0  0  0
  -15.8679  -28.0891   22.7017 H   0  0  0  0  0  0
  -24.5851  -30.7130   25.7869 H   0  0  0  0  0  0
  -24.8917  -32.2948   26.4934 H   0  0  0  0  0  0
  -25.8033  -30.8962   27.0294 H   0  0  0  0  0  0
  -26.2880  -29.6814   24.1147 H   0  0  0  0  0  0
  -27.3957  -29.7262   25.4671 H   0  0  0  0  0  0
  -27.8746  -30.4351   23.9421 H   0  0  0  0  0  0
  -27.2649  -33.3591   26.2162 H   0  0  0  0  0  0
  -28.3785  -32.6958   25.0293 H   0  0  0  0  0  0
  -28.0775  -31.8420   26.5352 H   0  0  0  0  0  0
  -28.2572  -38.0117   24.7533 H   0  0  0  0  0  0
  -28.1099  -36.2654   24.6204 H   0  0  0  0  0  0
  -27.2331  -37.1352   25.8861 H   0  0  0  0  0  0
  -20.9337  -29.8747   21.6863 H   0  0  0  0  0  0
  -26.0149  -38.2862   24.1485 H   0  0  0  0  0  0
  -28.0501  -18.0703   20.8021 H   0  0  0  0  0  0
  -32.1957  -19.0885   21.3999 H   0  0  0  0  0  0
  -27.4270  -20.4290   21.2042 H   0  0  0  0  0  0
  -31.5884  -21.4157   21.7850 H   0  0  0  0  0  0
  -31.6970  -16.9464   20.5692 H   0  0  0  0  0  0
  -28.7912  -26.9246   22.0946 H   0  0  0  0  0  0
  -28.9519  -15.7574   21.1589 H   0  0  0  0  0  0
  -28.4458  -24.6486   23.7773 H   0  0  0  0  0  0
  -30.1462  -25.0667   23.5517 H   0  0  0  0  0  0
  -29.7665  -23.5265   20.2013 H   0  0  0  0  0  0
  -28.0036  -23.4708   20.3591 H   0  0  0  0  0  0
  -29.2637  -22.4629   24.0027 H   0  0  0  0  0  0
  -30.7376  -22.8560   23.1324 H   0  0  0  0  0  0
  1 25  1  0  0  0
  1 30  2  0  0  0
  1 80  1  0  0  0
  2  3  1  0  0  0
  2 25  1  0  0  0
  2 85  1  0  0  0
  2 86  1  0  0  0
  3  4  1  0  0  0
  3 87  1  0  0  0
  3 88  1  0  0  0
  4  5  1  0  0  0
  4 89  1  0  0  0
  4 90  1  0  0  0
  5  6  1  0  0  0
  5 26  1  0  0  0
  5 91  1  0  0  0
  6 25  1  0  0  0
  6 92  1  0  0  0
  6 93  1  0  0  0
  7  8  2  0  0  0
  7 26  1  0  0  0
  7 29  1  0  0  0
  8  9  1  0  0  0
  8 22  1  0  0  0
  9 10  1  0  0  0
  9 27  2  0  0  0
 10 11  2  0  0  0
 10 15  1  0  0  0
 11 12  1  0  0  0
 11 94  1  0  0  0
 12 13  2  0  0  0
 12 95  1  0  0  0
 13 14  1  0  0  0
 13 31  1  0  0  0
 14 15  2  0  0  0
 14 96  1  0  0  0
 15 97  1  0  0  0
 16 17  2  0  0  0
 16 21  1  0  0  0
 16 31  1  0  0  0
 17 18  1  0  0  0
 17 98  1  0  0  0
 18 19  2  0  0  0
 18 99  1  0  0  0
 19 20  1  0  0  0
 19 24  1  0  0  0
 20 21  2  0  0  0
 20100  1  0  0  0
 21 23  1  0  0  0
 22 28  1  0  0  0
 22 32  2  0  0  0
 26 27  1  0  0  0
 28101  1  0  0  0
 28102  1  0  0  0
 29103  1  0  0  0
 29104  1  0  0  0
 33 34  1  0  0  0
 33 66  1  0  0  0
 33 70  2  0  0  0
 34 36  1  0  0  0
 34 59  1  0  0  0
 34105  1  0  0  0
 35 44  2  0  0  0
 35 45  1  0  0  0
 35 68  1  0  0  0
 36 56  1  0  0  0
 36106  1  0  0  0
 37 39  1  0  0  0
 37 47  1  0  0  0
 37 66  1  0  0  0
 37107  1  0  0  0
 38 43  2  0  0  0
 38 46  1  0  0  0
 38 47  1  0  0  0
 39 64  1  0  0  0
 39 67  2  0  0  0
 40 52  1  0  0  0
 40 53  2  0  0  0
 40 58  1  0  0  0
 41108  1  0  0  0
 41109  1  0  0  0
 41110  1  0  0  0
 41 48  1  0  0  0
 42 43  1  0  0  0
 42 66  1  0  0  0
 42111  1  0  0  0
 42112  1  0  0  0
 43 44  1  0  0  0
 44113  1  0  0  0
 45 46  2  0  0  0
 45114  1  0  0  0
 46115  1  0  0  0
 47116  1  0  0  0
 47117  1  0  0  0
 48 56  1  0  0  0
 48 65  1  0  0  0
 48118  1  0  0  0
 49 50  1  0  0  0
 49 53  1  0  0  0
 49 64  1  0  0  0
 49119  1  0  0  0
 50 51  1  0  0  0
 50120  1  0  0  0
 50121  1  0  0  0
 51 52  1  0  0  0
 51122  1  0  0  0
 51123  1  0  0  0
 52124  1  0  0  0
 52125  1  0  0  0
 53 54  1  0  0  0
 54 55  2  0  0  0
 54126  1  0  0  0
 55 57  1  0  0  0
 55127  1  0  0  0
 56 69  2  0  0  0
 57 58  2  0  0  0
 57128  1  0  0  0
 58129  1  0  0  0
 59 60  1  0  0  0
 59 61  1  0  0  0
 59 62  1  0  0  0
 60130  1  0  0  0
 60131  1  0  0  0
 60132  1  0  0  0
 61133  1  0  0  0
 61134  1  0  0  0
 61135  1  0  0  0
 62136  1  0  0  0
 62137  1  0  0  0
 62138  1  0  0  0
 63 65  1  0  0  0
 63139  1  0  0  0
 63140  1  0  0  0
 63141  1  0  0  0
 64142  1  0  0  0
 65143  1  0  0  0
 68 79  1  0  0  0
 71 73  2  0  0  0
 71 75  1  0  0  0
 71144  1  0  0  0
 72 74  1  0  0  0
 72 75  2  0  0  0
 72145  1  0  0  0
 73 76  1  0  0  0
 73146  1  0  0  0
 74 76  2  0  0  0
 74147  1  0  0  0
 75 78  1  0  0  0
 76 84  1  0  0  0
 77 79  2  0  0  0
 77 81  1  0  0  0
 77 82  1  0  0  0
 78 80  2  0  0  0
 78148  1  0  0  0
 79149  1  0  0  0
 80150  1  0  0  0
 81 83  1  0  0  0
 81151  1  0  0  0
 81152  1  0  0  0
 82 84  1  0  0  0
 82153  1  0  0  0
 82154  1  0  0  0
 83 84  1  0  0  0
 83155  1  0  0  0
 83156  1  0  0  0
M  ISO  4   1 100  68 101  79 101  80 100
M  END
> <chiral flag>
0

> <version>
0

> <s_m_source_file>
/data/baiqing/PycharmProjects/Reinvent-master-3.2/result/LINK_invent/BTK/process_docking_weight1_custom_product_contain_oxygen_bond_distance_aromatic_linkinvent_7_9_3/rearranged_h_0121.sdf

> <i_m_source_file_index>
30

> <r_mmod_Potential_Energy-OPLS-2005>
53.6427192687988

> <r_mmod_Stretch_Energy-OPLS-2005>
44.1117324829102

> <r_mmod_Bend_Energy-OPLS-2005>
146.02604675293

> <r_mmod_Torsional_Energy-OPLS-2005>
237.170196533203

> <r_mmod_Improper_Torsional_Energy-OPLS-2005>
8.34154415130615

> <r_mmod_Van_der_Waal_Energy-OPLS-2005>
147.232315063477

> <r_mmod_Electrostatic_Energy-OPLS-2005>
-346.446716308594

> <r_mmod_Solvation_Energy-OPLS-2005>
-208.467926025391

> <b_mmod_Minimization_Converged-OPLS-2005>
0

> <r_mmod_RMS_Derivative-OPLS-2005>
2.21981501579285

$$$$
30
                    3D
 Structure written by MMmdl.
161169  0  0  1  0            999 V2000
  -30.6685  -14.4746   20.5852 C   0  0  0  0  0  0
  -30.4318  -12.3124   19.4197 C   0  0  0  0  0  0
  -29.5016  -12.5252   18.2067 C   0  0  0  0  0  0
  -28.0205  -12.3793   18.6133 C   0  0  0  0  0  0
  -27.6665  -13.2017   19.8818 C   0  0  2  0  0  0
  -28.7033  -12.9485   20.9987 C   0  0  0  0  0  0
  -25.2609  -13.8144   20.5668 C   0  0  0  0  0  0
  -24.1849  -13.0434   20.9158 C   0  0  0  0  0  0
  -24.6392  -11.6898   20.8707 C   0  0  0  0  0  0
  -23.9049  -10.4294   21.0392 C   0  0  0  0  0  0
  -24.3605   -9.4211   21.9173 C   0  0  0  0  0  0
  -23.6292   -8.2241   22.0746 C   0  0  0  0  0  0
  -22.4272   -8.0274   21.3540 C   0  0  0  0  0  0
  -21.9899   -9.0242   20.4641 C   0  0  0  0  0  0
  -22.7219  -10.2131   20.3048 C   0  0  0  0  0  0
  -21.6854   -6.0734   22.5282 C   0  0  0  0  0  0
  -21.4012   -6.5639   23.8215 C   0  0  0  0  0  0
  -21.3660   -5.6790   24.9175 C   0  0  0  0  0  0
  -21.6050   -4.3052   24.7225 C   0  0  0  0  0  0
  -21.8818   -3.8146   23.4344 C   0  0  0  0  0  0
  -21.9192   -4.6963   22.3402 C   0  0  0  0  0  0
  -22.7878  -13.5240   21.1837 C   0  0  0  0  0  0
  -22.1664   -4.2149   21.0979 F   0  0  0  0  0  0
  -21.5629   -3.4534   25.7738 F   0  0  0  0  0  0
  -30.0396  -13.2731   20.4633 N   0  0  0  0  0  0
  -26.3042  -12.9306   20.3371 N   0  0  0  0  0  0
  -25.9316  -11.6467   20.5737 N   0  0  0  0  0  0
  -22.0514  -12.8234   22.0398 N   0  0  0  0  0  0
  -25.4342  -15.1862   20.4098 N   0  0  0  0  0  0
  -31.7753  -14.7025   20.0852 O   0  0  0  0  0  0
  -21.6640   -6.8872   21.4240 O   0  0  0  0  0  0
  -22.3560  -14.5544   20.6690 O   0  0  0  0  0  0
  -24.6135  -31.8671   23.2074 C   0  0  0  0  0  0
  -25.9025  -32.4813   23.8385 C   0  0  1  0  0  0
  -27.2357  -27.4369   20.1016 C   0  0  0  0  0  0
  -25.5873  -33.8617   24.2310 N   0  0  0  0  0  0
  -23.4017  -30.4903   21.5480 C   0  0  2  0  0  0
  -24.8494  -28.9516   20.1176 C   0  0  0  0  0  0
  -22.7400  -29.4668   22.4976 C   0  0  0  0  0  0
  -18.0273  -28.1388   22.8492 C   0  0  0  0  0  0
  -24.1490  -36.7320   23.2636 C   0  0  0  0  0  0
  -25.9311  -30.8353   21.3592 C   0  0  0  0  0  0
  -26.0096  -29.4682   20.7106 C   0  0  0  0  0  0
  -27.2104  -28.7205   20.6935 C   0  0  0  0  0  0
  -26.0619  -26.9314   19.5061 C   0  0  0  0  0  0
  -24.8700  -27.6824   19.5117 C   0  0  0  0  0  0
  -23.6106  -29.8187   20.1641 C   0  0  0  0  0  0
  -25.4111  -36.3111   24.0333 C   0  0  1  0  0  0
  -20.5858  -28.3665   23.1324 C   0  0  2  0  0  0
  -20.6769  -26.9395   22.5430 C   0  0  0  0  0  0
  -19.5753  -26.6386   21.5218 C   0  0  0  0  0  0
  -18.1924  -26.7937   22.1610 C   0  0  0  0  0  0
  -19.1518  -28.8842   23.2908 C   0  0  0  0  0  0
  -18.9450  -30.1454   23.8907 C   0  0  0  0  0  0
  -17.6454  -30.6589   24.0572 C   0  0  0  0  0  0
  -25.9031  -34.9476   23.5122 C   0  0  0  0  0  0
  -16.5348  -29.9097   23.6327 C   0  0  0  0  0  0
  -16.7263  -28.6522   23.0331 C   0  0  0  0  0  0
  -26.4452  -31.6595   25.0715 C   0  0  0  0  0  0
  -25.3726  -31.3733   26.1470 C   0  0  0  0  0  0
  -27.0253  -30.3028   24.6090 C   0  0  0  0  0  0
  -27.6042  -32.4311   25.7466 C   0  0  0  0  0  0
  -27.5595  -37.1810   24.8461 C   0  0  0  0  0  0
  -21.4126  -29.3032   22.3730 N   0  0  0  0  0  0
  -26.4299  -37.3796   23.9412 N   0  0  0  0  0  0
  -24.6670  -31.0789   22.0964 N   0  0  0  0  0  0
  -23.4180  -28.8210   23.3009 O   0  0  0  0  0  0
  -28.3960  -26.6951   20.0697 O   0  0  0  0  0  0
  -26.5605  -34.8928   22.4692 O   0  0  0  0  0  0
  -23.5331  -32.1420   23.7479 O   0  0  0  0  0  0
  -30.3391  -18.8900   19.7916 C   0  0  0  0  0  0
  -30.5314  -17.5093   20.0122 C   0  0  0  0  0  0
  -28.7302  -18.9470   21.6014 C   0  0  0  0  0  0
  -28.9062  -17.5574   21.8380 C   0  0  0  0  0  0
  -29.4330  -19.6240   20.5837 C   0  0  0  0  0  0
  -29.8248  -16.8213   21.0328 C   0  0  0  0  0  0
  -27.3989  -17.5008   23.8681 C   0  0  0  0  0  0
  -28.1466  -16.8953   22.9283 C   0  0  0  0  0  0
  -29.9148  -23.4530   21.1212 C   0  0  0  0  0  0
  -29.9707  -22.1045   21.2307 C   0  0  0  0  0  0
  -30.8559  -21.4792   22.2981 C   0  0  0  0  0  0
  -29.1985  -21.1247   20.3367 C   0  0  0  0  0  0
  -29.1236  -24.3203   20.1432 C   0  0  0  0  0  0
  -28.3775  -25.4856   20.8449 C   0  0  0  0  0  0
  -29.9582  -15.4067   21.2524 N   0  0  0  0  0  0
  -31.4755  -12.4270   19.1234 H   0  0  0  0  0  0
  -30.3412  -11.2924   19.7955 H   0  0  0  0  0  0
  -29.7455  -11.8159   17.4148 H   0  0  0  0  0  0
  -29.6676  -13.5182   17.7859 H   0  0  0  0  0  0
  -27.8282  -11.3210   18.7929 H   0  0  0  0  0  0
  -27.3723  -12.6683   17.7856 H   0  0  0  0  0  0
  -27.7206  -14.2560   19.6076 H   0  0  0  0  0  0
  -28.6788  -11.9011   21.3032 H   0  0  0  0  0  0
  -28.4520  -13.5074   21.9003 H   0  0  0  0  0  0
  -25.2757   -9.5693   22.4736 H   0  0  0  0  0  0
  -24.0011   -7.4635   22.7461 H   0  0  0  0  0  0
  -21.0827   -8.8749   19.8950 H   0  0  0  0  0  0
  -22.3668  -10.9659   19.6152 H   0  0  0  0  0  0
  -21.1999   -7.6148   23.9717 H   0  0  0  0  0  0
  -21.1489   -6.0520   25.9080 H   0  0  0  0  0  0
  -22.0596   -2.7607   23.2842 H   0  0  0  0  0  0
  -22.4131  -11.9910   22.4806 H   0  0  0  0  0  0
  -21.1126  -13.1255   22.2581 H   0  0  0  0  0  0
  -24.6698  -15.8423   20.5261 H   0  0  0  0  0  0
  -26.2967  -15.6306   20.1217 H   0  0  0  0  0  0
  -26.7092  -32.5523   23.1148 H   0  0  0  0  0  0
  -25.0039  -33.9796   25.0470 H   0  0  0  0  0  0
  -22.6908  -31.3071   21.4066 H   0  0  0  0  0  0
  -23.3746  -35.9657   23.3298 H   0  0  0  0  0  0
  -24.3598  -36.8941   22.2053 H   0  0  0  0  0  0
  -23.7251  -37.6533   23.6650 H   0  0  0  0  0  0
  -26.0459  -31.5998   20.5895 H   0  0  0  0  0  0
  -26.8183  -30.8886   21.9783 H   0  0  0  0  0  0
  -28.1104  -29.1197   21.1416 H   0  0  0  0  0  0
  -26.0730  -25.9589   19.0330 H   0  0  0  0  0  0
  -23.9790  -27.2797   19.0492 H   0  0  0  0  0  0
  -23.7188  -30.5921   19.4021 H   0  0  0  0  0  0
  -22.7345  -29.2368   19.8685 H   0  0  0  0  0  0
  -25.1298  -36.1971   25.0825 H   0  0  0  0  0  0
  -20.9965  -28.3224   24.1437 H   0  0  0  0  0  0
  -20.5655  -26.2274   23.3624 H   0  0  0  0  0  0
  -21.6656  -26.7442   22.1235 H   0  0  0  0  0  0
  -19.6919  -25.6295   21.1243 H   0  0  0  0  0  0
  -19.6707  -27.3215   20.6760 H   0  0  0  0  0  0
  -17.4213  -26.6694   21.3985 H   0  0  0  0  0  0
  -18.0303  -26.0084   22.9000 H   0  0  0  0  0  0
  -19.7927  -30.7272   24.2278 H   0  0  0  0  0  0
  -17.5009  -31.6260   24.5184 H   0  0  0  0  0  0
  -15.5348  -30.3004   23.7648 H   0  0  0  0  0  0
  -15.8662  -28.0853   22.7020 H   0  0  0  0  0  0
  -24.5911  -30.7042   25.7847 H   0  0  0  0  0  0
  -24.8893  -32.2898   26.4866 H   0  0  0  0  0  0
  -25.8088  -30.8970   27.0256 H   0  0  0  0  0  0
  -26.2785  -29.6813   24.1128 H   0  0  0  0  0  0
  -27.4005  -29.7237   25.4540 H   0  0  0  0  0  0
  -27.8626  -30.4342   23.9235 H   0  0  0  0  0  0
  -27.2674  -33.3617   26.2052 H   0  0  0  0  0  0
  -28.3835  -32.6861   25.0268 H   0  0  0  0  0  0
  -28.0713  -31.8420   26.5374 H   0  0  0  0  0  0
  -28.2622  -38.0100   24.7519 H   0  0  0  0  0  0
  -28.1081  -36.2646   24.6256 H   0  0  0  0  0  0
  -27.2331  -37.1432   25.8867 H   0  0  0  0  0  0
  -20.9280  -29.8749   21.6954 H   0  0  0  0  0  0
  -26.0180  -38.2870   24.1415 H   0  0  0  0  0  0
  -30.8877  -19.3824   18.9998 H   0  0  0  0  0  0
  -31.2237  -16.9915   19.3657 H   0  0  0  0  0  0
  -28.0373  -19.5224   22.1964 H   0  0  0  0  0  0
  -26.8793  -16.9117   24.6107 H   0  0  0  0  0  0
  -27.2835  -18.5727   23.9327 H   0  0  0  0  0  0
  -28.1806  -15.8170   22.9730 H   0  0  0  0  0  0
  -30.5235  -24.0298   21.8044 H   0  0  0  0  0  0
  -31.3761  -22.2327   22.8903 H   0  0  0  0  0  0
  -31.6132  -20.8412   21.8416 H   0  0  0  0  0  0
  -30.2634  -20.8748   22.9851 H   0  0  0  0  0  0
  -28.1330  -21.3302   20.4516 H   0  0  0  0  0  0
  -29.4309  -21.3525   19.2950 H   0  0  0  0  0  0
  -28.4276  -23.7242   19.5514 H   0  0  0  0  0  0
  -29.8478  -24.7331   19.4399 H   0  0  0  0  0  0
  -28.8666  -25.7255   21.7903 H   0  0  0  0  0  0
  -27.3686  -25.1658   21.1121 H   0  0  0  0  0  0
  -29.2125  -15.0058   21.7978 H   0  0  0  0  0  0
  1 25  1  0  0  0
  1 30  2  0  0  0
  1 85  1  0  0  0
  2  3  1  0  0  0
  2 25  1  0  0  0
  2 86  1  0  0  0
  2 87  1  0  0  0
  3  4  1  0  0  0
  3 88  1  0  0  0
  3 89  1  0  0  0
  4  5  1  0  0  0
  4 90  1  0  0  0
  4 91  1  0  0  0
  5  6  1  0  0  0
  5 26  1  0  0  0
  5 92  1  0  0  0
  6 25  1  0  0  0
  6 93  1  0  0  0
  6 94  1  0  0  0
  7  8  2  0  0  0
  7 26  1  0  0  0
  7 29  1  0  0  0
  8  9  1  0  0  0
  8 22  1  0  0  0
  9 10  1  0  0  0
  9 27  2  0  0  0
 10 11  2  0  0  0
 10 15  1  0  0  0
 11 12  1  0  0  0
 11 95  1  0  0  0
 12 13  2  0  0  0
 12 96  1  0  0  0
 13 14  1  0  0  0
 13 31  1  0  0  0
 14 15  2  0  0  0
 14 97  1  0  0  0
 15 98  1  0  0  0
 16 17  2  0  0  0
 16 21  1  0  0  0
 16 31  1  0  0  0
 17 18  1  0  0  0
 17 99  1  0  0  0
 18 19  2  0  0  0
 18100  1  0  0  0
 19 20  1  0  0  0
 19 24  1  0  0  0
 20 21  2  0  0  0
 20101  1  0  0  0
 21 23  1  0  0  0
 22 28  1  0  0  0
 22 32  2  0  0  0
 26 27  1  0  0  0
 28102  1  0  0  0
 28103  1  0  0  0
 29104  1  0  0  0
 29105  1  0  0  0
 33 34  1  0  0  0
 33 66  1  0  0  0
 33 70  2  0  0  0
 34 36  1  0  0  0
 34 59  1  0  0  0
 34106  1  0  0  0
 35 44  2  0  0  0
 35 45  1  0  0  0
 35 68  1  0  0  0
 36 56  1  0  0  0
 36107  1  0  0  0
 37 39  1  0  0  0
 37 47  1  0  0  0
 37 66  1  0  0  0
 37108  1  0  0  0
 38 43  2  0  0  0
 38 46  1  0  0  0
 38 47  1  0  0  0
 39 64  1  0  0  0
 39 67  2  0  0  0
 40 52  1  0  0  0
 40 53  2  0  0  0
 40 58  1  0  0  0
 41109  1  0  0  0
 41110  1  0  0  0
 41111  1  0  0  0
 41 48  1  0  0  0
 42 43  1  0  0  0
 42 66  1  0  0  0
 42112  1  0  0  0
 42113  1  0  0  0
 43 44  1  0  0  0
 44114  1  0  0  0
 45 46  2  0  0  0
 45115  1  0  0  0
 46116  1  0  0  0
 47117  1  0  0  0
 47118  1  0  0  0
 48 56  1  0  0  0
 48 65  1  0  0  0
 48119  1  0  0  0
 49 50  1  0  0  0
 49 53  1  0  0  0
 49 64  1  0  0  0
 49120  1  0  0  0
 50 51  1  0  0  0
 50121  1  0  0  0
 50122  1  0  0  0
 51 52  1  0  0  0
 51123  1  0  0  0
 51124  1  0  0  0
 52125  1  0  0  0
 52126  1  0  0  0
 53 54  1  0  0  0
 54 55  2  0  0  0
 54127  1  0  0  0
 55 57  1  0  0  0
 55128  1  0  0  0
 56 69  2  0  0  0
 57 58  2  0  0  0
 57129  1  0  0  0
 58130  1  0  0  0
 59 60  1  0  0  0
 59 61  1  0  0  0
 59 62  1  0  0  0
 60131  1  0  0  0
 60132  1  0  0  0
 60133  1  0  0  0
 61134  1  0  0  0
 61135  1  0  0  0
 61136  1  0  0  0
 62137  1  0  0  0
 62138  1  0  0  0
 62139  1  0  0  0
 63 65  1  0  0  0
 63140  1  0  0  0
 63141  1  0  0  0
 63142  1  0  0  0
 64143  1  0  0  0
 65144  1  0  0  0
 68 84  1  0  0  0
 71 72  2  0  0  0
 71 75  1  0  0  0
 71145  1  0  0  0
 72 76  1  0  0  0
 72146  1  0  0  0
 73 74  1  0  0  0
 73 75  2  0  0  0
 73147  1  0  0  0
 74 76  2  0  0  0
 74 78  1  0  0  0
 75 82  1  0  0  0
 76 85  1  0  0  0
 77 78  2  0  0  0
 77148  1  0  0  0
 77149  1  0  0  0
 78150  1  0  0  0
 79 80  2  0  0  0
 79 83  1  0  0  0
 79151  1  0  0  0
 80 81  1  0  0  0
 80 82  1  0  0  0
 81152  1  0  0  0
 81153  1  0  0  0
 81154  1  0  0  0
 82155  1  0  0  0
 82156  1  0  0  0
 83 84  1  0  0  0
 83157  1  0  0  0
 83158  1  0  0  0
 84159  1  0  0  0
 84160  1  0  0  0
 85161  1  0  0  0
M  ISO  4   1 100  68 101  84 101  85 100
M  END
> <chiral flag>
0

> <version>
0

> <s_m_source_file>
/data/baiqing/PycharmProjects/Reinvent-master-3.2/result/LINK_invent/BTK/process_docking_weight1_custom_product_contain_oxygen_bond_distance_aromatic_linkinvent_7_9_3/rearranged_h_0121.sdf

> <i_m_source_file_index>
31

> <r_mmod_Potential_Energy-OPLS-2005>
-15.425440788269

> <r_mmod_Stretch_Energy-OPLS-2005>
40.9990768432617

> <r_mmod_Bend_Energy-OPLS-2005>
103.20482635498

> <r_mmod_Torsional_Energy-OPLS-2005>
245.200164794922

> <r_mmod_Improper_Torsional_Energy-OPLS-2005>
3.42663788795471

> <r_mmod_Van_der_Waal_Energy-OPLS-2005>
156.76123046875

> <r_mmod_Electrostatic_Energy-OPLS-2005>
-384.948974609375

> <r_mmod_Solvation_Energy-OPLS-2005>
-191.614227294922

> <b_mmod_Minimization_Converged-OPLS-2005>
0

> <r_mmod_RMS_Derivative-OPLS-2005>
1.89983415603638

$$$$
31
                    3D
 Structure written by MMmdl.
159167  0  0  1  0            999 V2000
  -30.7227  -14.5529   20.4696 C   0  0  0  0  0  0
  -30.3934  -12.3260   19.4736 C   0  0  0  0  0  0
  -29.4972  -12.4849   18.2295 C   0  0  0  0  0  0
  -28.0166  -12.3491   18.6295 C   0  0  0  0  0  0
  -27.6424  -13.2312   19.8528 C   0  0  2  0  0  0
  -28.6800  -13.1215   20.9897 C   0  0  0  0  0  0
  -25.2498  -13.8216   20.5688 C   0  0  0  0  0  0
  -24.1785  -13.0459   20.9192 C   0  0  0  0  0  0
  -24.6376  -11.6935   20.8732 C   0  0  0  0  0  0
  -23.9057  -10.4304   21.0388 C   0  0  0  0  0  0
  -24.3609   -9.4220   21.9165 C   0  0  0  0  0  0
  -23.6298   -8.2247   22.0742 C   0  0  0  0  0  0
  -22.4285   -8.0274   21.3527 C   0  0  0  0  0  0
  -21.9909   -9.0246   20.4634 C   0  0  0  0  0  0
  -22.7227  -10.2133   20.3044 C   0  0  0  0  0  0
  -21.6860   -6.0727   22.5273 C   0  0  0  0  0  0
  -21.4018   -6.5632   23.8204 C   0  0  0  0  0  0
  -21.3663   -5.6787   24.9167 C   0  0  0  0  0  0
  -21.6049   -4.3050   24.7217 C   0  0  0  0  0  0
  -21.8817   -3.8138   23.4339 C   0  0  0  0  0  0
  -21.9189   -4.6954   22.3395 C   0  0  0  0  0  0
  -22.7806  -13.5231   21.1860 C   0  0  0  0  0  0
  -22.1656   -4.2137   21.0976 F   0  0  0  0  0  0
  -21.5636   -3.4534   25.7733 F   0  0  0  0  0  0
  -30.0054  -13.3895   20.4239 N   0  0  0  0  0  0
  -26.2924  -12.9424   20.3277 N   0  0  0  0  0  0
  -25.9299  -11.6559   20.5726 N   0  0  0  0  0  0
  -22.0452  -12.8227   22.0427 N   0  0  0  0  0  0
  -25.4226  -15.1943   20.4135 N   0  0  0  0  0  0
  -31.9153  -14.5247   20.1577 O   0  0  0  0  0  0
  -21.6647   -6.8874   21.4237 O   0  0  0  0  0  0
  -22.3488  -14.5526   20.6704 O   0  0  0  0  0  0
  -24.6194  -31.8641   23.2062 C   0  0  0  0  0  0
  -25.9066  -32.4798   23.8374 C   0  0  1  0  0  0
  -27.2198  -27.3862   20.1175 C   0  0  0  0  0  0
  -25.5910  -33.8595   24.2304 N   0  0  0  0  0  0
  -23.4094  -30.4870   21.5475 C   0  0  2  0  0  0
  -24.8556  -28.9456   20.1138 C   0  0  0  0  0  0
  -22.7431  -29.4647   22.4976 C   0  0  0  0  0  0
  -18.0277  -28.1384   22.8488 C   0  0  0  0  0  0
  -24.1492  -36.7311   23.2638 C   0  0  0  0  0  0
  -25.9416  -30.8169   21.3647 C   0  0  0  0  0  0
  -26.0187  -29.4471   20.7125 C   0  0  0  0  0  0
  -27.2099  -28.6766   20.7066 C   0  0  0  0  0  0
  -26.0439  -26.9092   19.5064 C   0  0  0  0  0  0
  -24.8649  -27.6788   19.5037 C   0  0  0  0  0  0
  -23.6196  -29.8179   20.1628 C   0  0  0  0  0  0
  -25.4111  -36.3094   24.0334 C   0  0  1  0  0  0
  -20.5869  -28.3676   23.1311 C   0  0  2  0  0  0
  -20.6773  -26.9410   22.5416 C   0  0  0  0  0  0
  -19.5756  -26.6386   21.5216 C   0  0  0  0  0  0
  -18.1932  -26.7932   22.1621 C   0  0  0  0  0  0
  -19.1525  -28.8847   23.2897 C   0  0  0  0  0  0
  -18.9446  -30.1453   23.8906 C   0  0  0  0  0  0
  -17.6447  -30.6590   24.0559 C   0  0  0  0  0  0
  -25.9035  -34.9460   23.5115 C   0  0  0  0  0  0
  -16.5337  -29.9087   23.6326 C   0  0  0  0  0  0
  -16.7264  -28.6507   23.0345 C   0  0  0  0  0  0
  -26.4480  -31.6581   25.0712 C   0  0  0  0  0  0
  -25.3740  -31.3694   26.1459 C   0  0  0  0  0  0
  -27.0305  -30.3016   24.6100 C   0  0  0  0  0  0
  -27.6052  -32.4306   25.7480 C   0  0  0  0  0  0
  -27.5585  -37.1807   24.8461 C   0  0  0  0  0  0
  -21.4156  -29.3035   22.3713 N   0  0  0  0  0  0
  -26.4294  -37.3782   23.9407 N   0  0  0  0  0  0
  -24.6751  -31.0714   22.0976 N   0  0  0  0  0  0
  -23.4189  -28.8192   23.3035 O   0  0  0  0  0  0
  -28.3379  -26.5737   20.1297 O   0  0  0  0  0  0
  -26.5598  -34.8920   22.4674 O   0  0  0  0  0  0
  -23.5377  -32.1412   23.7433 O   0  0  0  0  0  0
  -31.6904  -19.1634   19.8516 C   0  0  0  0  0  0
  -29.3725  -19.2681   20.5667 C   0  0  0  0  0  0
  -30.5995  -21.3211   20.0222 C   0  0  0  0  0  0
  -30.5243  -18.4744   20.2629 C   0  0  0  0  0  0
  -31.7351  -20.5599   19.7167 C   0  0  0  0  0  0
  -29.4075  -20.7024   20.4579 C   0  0  0  0  0  0
  -34.5710  -23.0731   19.9255 C   0  0  0  0  0  0
  -30.7180  -16.9808   20.2939 C   0  0  0  0  0  0
  -30.0304  -15.8574   20.6721 C   0  0  0  0  0  0
  -33.6327  -22.1647   20.2309 C   0  0  0  0  0  0
  -28.3083  -24.0290   20.3648 C   0  0  0  0  0  0
  -32.9956  -21.2408   19.2145 C   0  0  0  0  0  0
  -28.2411  -25.4365   21.0350 C   0  0  0  0  0  0
  -28.4966  -22.8076   21.3194 C   0  0  0  0  0  0
  -28.2131  -23.8874   19.1402 O   0  0  0  0  0  0
  -28.2922  -21.4913   20.7222 O   0  0  0  0  0  0
  -31.4456  -12.3614   19.1858 H   0  0  0  0  0  0
  -30.2490  -11.3440   19.9278 H   0  0  0  0  0  0
  -29.7543  -11.7347   17.4804 H   0  0  0  0  0  0
  -29.6703  -13.4569   17.7648 H   0  0  0  0  0  0
  -27.8365  -11.2989   18.8613 H   0  0  0  0  0  0
  -27.3720  -12.5851   17.7818 H   0  0  0  0  0  0
  -27.6544  -14.2630   19.5009 H   0  0  0  0  0  0
  -28.6607  -12.1238   21.4308 H   0  0  0  0  0  0
  -28.4447  -13.8134   21.7991 H   0  0  0  0  0  0
  -25.2745   -9.5715   22.4745 H   0  0  0  0  0  0
  -24.0007   -7.4650   22.7474 H   0  0  0  0  0  0
  -21.0832   -8.8764   19.8949 H   0  0  0  0  0  0
  -22.3667  -10.9670   19.6163 H   0  0  0  0  0  0
  -21.2014   -7.6140   23.9708 H   0  0  0  0  0  0
  -21.1492   -6.0512   25.9074 H   0  0  0  0  0  0
  -22.0596   -2.7600   23.2837 H   0  0  0  0  0  0
  -22.4069  -11.9904   22.4835 H   0  0  0  0  0  0
  -21.1064  -13.1252   22.2615 H   0  0  0  0  0  0
  -24.6642  -15.8577   20.5338 H   0  0  0  0  0  0
  -26.2839  -15.6292   20.1067 H   0  0  0  0  0  0
  -26.7133  -32.5494   23.1134 H   0  0  0  0  0  0
  -25.0079  -33.9748   25.0464 H   0  0  0  0  0  0
  -22.7004  -31.3050   21.4064 H   0  0  0  0  0  0
  -23.3745  -35.9653   23.3295 H   0  0  0  0  0  0
  -24.3591  -36.8926   22.2054 H   0  0  0  0  0  0
  -23.7254  -37.6519   23.6656 H   0  0  0  0  0  0
  -26.0568  -31.5794   20.5934 H   0  0  0  0  0  0
  -26.8288  -30.8722   21.9840 H   0  0  0  0  0  0
  -28.1084  -29.0549   21.1748 H   0  0  0  0  0  0
  -26.0368  -25.9329   19.0417 H   0  0  0  0  0  0
  -23.9712  -27.2869   19.0381 H   0  0  0  0  0  0
  -23.7321  -30.5920   19.4031 H   0  0  0  0  0  0
  -22.7417  -29.2405   19.8665 H   0  0  0  0  0  0
  -25.1290  -36.1954   25.0829 H   0  0  0  0  0  0
  -20.9960  -28.3242   24.1436 H   0  0  0  0  0  0
  -20.5691  -26.2282   23.3605 H   0  0  0  0  0  0
  -21.6642  -26.7469   22.1201 H   0  0  0  0  0  0
  -19.6916  -25.6299   21.1244 H   0  0  0  0  0  0
  -19.6700  -27.3198   20.6746 H   0  0  0  0  0  0
  -17.4210  -26.6684   21.4013 H   0  0  0  0  0  0
  -18.0321  -26.0071   22.9012 H   0  0  0  0  0  0
  -19.7922  -30.7260   24.2287 H   0  0  0  0  0  0
  -17.5000  -31.6273   24.5156 H   0  0  0  0  0  0
  -15.5335  -30.2978   23.7652 H   0  0  0  0  0  0
  -15.8671  -28.0819   22.7051 H   0  0  0  0  0  0
  -24.5926  -30.7023   25.7804 H   0  0  0  0  0  0
  -24.8920  -32.2845   26.4906 H   0  0  0  0  0  0
  -25.8099  -30.8876   27.0219 H   0  0  0  0  0  0
  -26.2843  -29.6786   24.1154 H   0  0  0  0  0  0
  -27.4057  -29.7253   25.4566 H   0  0  0  0  0  0
  -27.8692  -30.4319   23.9257 H   0  0  0  0  0  0
  -27.2663  -33.3600   26.2073 H   0  0  0  0  0  0
  -28.3859  -32.6871   25.0305 H   0  0  0  0  0  0
  -28.0721  -31.8416   26.5385 H   0  0  0  0  0  0
  -28.2596  -38.0110   24.7512 H   0  0  0  0  0  0
  -28.1084  -36.2641   24.6277 H   0  0  0  0  0  0
  -27.2304  -37.1449   25.8863 H   0  0  0  0  0  0
  -20.9328  -29.8740   21.6916 H   0  0  0  0  0  0
  -26.0180  -38.2859   24.1399 H   0  0  0  0  0  0
  -32.5896  -18.6139   19.6090 H   0  0  0  0  0  0
  -28.4605  -18.7803   20.8792 H   0  0  0  0  0  0
  -30.6546  -22.3919   19.8886 H   0  0  0  0  0  0
  -35.0023  -23.7086   20.6859 H   0  0  0  0  0  0
  -34.9243  -23.1943   18.9102 H   0  0  0  0  0  0
  -31.6891  -16.7651   19.8752 H   0  0  0  0  0  0
  -29.0379  -15.9188   21.0918 H   0  0  0  0  0  0
  -33.3063  -22.0578   21.2565 H   0  0  0  0  0  0
  -32.7613  -21.8061   18.3109 H   0  0  0  0  0  0
  -33.7314  -20.4898   18.9221 H   0  0  0  0  0  0
  -29.0613  -25.5079   21.7494 H   0  0  0  0  0  0
  -27.3224  -25.4890   21.6214 H   0  0  0  0  0  0
  -27.7707  -22.9116   22.1258 H   0  0  0  0  0  0
  -29.4748  -22.8735   21.7969 H   0  0  0  0  0  0
  1 25  1  0  0  0
  1 30  2  0  0  0
  1 79  1  0  0  0
  2  3  1  0  0  0
  2 25  1  0  0  0
  2 87  1  0  0  0
  2 88  1  0  0  0
  3  4  1  0  0  0
  3 89  1  0  0  0
  3 90  1  0  0  0
  4  5  1  0  0  0
  4 91  1  0  0  0
  4 92  1  0  0  0
  5  6  1  0  0  0
  5 26  1  0  0  0
  5 93  1  0  0  0
  6 25  1  0  0  0
  6 94  1  0  0  0
  6 95  1  0  0  0
  7  8  2  0  0  0
  7 26  1  0  0  0
  7 29  1  0  0  0
  8  9  1  0  0  0
  8 22  1  0  0  0
  9 10  1  0  0  0
  9 27  2  0  0  0
 10 11  2  0  0  0
 10 15  1  0  0  0
 11 12  1  0  0  0
 11 96  1  0  0  0
 12 13  2  0  0  0
 12 97  1  0  0  0
 13 14  1  0  0  0
 13 31  1  0  0  0
 14 15  2  0  0  0
 14 98  1  0  0  0
 15 99  1  0  0  0
 16 17  2  0  0  0
 16 21  1  0  0  0
 16 31  1  0  0  0
 17 18  1  0  0  0
 17100  1  0  0  0
 18 19  2  0  0  0
 18101  1  0  0  0
 19 20  1  0  0  0
 19 24  1  0  0  0
 20 21  2  0  0  0
 20102  1  0  0  0
 21 23  1  0  0  0
 22 28  1  0  0  0
 22 32  2  0  0  0
 26 27  1  0  0  0
 28103  1  0  0  0
 28104  1  0  0  0
 29105  1  0  0  0
 29106  1  0  0  0
 33 34  1  0  0  0
 33 66  1  0  0  0
 33 70  2  0  0  0
 34 36  1  0  0  0
 34 59  1  0  0  0
 34107  1  0  0  0
 35 44  2  0  0  0
 35 45  1  0  0  0
 35 68  1  0  0  0
 36 56  1  0  0  0
 36108  1  0  0  0
 37 39  1  0  0  0
 37 47  1  0  0  0
 37 66  1  0  0  0
 37109  1  0  0  0
 38 43  2  0  0  0
 38 46  1  0  0  0
 38 47  1  0  0  0
 39 64  1  0  0  0
 39 67  2  0  0  0
 40 52  1  0  0  0
 40 53  2  0  0  0
 40 58  1  0  0  0
 41110  1  0  0  0
 41111  1  0  0  0
 41112  1  0  0  0
 41 48  1  0  0  0
 42 43  1  0  0  0
 42 66  1  0  0  0
 42113  1  0  0  0
 42114  1  0  0  0
 43 44  1  0  0  0
 44115  1  0  0  0
 45 46  2  0  0  0
 45116  1  0  0  0
 46117  1  0  0  0
 47118  1  0  0  0
 47119  1  0  0  0
 48 56  1  0  0  0
 48 65  1  0  0  0
 48120  1  0  0  0
 49 50  1  0  0  0
 49 53  1  0  0  0
 49 64  1  0  0  0
 49121  1  0  0  0
 50 51  1  0  0  0
 50122  1  0  0  0
 50123  1  0  0  0
 51 52  1  0  0  0
 51124  1  0  0  0
 51125  1  0  0  0
 52126  1  0  0  0
 52127  1  0  0  0
 53 54  1  0  0  0
 54 55  2  0  0  0
 54128  1  0  0  0
 55 57  1  0  0  0
 55129  1  0  0  0
 56 69  2  0  0  0
 57 58  2  0  0  0
 57130  1  0  0  0
 58131  1  0  0  0
 59 60  1  0  0  0
 59 61  1  0  0  0
 59 62  1  0  0  0
 60132  1  0  0  0
 60133  1  0  0  0
 60134  1  0  0  0
 61135  1  0  0  0
 61136  1  0  0  0
 61137  1  0  0  0
 62138  1  0  0  0
 62139  1  0  0  0
 62140  1  0  0  0
 63 65  1  0  0  0
 63141  1  0  0  0
 63142  1  0  0  0
 63143  1  0  0  0
 64144  1  0  0  0
 65145  1  0  0  0
 68 83  1  0  0  0
 71 74  2  0  0  0
 71 75  1  0  0  0
 71146  1  0  0  0
 72 74  1  0  0  0
 72 76  2  0  0  0
 72147  1  0  0  0
 73 75  2  0  0  0
 73 76  1  0  0  0
 73148  1  0  0  0
 74 78  1  0  0  0
 75 82  1  0  0  0
 76 86  1  0  0  0
 77 80  2  0  0  0
 77149  1  0  0  0
 77150  1  0  0  0
 78 79  2  0  0  0
 78151  1  0  0  0
 79152  1  0  0  0
 80 82  1  0  0  0
 80153  1  0  0  0
 81 83  1  0  0  0
 81 84  1  0  0  0
 81 85  2  0  0  0
 82154  1  0  0  0
 82155  1  0  0  0
 83156  1  0  0  0
 83157  1  0  0  0
 84 86  1  0  0  0
 84158  1  0  0  0
 84159  1  0  0  0
M  ISO  4   1 100  68 101  79 100  83 101
M  END
> <chiral flag>
0

> <version>
0

> <s_m_source_file>
/data/baiqing/PycharmProjects/Reinvent-master-3.2/result/LINK_invent/BTK/process_docking_weight1_custom_product_contain_oxygen_bond_distance_aromatic_linkinvent_7_9_3/rearranged_h_0121.sdf

> <i_m_source_file_index>
32

> <r_mmod_Potential_Energy-OPLS-2005>
117.922035217285

> <r_mmod_Stretch_Energy-OPLS-2005>
57.7725372314453

> <r_mmod_Bend_Energy-OPLS-2005>
151.357772827148

> <r_mmod_Torsional_Energy-OPLS-2005>
224.020156860352

> <r_mmod_Improper_Torsional_Energy-OPLS-2005>
4.55951642990112

> <r_mmod_Van_der_Waal_Energy-OPLS-2005>
158.770065307617

> <r_mmod_Electrostatic_Energy-OPLS-2005>
-293.984741210938

> <r_mmod_Solvation_Energy-OPLS-2005>
-219.977142333984

> <b_mmod_Minimization_Converged-OPLS-2005>
0

> <r_mmod_RMS_Derivative-OPLS-2005>
1.28025412559509

$$$$
32
                    3D
 Structure written by MMmdl.
152160  0  0  1  0            999 V2000
  -30.7248  -14.4306   20.4993 C   0  0  0  0  0  0
  -30.4051  -12.2563   19.4392 C   0  0  0  0  0  0
  -29.4951  -12.4797   18.2133 C   0  0  0  0  0  0
  -28.0122  -12.3596   18.6159 C   0  0  0  0  0  0
  -27.6571  -13.2107   19.8651 C   0  0  2  0  0  0
  -28.6953  -13.0179   20.9928 C   0  0  0  0  0  0
  -25.2580  -13.8180   20.5684 C   0  0  0  0  0  0
  -24.1833  -13.0449   20.9172 C   0  0  0  0  0  0
  -24.6389  -11.6916   20.8724 C   0  0  0  0  0  0
  -23.9059  -10.4299   21.0397 C   0  0  0  0  0  0
  -24.3613   -9.4217   21.9177 C   0  0  0  0  0  0
  -23.6293   -8.2250   22.0751 C   0  0  0  0  0  0
  -22.4274   -8.0284   21.3544 C   0  0  0  0  0  0
  -21.9905   -9.0256   20.4645 C   0  0  0  0  0  0
  -22.7230  -10.2136   20.3051 C   0  0  0  0  0  0
  -21.6856   -6.0737   22.5280 C   0  0  0  0  0  0
  -21.4015   -6.5641   23.8212 C   0  0  0  0  0  0
  -21.3659   -5.6794   24.9175 C   0  0  0  0  0  0
  -21.6043   -4.3057   24.7225 C   0  0  0  0  0  0
  -21.8819   -3.8148   23.4347 C   0  0  0  0  0  0
  -21.9194   -4.6965   22.3403 C   0  0  0  0  0  0
  -22.7856  -13.5242   21.1842 C   0  0  0  0  0  0
  -22.1662   -4.2150   21.0981 F   0  0  0  0  0  0
  -21.5629   -3.4540   25.7737 F   0  0  0  0  0  0
  -30.0352  -13.2634   20.4434 N   0  0  0  0  0  0
  -26.3004  -12.9354   20.3322 N   0  0  0  0  0  0
  -25.9313  -11.6509   20.5742 N   0  0  0  0  0  0
  -22.0502  -12.8233   22.0401 N   0  0  0  0  0  0
  -25.4323  -15.1898   20.4132 N   0  0  0  0  0  0
  -31.9068  -14.5196   20.1586 O   0  0  0  0  0  0
  -21.6641   -6.8879   21.4242 O   0  0  0  0  0  0
  -22.3535  -14.5546   20.6693 O   0  0  0  0  0  0
  -24.6113  -31.8710   23.2126 C   0  0  0  0  0  0
  -25.9021  -32.4837   23.8411 C   0  0  1  0  0  0
  -27.2309  -27.4656   20.0936 C   0  0  0  0  0  0
  -25.5892  -33.8635   24.2345 N   0  0  0  0  0  0
  -23.3966  -30.4952   21.5533 C   0  0  2  0  0  0
  -24.8409  -28.9640   20.1178 C   0  0  0  0  0  0
  -22.7388  -29.4674   22.5013 C   0  0  0  0  0  0
  -18.0267  -28.1373   22.8496 C   0  0  0  0  0  0
  -24.1487  -36.7324   23.2637 C   0  0  0  0  0  0
  -25.9219  -30.8479   21.3585 C   0  0  0  0  0  0
  -26.0001  -29.4848   20.7062 C   0  0  0  0  0  0
  -27.2005  -28.7446   20.6859 C   0  0  0  0  0  0
  -26.0542  -26.9485   19.5072 C   0  0  0  0  0  0
  -24.8611  -27.6939   19.5159 C   0  0  0  0  0  0
  -23.6020  -29.8273   20.1677 C   0  0  0  0  0  0
  -25.4105  -36.3122   24.0341 C   0  0  1  0  0  0
  -20.5854  -28.3654   23.1333 C   0  0  2  0  0  0
  -20.6760  -26.9396   22.5422 C   0  0  0  0  0  0
  -19.5740  -26.6387   21.5215 C   0  0  0  0  0  0
  -18.1917  -26.7922   22.1624 C   0  0  0  0  0  0
  -19.1515  -28.8830   23.2913 C   0  0  0  0  0  0
  -18.9445  -30.1439   23.8920 C   0  0  0  0  0  0
  -17.6449  -30.6583   24.0567 C   0  0  0  0  0  0
  -25.9030  -34.9485   23.5139 C   0  0  0  0  0  0
  -16.5340  -29.9087   23.6323 C   0  0  0  0  0  0
  -16.7257  -28.6502   23.0347 C   0  0  0  0  0  0
  -26.4462  -31.6603   25.0723 C   0  0  0  0  0  0
  -25.3743  -31.3700   26.1483 C   0  0  0  0  0  0
  -27.0281  -30.3051   24.6067 C   0  0  0  0  0  0
  -27.6054  -32.4308   25.7474 C   0  0  0  0  0  0
  -27.5585  -37.1811   24.8462 C   0  0  0  0  0  0
  -21.4121  -29.3030   22.3747 N   0  0  0  0  0  0
  -26.4295  -37.3802   23.9411 N   0  0  0  0  0  0
  -24.6617  -31.0843   22.1008 N   0  0  0  0  0  0
  -23.4178  -28.8216   23.3041 O   0  0  0  0  0  0
  -28.4095  -26.7609   20.0860 O   0  0  0  0  0  0
  -26.5590  -34.8930   22.4698 O   0  0  0  0  0  0
  -23.5316  -32.1445   23.7544 O   0  0  0  0  0  0
  -28.6509  -19.9806   20.4128 C   0  0  0  0  0  0
  -29.0270  -19.7565   18.0217 C   0  0  0  0  0  0
  -28.9928  -18.6223   20.5965 C   0  0  0  0  0  0
  -29.3814  -18.4106   18.2057 C   0  0  0  0  0  0
  -28.6916  -20.5650   19.1242 C   0  0  0  0  0  0
  -29.4099  -17.8442   19.4956 C   0  0  0  0  0  0
  -28.5063  -22.0034   18.8785 C   0  0  0  0  0  0
  -29.9536  -16.4882   19.6211 C   0  0  0  0  0  0
  -28.5021  -22.9789   19.8071 C   0  0  0  0  0  0
  -29.9290  -15.6354   20.6679 C   0  0  0  0  0  0
  -28.3718  -24.3952   19.4266 C   0  0  0  0  0  0
  -28.3246  -25.4169   20.5695 C   0  0  0  0  0  0
  -28.3158  -24.7763   18.2509 O   0  0  0  0  0  0
  -31.4553  -12.3109   19.1470 H   0  0  0  0  0  0
  -30.2619  -11.2539   19.8457 H   0  0  0  0  0  0
  -29.7292  -11.7536   17.4338 H   0  0  0  0  0  0
  -29.6838  -13.4644   17.7825 H   0  0  0  0  0  0
  -27.8106  -11.3066   18.8152 H   0  0  0  0  0  0
  -27.3709  -12.6367   17.7785 H   0  0  0  0  0  0
  -27.6940  -14.2539   19.5520 H   0  0  0  0  0  0
  -28.6468  -12.0018   21.3865 H   0  0  0  0  0  0
  -28.4794  -13.6748   21.8363 H   0  0  0  0  0  0
  -25.2759   -9.5697   22.4749 H   0  0  0  0  0  0
  -24.0008   -7.4646   22.7472 H   0  0  0  0  0  0
  -21.0834   -8.8774   19.8953 H   0  0  0  0  0  0
  -22.3687  -10.9675   19.6161 H   0  0  0  0  0  0
  -21.2006   -7.6149   23.9714 H   0  0  0  0  0  0
  -21.1481   -6.0525   25.9078 H   0  0  0  0  0  0
  -22.0596   -2.7609   23.2850 H   0  0  0  0  0  0
  -22.4124  -11.9896   22.4787 H   0  0  0  0  0  0
  -21.1122  -13.1260   22.2617 H   0  0  0  0  0  0
  -24.6727  -15.8511   20.5314 H   0  0  0  0  0  0
  -26.2979  -15.6279   20.1228 H   0  0  0  0  0  0
  -26.7096  -32.5563   23.1183 H   0  0  0  0  0  0
  -25.0051  -33.9806   25.0495 H   0  0  0  0  0  0
  -22.6835  -31.3107   21.4164 H   0  0  0  0  0  0
  -23.3748  -35.9658   23.3302 H   0  0  0  0  0  0
  -24.3585  -36.8934   22.2051 H   0  0  0  0  0  0
  -23.7238  -37.6530   23.6646 H   0  0  0  0  0  0
  -26.0273  -31.6154   20.5905 H   0  0  0  0  0  0
  -26.8126  -30.9026   21.9727 H   0  0  0  0  0  0
  -28.0993  -29.1462   21.1332 H   0  0  0  0  0  0
  -26.0511  -25.9798   19.0297 H   0  0  0  0  0  0
  -23.9691  -27.2875   19.0590 H   0  0  0  0  0  0
  -23.7073  -30.6019   19.4072 H   0  0  0  0  0  0
  -22.7267  -29.2450   19.8740 H   0  0  0  0  0  0
  -25.1278  -36.1994   25.0834 H   0  0  0  0  0  0
  -20.9945  -28.3216   24.1454 H   0  0  0  0  0  0
  -20.5667  -26.2260   23.3602 H   0  0  0  0  0  0
  -21.6632  -26.7448   22.1212 H   0  0  0  0  0  0
  -19.6903  -25.6303   21.1229 H   0  0  0  0  0  0
  -19.6681  -27.3211   20.6756 H   0  0  0  0  0  0
  -17.4189  -26.6676   21.4023 H   0  0  0  0  0  0
  -18.0315  -26.0057   22.9012 H   0  0  0  0  0  0
  -19.7922  -30.7248   24.2299 H   0  0  0  0  0  0
  -17.5005  -31.6265   24.5164 H   0  0  0  0  0  0
  -15.5342  -30.2997   23.7634 H   0  0  0  0  0  0
  -15.8657  -28.0830   22.7048 H   0  0  0  0  0  0
  -24.5904  -30.7060   25.7822 H   0  0  0  0  0  0
  -24.8948  -32.2854   26.4961 H   0  0  0  0  0  0
  -25.8107  -30.8846   27.0221 H   0  0  0  0  0  0
  -26.2807  -29.6821   24.1138 H   0  0  0  0  0  0
  -27.4083  -29.7276   25.4503 H   0  0  0  0  0  0
  -27.8629  -30.4380   23.9181 H   0  0  0  0  0  0
  -27.2692  -33.3599   26.2089 H   0  0  0  0  0  0
  -28.3842  -32.6879   25.0281 H   0  0  0  0  0  0
  -28.0746  -31.8405   26.5357 H   0  0  0  0  0  0
  -28.2602  -38.0110   24.7520 H   0  0  0  0  0  0
  -28.1082  -36.2644   24.6271 H   0  0  0  0  0  0
  -27.2306  -37.1445   25.8866 H   0  0  0  0  0  0
  -20.9273  -29.8755   21.6979 H   0  0  0  0  0  0
  -26.0189  -38.2882   24.1416 H   0  0  0  0  0  0
  -28.3908  -20.5713   21.2790 H   0  0  0  0  0  0
  -29.0674  -20.1777   17.0266 H   0  0  0  0  0  0
  -28.9980  -18.2076   21.5946 H   0  0  0  0  0  0
  -29.6844  -17.8293   17.3458 H   0  0  0  0  0  0
  -28.3753  -22.2802   17.8405 H   0  0  0  0  0  0
  -30.4936  -16.1674   18.7378 H   0  0  0  0  0  0
  -28.6153  -22.7577   20.8576 H   0  0  0  0  0  0
  -29.3967  -15.8433   21.5836 H   0  0  0  0  0  0
  -29.1726  -25.2360   21.2301 H   0  0  0  0  0  0
  -27.4238  -25.2604   21.1647 H   0  0  0  0  0  0
  1 25  1  0  0  0
  1 30  2  0  0  0
  1 80  1  0  0  0
  2  3  1  0  0  0
  2 25  1  0  0  0
  2 84  1  0  0  0
  2 85  1  0  0  0
  3  4  1  0  0  0
  3 86  1  0  0  0
  3 87  1  0  0  0
  4  5  1  0  0  0
  4 88  1  0  0  0
  4 89  1  0  0  0
  5  6  1  0  0  0
  5 26  1  0  0  0
  5 90  1  0  0  0
  6 25  1  0  0  0
  6 91  1  0  0  0
  6 92  1  0  0  0
  7  8  2  0  0  0
  7 26  1  0  0  0
  7 29  1  0  0  0
  8  9  1  0  0  0
  8 22  1  0  0  0
  9 10  1  0  0  0
  9 27  2  0  0  0
 10 11  2  0  0  0
 10 15  1  0  0  0
 11 12  1  0  0  0
 11 93  1  0  0  0
 12 13  2  0  0  0
 12 94  1  0  0  0
 13 14  1  0  0  0
 13 31  1  0  0  0
 14 15  2  0  0  0
 14 95  1  0  0  0
 15 96  1  0  0  0
 16 17  2  0  0  0
 16 21  1  0  0  0
 16 31  1  0  0  0
 17 18  1  0  0  0
 17 97  1  0  0  0
 18 19  2  0  0  0
 18 98  1  0  0  0
 19 20  1  0  0  0
 19 24  1  0  0  0
 20 21  2  0  0  0
 20 99  1  0  0  0
 21 23  1  0  0  0
 22 28  1  0  0  0
 22 32  2  0  0  0
 26 27  1  0  0  0
 28100  1  0  0  0
 28101  1  0  0  0
 29102  1  0  0  0
 29103  1  0  0  0
 33 34  1  0  0  0
 33 66  1  0  0  0
 33 70  2  0  0  0
 34 36  1  0  0  0
 34 59  1  0  0  0
 34104  1  0  0  0
 35 44  2  0  0  0
 35 45  1  0  0  0
 35 68  1  0  0  0
 36 56  1  0  0  0
 36105  1  0  0  0
 37 39  1  0  0  0
 37 47  1  0  0  0
 37 66  1  0  0  0
 37106  1  0  0  0
 38 43  2  0  0  0
 38 46  1  0  0  0
 38 47  1  0  0  0
 39 64  1  0  0  0
 39 67  2  0  0  0
 40 52  1  0  0  0
 40 53  2  0  0  0
 40 58  1  0  0  0
 41107  1  0  0  0
 41108  1  0  0  0
 41109  1  0  0  0
 41 48  1  0  0  0
 42 43  1  0  0  0
 42 66  1  0  0  0
 42110  1  0  0  0
 42111  1  0  0  0
 43 44  1  0  0  0
 44112  1  0  0  0
 45 46  2  0  0  0
 45113  1  0  0  0
 46114  1  0  0  0
 47115  1  0  0  0
 47116  1  0  0  0
 48 56  1  0  0  0
 48 65  1  0  0  0
 48117  1  0  0  0
 49 50  1  0  0  0
 49 53  1  0  0  0
 49 64  1  0  0  0
 49118  1  0  0  0
 50 51  1  0  0  0
 50119  1  0  0  0
 50120  1  0  0  0
 51 52  1  0  0  0
 51121  1  0  0  0
 51122  1  0  0  0
 52123  1  0  0  0
 52124  1  0  0  0
 53 54  1  0  0  0
 54 55  2  0  0  0
 54125  1  0  0  0
 55 57  1  0  0  0
 55126  1  0  0  0
 56 69  2  0  0  0
 57 58  2  0  0  0
 57127  1  0  0  0
 58128  1  0  0  0
 59 60  1  0  0  0
 59 61  1  0  0  0
 59 62  1  0  0  0
 60129  1  0  0  0
 60130  1  0  0  0
 60131  1  0  0  0
 61132  1  0  0  0
 61133  1  0  0  0
 61134  1  0  0  0
 62135  1  0  0  0
 62136  1  0  0  0
 62137  1  0  0  0
 63 65  1  0  0  0
 63138  1  0  0  0
 63139  1  0  0  0
 63140  1  0  0  0
 64141  1  0  0  0
 65142  1  0  0  0
 68 82  1  0  0  0
 71 73  2  0  0  0
 71 75  1  0  0  0
 71143  1  0  0  0
 72 74  1  0  0  0
 72 75  2  0  0  0
 72144  1  0  0  0
 73 76  1  0  0  0
 73145  1  0  0  0
 74 76  2  0  0  0
 74146  1  0  0  0
 75 77  1  0  0  0
 76 78  1  0  0  0
 77 79  2  0  0  0
 77147  1  0  0  0
 78 80  2  0  0  0
 78148  1  0  0  0
 79 81  1  0  0  0
 79149  1  0  0  0
 80150  1  0  0  0
 81 82  1  0  0  0
 81 83  2  0  0  0
 82151  1  0  0  0
 82152  1  0  0  0
M  ISO  4   1 100  68 101  80 100  82 101
M  END
> <chiral flag>
0

> <version>
0

> <s_m_source_file>
/data/baiqing/PycharmProjects/Reinvent-master-3.2/result/LINK_invent/BTK/process_docking_weight1_custom_product_contain_oxygen_bond_distance_aromatic_linkinvent_7_9_3/rearranged_h_0121.sdf

> <i_m_source_file_index>
33

> <r_mmod_Potential_Energy-OPLS-2005>
-3.71305370330811

> <r_mmod_Stretch_Energy-OPLS-2005>
31.0262031555176

> <r_mmod_Bend_Energy-OPLS-2005>
95.3743515014648

> <r_mmod_Torsional_Energy-OPLS-2005>
223.386169433594

> <r_mmod_Improper_Torsional_Energy-OPLS-2005>
8.48616027832031

> <r_mmod_Van_der_Waal_Energy-OPLS-2005>
158.798187255859

> <r_mmod_Electrostatic_Energy-OPLS-2005>
-324.685516357422

> <r_mmod_Solvation_Energy-OPLS-2005>
-212.663970947266

> <b_mmod_Minimization_Converged-OPLS-2005>
0

> <r_mmod_RMS_Derivative-OPLS-2005>
0.274206280708313

$$$$
33
                    3D
 Structure written by MMmdl.
161169  0  0  1  0            999 V2000
  -30.7113  -14.4381   20.5786 C   0  0  0  0  0  0
  -30.4292  -12.2898   19.3956 C   0  0  0  0  0  0
  -29.4980  -12.5279   18.1901 C   0  0  0  0  0  0
  -28.0181  -12.3954   18.6011 C   0  0  0  0  0  0
  -27.6733  -13.2034   19.8803 C   0  0  2  0  0  0
  -28.7192  -12.9386   20.9883 C   0  0  0  0  0  0
  -25.2672  -13.8145   20.5746 C   0  0  0  0  0  0
  -24.1886  -13.0436   20.9168 C   0  0  0  0  0  0
  -24.6425  -11.6896   20.8686 C   0  0  0  0  0  0
  -23.9069  -10.4291   21.0353 C   0  0  0  0  0  0
  -24.3594   -9.4206   21.9133 C   0  0  0  0  0  0
  -23.6260   -8.2250   22.0755 C   0  0  0  0  0  0
  -22.4235   -8.0298   21.3564 C   0  0  0  0  0  0
  -21.9877   -9.0268   20.4661 C   0  0  0  0  0  0
  -22.7230  -10.2125   20.3024 C   0  0  0  0  0  0
  -21.6860   -6.0720   22.5272 C   0  0  0  0  0  0
  -21.4027   -6.5625   23.8207 C   0  0  0  0  0  0
  -21.3662   -5.6778   24.9174 C   0  0  0  0  0  0
  -21.6044   -4.3043   24.7238 C   0  0  0  0  0  0
  -21.8816   -3.8140   23.4354 C   0  0  0  0  0  0
  -21.9195   -4.6949   22.3398 C   0  0  0  0  0  0
  -22.7909  -13.5251   21.1830 C   0  0  0  0  0  0
  -22.1660   -4.2134   21.0978 F   0  0  0  0  0  0
  -21.5623   -3.4524   25.7743 F   0  0  0  0  0  0
  -30.0596  -13.2489   20.4461 N   0  0  0  0  0  0
  -26.3101  -12.9310   20.3390 N   0  0  0  0  0  0
  -25.9348  -11.6469   20.5694 N   0  0  0  0  0  0
  -22.0521  -12.8256   22.0366 N   0  0  0  0  0  0
  -25.4409  -15.1869   20.4292 N   0  0  0  0  0  0
  -31.7826  -14.6960   20.0240 O   0  0  0  0  0  0
  -21.6651   -6.8870   21.4239 O   0  0  0  0  0  0
  -22.3585  -14.5563   20.6703 O   0  0  0  0  0  0
  -24.6141  -31.8676   23.2090 C   0  0  0  0  0  0
  -25.9022  -32.4826   23.8404 C   0  0  1  0  0  0
  -27.2510  -27.4530   20.1024 C   0  0  0  0  0  0
  -25.5887  -33.8622   24.2356 N   0  0  0  0  0  0
  -23.4029  -30.4893   21.5473 C   0  0  2  0  0  0
  -24.8549  -28.9487   20.1223 C   0  0  0  0  0  0
  -22.7407  -29.4675   22.4982 C   0  0  0  0  0  0
  -18.0281  -28.1416   22.8464 C   0  0  0  0  0  0
  -24.1481  -36.7325   23.2637 C   0  0  0  0  0  0
  -25.9262  -30.8424   21.3526 C   0  0  0  0  0  0
  -26.0114  -29.4708   20.7161 C   0  0  0  0  0  0
  -27.2130  -28.7287   20.7068 C   0  0  0  0  0  0
  -26.0809  -26.9369   19.5064 C   0  0  0  0  0  0
  -24.8817  -27.6786   19.5174 C   0  0  0  0  0  0
  -23.6151  -29.8127   20.1651 C   0  0  0  0  0  0
  -25.4090  -36.3120   24.0352 C   0  0  1  0  0  0
  -20.5865  -28.3707   23.1310 C   0  0  2  0  0  0
  -20.6779  -26.9444   22.5423 C   0  0  0  0  0  0
  -19.5770  -26.6416   21.5203 C   0  0  0  0  0  0
  -18.1939  -26.7961   22.1599 C   0  0  0  0  0  0
  -19.1522  -28.8874   23.2892 C   0  0  0  0  0  0
  -18.9461  -30.1464   23.8923 C   0  0  0  0  0  0
  -17.6462  -30.6605   24.0585 C   0  0  0  0  0  0
  -25.9015  -34.9475   23.5152 C   0  0  0  0  0  0
  -16.5359  -29.9120   23.6314 C   0  0  0  0  0  0
  -16.7266  -28.6551   23.0317 C   0  0  0  0  0  0
  -26.4489  -31.6575   25.0691 C   0  0  0  0  0  0
  -25.3822  -31.3623   26.1493 C   0  0  0  0  0  0
  -27.0276  -30.3039   24.5957 C   0  0  0  0  0  0
  -27.6099  -32.4267   25.7429 C   0  0  0  0  0  0
  -27.5571  -37.1825   24.8466 C   0  0  0  0  0  0
  -21.4136  -29.3066   22.3716 N   0  0  0  0  0  0
  -26.4287  -37.3796   23.9412 N   0  0  0  0  0  0
  -24.6662  -31.0796   22.0975 N   0  0  0  0  0  0
  -23.4172  -28.8217   23.3028 O   0  0  0  0  0  0
  -28.4198  -26.7271   20.0701 O   0  0  0  0  0  0
  -26.5575  -34.8923   22.4712 O   0  0  0  0  0  0
  -23.5334  -32.1414   23.7502 O   0  0  0  0  0  0
  -30.6807  -17.5939   20.4780 C   0  0  0  0  0  0
  -30.4877  -18.9941   20.5422 C   0  0  0  0  0  0
  -28.9711  -17.2767   22.1944 C   0  0  0  0  0  0
  -28.7714  -18.6766   22.2458 C   0  0  0  0  0  0
  -29.9401  -16.7270   21.3212 C   0  0  0  0  0  0
  -29.5498  -19.5468   21.4483 C   0  0  0  0  0  0
  -28.2258  -16.2524   24.3338 C   0  0  0  0  0  0
  -28.1331  -16.3727   23.0015 C   0  0  0  0  0  0
  -27.7001  -19.2536   23.1645 C   0  0  0  0  0  0
  -29.2889  -24.4382   20.3914 C   0  0  0  0  0  0
  -29.1404  -23.1719   21.2588 C   0  0  0  0  0  0
  -28.4389  -25.6010   20.9510 C   0  0  0  0  0  0
  -29.8836  -21.8968   20.7986 C   0  0  0  0  0  0
  -30.0775  -15.3077   21.3737 N   0  0  0  0  0  0
  -29.3340  -20.8934   21.6428 O   0  0  0  0  0  0
  -31.4756  -12.3805   19.0963 H   0  0  0  0  0  0
  -30.3114  -11.2702   19.7652 H   0  0  0  0  0  0
  -29.7270  -11.8233   17.3906 H   0  0  0  0  0  0
  -29.6795  -13.5215   17.7743 H   0  0  0  0  0  0
  -27.8078  -11.3370   18.7619 H   0  0  0  0  0  0
  -27.3745  -12.7073   17.7785 H   0  0  0  0  0  0
  -27.7301  -14.2595   19.6127 H   0  0  0  0  0  0
  -28.6890  -11.8925   21.2933 H   0  0  0  0  0  0
  -28.4700  -13.4953   21.8919 H   0  0  0  0  0  0
  -25.2726   -9.5689   22.4712 H   0  0  0  0  0  0
  -23.9978   -7.4649   22.7472 H   0  0  0  0  0  0
  -21.0796   -8.8786   19.8964 H   0  0  0  0  0  0
  -22.3673  -10.9660   19.6132 H   0  0  0  0  0  0
  -21.2032   -7.6126   23.9705 H   0  0  0  0  0  0
  -21.1473   -6.0516   25.9075 H   0  0  0  0  0  0
  -22.0584   -2.7599   23.2873 H   0  0  0  0  0  0
  -22.4098  -11.9920   22.4812 H   0  0  0  0  0  0
  -21.1142  -13.1321   22.2498 H   0  0  0  0  0  0
  -24.6885  -15.8468   20.5927 H   0  0  0  0  0  0
  -26.3085  -15.6360   20.1660 H   0  0  0  0  0  0
  -26.7088  -32.5569   23.1167 H   0  0  0  0  0  0
  -25.0083  -33.9787   25.0541 H   0  0  0  0  0  0
  -22.6908  -31.3048   21.4027 H   0  0  0  0  0  0
  -23.3723  -35.9680   23.3340 H   0  0  0  0  0  0
  -24.3577  -36.8897   22.2043 H   0  0  0  0  0  0
  -23.7266  -37.6557   23.6625 H   0  0  0  0  0  0
  -26.0119  -31.5932   20.5661 H   0  0  0  0  0  0
  -26.8252  -30.9249   21.9506 H   0  0  0  0  0  0
  -28.1081  -29.1281   21.1631 H   0  0  0  0  0  0
  -26.1031  -25.9653   19.0329 H   0  0  0  0  0  0
  -23.9923  -27.2709   19.0571 H   0  0  0  0  0  0
  -23.7279  -30.5826   19.4009 H   0  0  0  0  0  0
  -22.7419  -29.2295   19.8668 H   0  0  0  0  0  0
  -25.1266  -36.1988   25.0846 H   0  0  0  0  0  0
  -20.9950  -28.3306   24.1432 H   0  0  0  0  0  0
  -20.5690  -26.2322   23.3620 H   0  0  0  0  0  0
  -21.6664  -26.7510   22.1232 H   0  0  0  0  0  0
  -19.6950  -25.6324   21.1247 H   0  0  0  0  0  0
  -19.6722  -27.3216   20.6724 H   0  0  0  0  0  0
  -17.4220  -26.6699   21.3996 H   0  0  0  0  0  0
  -18.0346  -26.0110   22.8999 H   0  0  0  0  0  0
  -19.7939  -30.7265   24.2325 H   0  0  0  0  0  0
  -17.5030  -31.6274   24.5211 H   0  0  0  0  0  0
  -15.5364  -30.3046   23.7623 H   0  0  0  0  0  0
  -15.8668  -28.0885   22.7009 H   0  0  0  0  0  0
  -24.5955  -30.7010   25.7851 H   0  0  0  0  0  0
  -24.9062  -32.2746   26.5088 H   0  0  0  0  0  0
  -25.8249  -30.8693   27.0158 H   0  0  0  0  0  0
  -26.2728  -29.6796   24.1155 H   0  0  0  0  0  0
  -27.4257  -29.7265   25.4308 H   0  0  0  0  0  0
  -27.8484  -30.4396   23.8912 H   0  0  0  0  0  0
  -27.2762  -33.3564   26.2049 H   0  0  0  0  0  0
  -28.3876  -32.6828   25.0221 H   0  0  0  0  0  0
  -28.0805  -31.8356   26.5295 H   0  0  0  0  0  0
  -28.2628  -38.0083   24.7465 H   0  0  0  0  0  0
  -28.1036  -36.2622   24.6343 H   0  0  0  0  0  0
  -27.2311  -37.1557   25.8879 H   0  0  0  0  0  0
  -20.9313  -29.8756   21.6903 H   0  0  0  0  0  0
  -26.0179  -38.2883   24.1394 H   0  0  0  0  0  0
  -31.4089  -17.2039   19.7808 H   0  0  0  0  0  0
  -31.0797  -19.6337   19.9031 H   0  0  0  0  0  0
  -27.5806  -15.5778   24.8783 H   0  0  0  0  0  0
  -28.9491  -16.8237   24.8967 H   0  0  0  0  0  0
  -27.3970  -15.7913   22.4642 H   0  0  0  0  0  0
  -26.7626  -18.7130   23.0368 H   0  0  0  0  0  0
  -27.4813  -20.3028   22.9718 H   0  0  0  0  0  0
  -28.0080  -19.1657   24.2055 H   0  0  0  0  0  0
  -28.9628  -24.2131   19.3763 H   0  0  0  0  0  0
  -30.3370  -24.7336   20.3273 H   0  0  0  0  0  0
  -28.0759  -22.9360   21.3126 H   0  0  0  0  0  0
  -29.4442  -23.4013   22.2816 H   0  0  0  0  0  0
  -28.8433  -25.9235   21.9127 H   0  0  0  0  0  0
  -27.4282  -25.2378   21.1488 H   0  0  0  0  0  0
  -30.9610  -21.9895   20.9494 H   0  0  0  0  0  0
  -29.6927  -21.6803   19.7473 H   0  0  0  0  0  0
  -29.3740  -14.8619   21.9413 H   0  0  0  0  0  0
  1 25  1  0  0  0
  1 30  2  0  0  0
  1 84  1  0  0  0
  2  3  1  0  0  0
  2 25  1  0  0  0
  2 86  1  0  0  0
  2 87  1  0  0  0
  3  4  1  0  0  0
  3 88  1  0  0  0
  3 89  1  0  0  0
  4  5  1  0  0  0
  4 90  1  0  0  0
  4 91  1  0  0  0
  5  6  1  0  0  0
  5 26  1  0  0  0
  5 92  1  0  0  0
  6 25  1  0  0  0
  6 93  1  0  0  0
  6 94  1  0  0  0
  7  8  2  0  0  0
  7 26  1  0  0  0
  7 29  1  0  0  0
  8  9  1  0  0  0
  8 22  1  0  0  0
  9 10  1  0  0  0
  9 27  2  0  0  0
 10 11  2  0  0  0
 10 15  1  0  0  0
 11 12  1  0  0  0
 11 95  1  0  0  0
 12 13  2  0  0  0
 12 96  1  0  0  0
 13 14  1  0  0  0
 13 31  1  0  0  0
 14 15  2  0  0  0
 14 97  1  0  0  0
 15 98  1  0  0  0
 16 17  2  0  0  0
 16 21  1  0  0  0
 16 31  1  0  0  0
 17 18  1  0  0  0
 17 99  1  0  0  0
 18 19  2  0  0  0
 18100  1  0  0  0
 19 20  1  0  0  0
 19 24  1  0  0  0
 20 21  2  0  0  0
 20101  1  0  0  0
 21 23  1  0  0  0
 22 28  1  0  0  0
 22 32  2  0  0  0
 26 27  1  0  0  0
 28102  1  0  0  0
 28103  1  0  0  0
 29104  1  0  0  0
 29105  1  0  0  0
 33 34  1  0  0  0
 33 66  1  0  0  0
 33 70  2  0  0  0
 34 36  1  0  0  0
 34 59  1  0  0  0
 34106  1  0  0  0
 35 44  2  0  0  0
 35 45  1  0  0  0
 35 68  1  0  0  0
 36 56  1  0  0  0
 36107  1  0  0  0
 37 39  1  0  0  0
 37 47  1  0  0  0
 37 66  1  0  0  0
 37108  1  0  0  0
 38 43  2  0  0  0
 38 46  1  0  0  0
 38 47  1  0  0  0
 39 64  1  0  0  0
 39 67  2  0  0  0
 40 52  1  0  0  0
 40 53  2  0  0  0
 40 58  1  0  0  0
 41109  1  0  0  0
 41110  1  0  0  0
 41111  1  0  0  0
 41 48  1  0  0  0
 42 43  1  0  0  0
 42 66  1  0  0  0
 42112  1  0  0  0
 42113  1  0  0  0
 43 44  1  0  0  0
 44114  1  0  0  0
 45 46  2  0  0  0
 45115  1  0  0  0
 46116  1  0  0  0
 47117  1  0  0  0
 47118  1  0  0  0
 48 56  1  0  0  0
 48 65  1  0  0  0
 48119  1  0  0  0
 49 50  1  0  0  0
 49 53  1  0  0  0
 49 64  1  0  0  0
 49120  1  0  0  0
 50 51  1  0  0  0
 50121  1  0  0  0
 50122  1  0  0  0
 51 52  1  0  0  0
 51123  1  0  0  0
 51124  1  0  0  0
 52125  1  0  0  0
 52126  1  0  0  0
 53 54  1  0  0  0
 54 55  2  0  0  0
 54127  1  0  0  0
 55 57  1  0  0  0
 55128  1  0  0  0
 56 69  2  0  0  0
 57 58  2  0  0  0
 57129  1  0  0  0
 58130  1  0  0  0
 59 60  1  0  0  0
 59 61  1  0  0  0
 59 62  1  0  0  0
 60131  1  0  0  0
 60132  1  0  0  0
 60133  1  0  0  0
 61134  1  0  0  0
 61135  1  0  0  0
 61136  1  0  0  0
 62137  1  0  0  0
 62138  1  0  0  0
 62139  1  0  0  0
 63 65  1  0  0  0
 63140  1  0  0  0
 63141  1  0  0  0
 63142  1  0  0  0
 64143  1  0  0  0
 65144  1  0  0  0
 68 82  1  0  0  0
 71 72  2  0  0  0
 71 75  1  0  0  0
 71145  1  0  0  0
 72 76  1  0  0  0
 72146  1  0  0  0
 73 74  1  0  0  0
 73 75  2  0  0  0
 73 78  1  0  0  0
 74 76  2  0  0  0
 74 79  1  0  0  0
 75 84  1  0  0  0
 76 85  1  0  0  0
 77 78  2  0  0  0
 77147  1  0  0  0
 77148  1  0  0  0
 78149  1  0  0  0
 79150  1  0  0  0
 79151  1  0  0  0
 79152  1  0  0  0
 80 81  1  0  0  0
 80 82  1  0  0  0
 80153  1  0  0  0
 80154  1  0  0  0
 81 83  1  0  0  0
 81155  1  0  0  0
 81156  1  0  0  0
 82157  1  0  0  0
 82158  1  0  0  0
 83 85  1  0  0  0
 83159  1  0  0  0
 83160  1  0  0  0
 84161  1  0  0  0
M  ISO  4   1 100  68 101  82 101  84 100
M  END
> <chiral flag>
0

> <version>
0

> <s_m_source_file>
/data/baiqing/PycharmProjects/Reinvent-master-3.2/result/LINK_invent/BTK/process_docking_weight1_custom_product_contain_oxygen_bond_distance_aromatic_linkinvent_7_9_3/rearranged_h_0121.sdf

> <i_m_source_file_index>
34

> <r_mmod_Potential_Energy-OPLS-2005>
-29.6459732055664

> <r_mmod_Stretch_Energy-OPLS-2005>
36.0452842712402

> <r_mmod_Bend_Energy-OPLS-2005>
121.796691894531

> <r_mmod_Torsional_Energy-OPLS-2005>
264.880950927734

> <r_mmod_Improper_Torsional_Energy-OPLS-2005>
3.12218832969666

> <r_mmod_Van_der_Waal_Energy-OPLS-2005>
155.97135925293

> <r_mmod_Electrostatic_Energy-OPLS-2005>
-421.296447753906

> <r_mmod_Solvation_Energy-OPLS-2005>
-199.088455200195

> <b_mmod_Minimization_Converged-OPLS-2005>
0

> <r_mmod_RMS_Derivative-OPLS-2005>
3.25160098075867

$$$$
34
                    3D
 Structure written by MMmdl.
154163  0  0  1  0            999 V2000
  -30.6410  -14.8072   20.4241 C   0  0  0  0  0  0
  -30.4199  -12.5020   19.4717 C   0  0  0  0  0  0
  -29.5022  -12.5225   18.2325 C   0  0  0  0  0  0
  -28.0304  -12.3453   18.6514 C   0  0  0  0  0  0
  -27.6345  -13.2486   19.8525 C   0  0  2  0  0  0
  -28.6913  -13.2087   20.9776 C   0  0  0  0  0  0
  -25.2386  -13.8157   20.5606 C   0  0  0  0  0  0
  -24.1745  -13.0380   20.9196 C   0  0  0  0  0  0
  -24.6409  -11.6892   20.8769 C   0  0  0  0  0  0
  -23.9098  -10.4265   21.0408 C   0  0  0  0  0  0
  -24.3632   -9.4180   21.9197 C   0  0  0  0  0  0
  -23.6296   -8.2223   22.0765 C   0  0  0  0  0  0
  -22.4285   -8.0271   21.3545 C   0  0  0  0  0  0
  -21.9919   -9.0248   20.4647 C   0  0  0  0  0  0
  -22.7261  -10.2117   20.3056 C   0  0  0  0  0  0
  -21.6858   -6.0722   22.5272 C   0  0  0  0  0  0
  -21.4018   -6.5630   23.8203 C   0  0  0  0  0  0
  -21.3663   -5.6782   24.9164 C   0  0  0  0  0  0
  -21.6042   -4.3049   24.7220 C   0  0  0  0  0  0
  -21.8829   -3.8134   23.4351 C   0  0  0  0  0  0
  -21.9198   -4.6945   22.3401 C   0  0  0  0  0  0
  -22.7768  -13.5147   21.1851 C   0  0  0  0  0  0
  -22.1667   -4.2120   21.0982 F   0  0  0  0  0  0
  -21.5626   -3.4549   25.7746 F   0  0  0  0  0  0
  -29.9652  -13.5981   20.3682 N   0  0  0  0  0  0
  -26.2914  -12.9457   20.3356 N   0  0  0  0  0  0
  -25.9366  -11.6577   20.5842 N   0  0  0  0  0  0
  -22.0422  -12.8145   22.0418 N   0  0  0  0  0  0
  -25.3817  -15.1850   20.3790 N   0  0  0  0  0  0
  -31.8546  -14.7879   20.1965 O   0  0  0  0  0  0
  -21.6655   -6.8863   21.4235 O   0  0  0  0  0  0
  -22.3446  -14.5465   20.6715 O   0  0  0  0  0  0
  -24.6376  -31.8529   23.1984 C   0  0  0  0  0  0
  -25.9185  -32.4742   23.8339 C   0  0  1  0  0  0
  -27.1998  -27.2090   20.1261 C   0  0  0  0  0  0
  -25.5948  -33.8545   24.2244 N   0  0  0  0  0  0
  -23.4356  -30.4793   21.5435 C   0  0  2  0  0  0
  -24.8789  -28.9276   20.1084 C   0  0  0  0  0  0
  -22.7525  -29.4609   22.4909 C   0  0  0  0  0  0
  -18.0305  -28.1362   22.8485 C   0  0  0  0  0  0
  -24.1485  -36.7273   23.2646 C   0  0  0  0  0  0
  -25.9898  -30.7480   21.3888 C   0  0  0  0  0  0
  -26.0578  -29.3698   20.7226 C   0  0  0  0  0  0
  -27.2231  -28.5257   20.7179 C   0  0  0  0  0  0
  -25.9950  -26.8576   19.4738 C   0  0  0  0  0  0
  -24.8570  -27.6822   19.4702 C   0  0  0  0  0  0
  -23.6542  -29.8210   20.1584 C   0  0  0  0  0  0
  -25.4121  -36.3067   24.0326 C   0  0  1  0  0  0
  -20.5909  -28.3696   23.1265 C   0  0  2  0  0  0
  -20.6777  -26.9386   22.5427 C   0  0  0  0  0  0
  -19.5741  -26.6342   21.5225 C   0  0  0  0  0  0
  -18.1947  -26.7887   22.1662 C   0  0  0  0  0  0
  -19.1555  -28.8854   23.2871 C   0  0  0  0  0  0
  -18.9450  -30.1470   23.8855 C   0  0  0  0  0  0
  -17.6437  -30.6575   24.0519 C   0  0  0  0  0  0
  -25.9064  -34.9435   23.5089 C   0  0  0  0  0  0
  -16.5347  -29.9049   23.6310 C   0  0  0  0  0  0
  -16.7286  -28.6464   23.0340 C   0  0  0  0  0  0
  -26.4514  -31.6589   25.0756 C   0  0  0  0  0  0
  -25.3716  -31.3750   26.1458 C   0  0  0  0  0  0
  -27.0377  -30.2993   24.6312 C   0  0  0  0  0  0
  -27.6038  -32.4360   25.7535 C   0  0  0  0  0  0
  -27.5574  -37.1806   24.8474 C   0  0  0  0  0  0
  -21.4228  -29.3048   22.3644 N   0  0  0  0  0  0
  -26.4297  -37.3768   23.9403 N   0  0  0  0  0  0
  -24.7073  -31.0462   22.0982 N   0  0  0  0  0  0
  -23.4200  -28.8134   23.3015 O   0  0  0  0  0  0
  -28.2490  -26.2441   20.1844 O   0  0  0  0  0  0
  -26.5638  -34.8911   22.4662 O   0  0  0  0  0  0
  -23.5511  -32.1366   23.7244 O   0  0  0  0  0  0
  -27.0787  -17.8241   22.0093 C   0  0  0  0  0  0
  -27.7761  -16.6216   21.7335 C   0  0  0  0  0  0
  -28.7076  -19.4043   20.8494 C   0  0  0  0  0  0
  -29.3729  -18.1293   20.5601 C   0  0  0  0  0  0
  -27.5003  -19.1381   21.6038 C   0  0  0  0  0  0
  -28.9265  -16.7884   20.9771 C   0  0  0  0  0  0
  -29.1488  -20.8807   20.5134 C   0  0  0  0  0  0
  -28.4200  -22.0775   20.4147 C   0  0  0  0  0  0
  -28.8978  -23.5560   20.2624 C   0  0  0  0  0  0
  -30.5825  -17.4197   19.9182 C   0  0  0  0  0  0
  -26.5865  -20.2514   22.0976 C   0  0  0  0  0  0
  -27.8411  -24.7725   20.1147 C   0  0  0  0  0  0
  -30.0144  -16.0688   20.3706 N   0  0  0  0  0  0
  -30.1017  -23.8316   20.2550 O   0  0  0  0  0  0
  -31.4602  -12.6133   19.1589 H   0  0  0  0  0  0
  -30.3667  -11.5357   19.9760 H   0  0  0  0  0  0
  -29.7916  -11.7390   17.5307 H   0  0  0  0  0  0
  -29.6195  -13.4696   17.7020 H   0  0  0  0  0  0
  -27.8902  -11.2965   18.9159 H   0  0  0  0  0  0
  -27.3704  -12.5338   17.8046 H   0  0  0  0  0  0
  -27.6149  -14.2688   19.4673 H   0  0  0  0  0  0
  -28.7598  -12.2105   21.4117 H   0  0  0  0  0  0
  -28.4456  -13.8703   21.8037 H   0  0  0  0  0  0
  -25.2768   -9.5669   22.4786 H   0  0  0  0  0  0
  -24.0000   -7.4612   22.7492 H   0  0  0  0  0  0
  -21.0846   -8.8766   19.8957 H   0  0  0  0  0  0
  -22.3711  -10.9661   19.6169 H   0  0  0  0  0  0
  -21.2021   -7.6140   23.9707 H   0  0  0  0  0  0
  -21.1473   -6.0509   25.9064 H   0  0  0  0  0  0
  -22.0610   -2.7599   23.2856 H   0  0  0  0  0  0
  -22.4078  -11.9842   22.4837 H   0  0  0  0  0  0
  -21.1036  -13.1154   22.2639 H   0  0  0  0  0  0
  -24.6075  -15.8253   20.5119 H   0  0  0  0  0  0
  -26.2389  -15.6527   20.1111 H   0  0  0  0  0  0
  -26.7249  -32.5366   23.1071 H   0  0  0  0  0  0
  -25.0083  -33.9668   25.0381 H   0  0  0  0  0  0
  -22.7339  -31.3039   21.3993 H   0  0  0  0  0  0
  -23.3751  -35.9603   23.3325 H   0  0  0  0  0  0
  -24.3566  -36.8879   22.2058 H   0  0  0  0  0  0
  -23.7236  -37.6476   23.6665 H   0  0  0  0  0  0
  -26.1452  -31.5097   20.6238 H   0  0  0  0  0  0
  -26.8615  -30.7870   22.0309 H   0  0  0  0  0  0
  -28.1213  -28.8579   21.2194 H   0  0  0  0  0  0
  -25.8791  -25.9159   18.9621 H   0  0  0  0  0  0
  -23.9563  -27.3414   18.9776 H   0  0  0  0  0  0
  -23.7803  -30.6011   19.4064 H   0  0  0  0  0  0
  -22.7701  -29.2594   19.8512 H   0  0  0  0  0  0
  -25.1305  -36.1913   25.0821 H   0  0  0  0  0  0
  -21.0019  -28.3296   24.1382 H   0  0  0  0  0  0
  -20.5651  -26.2312   23.3660 H   0  0  0  0  0  0
  -21.6647  -26.7383   22.1247 H   0  0  0  0  0  0
  -19.6870  -25.6245   21.1252 H   0  0  0  0  0  0
  -19.6660  -27.3150   20.6758 H   0  0  0  0  0  0
  -17.4204  -26.6599   21.4071 H   0  0  0  0  0  0
  -18.0403  -26.0047   22.9090 H   0  0  0  0  0  0
  -19.7911  -30.7313   24.2209 H   0  0  0  0  0  0
  -17.4982  -31.6250   24.5133 H   0  0  0  0  0  0
  -15.5343  -30.2933   23.7657 H   0  0  0  0  0  0
  -15.8687  -28.0765   22.7084 H   0  0  0  0  0  0
  -24.5886  -30.7108   25.7775 H   0  0  0  0  0  0
  -24.8911  -32.2922   26.4879 H   0  0  0  0  0  0
  -25.8010  -30.8921   27.0247 H   0  0  0  0  0  0
  -26.2988  -29.6732   24.1291 H   0  0  0  0  0  0
  -27.3962  -29.7273   25.4880 H   0  0  0  0  0  0
  -27.8913  -30.4233   23.9645 H   0  0  0  0  0  0
  -27.2617  -33.3667   26.2079 H   0  0  0  0  0  0
  -28.3868  -32.6922   25.0384 H   0  0  0  0  0  0
  -28.0702  -31.8528   26.5486 H   0  0  0  0  0  0
  -28.2614  -38.0075   24.7489 H   0  0  0  0  0  0
  -28.1043  -36.2608   24.6348 H   0  0  0  0  0  0
  -27.2287  -37.1514   25.8875 H   0  0  0  0  0  0
  -20.9424  -29.8766   21.6838 H   0  0  0  0  0  0
  -26.0170  -38.2846   24.1380 H   0  0  0  0  0  0
  -26.1676  -17.7238   22.5839 H   0  0  0  0  0  0
  -27.4126  -15.6715   22.0875 H   0  0  0  0  0  0
  -30.2189  -20.9863   20.4032 H   0  0  0  0  0  0
  -27.3493  -22.0189   20.4656 H   0  0  0  0  0  0
  -30.6195  -17.5508   18.8359 H   0  0  0  0  0  0
  -31.5290  -17.6867   20.3894 H   0  0  0  0  0  0
  -27.1494  -21.0610   22.5606 H   0  0  0  0  0  0
  -25.8927  -19.8962   22.8593 H   0  0  0  0  0  0
  -25.9741  -20.6336   21.2812 H   0  0  0  0  0  0
  -27.0673  -24.6098   20.8670 H   0  0  0  0  0  0
  -27.3745  -24.5894   19.1481 H   0  0  0  0  0  0
  1 25  1  0  0  0
  1 30  2  0  0  0
  1 83  1  0  0  0
  2  3  1  0  0  0
  2 25  1  0  0  0
  2 85  1  0  0  0
  2 86  1  0  0  0
  3  4  1  0  0  0
  3 87  1  0  0  0
  3 88  1  0  0  0
  4  5  1  0  0  0
  4 89  1  0  0  0
  4 90  1  0  0  0
  5  6  1  0  0  0
  5 26  1  0  0  0
  5 91  1  0  0  0
  6 25  1  0  0  0
  6 92  1  0  0  0
  6 93  1  0  0  0
  7  8  2  0  0  0
  7 26  1  0  0  0
  7 29  1  0  0  0
  8  9  1  0  0  0
  8 22  1  0  0  0
  9 10  1  0  0  0
  9 27  2  0  0  0
 10 11  2  0  0  0
 10 15  1  0  0  0
 11 12  1  0  0  0
 11 94  1  0  0  0
 12 13  2  0  0  0
 12 95  1  0  0  0
 13 14  1  0  0  0
 13 31  1  0  0  0
 14 15  2  0  0  0
 14 96  1  0  0  0
 15 97  1  0  0  0
 16 17  2  0  0  0
 16 21  1  0  0  0
 16 31  1  0  0  0
 17 18  1  0  0  0
 17 98  1  0  0  0
 18 19  2  0  0  0
 18 99  1  0  0  0
 19 20  1  0  0  0
 19 24  1  0  0  0
 20 21  2  0  0  0
 20100  1  0  0  0
 21 23  1  0  0  0
 22 28  1  0  0  0
 22 32  2  0  0  0
 26 27  1  0  0  0
 28101  1  0  0  0
 28102  1  0  0  0
 29103  1  0  0  0
 29104  1  0  0  0
 33 34  1  0  0  0
 33 66  1  0  0  0
 33 70  2  0  0  0
 34 36  1  0  0  0
 34 59  1  0  0  0
 34105  1  0  0  0
 35 44  2  0  0  0
 35 45  1  0  0  0
 35 68  1  0  0  0
 36 56  1  0  0  0
 36106  1  0  0  0
 37 39  1  0  0  0
 37 47  1  0  0  0
 37 66  1  0  0  0
 37107  1  0  0  0
 38 43  2  0  0  0
 38 46  1  0  0  0
 38 47  1  0  0  0
 39 64  1  0  0  0
 39 67  2  0  0  0
 40 52  1  0  0  0
 40 53  2  0  0  0
 40 58  1  0  0  0
 41108  1  0  0  0
 41109  1  0  0  0
 41110  1  0  0  0
 41 48  1  0  0  0
 42 43  1  0  0  0
 42 66  1  0  0  0
 42111  1  0  0  0
 42112  1  0  0  0
 43 44  1  0  0  0
 44113  1  0  0  0
 45 46  2  0  0  0
 45114  1  0  0  0
 46115  1  0  0  0
 47116  1  0  0  0
 47117  1  0  0  0
 48 56  1  0  0  0
 48 65  1  0  0  0
 48118  1  0  0  0
 49 50  1  0  0  0
 49 53  1  0  0  0
 49 64  1  0  0  0
 49119  1  0  0  0
 50 51  1  0  0  0
 50120  1  0  0  0
 50121  1  0  0  0
 51 52  1  0  0  0
 51122  1  0  0  0
 51123  1  0  0  0
 52124  1  0  0  0
 52125  1  0  0  0
 53 54  1  0  0  0
 54 55  2  0  0  0
 54126  1  0  0  0
 55 57  1  0  0  0
 55127  1  0  0  0
 56 69  2  0  0  0
 57 58  2  0  0  0
 57128  1  0  0  0
 58129  1  0  0  0
 59 60  1  0  0  0
 59 61  1  0  0  0
 59 62  1  0  0  0
 60130  1  0  0  0
 60131  1  0  0  0
 60132  1  0  0  0
 61133  1  0  0  0
 61134  1  0  0  0
 61135  1  0  0  0
 62136  1  0  0  0
 62137  1  0  0  0
 62138  1  0  0  0
 63 65  1  0  0  0
 63139  1  0  0  0
 63140  1  0  0  0
 63141  1  0  0  0
 64142  1  0  0  0
 65143  1  0  0  0
 68 82  1  0  0  0
 71 72  2  0  0  0
 71 75  1  0  0  0
 71144  1  0  0  0
 72 76  1  0  0  0
 72145  1  0  0  0
 73 74  1  0  0  0
 73 75  2  0  0  0
 73 77  1  0  0  0
 74 76  2  0  0  0
 74 80  1  0  0  0
 75 81  1  0  0  0
 76 83  1  0  0  0
 77 78  2  0  0  0
 77146  1  0  0  0
 78 79  1  0  0  0
 78147  1  0  0  0
 79 82  1  0  0  0
 79 84  2  0  0  0
 80 83  1  0  0  0
 80148  1  0  0  0
 80149  1  0  0  0
 81150  1  0  0  0
 81151  1  0  0  0
 81152  1  0  0  0
 82153  1  0  0  0
 82154  1  0  0  0
M  ISO  4   1 100  68 101  82 101  83 100
M  END
> <chiral flag>
0

> <version>
0

> <s_m_source_file>
/data/baiqing/PycharmProjects/Reinvent-master-3.2/result/LINK_invent/BTK/process_docking_weight1_custom_product_contain_oxygen_bond_distance_aromatic_linkinvent_7_9_3/rearranged_h_0121.sdf

> <i_m_source_file_index>
35

> <r_mmod_Potential_Energy-OPLS-2005>
788.886962890625

> <r_mmod_Stretch_Energy-OPLS-2005>
165.456176757812

> <r_mmod_Bend_Energy-OPLS-2005>
643.635131835938

> <r_mmod_Torsional_Energy-OPLS-2005>
243.343536376953

> <r_mmod_Improper_Torsional_Energy-OPLS-2005>
11.3396110534668

> <r_mmod_Van_der_Waal_Energy-OPLS-2005>
145.458450317383

> <r_mmod_Electrostatic_Energy-OPLS-2005>
-326.490112304688

> <r_mmod_Solvation_Energy-OPLS-2005>
-216.238464355469

> <b_mmod_Minimization_Converged-OPLS-2005>
0

> <r_mmod_RMS_Derivative-OPLS-2005>
2.23990678787231

$$$$
35
                    3D
 Structure written by MMmdl.
159167  0  0  1  0            999 V2000
  -30.7874  -14.3556   20.7115 C   0  0  0  0  0  0
  -30.4136  -12.3019   19.3897 C   0  0  0  0  0  0
  -29.4792  -12.5281   18.1883 C   0  0  0  0  0  0
  -28.0065  -12.3756   18.6096 C   0  0  0  0  0  0
  -27.6633  -13.2044   19.8745 C   0  0  2  0  0  0
  -28.7009  -12.9605   20.9914 C   0  0  0  0  0  0
  -25.2592  -13.8160   20.5668 C   0  0  0  0  0  0
  -24.1838  -13.0439   20.9161 C   0  0  0  0  0  0
  -24.6389  -11.6905   20.8721 C   0  0  0  0  0  0
  -23.9055  -10.4292   21.0397 C   0  0  0  0  0  0
  -24.3610   -9.4211   21.9178 C   0  0  0  0  0  0
  -23.6288   -8.2244   22.0752 C   0  0  0  0  0  0
  -22.4270   -8.0279   21.3542 C   0  0  0  0  0  0
  -21.9902   -9.0252   20.4644 C   0  0  0  0  0  0
  -22.7227  -10.2131   20.3050 C   0  0  0  0  0  0
  -21.6851   -6.0734   22.5278 C   0  0  0  0  0  0
  -21.4013   -6.5639   23.8212 C   0  0  0  0  0  0
  -21.3660   -5.6792   24.9175 C   0  0  0  0  0  0
  -21.6043   -4.3054   24.7225 C   0  0  0  0  0  0
  -21.8820   -3.8146   23.4347 C   0  0  0  0  0  0
  -21.9194   -4.6962   22.3403 C   0  0  0  0  0  0
  -22.7862  -13.5238   21.1835 C   0  0  0  0  0  0
  -22.1661   -4.2147   21.0979 F   0  0  0  0  0  0
  -21.5630   -3.4539   25.7739 F   0  0  0  0  0  0
  -30.0444  -13.2476   20.4540 N   0  0  0  0  0  0
  -26.3028  -12.9327   20.3355 N   0  0  0  0  0  0
  -25.9313  -11.6485   20.5744 N   0  0  0  0  0  0
  -22.0507  -12.8231   22.0396 N   0  0  0  0  0  0
  -25.4335  -15.1876   20.4091 N   0  0  0  0  0  0
  -31.7893  -14.6643   20.0587 O   0  0  0  0  0  0
  -21.6637   -6.8875   21.4239 O   0  0  0  0  0  0
  -22.3547  -14.5548   20.6692 O   0  0  0  0  0  0
  -24.6112  -31.8702   23.2124 C   0  0  0  0  0  0
  -25.9020  -32.4834   23.8409 C   0  0  1  0  0  0
  -27.2385  -27.4622   20.0953 C   0  0  0  0  0  0
  -25.5889  -33.8632   24.2345 N   0  0  0  0  0  0
  -23.3989  -30.4926   21.5512 C   0  0  2  0  0  0
  -24.8484  -28.9575   20.1196 C   0  0  0  0  0  0
  -22.7395  -29.4666   22.5002 C   0  0  0  0  0  0
  -18.0268  -28.1373   22.8494 C   0  0  0  0  0  0
  -24.1485  -36.7322   23.2637 C   0  0  0  0  0  0
  -25.9239  -30.8415   21.3639 C   0  0  0  0  0  0
  -26.0038  -29.4735   20.7218 C   0  0  0  0  0  0
  -27.2027  -28.7287   20.7186 C   0  0  0  0  0  0
  -26.0752  -26.9554   19.4857 C   0  0  0  0  0  0
  -24.8759  -27.6931   19.5036 C   0  0  0  0  0  0
  -23.6085  -29.8221   20.1664 C   0  0  0  0  0  0
  -25.4104  -36.3121   24.0341 C   0  0  1  0  0  0
  -20.5856  -28.3660   23.1326 C   0  0  2  0  0  0
  -20.6760  -26.9400   22.5418 C   0  0  0  0  0  0
  -19.5741  -26.6388   21.5210 C   0  0  0  0  0  0
  -18.1918  -26.7921   22.1620 C   0  0  0  0  0  0
  -19.1516  -28.8832   23.2907 C   0  0  0  0  0  0
  -18.9447  -30.1438   23.8919 C   0  0  0  0  0  0
  -17.6451  -30.6585   24.0567 C   0  0  0  0  0  0
  -25.9029  -34.9484   23.5141 C   0  0  0  0  0  0
  -16.5342  -29.9090   23.6322 C   0  0  0  0  0  0
  -16.7258  -28.6503   23.0348 C   0  0  0  0  0  0
  -26.4465  -31.6597   25.0718 C   0  0  0  0  0  0
  -25.3747  -31.3688   26.1478 C   0  0  0  0  0  0
  -27.0289  -30.3046   24.6060 C   0  0  0  0  0  0
  -27.6051  -32.4307   25.7475 C   0  0  0  0  0  0
  -27.5582  -37.1815   24.8465 C   0  0  0  0  0  0
  -21.4127  -29.3030   22.3737 N   0  0  0  0  0  0
  -26.4295  -37.3802   23.9410 N   0  0  0  0  0  0
  -24.6624  -31.0823   22.1014 N   0  0  0  0  0  0
  -23.4179  -28.8210   23.3036 O   0  0  0  0  0  0
  -28.3906  -26.7231   20.0189 O   0  0  0  0  0  0
  -26.5592  -34.8931   22.4702 O   0  0  0  0  0  0
  -23.5314  -32.1442   23.7537 O   0  0  0  0  0  0
  -29.7358  -19.4827   22.7105 C   0  0  0  0  0  0
  -29.8932  -18.0863   22.8337 C   0  0  0  0  0  0
  -31.9198  -18.2052   21.5022 C   0  0  0  0  0  0
  -30.6899  -20.2684   22.0190 C   0  0  0  0  0  0
  -31.0086  -17.4454   22.2605 C   0  0  0  0  0  0
  -31.7684  -19.6036   21.3749 C   0  0  0  0  0  0
  -30.5946  -21.7494   22.0018 C   0  0  0  0  0  0
  -29.5615  -22.5116   22.4121 C   0  0  0  0  0  0
  -28.8098  -24.7116   21.3259 C   0  0  0  0  0  0
  -32.8053  -20.3687   20.5673 C   0  0  0  0  0  0
  -31.2859  -15.9724   22.5324 C   0  0  0  0  0  0
  -29.5976  -24.0353   22.4538 C   0  0  0  0  0  0
  -28.8906  -26.2461   21.2678 C   0  0  0  0  0  0
  -30.4331  -15.0309   21.8120 N   0  0  0  0  0  0
  -28.1432  -24.0608   20.5126 O   0  0  0  0  0  0
  -31.4556  -12.4052   19.0812 H   0  0  0  0  0  0
  -30.3172  -11.2799   19.7589 H   0  0  0  0  0  0
  -29.7138  -11.8221   17.3905 H   0  0  0  0  0  0
  -29.6439  -13.5245   17.7751 H   0  0  0  0  0  0
  -27.8215  -11.3172   18.7981 H   0  0  0  0  0  0
  -27.3487  -12.6563   17.7861 H   0  0  0  0  0  0
  -27.7180  -14.2565   19.5935 H   0  0  0  0  0  0
  -28.6637  -11.9213   21.3217 H   0  0  0  0  0  0
  -28.4415  -13.5529   21.8686 H   0  0  0  0  0  0
  -25.2757   -9.5688   22.4748 H   0  0  0  0  0  0
  -24.0000   -7.4636   22.7471 H   0  0  0  0  0  0
  -21.0833   -8.8765   19.8950 H   0  0  0  0  0  0
  -22.3684  -10.9667   19.6156 H   0  0  0  0  0  0
  -21.2003   -7.6147   23.9714 H   0  0  0  0  0  0
  -21.1480   -6.0523   25.9078 H   0  0  0  0  0  0
  -22.0600   -2.7608   23.2848 H   0  0  0  0  0  0
  -22.4121  -11.9889   22.4778 H   0  0  0  0  0  0
  -21.1127  -13.1258   22.2607 H   0  0  0  0  0  0
  -24.6740  -15.8500   20.5236 H   0  0  0  0  0  0
  -26.2991  -15.6242   20.1156 H   0  0  0  0  0  0
  -26.7094  -32.5567   23.1184 H   0  0  0  0  0  0
  -25.0048  -33.9796   25.0495 H   0  0  0  0  0  0
  -22.6862  -31.3081   21.4115 H   0  0  0  0  0  0
  -23.3744  -35.9658   23.3309 H   0  0  0  0  0  0
  -24.3582  -36.8923   22.2049 H   0  0  0  0  0  0
  -23.7241  -37.6532   23.6642 H   0  0  0  0  0  0
  -26.0293  -31.6032   20.5902 H   0  0  0  0  0  0
  -26.8146  -30.9023   21.9771 H   0  0  0  0  0  0
  -28.0978  -29.1299   21.1737 H   0  0  0  0  0  0
  -26.1017  -25.9895   19.0001 H   0  0  0  0  0  0
  -23.9890  -27.2900   19.0341 H   0  0  0  0  0  0
  -23.7154  -30.5958   19.4051 H   0  0  0  0  0  0
  -22.7338  -29.2393   19.8722 H   0  0  0  0  0  0
  -25.1278  -36.1993   25.0835 H   0  0  0  0  0  0
  -20.9948  -28.3226   24.1447 H   0  0  0  0  0  0
  -20.5667  -26.2267   23.3601 H   0  0  0  0  0  0
  -21.6633  -26.7451   22.1210 H   0  0  0  0  0  0
  -19.6908  -25.6306   21.1224 H   0  0  0  0  0  0
  -19.6681  -27.3212   20.6751 H   0  0  0  0  0  0
  -17.4189  -26.6670   21.4022 H   0  0  0  0  0  0
  -18.0319  -26.0056   22.9011 H   0  0  0  0  0  0
  -19.7925  -30.7241   24.2305 H   0  0  0  0  0  0
  -17.5011  -31.6268   24.5166 H   0  0  0  0  0  0
  -15.5346  -30.3004   23.7632 H   0  0  0  0  0  0
  -15.8654  -28.0834   22.7056 H   0  0  0  0  0  0
  -24.5914  -30.7042   25.7817 H   0  0  0  0  0  0
  -24.8947  -32.2837   26.4960 H   0  0  0  0  0  0
  -25.8114  -30.8835   27.0216 H   0  0  0  0  0  0
  -26.2815  -29.6813   24.1136 H   0  0  0  0  0  0
  -27.4097  -29.7273   25.4494 H   0  0  0  0  0  0
  -27.8636  -30.4373   23.9172 H   0  0  0  0  0  0
  -27.2678  -33.3594   26.2090 H   0  0  0  0  0  0
  -28.3843  -32.6885   25.0291 H   0  0  0  0  0  0
  -28.0737  -31.8404   26.5360 H   0  0  0  0  0  0
  -28.2609  -38.0106   24.7520 H   0  0  0  0  0  0
  -28.1071  -36.2642   24.6283 H   0  0  0  0  0  0
  -27.2303  -37.1459   25.8869 H   0  0  0  0  0  0
  -20.9283  -29.8753   21.6963 H   0  0  0  0  0  0
  -26.0189  -38.2882   24.1412 H   0  0  0  0  0  0
  -28.8951  -19.9445   23.2068 H   0  0  0  0  0  0
  -29.1802  -17.5174   23.4147 H   0  0  0  0  0  0
  -32.7686  -17.7122   21.0475 H   0  0  0  0  0  0
  -31.4708  -22.2788   21.6584 H   0  0  0  0  0  0
  -28.6392  -22.0608   22.7474 H   0  0  0  0  0  0
  -33.4822  -19.6948   20.0414 H   0  0  0  0  0  0
  -33.4080  -21.0021   21.2186 H   0  0  0  0  0  0
  -32.3237  -20.9976   19.8179 H   0  0  0  0  0  0
  -31.1462  -15.7941   23.5993 H   0  0  0  0  0  0
  -32.3401  -15.7565   22.3464 H   0  0  0  0  0  0
  -30.6324  -24.3726   22.3906 H   0  0  0  0  0  0
  -29.2120  -24.3767   23.4144 H   0  0  0  0  0  0
  -29.9312  -26.5528   21.3733 H   0  0  0  0  0  0
  -28.3414  -26.6631   22.1131 H   0  0  0  0  0  0
  -29.6038  -14.7105   22.2883 H   0  0  0  0  0  0
  1 25  1  0  0  0
  1 30  2  0  0  0
  1 84  1  0  0  0
  2  3  1  0  0  0
  2 25  1  0  0  0
  2 86  1  0  0  0
  2 87  1  0  0  0
  3  4  1  0  0  0
  3 88  1  0  0  0
  3 89  1  0  0  0
  4  5  1  0  0  0
  4 90  1  0  0  0
  4 91  1  0  0  0
  5  6  1  0  0  0
  5 26  1  0  0  0
  5 92  1  0  0  0
  6 25  1  0  0  0
  6 93  1  0  0  0
  6 94  1  0  0  0
  7  8  2  0  0  0
  7 26  1  0  0  0
  7 29  1  0  0  0
  8  9  1  0  0  0
  8 22  1  0  0  0
  9 10  1  0  0  0
  9 27  2  0  0  0
 10 11  2  0  0  0
 10 15  1  0  0  0
 11 12  1  0  0  0
 11 95  1  0  0  0
 12 13  2  0  0  0
 12 96  1  0  0  0
 13 14  1  0  0  0
 13 31  1  0  0  0
 14 15  2  0  0  0
 14 97  1  0  0  0
 15 98  1  0  0  0
 16 17  2  0  0  0
 16 21  1  0  0  0
 16 31  1  0  0  0
 17 18  1  0  0  0
 17 99  1  0  0  0
 18 19  2  0  0  0
 18100  1  0  0  0
 19 20  1  0  0  0
 19 24  1  0  0  0
 20 21  2  0  0  0
 20101  1  0  0  0
 21 23  1  0  0  0
 22 28  1  0  0  0
 22 32  2  0  0  0
 26 27  1  0  0  0
 28102  1  0  0  0
 28103  1  0  0  0
 29104  1  0  0  0
 29105  1  0  0  0
 33 34  1  0  0  0
 33 66  1  0  0  0
 33 70  2  0  0  0
 34 36  1  0  0  0
 34 59  1  0  0  0
 34106  1  0  0  0
 35 44  2  0  0  0
 35 45  1  0  0  0
 35 68  1  0  0  0
 36 56  1  0  0  0
 36107  1  0  0  0
 37 39  1  0  0  0
 37 47  1  0  0  0
 37 66  1  0  0  0
 37108  1  0  0  0
 38 43  2  0  0  0
 38 46  1  0  0  0
 38 47  1  0  0  0
 39 64  1  0  0  0
 39 67  2  0  0  0
 40 52  1  0  0  0
 40 53  2  0  0  0
 40 58  1  0  0  0
 41109  1  0  0  0
 41110  1  0  0  0
 41111  1  0  0  0
 41 48  1  0  0  0
 42 43  1  0  0  0
 42 66  1  0  0  0
 42112  1  0  0  0
 42113  1  0  0  0
 43 44  1  0  0  0
 44114  1  0  0  0
 45 46  2  0  0  0
 45115  1  0  0  0
 46116  1  0  0  0
 47117  1  0  0  0
 47118  1  0  0  0
 48 56  1  0  0  0
 48 65  1  0  0  0
 48119  1  0  0  0
 49 50  1  0  0  0
 49 53  1  0  0  0
 49 64  1  0  0  0
 49120  1  0  0  0
 50 51  1  0  0  0
 50121  1  0  0  0
 50122  1  0  0  0
 51 52  1  0  0  0
 51123  1  0  0  0
 51124  1  0  0  0
 52125  1  0  0  0
 52126  1  0  0  0
 53 54  1  0  0  0
 54 55  2  0  0  0
 54127  1  0  0  0
 55 57  1  0  0  0
 55128  1  0  0  0
 56 69  2  0  0  0
 57 58  2  0  0  0
 57129  1  0  0  0
 58130  1  0  0  0
 59 60  1  0  0  0
 59 61  1  0  0  0
 59 62  1  0  0  0
 60131  1  0  0  0
 60132  1  0  0  0
 60133  1  0  0  0
 61134  1  0  0  0
 61135  1  0  0  0
 61136  1  0  0  0
 62137  1  0  0  0
 62138  1  0  0  0
 62139  1  0  0  0
 63 65  1  0  0  0
 63140  1  0  0  0
 63141  1  0  0  0
 63142  1  0  0  0
 64143  1  0  0  0
 65144  1  0  0  0
 68 83  1  0  0  0
 71 72  2  0  0  0
 71 74  1  0  0  0
 71145  1  0  0  0
 72 75  1  0  0  0
 72146  1  0  0  0
 73 75  2  0  0  0
 73 76  1  0  0  0
 73147  1  0  0  0
 74 76  2  0  0  0
 74 77  1  0  0  0
 75 81  1  0  0  0
 76 80  1  0  0  0
 77 78  2  0  0  0
 77148  1  0  0  0
 78 82  1  0  0  0
 78149  1  0  0  0
 79 82  1  0  0  0
 79 83  1  0  0  0
 79 85  2  0  0  0
 80150  1  0  0  0
 80151  1  0  0  0
 80152  1  0  0  0
 81 84  1  0  0  0
 81153  1  0  0  0
 81154  1  0  0  0
 82155  1  0  0  0
 82156  1  0  0  0
 83157  1  0  0  0
 83158  1  0  0  0
 84159  1  0  0  0
M  ISO  4   1 100  68 101  83 101  84 100
M  END
> <chiral flag>
0

> <version>
0

> <s_m_source_file>
/data/baiqing/PycharmProjects/Reinvent-master-3.2/result/LINK_invent/BTK/process_docking_weight1_custom_product_contain_oxygen_bond_distance_aromatic_linkinvent_7_9_3/rearranged_h_0121.sdf

> <i_m_source_file_index>
36

> <r_mmod_Potential_Energy-OPLS-2005>
-116.30086517334

> <r_mmod_Stretch_Energy-OPLS-2005>
33.3544311523438

> <r_mmod_Bend_Energy-OPLS-2005>
87.6052932739258

> <r_mmod_Torsional_Energy-OPLS-2005>
215.667282104492

> <r_mmod_Improper_Torsional_Energy-OPLS-2005>
3.57623434066772

> <r_mmod_Van_der_Waal_Energy-OPLS-2005>
153.906799316406

> <r_mmod_Electrostatic_Energy-OPLS-2005>
-387.795043945312

> <r_mmod_Solvation_Energy-OPLS-2005>
-229.243225097656

> <b_mmod_Minimization_Converged-OPLS-2005>
0

> <r_mmod_RMS_Derivative-OPLS-2005>
0.341626435518265

$$$$
36
                    3D
 Structure written by MMmdl.
155163  0  0  1  0            999 V2000
  -30.6646  -14.5670   20.5861 C   0  0  0  0  0  0
  -30.4377  -12.3720   19.4311 C   0  0  0  0  0  0
  -29.5028  -12.5269   18.2106 C   0  0  0  0  0  0
  -28.0238  -12.3667   18.6171 C   0  0  0  0  0  0
  -27.6624  -13.2048   19.8719 C   0  0  2  0  0  0
  -28.7031  -12.9880   20.9887 C   0  0  0  0  0  0
  -25.2615  -13.8137   20.5658 C   0  0  0  0  0  0
  -24.1857  -13.0433   20.9136 C   0  0  0  0  0  0
  -24.6404  -11.6897   20.8707 C   0  0  0  0  0  0
  -23.9063  -10.4296   21.0394 C   0  0  0  0  0  0
  -24.3621   -9.4213   21.9173 C   0  0  0  0  0  0
  -23.6289   -8.2254   22.0761 C   0  0  0  0  0  0
  -22.4268   -8.0294   21.3549 C   0  0  0  0  0  0
  -21.9901   -9.0265   20.4647 C   0  0  0  0  0  0
  -22.7231  -10.2141   20.3048 C   0  0  0  0  0  0
  -21.6862   -6.0735   22.5279 C   0  0  0  0  0  0
  -21.4014   -6.5638   23.8210 C   0  0  0  0  0  0
  -21.3662   -5.6791   24.9176 C   0  0  0  0  0  0
  -21.6044   -4.3054   24.7225 C   0  0  0  0  0  0
  -21.8821   -3.8143   23.4349 C   0  0  0  0  0  0
  -21.9195   -4.6961   22.3402 C   0  0  0  0  0  0
  -22.7887  -13.5263   21.1807 C   0  0  0  0  0  0
  -22.1666   -4.2144   21.0981 F   0  0  0  0  0  0
  -21.5629   -3.4542   25.7741 F   0  0  0  0  0  0
  -30.0253  -13.3596   20.4493 N   0  0  0  0  0  0
  -26.3042  -12.9297   20.3332 N   0  0  0  0  0  0
  -25.9333  -11.6462   20.5728 N   0  0  0  0  0  0
  -22.0528  -12.8274   22.0369 N   0  0  0  0  0  0
  -25.4358  -15.1860   20.4106 N   0  0  0  0  0  0
  -31.7816  -14.7449   20.0900 O   0  0  0  0  0  0
  -21.6643   -6.8886   21.4243 O   0  0  0  0  0  0
  -22.3589  -14.5576   20.6662 O   0  0  0  0  0  0
  -24.6215  -31.8617   23.2069 C   0  0  0  0  0  0
  -25.9079  -32.4786   23.8383 C   0  0  1  0  0  0
  -27.2325  -27.3626   20.1149 C   0  0  0  0  0  0
  -25.5924  -33.8594   24.2309 N   0  0  0  0  0  0
  -23.4144  -30.4855   21.5450 C   0  0  2  0  0  0
  -24.8630  -28.9452   20.1155 C   0  0  0  0  0  0
  -22.7440  -29.4625   22.4929 C   0  0  0  0  0  0
  -18.0279  -28.1397   22.8461 C   0  0  0  0  0  0
  -24.1491  -36.7304   23.2637 C   0  0  0  0  0  0
  -25.9511  -30.8074   21.3720 C   0  0  0  0  0  0
  -26.0285  -29.4366   20.7182 C   0  0  0  0  0  0
  -27.2166  -28.6550   20.7101 C   0  0  0  0  0  0
  -26.0463  -26.9135   19.4902 C   0  0  0  0  0  0
  -24.8718  -27.6877   19.4932 C   0  0  0  0  0  0
  -23.6299  -29.8212   20.1597 C   0  0  0  0  0  0
  -25.4111  -36.3090   24.0334 C   0  0  1  0  0  0
  -20.5873  -28.3690   23.1282 C   0  0  2  0  0  0
  -20.6777  -26.9418   22.5406 C   0  0  0  0  0  0
  -19.5760  -26.6390   21.5200 C   0  0  0  0  0  0
  -18.1933  -26.7938   22.1605 C   0  0  0  0  0  0
  -19.1530  -28.8857   23.2867 C   0  0  0  0  0  0
  -18.9459  -30.1462   23.8877 C   0  0  0  0  0  0
  -17.6462  -30.6593   24.0563 C   0  0  0  0  0  0
  -25.9042  -34.9456   23.5114 C   0  0  0  0  0  0
  -16.5350  -29.9093   23.6334 C   0  0  0  0  0  0
  -16.7265  -28.6523   23.0324 C   0  0  0  0  0  0
  -26.4502  -31.6582   25.0722 C   0  0  0  0  0  0
  -25.3784  -31.3693   26.1480 C   0  0  0  0  0  0
  -27.0342  -30.3012   24.6144 C   0  0  0  0  0  0
  -27.6060  -32.4314   25.7494 C   0  0  0  0  0  0
  -27.5575  -37.1811   24.8463 C   0  0  0  0  0  0
  -21.4154  -29.3050   22.3676 N   0  0  0  0  0  0
  -26.4289  -37.3775   23.9406 N   0  0  0  0  0  0
  -24.6803  -31.0673   22.0987 N   0  0  0  0  0  0
  -23.4175  -28.8159   23.2996 O   0  0  0  0  0  0
  -28.3716  -26.5604   20.1306 O   0  0  0  0  0  0
  -26.5583  -34.8908   22.4661 O   0  0  0  0  0  0
  -23.5385  -32.1395   23.7418 O   0  0  0  0  0  0
  -29.9720  -19.4026   20.4108 C   0  0  0  0  0  0
  -31.1848  -20.0263   18.4081 C   0  0  0  0  0  0
  -30.9935  -17.6733   19.0266 C   0  0  0  0  0  0
  -30.4455  -20.4342   19.5382 C   0  0  0  0  0  0
  -30.2635  -18.0092   20.1859 C   0  0  0  0  0  0
  -31.4566  -18.6702   18.1480 C   0  0  0  0  0  0
  -30.2588  -21.9271   19.6422 C   0  0  0  0  0  0
  -29.8093  -16.9643   21.1709 C   0  0  0  0  0  0
  -29.3148  -22.7300   20.2103 C   0  0  0  0  0  0
  -29.9385  -15.6070   21.3509 C   0  0  0  0  0  0
  -29.4130  -24.2381   20.1134 C   0  0  0  0  0  0
  -32.2576  -18.2787   16.9221 C   0  0  0  0  0  0
  -28.1674  -25.1308   20.3985 C   0  0  0  0  0  0
  -30.4692  -24.8003   19.8001 O   0  0  0  0  0  0
  -31.4774  -12.4947   19.1236 H   0  0  0  0  0  0
  -30.3702  -11.3607   19.8353 H   0  0  0  0  0  0
  -29.7598  -11.7964   17.4420 H   0  0  0  0  0  0
  -29.6520  -13.5094   17.7583 H   0  0  0  0  0  0
  -27.8465  -11.3082   18.8138 H   0  0  0  0  0  0
  -27.3753  -12.6343   17.7823 H   0  0  0  0  0  0
  -27.7087  -14.2548   19.5835 H   0  0  0  0  0  0
  -28.7130  -11.9404   21.2928 H   0  0  0  0  0  0
  -28.4160  -13.5251   21.8890 H   0  0  0  0  0  0
  -25.2786   -9.5689   22.4735 H   0  0  0  0  0  0
  -24.0001   -7.4653   22.7495 H   0  0  0  0  0  0
  -21.0828   -8.8774   19.8965 H   0  0  0  0  0  0
  -22.3687  -10.9673   19.6149 H   0  0  0  0  0  0
  -21.2007   -7.6149   23.9709 H   0  0  0  0  0  0
  -21.1480   -6.0526   25.9074 H   0  0  0  0  0  0
  -22.0598   -2.7608   23.2850 H   0  0  0  0  0  0
  -22.4159  -11.9947   22.4759 H   0  0  0  0  0  0
  -21.1146  -13.1300   22.2581 H   0  0  0  0  0  0
  -24.6744  -15.8453   20.5313 H   0  0  0  0  0  0
  -26.3028  -15.6257   20.1259 H   0  0  0  0  0  0
  -26.7143  -32.5486   23.1139 H   0  0  0  0  0  0
  -25.0130  -33.9766   25.0491 H   0  0  0  0  0  0
  -22.7074  -31.3051   21.4019 H   0  0  0  0  0  0
  -23.3740  -35.9651   23.3305 H   0  0  0  0  0  0
  -24.3584  -36.8910   22.2050 H   0  0  0  0  0  0
  -23.7273  -37.6519   23.6653 H   0  0  0  0  0  0
  -26.0772  -31.5715   20.6040 H   0  0  0  0  0  0
  -26.8342  -30.8587   21.9969 H   0  0  0  0  0  0
  -28.1146  -29.0238   21.1864 H   0  0  0  0  0  0
  -26.0084  -25.9637   18.9799 H   0  0  0  0  0  0
  -23.9817  -27.3101   19.0082 H   0  0  0  0  0  0
  -23.7508  -30.5988   19.4043 H   0  0  0  0  0  0
  -22.7530  -29.2482   19.8516 H   0  0  0  0  0  0
  -25.1299  -36.1939   25.0829 H   0  0  0  0  0  0
  -20.9973  -28.3280   24.1397 H   0  0  0  0  0  0
  -20.5681  -26.2299   23.3601 H   0  0  0  0  0  0
  -21.6651  -26.7455   22.1201 H   0  0  0  0  0  0
  -19.6931  -25.6297   21.1236 H   0  0  0  0  0  0
  -19.6721  -27.3193   20.6724 H   0  0  0  0  0  0
  -17.4206  -26.6651   21.4011 H   0  0  0  0  0  0
  -18.0345  -26.0099   22.9021 H   0  0  0  0  0  0
  -19.7939  -30.7280   24.2231 H   0  0  0  0  0  0
  -17.5022  -31.6269   24.5179 H   0  0  0  0  0  0
  -15.5354  -30.2991   23.7693 H   0  0  0  0  0  0
  -15.8655  -28.0865   22.7019 H   0  0  0  0  0  0
  -24.5955  -30.7032   25.7835 H   0  0  0  0  0  0
  -24.8991  -32.2848   26.4954 H   0  0  0  0  0  0
  -25.8172  -30.8857   27.0218 H   0  0  0  0  0  0
  -26.2894  -29.6747   24.1217 H   0  0  0  0  0  0
  -27.4100  -29.7281   25.4631 H   0  0  0  0  0  0
  -27.8741  -30.4294   23.9312 H   0  0  0  0  0  0
  -27.2657  -33.3596   26.2096 H   0  0  0  0  0  0
  -28.3865  -32.6902   25.0328 H   0  0  0  0  0  0
  -28.0732  -31.8427   26.5396 H   0  0  0  0  0  0
  -28.2595  -38.0102   24.7485 H   0  0  0  0  0  0
  -28.1071  -36.2633   24.6320 H   0  0  0  0  0  0
  -27.2290  -37.1494   25.8864 H   0  0  0  0  0  0
  -20.9316  -29.8790   21.6911 H   0  0  0  0  0  0
  -26.0167  -38.2844   24.1412 H   0  0  0  0  0  0
  -29.4016  -19.6874   21.2831 H   0  0  0  0  0  0
  -31.5514  -20.7737   17.7171 H   0  0  0  0  0  0
  -31.2075  -16.6455   18.7865 H   0  0  0  0  0  0
  -31.0641  -22.4609   19.1537 H   0  0  0  0  0  0
  -29.2079  -17.4090   21.9506 H   0  0  0  0  0  0
  -28.4660  -22.3090   20.7294 H   0  0  0  0  0  0
  -29.4373  -15.2601   22.2401 H   0  0  0  0  0  0
  -32.7020  -19.1497   16.4389 H   0  0  0  0  0  0
  -31.6224  -17.7728   16.1946 H   0  0  0  0  0  0
  -33.0669  -17.6018   17.1973 H   0  0  0  0  0  0
  -27.8993  -25.0133   21.4489 H   0  0  0  0  0  0
  -27.3569  -24.7125   19.8064 H   0  0  0  0  0  0
  1 25  1  0  0  0
  1 30  2  0  0  0
  1 80  1  0  0  0
  2  3  1  0  0  0
  2 25  1  0  0  0
  2 85  1  0  0  0
  2 86  1  0  0  0
  3  4  1  0  0  0
  3 87  1  0  0  0
  3 88  1  0  0  0
  4  5  1  0  0  0
  4 89  1  0  0  0
  4 90  1  0  0  0
  5  6  1  0  0  0
  5 26  1  0  0  0
  5 91  1  0  0  0
  6 25  1  0  0  0
  6 92  1  0  0  0
  6 93  1  0  0  0
  7  8  2  0  0  0
  7 26  1  0  0  0
  7 29  1  0  0  0
  8  9  1  0  0  0
  8 22  1  0  0  0
  9 10  1  0  0  0
  9 27  2  0  0  0
 10 11  2  0  0  0
 10 15  1  0  0  0
 11 12  1  0  0  0
 11 94  1  0  0  0
 12 13  2  0  0  0
 12 95  1  0  0  0
 13 14  1  0  0  0
 13 31  1  0  0  0
 14 15  2  0  0  0
 14 96  1  0  0  0
 15 97  1  0  0  0
 16 17  2  0  0  0
 16 21  1  0  0  0
 16 31  1  0  0  0
 17 18  1  0  0  0
 17 98  1  0  0  0
 18 19  2  0  0  0
 18 99  1  0  0  0
 19 20  1  0  0  0
 19 24  1  0  0  0
 20 21  2  0  0  0
 20100  1  0  0  0
 21 23  1  0  0  0
 22 28  1  0  0  0
 22 32  2  0  0  0
 26 27  1  0  0  0
 28101  1  0  0  0
 28102  1  0  0  0
 29103  1  0  0  0
 29104  1  0  0  0
 33 34  1  0  0  0
 33 66  1  0  0  0
 33 70  2  0  0  0
 34 36  1  0  0  0
 34 59  1  0  0  0
 34105  1  0  0  0
 35 44  2  0  0  0
 35 45  1  0  0  0
 35 68  1  0  0  0
 36 56  1  0  0  0
 36106  1  0  0  0
 37 39  1  0  0  0
 37 47  1  0  0  0
 37 66  1  0  0  0
 37107  1  0  0  0
 38 43  2  0  0  0
 38 46  1  0  0  0
 38 47  1  0  0  0
 39 64  1  0  0  0
 39 67  2  0  0  0
 40 52  1  0  0  0
 40 53  2  0  0  0
 40 58  1  0  0  0
 41108  1  0  0  0
 41109  1  0  0  0
 41110  1  0  0  0
 41 48  1  0  0  0
 42 43  1  0  0  0
 42 66  1  0  0  0
 42111  1  0  0  0
 42112  1  0  0  0
 43 44  1  0  0  0
 44113  1  0  0  0
 45 46  2  0  0  0
 45114  1  0  0  0
 46115  1  0  0  0
 47116  1  0  0  0
 47117  1  0  0  0
 48 56  1  0  0  0
 48 65  1  0  0  0
 48118  1  0  0  0
 49 50  1  0  0  0
 49 53  1  0  0  0
 49 64  1  0  0  0
 49119  1  0  0  0
 50 51  1  0  0  0
 50120  1  0  0  0
 50121  1  0  0  0
 51 52  1  0  0  0
 51122  1  0  0  0
 51123  1  0  0  0
 52124  1  0  0  0
 52125  1  0  0  0
 53 54  1  0  0  0
 54 55  2  0  0  0
 54126  1  0  0  0
 55 57  1  0  0  0
 55127  1  0  0  0
 56 69  2  0  0  0
 57 58  2  0  0  0
 57128  1  0  0  0
 58129  1  0  0  0
 59 60  1  0  0  0
 59 61  1  0  0  0
 59 62  1  0  0  0
 60130  1  0  0  0
 60131  1  0  0  0
 60132  1  0  0  0
 61133  1  0  0  0
 61134  1  0  0  0
 61135  1  0  0  0
 62136  1  0  0  0
 62137  1  0  0  0
 62138  1  0  0  0
 63 65  1  0  0  0
 63139  1  0  0  0
 63140  1  0  0  0
 63141  1  0  0  0
 64142  1  0  0  0
 65143  1  0  0  0
 68 83  1  0  0  0
 71 74  2  0  0  0
 71 75  1  0  0  0
 71144  1  0  0  0
 72 74  1  0  0  0
 72 76  2  0  0  0
 72145  1  0  0  0
 73 75  2  0  0  0
 73 76  1  0  0  0
 73146  1  0  0  0
 74 77  1  0  0  0
 75 78  1  0  0  0
 76 82  1  0  0  0
 77 79  2  0  0  0
 77147  1  0  0  0
 78 80  2  0  0  0
 78148  1  0  0  0
 79 81  1  0  0  0
 79149  1  0  0  0
 80150  1  0  0  0
 81 83  1  0  0  0
 81 84  2  0  0  0
 82151  1  0  0  0
 82152  1  0  0  0
 82153  1  0  0  0
 83154  1  0  0  0
 83155  1  0  0  0
M  ISO  4   1 100  68 101  80 100  83 101
M  END
> <chiral flag>
0

> <version>
0

> <s_m_source_file>
/data/baiqing/PycharmProjects/Reinvent-master-3.2/result/LINK_invent/BTK/process_docking_weight1_custom_product_contain_oxygen_bond_distance_aromatic_linkinvent_7_9_3/rearranged_h_0121.sdf

> <i_m_source_file_index>
37

> <r_mmod_Potential_Energy-OPLS-2005>
69.2755584716797

> <r_mmod_Stretch_Energy-OPLS-2005>
63.7347793579102

> <r_mmod_Bend_Energy-OPLS-2005>
157.100204467773

> <r_mmod_Torsional_Energy-OPLS-2005>
195.385620117188

> <r_mmod_Improper_Torsional_Energy-OPLS-2005>
1.95292520523071

> <r_mmod_Van_der_Waal_Energy-OPLS-2005>
154.194686889648

> <r_mmod_Electrostatic_Energy-OPLS-2005>
-311.874450683594

> <r_mmod_Solvation_Energy-OPLS-2005>
-218.05094909668

> <b_mmod_Minimization_Converged-OPLS-2005>
0

> <r_mmod_RMS_Derivative-OPLS-2005>
2.09699583053589

$$$$
37
                    3D
 Structure written by MMmdl.
172180  0  0  1  0            999 V2000
  -30.7101  -14.4334   20.6435 C   0  0  0  0  0  0
  -30.4322  -12.3106   19.4030 C   0  0  0  0  0  0
  -29.4910  -12.5185   18.1985 C   0  0  0  0  0  0
  -28.0136  -12.3740   18.6134 C   0  0  0  0  0  0
  -27.6670  -13.1975   19.8815 C   0  0  2  0  0  0
  -28.7074  -12.9352   20.9929 C   0  0  0  0  0  0
  -25.2616  -13.8144   20.5675 C   0  0  0  0  0  0
  -24.1852  -13.0439   20.9171 C   0  0  0  0  0  0
  -24.6391  -11.6903   20.8730 C   0  0  0  0  0  0
  -23.9048  -10.4297   21.0401 C   0  0  0  0  0  0
  -24.3604   -9.4219   21.9183 C   0  0  0  0  0  0
  -23.6290   -8.2247   22.0752 C   0  0  0  0  0  0
  -22.4271   -8.0277   21.3543 C   0  0  0  0  0  0
  -21.9903   -9.0249   20.4641 C   0  0  0  0  0  0
  -22.7218  -10.2137   20.3053 C   0  0  0  0  0  0
  -21.6857   -6.0740   22.5281 C   0  0  0  0  0  0
  -21.4012   -6.5642   23.8212 C   0  0  0  0  0  0
  -21.3659   -5.6794   24.9174 C   0  0  0  0  0  0
  -21.6044   -4.3059   24.7225 C   0  0  0  0  0  0
  -21.8820   -3.8152   23.4346 C   0  0  0  0  0  0
  -21.9191   -4.6967   22.3404 C   0  0  0  0  0  0
  -22.7878  -13.5247   21.1838 C   0  0  0  0  0  0
  -22.1662   -4.2155   21.0981 F   0  0  0  0  0  0
  -21.5629   -3.4539   25.7738 F   0  0  0  0  0  0
  -30.0440  -13.2609   20.4559 N   0  0  0  0  0  0
  -26.3046  -12.9295   20.3384 N   0  0  0  0  0  0
  -25.9312  -11.6463   20.5757 N   0  0  0  0  0  0
  -22.0513  -12.8241   22.0395 N   0  0  0  0  0  0
  -25.4379  -15.1855   20.4083 N   0  0  0  0  0  0
  -31.7888  -14.6877   20.0990 O   0  0  0  0  0  0
  -21.6636   -6.8877   21.4242 O   0  0  0  0  0  0
  -22.3569  -14.5562   20.6700 O   0  0  0  0  0  0
  -24.6130  -31.8705   23.2121 C   0  0  0  0  0  0
  -25.9025  -32.4844   23.8413 C   0  0  1  0  0  0
  -27.2457  -27.4564   20.0961 C   0  0  0  0  0  0
  -25.5890  -33.8638   24.2341 N   0  0  0  0  0  0
  -23.4005  -30.4929   21.5518 C   0  0  2  0  0  0
  -24.8514  -28.9573   20.1231 C   0  0  0  0  0  0
  -22.7399  -29.4657   22.4999 C   0  0  0  0  0  0
  -18.0267  -28.1349   22.8487 C   0  0  0  0  0  0
  -24.1493  -36.7317   23.2634 C   0  0  0  0  0  0
  -25.9268  -30.8398   21.3649 C   0  0  0  0  0  0
  -26.0089  -29.4712   20.7238 C   0  0  0  0  0  0
  -27.2104  -28.7257   20.7177 C   0  0  0  0  0  0
  -26.0769  -26.9577   19.4876 C   0  0  0  0  0  0
  -24.8766  -27.6935   19.5071 C   0  0  0  0  0  0
  -23.6115  -29.8232   20.1676 C   0  0  0  0  0  0
  -25.4108  -36.3125   24.0340 C   0  0  1  0  0  0
  -20.5856  -28.3644   23.1316 C   0  0  2  0  0  0
  -20.6771  -26.9385   22.5412 C   0  0  0  0  0  0
  -19.5751  -26.6370   21.5197 C   0  0  0  0  0  0
  -18.1923  -26.7896   22.1603 C   0  0  0  0  0  0
  -19.1516  -28.8811   23.2903 C   0  0  0  0  0  0
  -18.9449  -30.1416   23.8914 C   0  0  0  0  0  0
  -17.6458  -30.6574   24.0547 C   0  0  0  0  0  0
  -25.9028  -34.9490   23.5140 C   0  0  0  0  0  0
  -16.5346  -29.9079   23.6306 C   0  0  0  0  0  0
  -16.7258  -28.6482   23.0348 C   0  0  0  0  0  0
  -26.4463  -31.6613   25.0725 C   0  0  0  0  0  0
  -25.3723  -31.3709   26.1469 C   0  0  0  0  0  0
  -27.0295  -30.3065   24.6060 C   0  0  0  0  0  0
  -27.6040  -32.4332   25.7478 C   0  0  0  0  0  0
  -27.5587  -37.1821   24.8462 C   0  0  0  0  0  0
  -21.4126  -29.3024   22.3731 N   0  0  0  0  0  0
  -26.4300  -37.3803   23.9398 N   0  0  0  0  0  0
  -24.6644  -31.0827   22.1013 N   0  0  0  0  0  0
  -23.4178  -28.8194   23.3027 O   0  0  0  0  0  0
  -28.3843  -26.6926   19.9728 O   0  0  0  0  0  0
  -26.5596  -34.8937   22.4703 O   0  0  0  0  0  0
  -23.5323  -32.1445   23.7522 O   0  0  0  0  0  0
  -29.1376  -17.4582   22.0290 C   0  0  0  0  0  0
  -31.5227  -17.3376   21.6202 C   0  0  0  0  0  0
  -30.5159  -19.4641   22.3671 C   0  0  0  0  0  0
  -29.2445  -18.8214   22.3785 C   0  0  0  0  0  0
  -31.6524  -18.7052   21.9646 C   0  0  0  0  0  0
  -30.2643  -16.6988   21.6625 C   0  0  0  0  0  0
  -30.6884  -20.8519   22.8705 C   0  0  0  0  0  0
  -30.0066  -21.9599   22.5110 C   0  0  0  0  0  0
  -27.0932  -19.9367   21.6223 C   0  0  0  0  0  0
  -35.2267  -19.7640   23.1710 C   0  0  0  0  0  0
  -27.9608  -19.5183   22.8171 C   0  0  0  0  0  0
  -33.0462  -19.3216   21.9088 C   0  0  0  0  0  0
  -30.1367  -23.2971   23.2313 C   0  0  0  0  0  0
  -33.8288  -19.1327   23.2183 C   0  0  0  0  0  0
  -30.3767  -24.5403   22.3485 C   0  0  0  0  0  0
  -29.1739  -24.9838   21.4874 C   0  0  0  0  0  0
  -29.2140  -26.4831   21.1109 C   0  0  0  0  0  0
  -30.0536  -15.3087   21.4270 N   0  0  0  0  0  0
  -31.4714  -12.4360   19.0933 H   0  0  0  0  0  0
  -30.3565  -11.2888   19.7781 H   0  0  0  0  0  0
  -29.7266  -11.8027   17.4102 H   0  0  0  0  0  0
  -29.6547  -13.5089   17.7712 H   0  0  0  0  0  0
  -27.8204  -11.3156   18.7955 H   0  0  0  0  0  0
  -27.3613  -12.6621   17.7882 H   0  0  0  0  0  0
  -27.7247  -14.2510   19.6076 H   0  0  0  0  0  0
  -28.6847  -11.8844   21.2859 H   0  0  0  0  0  0
  -28.4504  -13.4816   21.9010 H   0  0  0  0  0  0
  -25.2750   -9.5700   22.4756 H   0  0  0  0  0  0
  -24.0004   -7.4640   22.7472 H   0  0  0  0  0  0
  -21.0837   -8.8761   19.8944 H   0  0  0  0  0  0
  -22.3672  -10.9677   19.6161 H   0  0  0  0  0  0
  -21.2004   -7.6151   23.9718 H   0  0  0  0  0  0
  -21.1480   -6.0525   25.9078 H   0  0  0  0  0  0
  -22.0600   -2.7614   23.2843 H   0  0  0  0  0  0
  -22.4123  -11.9891   22.4770 H   0  0  0  0  0  0
  -21.1133  -13.1272   22.2600 H   0  0  0  0  0  0
  -24.6743  -15.8446   20.5111 H   0  0  0  0  0  0
  -26.2924  -15.6185   20.0822 H   0  0  0  0  0  0
  -26.7096  -32.5571   23.1181 H   0  0  0  0  0  0
  -25.0097  -33.9801   25.0524 H   0  0  0  0  0  0
  -22.6868  -31.3082   21.4134 H   0  0  0  0  0  0
  -23.3763  -35.9647   23.3308 H   0  0  0  0  0  0
  -24.3596  -36.8916   22.2049 H   0  0  0  0  0  0
  -23.7244  -37.6521   23.6645 H   0  0  0  0  0  0
  -26.0350  -31.6026   20.5925 H   0  0  0  0  0  0
  -26.8152  -30.9000   21.9813 H   0  0  0  0  0  0
  -28.1058  -29.1378   21.1623 H   0  0  0  0  0  0
  -26.0988  -25.9970   18.9935 H   0  0  0  0  0  0
  -23.9894  -27.2912   19.0366 H   0  0  0  0  0  0
  -23.7177  -30.5985   19.4078 H   0  0  0  0  0  0
  -22.7357  -29.2425   19.8722 H   0  0  0  0  0  0
  -25.1290  -36.1999   25.0836 H   0  0  0  0  0  0
  -20.9945  -28.3213   24.1436 H   0  0  0  0  0  0
  -20.5675  -26.2245   23.3595 H   0  0  0  0  0  0
  -21.6641  -26.7444   22.1200 H   0  0  0  0  0  0
  -19.6923  -25.6286   21.1218 H   0  0  0  0  0  0
  -19.6689  -27.3187   20.6733 H   0  0  0  0  0  0
  -17.4193  -26.6636   21.4002 H   0  0  0  0  0  0
  -18.0327  -26.0023   22.8990 H   0  0  0  0  0  0
  -19.7938  -30.7204   24.2301 H   0  0  0  0  0  0
  -17.5028  -31.6255   24.5147 H   0  0  0  0  0  0
  -15.5353  -30.2993   23.7622 H   0  0  0  0  0  0
  -15.8649  -28.0812   22.7066 H   0  0  0  0  0  0
  -24.5879  -30.7074   25.7800 H   0  0  0  0  0  0
  -24.8929  -32.2870   26.4935 H   0  0  0  0  0  0
  -25.8065  -30.8860   27.0217 H   0  0  0  0  0  0
  -26.2829  -29.6827   24.1122 H   0  0  0  0  0  0
  -27.4103  -29.7292   25.4494 H   0  0  0  0  0  0
  -27.8650  -30.4404   23.9179 H   0  0  0  0  0  0
  -27.2653  -33.3619   26.2074 H   0  0  0  0  0  0
  -28.3832  -32.6906   25.0294 H   0  0  0  0  0  0
  -28.0716  -31.8441   26.5370 H   0  0  0  0  0  0
  -28.2616  -38.0116   24.7532 H   0  0  0  0  0  0
  -28.1089  -36.2653   24.6284 H   0  0  0  0  0  0
  -27.2310  -37.1457   25.8869 H   0  0  0  0  0  0
  -20.9274  -29.8757   21.6973 H   0  0  0  0  0  0
  -26.0204  -38.2886   24.1398 H   0  0  0  0  0  0
  -28.1658  -16.9854   22.0707 H   0  0  0  0  0  0
  -32.4088  -16.7784   21.3557 H   0  0  0  0  0  0
  -31.4091  -20.9493   23.6697 H   0  0  0  0  0  0
  -29.2891  -21.9152   21.7068 H   0  0  0  0  0  0
  -26.1945  -20.4550   21.9561 H   0  0  0  0  0  0
  -26.7809  -19.0680   21.0424 H   0  0  0  0  0  0
  -27.6280  -20.6046   20.9479 H   0  0  0  0  0  0
  -35.7420  -19.6386   24.1237 H   0  0  0  0  0  0
  -35.1732  -20.8334   22.9639 H   0  0  0  0  0  0
  -35.8449  -19.3050   22.3987 H   0  0  0  0  0  0
  -28.1620  -20.3713   23.4622 H   0  0  0  0  0  0
  -27.3922  -18.8306   23.4449 H   0  0  0  0  0  0
  -32.9807  -20.3796   21.6514 H   0  0  0  0  0  0
  -33.5980  -18.8605   21.0878 H   0  0  0  0  0  0
  -30.9479  -23.2214   23.9571 H   0  0  0  0  0  0
  -29.2294  -23.4451   23.8187 H   0  0  0  0  0  0
  -33.2718  -19.5671   24.0483 H   0  0  0  0  0  0
  -33.9237  -18.0683   23.4376 H   0  0  0  0  0  0
  -31.2534  -24.3935   21.7169 H   0  0  0  0  0  0
  -30.6328  -25.3642   23.0169 H   0  0  0  0  0  0
  -28.2364  -24.7819   22.0064 H   0  0  0  0  0  0
  -29.1546  -24.3748   20.5823 H   0  0  0  0  0  0
  -30.2269  -26.7742   20.8316 H   0  0  0  0  0  0
  -28.9338  -27.0945   21.9700 H   0  0  0  0  0  0
  -29.1812  -14.9429   21.7757 H   0  0  0  0  0  0
  1 25  1  0  0  0
  1 30  2  0  0  0
  1 88  1  0  0  0
  2  3  1  0  0  0
  2 25  1  0  0  0
  2 89  1  0  0  0
  2 90  1  0  0  0
  3  4  1  0  0  0
  3 91  1  0  0  0
  3 92  1  0  0  0
  4  5  1  0  0  0
  4 93  1  0  0  0
  4 94  1  0  0  0
  5  6  1  0  0  0
  5 26  1  0  0  0
  5 95  1  0  0  0
  6 25  1  0  0  0
  6 96  1  0  0  0
  6 97  1  0  0  0
  7  8  2  0  0  0
  7 26  1  0  0  0
  7 29  1  0  0  0
  8  9  1  0  0  0
  8 22  1  0  0  0
  9 10  1  0  0  0
  9 27  2  0  0  0
 10 11  2  0  0  0
 10 15  1  0  0  0
 11 12  1  0  0  0
 11 98  1  0  0  0
 12 13  2  0  0  0
 12 99  1  0  0  0
 13 14  1  0  0  0
 13 31  1  0  0  0
 14 15  2  0  0  0
 14100  1  0  0  0
 15101  1  0  0  0
 16 17  2  0  0  0
 16 21  1  0  0  0
 16 31  1  0  0  0
 17 18  1  0  0  0
 17102  1  0  0  0
 18 19  2  0  0  0
 18103  1  0  0  0
 19 20  1  0  0  0
 19 24  1  0  0  0
 20 21  2  0  0  0
 20104  1  0  0  0
 21 23  1  0  0  0
 22 28  1  0  0  0
 22 32  2  0  0  0
 26 27  1  0  0  0
 28105  1  0  0  0
 28106  1  0  0  0
 29107  1  0  0  0
 29108  1  0  0  0
 33 34  1  0  0  0
 33 66  1  0  0  0
 33 70  2  0  0  0
 34 36  1  0  0  0
 34 59  1  0  0  0
 34109  1  0  0  0
 35 44  2  0  0  0
 35 45  1  0  0  0
 35 68  1  0  0  0
 36 56  1  0  0  0
 36110  1  0  0  0
 37 39  1  0  0  0
 37 47  1  0  0  0
 37 66  1  0  0  0
 37111  1  0  0  0
 38 43  2  0  0  0
 38 46  1  0  0  0
 38 47  1  0  0  0
 39 64  1  0  0  0
 39 67  2  0  0  0
 40 52  1  0  0  0
 40 53  2  0  0  0
 40 58  1  0  0  0
 41112  1  0  0  0
 41113  1  0  0  0
 41114  1  0  0  0
 41 48  1  0  0  0
 42 43  1  0  0  0
 42 66  1  0  0  0
 42115  1  0  0  0
 42116  1  0  0  0
 43 44  1  0  0  0
 44117  1  0  0  0
 45 46  2  0  0  0
 45118  1  0  0  0
 46119  1  0  0  0
 47120  1  0  0  0
 47121  1  0  0  0
 48 56  1  0  0  0
 48 65  1  0  0  0
 48122  1  0  0  0
 49 50  1  0  0  0
 49 53  1  0  0  0
 49 64  1  0  0  0
 49123  1  0  0  0
 50 51  1  0  0  0
 50124  1  0  0  0
 50125  1  0  0  0
 51 52  1  0  0  0
 51126  1  0  0  0
 51127  1  0  0  0
 52128  1  0  0  0
 52129  1  0  0  0
 53 54  1  0  0  0
 54 55  2  0  0  0
 54130  1  0  0  0
 55 57  1  0  0  0
 55131  1  0  0  0
 56 69  2  0  0  0
 57 58  2  0  0  0
 57132  1  0  0  0
 58133  1  0  0  0
 59 60  1  0  0  0
 59 61  1  0  0  0
 59 62  1  0  0  0
 60134  1  0  0  0
 60135  1  0  0  0
 60136  1  0  0  0
 61137  1  0  0  0
 61138  1  0  0  0
 61139  1  0  0  0
 62140  1  0  0  0
 62141  1  0  0  0
 62142  1  0  0  0
 63 65  1  0  0  0
 63143  1  0  0  0
 63144  1  0  0  0
 63145  1  0  0  0
 64146  1  0  0  0
 65147  1  0  0  0
 68 87  1  0  0  0
 71 74  2  0  0  0
 71 76  1  0  0  0
 71148  1  0  0  0
 72 75  1  0  0  0
 72 76  2  0  0  0
 72149  1  0  0  0
 73 74  1  0  0  0
 73 75  2  0  0  0
 73 77  1  0  0  0
 74 81  1  0  0  0
 75 82  1  0  0  0
 76 88  1  0  0  0
 77 78  2  0  0  0
 77150  1  0  0  0
 78 83  1  0  0  0
 78151  1  0  0  0
 79 81  1  0  0  0
 79152  1  0  0  0
 79153  1  0  0  0
 79154  1  0  0  0
 80 84  1  0  0  0
 80155  1  0  0  0
 80156  1  0  0  0
 80157  1  0  0  0
 81158  1  0  0  0
 81159  1  0  0  0
 82 84  1  0  0  0
 82160  1  0  0  0
 82161  1  0  0  0
 83 85  1  0  0  0
 83162  1  0  0  0
 83163  1  0  0  0
 84164  1  0  0  0
 84165  1  0  0  0
 85 86  1  0  0  0
 85166  1  0  0  0
 85167  1  0  0  0
 86 87  1  0  0  0
 86168  1  0  0  0
 86169  1  0  0  0
 87170  1  0  0  0
 87171  1  0  0  0
 88172  1  0  0  0
M  ISO  4   1 100  68 101  87 101  88 100
M  END
> <chiral flag>
0

> <version>
0

> <s_m_source_file>
/data/baiqing/PycharmProjects/Reinvent-master-3.2/result/LINK_invent/BTK/process_docking_weight1_custom_product_contain_oxygen_bond_distance_aromatic_linkinvent_7_9_3/rearranged_h_0121.sdf

> <i_m_source_file_index>
38

> <r_mmod_Potential_Energy-OPLS-2005>
-5.39052438735962

> <r_mmod_Stretch_Energy-OPLS-2005>
37.0494079589844

> <r_mmod_Bend_Energy-OPLS-2005>
111.014739990234

> <r_mmod_Torsional_Energy-OPLS-2005>
247.938400268555

> <r_mmod_Improper_Torsional_Energy-OPLS-2005>
4.02710723876953

> <r_mmod_Van_der_Waal_Energy-OPLS-2005>
150.567184448242

> <r_mmod_Electrostatic_Energy-OPLS-2005>
-374.061889648438

> <r_mmod_Solvation_Energy-OPLS-2005>
-190.195068359375

> <b_mmod_Minimization_Converged-OPLS-2005>
0

> <r_mmod_RMS_Derivative-OPLS-2005>
1.64809286594391

$$$$
38
                    3D
 Structure written by MMmdl.
159167  0  0  1  0            999 V2000
  -30.7375  -14.4090   20.5728 C   0  0  0  0  0  0
  -30.4103  -12.2635   19.4117 C   0  0  0  0  0  0
  -29.4945  -12.5056   18.1973 C   0  0  0  0  0  0
  -28.0109  -12.3866   18.5995 C   0  0  0  0  0  0
  -27.6660  -13.2069   19.8742 C   0  0  2  0  0  0
  -28.7058  -12.9722   20.9922 C   0  0  0  0  0  0
  -25.2615  -13.8164   20.5614 C   0  0  0  0  0  0
  -24.1874  -13.0448   20.9167 C   0  0  0  0  0  0
  -24.6425  -11.6922   20.8768 C   0  0  0  0  0  0
  -23.9102  -10.4294   21.0435 C   0  0  0  0  0  0
  -24.3637   -9.4203   21.9216 C   0  0  0  0  0  0
  -23.6297   -8.2247   22.0783 C   0  0  0  0  0  0
  -22.4285   -8.0300   21.3569 C   0  0  0  0  0  0
  -21.9932   -9.0281   20.4662 C   0  0  0  0  0  0
  -22.7281  -10.2154   20.3067 C   0  0  0  0  0  0
  -21.6836   -6.0756   22.5290 C   0  0  0  0  0  0
  -21.4005   -6.5647   23.8232 C   0  0  0  0  0  0
  -21.3667   -5.6796   24.9193 C   0  0  0  0  0  0
  -21.6037   -4.3060   24.7222 C   0  0  0  0  0  0
  -21.8821   -3.8166   23.4339 C   0  0  0  0  0  0
  -21.9188   -4.6988   22.3407 C   0  0  0  0  0  0
  -22.7892  -13.5277   21.1807 C   0  0  0  0  0  0
  -22.1650   -4.2170   21.0981 F   0  0  0  0  0  0
  -21.5642   -3.4545   25.7740 F   0  0  0  0  0  0
  -30.0399  -13.2504   20.4380 N   0  0  0  0  0  0
  -26.3060  -12.9330   20.3352 N   0  0  0  0  0  0
  -25.9356  -11.6493   20.5795 N   0  0  0  0  0  0
  -22.0493  -12.8280   22.0340 N   0  0  0  0  0  0
  -25.4300  -15.1850   20.3893 N   0  0  0  0  0  0
  -31.8655  -14.5414   20.0915 O   0  0  0  0  0  0
  -21.6648   -6.8901   21.4256 O   0  0  0  0  0  0
  -22.3586  -14.5597   20.6670 O   0  0  0  0  0  0
  -24.6130  -31.8679   23.2177 C   0  0  0  0  0  0
  -25.9019  -32.4862   23.8478 C   0  0  1  0  0  0
  -27.2540  -27.4738   20.0886 C   0  0  0  0  0  0
  -25.5881  -33.8656   24.2396 N   0  0  0  0  0  0
  -23.4018  -30.4897   21.5556 C   0  0  2  0  0  0
  -24.8556  -28.9629   20.1240 C   0  0  0  0  0  0
  -22.7392  -29.4646   22.5032 C   0  0  0  0  0  0
  -18.0242  -28.1364   22.8524 C   0  0  0  0  0  0
  -24.1452  -36.7319   23.2650 C   0  0  0  0  0  0
  -25.9248  -30.8514   21.3599 C   0  0  0  0  0  0
  -26.0124  -29.4845   20.7165 C   0  0  0  0  0  0
  -27.2182  -28.7476   20.7030 C   0  0  0  0  0  0
  -26.0794  -26.9597   19.5054 C   0  0  0  0  0  0
  -24.8784  -27.6934   19.5236 C   0  0  0  0  0  0
  -23.6101  -29.8165   20.1731 C   0  0  0  0  0  0
  -25.4073  -36.3142   24.0367 C   0  0  1  0  0  0
  -20.5829  -28.3660   23.1323 C   0  0  2  0  0  0
  -20.6736  -26.9407   22.5412 C   0  0  0  0  0  0
  -19.5711  -26.6378   21.5212 C   0  0  0  0  0  0
  -18.1875  -26.7926   22.1615 C   0  0  0  0  0  0
  -19.1496  -28.8842   23.2911 C   0  0  0  0  0  0
  -18.9433  -30.1447   23.8924 C   0  0  0  0  0  0
  -17.6439  -30.6602   24.0547 C   0  0  0  0  0  0
  -25.9011  -34.9503   23.5168 C   0  0  0  0  0  0
  -16.5325  -29.9083   23.6356 C   0  0  0  0  0  0
  -16.7231  -28.6476   23.0427 C   0  0  0  0  0  0
  -26.4471  -31.6657   25.0794 C   0  0  0  0  0  0
  -25.3762  -31.3695   26.1568 C   0  0  0  0  0  0
  -27.0386  -30.3146   24.6159 C   0  0  0  0  0  0
  -27.6078  -32.4374   25.7528 C   0  0  0  0  0  0
  -27.5569  -37.1799   24.8451 C   0  0  0  0  0  0
  -21.4121  -29.3021   22.3746 N   0  0  0  0  0  0
  -26.4241  -37.3846   23.9463 N   0  0  0  0  0  0
  -24.6652  -31.0824   22.1055 N   0  0  0  0  0  0
  -23.4147  -28.8153   23.3066 O   0  0  0  0  0  0
  -28.3762  -26.6869   19.9826 O   0  0  0  0  0  0
  -26.5560  -34.8940   22.4715 O   0  0  0  0  0  0
  -23.5323  -32.1363   23.7618 O   0  0  0  0  0  0
  -30.5870  -18.7701   20.6150 C   0  0  0  0  0  0
  -30.3179  -20.1257   20.8633 C   0  0  0  0  0  0
  -28.2231  -18.2641   20.7763 C   0  0  0  0  0  0
  -29.5460  -17.8251   20.5820 C   0  0  0  0  0  0
  -27.9277  -19.6408   20.9603 C   0  0  0  0  0  0
  -28.9894  -20.5845   21.0438 C   0  0  0  0  0  0
  -25.4255  -19.3323   21.0461 C   0  0  0  0  0  0
  -26.5271  -20.1036   21.0213 C   0  0  0  0  0  0
  -29.8821  -16.4275   20.2613 C   0  0  0  0  0  0
  -30.1222  -25.4444   21.0053 C   0  0  0  0  0  0
  -29.1942  -24.2947   21.4702 C   0  0  0  0  0  0
  -29.4164  -26.8120   20.9405 C   0  0  0  0  0  0
  -29.7219  -22.8902   21.1239 C   0  0  0  0  0  0
  -30.0418  -15.4818   21.1072 N   0  0  0  0  0  0
  -28.6934  -21.9123   21.3043 O   0  0  0  0  0  0
  -31.4591  -12.3284   19.1139 H   0  0  0  0  0  0
  -30.2736  -11.2510   19.7930 H   0  0  0  0  0  0
  -29.7237  -11.7944   17.4022 H   0  0  0  0  0  0
  -29.6889  -13.4970   17.7835 H   0  0  0  0  0  0
  -27.7882  -11.3327   18.7650 H   0  0  0  0  0  0
  -27.3749  -12.7020   17.7706 H   0  0  0  0  0  0
  -27.7205  -14.2590   19.5988 H   0  0  0  0  0  0
  -28.6635  -11.9393   21.3391 H   0  0  0  0  0  0
  -28.4864  -13.5860   21.8671 H   0  0  0  0  0  0
  -25.2777   -9.5682   22.4809 H   0  0  0  0  0  0
  -24.0004   -7.4639   22.7505 H   0  0  0  0  0  0
  -21.0874   -8.8823   19.8950 H   0  0  0  0  0  0
  -22.3770  -10.9715   19.6177 H   0  0  0  0  0  0
  -21.1977   -7.6148   23.9752 H   0  0  0  0  0  0
  -21.1487   -6.0520   25.9106 H   0  0  0  0  0  0
  -22.0584   -2.7621   23.2850 H   0  0  0  0  0  0
  -22.4051  -11.9903   22.4699 H   0  0  0  0  0  0
  -21.1139  -13.1392   22.2573 H   0  0  0  0  0  0
  -24.6472  -15.8278   20.4416 H   0  0  0  0  0  0
  -26.2676  -15.6043   20.0064 H   0  0  0  0  0  0
  -26.7102  -32.5590   23.1283 H   0  0  0  0  0  0
  -25.0165  -33.9859   25.0629 H   0  0  0  0  0  0
  -22.6912  -31.3060   21.4135 H   0  0  0  0  0  0
  -23.3743  -35.9603   23.3241 H   0  0  0  0  0  0
  -24.3591  -36.9017   22.2080 H   0  0  0  0  0  0
  -23.7131  -37.6474   23.6707 H   0  0  0  0  0  0
  -26.0134  -31.6161   20.5868 H   0  0  0  0  0  0
  -26.8193  -30.9211   21.9680 H   0  0  0  0  0  0
  -28.1105  -29.1698   21.1436 H   0  0  0  0  0  0
  -26.0941  -25.9837   19.0441 H   0  0  0  0  0  0
  -23.9858  -27.2796   19.0761 H   0  0  0  0  0  0
  -23.7035  -30.5821   19.4027 H   0  0  0  0  0  0
  -22.7417  -29.2179   19.8910 H   0  0  0  0  0  0
  -25.1216  -36.2025   25.0851 H   0  0  0  0  0  0
  -20.9900  -28.3210   24.1450 H   0  0  0  0  0  0
  -20.5666  -26.2261   23.3590 H   0  0  0  0  0  0
  -21.6606  -26.7467   22.1199 H   0  0  0  0  0  0
  -19.6874  -25.6278   21.1257 H   0  0  0  0  0  0
  -19.6666  -27.3184   20.6723 H   0  0  0  0  0  0
  -17.4167  -26.6737   21.3976 H   0  0  0  0  0  0
  -18.0243  -26.0027   22.8960 H   0  0  0  0  0  0
  -19.7910  -30.7240   24.2321 H   0  0  0  0  0  0
  -17.5001  -31.6310   24.5080 H   0  0  0  0  0  0
  -15.5335  -30.2995   23.7702 H   0  0  0  0  0  0
  -15.8609  -28.0775   22.7227 H   0  0  0  0  0  0
  -24.5945  -30.7050   25.7869 H   0  0  0  0  0  0
  -24.8946  -32.2825   26.5078 H   0  0  0  0  0  0
  -25.8158  -30.8822   27.0289 H   0  0  0  0  0  0
  -26.2962  -29.6805   24.1328 H   0  0  0  0  0  0
  -27.4321  -29.7498   25.4620 H   0  0  0  0  0  0
  -27.8670  -30.4528   23.9218 H   0  0  0  0  0  0
  -27.2758  -33.3684   26.2125 H   0  0  0  0  0  0
  -28.3882  -32.6928   25.0346 H   0  0  0  0  0  0
  -28.0756  -31.8483   26.5432 H   0  0  0  0  0  0
  -28.2520  -38.0166   24.7674 H   0  0  0  0  0  0
  -28.1163  -36.2743   24.6075 H   0  0  0  0  0  0
  -27.2348  -37.1190   25.8861 H   0  0  0  0  0  0
  -20.9285  -29.8749   21.6971 H   0  0  0  0  0  0
  -26.0123  -38.2885   24.1625 H   0  0  0  0  0  0
  -31.6073  -18.4595   20.4398 H   0  0  0  0  0  0
  -31.1634  -20.7943   20.8920 H   0  0  0  0  0  0
  -27.4359  -17.5275   20.7356 H   0  0  0  0  0  0
  -24.4449  -19.7843   21.0625 H   0  0  0  0  0  0
  -25.4569  -18.2543   21.0501 H   0  0  0  0  0  0
  -26.3787  -21.1748   21.0173 H   0  0  0  0  0  0
  -30.0627  -16.2738   19.1899 H   0  0  0  0  0  0
  -30.5204  -25.2207   20.0132 H   0  0  0  0  0  0
  -30.9885  -25.5109   21.6634 H   0  0  0  0  0  0
  -28.2148  -24.4121   21.0050 H   0  0  0  0  0  0
  -29.0236  -24.3690   22.5451 H   0  0  0  0  0  0
  -30.1098  -27.5828   20.5998 H   0  0  0  0  0  0
  -29.0397  -27.1005   21.9247 H   0  0  0  0  0  0
  -30.5876  -22.6795   21.7520 H   0  0  0  0  0  0
  -30.0461  -22.8693   20.0816 H   0  0  0  0  0  0
  1 25  1  0  0  0
  1 30  2  0  0  0
  1 84  1  0  0  0
  2  3  1  0  0  0
  2 25  1  0  0  0
  2 86  1  0  0  0
  2 87  1  0  0  0
  3  4  1  0  0  0
  3 88  1  0  0  0
  3 89  1  0  0  0
  4  5  1  0  0  0
  4 90  1  0  0  0
  4 91  1  0  0  0
  5  6  1  0  0  0
  5 26  1  0  0  0
  5 92  1  0  0  0
  6 25  1  0  0  0
  6 93  1  0  0  0
  6 94  1  0  0  0
  7  8  2  0  0  0
  7 26  1  0  0  0
  7 29  1  0  0  0
  8  9  1  0  0  0
  8 22  1  0  0  0
  9 10  1  0  0  0
  9 27  2  0  0  0
 10 11  2  0  0  0
 10 15  1  0  0  0
 11 12  1  0  0  0
 11 95  1  0  0  0
 12 13  2  0  0  0
 12 96  1  0  0  0
 13 14  1  0  0  0
 13 31  1  0  0  0
 14 15  2  0  0  0
 14 97  1  0  0  0
 15 98  1  0  0  0
 16 17  2  0  0  0
 16 21  1  0  0  0
 16 31  1  0  0  0
 17 18  1  0  0  0
 17 99  1  0  0  0
 18 19  2  0  0  0
 18100  1  0  0  0
 19 20  1  0  0  0
 19 24  1  0  0  0
 20 21  2  0  0  0
 20101  1  0  0  0
 21 23  1  0  0  0
 22 28  1  0  0  0
 22 32  2  0  0  0
 26 27  1  0  0  0
 28102  1  0  0  0
 28103  1  0  0  0
 29104  1  0  0  0
 29105  1  0  0  0
 33 34  1  0  0  0
 33 66  1  0  0  0
 33 70  2  0  0  0
 34 36  1  0  0  0
 34 59  1  0  0  0
 34106  1  0  0  0
 35 44  2  0  0  0
 35 45  1  0  0  0
 35 68  1  0  0  0
 36 56  1  0  0  0
 36107  1  0  0  0
 37 39  1  0  0  0
 37 47  1  0  0  0
 37 66  1  0  0  0
 37108  1  0  0  0
 38 43  2  0  0  0
 38 46  1  0  0  0
 38 47  1  0  0  0
 39 64  1  0  0  0
 39 67  2  0  0  0
 40 52  1  0  0  0
 40 53  2  0  0  0
 40 58  1  0  0  0
 41109  1  0  0  0
 41110  1  0  0  0
 41111  1  0  0  0
 41 48  1  0  0  0
 42 43  1  0  0  0
 42 66  1  0  0  0
 42112  1  0  0  0
 42113  1  0  0  0
 43 44  1  0  0  0
 44114  1  0  0  0
 45 46  2  0  0  0
 45115  1  0  0  0
 46116  1  0  0  0
 47117  1  0  0  0
 47118  1  0  0  0
 48 56  1  0  0  0
 48 65  1  0  0  0
 48119  1  0  0  0
 49 50  1  0  0  0
 49 53  1  0  0  0
 49 64  1  0  0  0
 49120  1  0  0  0
 50 51  1  0  0  0
 50121  1  0  0  0
 50122  1  0  0  0
 51 52  1  0  0  0
 51123  1  0  0  0
 51124  1  0  0  0
 52125  1  0  0  0
 52126  1  0  0  0
 53 54  1  0  0  0
 54 55  2  0  0  0
 54127  1  0  0  0
 55 57  1  0  0  0
 55128  1  0  0  0
 56 69  2  0  0  0
 57 58  2  0  0  0
 57129  1  0  0  0
 58130  1  0  0  0
 59 60  1  0  0  0
 59 61  1  0  0  0
 59 62  1  0  0  0
 60131  1  0  0  0
 60132  1  0  0  0
 60133  1  0  0  0
 61134  1  0  0  0
 61135  1  0  0  0
 61136  1  0  0  0
 62137  1  0  0  0
 62138  1  0  0  0
 62139  1  0  0  0
 63 65  1  0  0  0
 63140  1  0  0  0
 63141  1  0  0  0
 63142  1  0  0  0
 64143  1  0  0  0
 65144  1  0  0  0
 68 82  1  0  0  0
 71 72  2  0  0  0
 71 74  1  0  0  0
 71145  1  0  0  0
 72 76  1  0  0  0
 72146  1  0  0  0
 73 74  2  0  0  0
 73 75  1  0  0  0
 73147  1  0  0  0
 74 79  1  0  0  0
 75 76  2  0  0  0
 75 78  1  0  0  0
 76 85  1  0  0  0
 77 78  2  0  0  0
 77148  1  0  0  0
 77149  1  0  0  0
 78150  1  0  0  0
 79 84  2  0  0  0
 79151  1  0  0  0
 80 81  1  0  0  0
 80 82  1  0  0  0
 80152  1  0  0  0
 80153  1  0  0  0
 81 83  1  0  0  0
 81154  1  0  0  0
 81155  1  0  0  0
 82156  1  0  0  0
 82157  1  0  0  0
 83 85  1  0  0  0
 83158  1  0  0  0
 83159  1  0  0  0
M  ISO  4   1 100  68 101  82 101  84 100
M  END
> <chiral flag>
0

> <version>
0

> <s_m_source_file>
/data/baiqing/PycharmProjects/Reinvent-master-3.2/result/LINK_invent/BTK/process_docking_weight1_custom_product_contain_oxygen_bond_distance_aromatic_linkinvent_7_9_3/rearranged_h_0121.sdf

> <i_m_source_file_index>
39

> <r_mmod_Potential_Energy-OPLS-2005>
-8.12881183624268

> <r_mmod_Stretch_Energy-OPLS-2005>
35.6124229431152

> <r_mmod_Bend_Energy-OPLS-2005>
103.179023742676

> <r_mmod_Torsional_Energy-OPLS-2005>
212.160507202148

> <r_mmod_Improper_Torsional_Energy-OPLS-2005>
5.16330146789551

> <r_mmod_Van_der_Waal_Energy-OPLS-2005>
166.546661376953

> <r_mmod_Electrostatic_Energy-OPLS-2005>
-353.408752441406

> <r_mmod_Solvation_Energy-OPLS-2005>
-187.413192749023

> <b_mmod_Minimization_Converged-OPLS-2005>
0

> <r_mmod_RMS_Derivative-OPLS-2005>
4.09363889694214

$$$$
39
                    3D
 Structure written by MMmdl.
169177  0  0  1  0            999 V2000
  -30.7658  -14.4474   20.5388 C   0  0  0  0  0  0
  -30.3897  -12.2780   19.4490 C   0  0  0  0  0  0
  -29.4917  -12.5066   18.2173 C   0  0  0  0  0  0
  -28.0098  -12.3808   18.6201 C   0  0  0  0  0  0
  -27.6551  -13.2260   19.8747 C   0  0  2  0  0  0
  -28.6975  -13.0483   21.0037 C   0  0  0  0  0  0
  -25.2521  -13.8188   20.5673 C   0  0  0  0  0  0
  -24.1815  -13.0438   20.9205 C   0  0  0  0  0  0
  -24.6401  -11.6918   20.8756 C   0  0  0  0  0  0
  -23.9090  -10.4291   21.0409 C   0  0  0  0  0  0
  -24.3642   -9.4203   21.9186 C   0  0  0  0  0  0
  -23.6313   -8.2238   22.0752 C   0  0  0  0  0  0
  -22.4284   -8.0287   21.3540 C   0  0  0  0  0  0
  -21.9922   -9.0259   20.4639 C   0  0  0  0  0  0
  -22.7268  -10.2133   20.3046 C   0  0  0  0  0  0
  -21.6842   -6.0762   22.5298 C   0  0  0  0  0  0
  -21.4006   -6.5669   23.8235 C   0  0  0  0  0  0
  -21.3655   -5.6812   24.9190 C   0  0  0  0  0  0
  -21.6045   -4.3073   24.7235 C   0  0  0  0  0  0
  -21.8812   -3.8167   23.4348 C   0  0  0  0  0  0
  -21.9177   -4.6992   22.3407 C   0  0  0  0  0  0
  -22.7844  -13.5218   21.1879 C   0  0  0  0  0  0
  -22.1649   -4.2180   21.0991 F   0  0  0  0  0  0
  -21.5628   -3.4557   25.7738 F   0  0  0  0  0  0
  -30.0303  -13.3046   20.4443 N   0  0  0  0  0  0
  -26.3002  -12.9419   20.3400 N   0  0  0  0  0  0
  -25.9345  -11.6560   20.5820 N   0  0  0  0  0  0
  -22.0493  -12.8184   22.0434 N   0  0  0  0  0  0
  -25.4109  -15.1903   20.4014 N   0  0  0  0  0  0
  -31.9220  -14.4797   20.1087 O   0  0  0  0  0  0
  -21.6637   -6.8890   21.4251 O   0  0  0  0  0  0
  -22.3516  -14.5510   20.6720 O   0  0  0  0  0  0
  -24.6105  -31.8712   23.2133 C   0  0  0  0  0  0
  -25.9031  -32.4836   23.8415 C   0  0  1  0  0  0
  -27.2423  -27.4771   20.1019 C   0  0  0  0  0  0
  -25.5914  -33.8628   24.2359 N   0  0  0  0  0  0
  -23.3960  -30.4941   21.5531 C   0  0  2  0  0  0
  -24.8439  -28.9648   20.1180 C   0  0  0  0  0  0
  -22.7388  -29.4683   22.5026 C   0  0  0  0  0  0
  -18.0265  -28.1369   22.8505 C   0  0  0  0  0  0
  -24.1481  -36.7315   23.2636 C   0  0  0  0  0  0
  -25.9175  -30.8537   21.3562 C   0  0  0  0  0  0
  -25.9982  -29.4886   20.7121 C   0  0  0  0  0  0
  -27.2019  -28.7549   20.7053 C   0  0  0  0  0  0
  -26.0758  -26.9644   19.5001 C   0  0  0  0  0  0
  -24.8752  -27.6985   19.5087 C   0  0  0  0  0  0
  -23.6002  -29.8220   20.1682 C   0  0  0  0  0  0
  -25.4106  -36.3121   24.0340 C   0  0  1  0  0  0
  -20.5855  -28.3657   23.1344 C   0  0  2  0  0  0
  -20.6762  -26.9403   22.5424 C   0  0  0  0  0  0
  -19.5743  -26.6386   21.5221 C   0  0  0  0  0  0
  -18.1914  -26.7927   22.1610 C   0  0  0  0  0  0
  -19.1512  -28.8827   23.2924 C   0  0  0  0  0  0
  -18.9439  -30.1436   23.8927 C   0  0  0  0  0  0
  -17.6442  -30.6585   24.0556 C   0  0  0  0  0  0
  -25.9031  -34.9486   23.5142 C   0  0  0  0  0  0
  -16.5334  -29.9084   23.6325 C   0  0  0  0  0  0
  -16.7253  -28.6495   23.0363 C   0  0  0  0  0  0
  -26.4477  -31.6587   25.0713 C   0  0  0  0  0  0
  -25.3759  -31.3672   26.1466 C   0  0  0  0  0  0
  -27.0297  -30.3044   24.6028 C   0  0  0  0  0  0
  -27.6063  -32.4294   25.7474 C   0  0  0  0  0  0
  -27.5583  -37.1811   24.8462 C   0  0  0  0  0  0
  -21.4121  -29.3036   22.3762 N   0  0  0  0  0  0
  -26.4291  -37.3809   23.9409 N   0  0  0  0  0  0
  -24.6599  -31.0864   22.1003 N   0  0  0  0  0  0
  -23.4180  -28.8234   23.3061 O   0  0  0  0  0  0
  -28.3663  -26.6910   20.0350 O   0  0  0  0  0  0
  -26.5579  -34.8930   22.4690 O   0  0  0  0  0  0
  -23.5322  -32.1440   23.7576 O   0  0  0  0  0  0
  -31.4152  -19.0819   20.4292 C   0  0  0  0  0  0
  -31.2478  -20.4671   20.3766 C   0  0  0  0  0  0
  -30.5259  -18.2522   21.1379 C   0  0  0  0  0  0
  -29.2431  -20.2708   21.7448 C   0  0  0  0  0  0
  -29.4360  -18.8549   21.8273 C   0  0  0  0  0  0
  -30.1532  -21.0877   21.0157 C   0  0  0  0  0  0
  -30.8490  -16.8159   20.9776 C   0  0  0  0  0  0
  -28.0897  -20.8955   22.4234 C   0  0  0  0  0  0
  -30.0904  -15.6918   20.9281 C   0  0  0  0  0  0
  -27.1491  -21.6257   21.7993 C   0  0  0  0  0  0
  -25.9552  -22.2594   22.4804 C   0  0  0  0  0  0
  -27.1444  -17.7337   22.0011 C   0  0  0  0  0  0
  -28.4942  -18.0064   22.6798 C   0  0  0  0  0  0
  -29.9128  -25.4500   21.3600 C   0  0  0  0  0  0
  -30.4411  -24.6993   20.1285 C   0  0  0  0  0  0
  -29.3869  -26.8520   21.0149 C   0  0  0  0  0  0
  -30.9742  -23.2925   20.4170 C   0  0  0  0  0  0
  -29.9437  -22.4565   20.9581 O   0  0  0  0  0  0
  -31.4429  -12.2971   19.1649 H   0  0  0  0  0  0
  -30.2169  -11.2825   19.8595 H   0  0  0  0  0  0
  -29.7314  -11.7903   17.4308 H   0  0  0  0  0  0
  -29.6797  -13.4971   17.7977 H   0  0  0  0  0  0
  -27.8099  -11.3264   18.8152 H   0  0  0  0  0  0
  -27.3663  -12.6583   17.7847 H   0  0  0  0  0  0
  -27.6854  -14.2713   19.5672 H   0  0  0  0  0  0
  -28.6592  -12.0325   21.4023 H   0  0  0  0  0  0
  -28.4816  -13.7020   21.8493 H   0  0  0  0  0  0
  -25.2788   -9.5691   22.4763 H   0  0  0  0  0  0
  -24.0027   -7.4625   22.7459 H   0  0  0  0  0  0
  -21.0851   -8.8758   19.8956 H   0  0  0  0  0  0
  -22.3715  -10.9659   19.6142 H   0  0  0  0  0  0
  -21.1999   -7.6180   23.9755 H   0  0  0  0  0  0
  -21.1488   -6.0540   25.9094 H   0  0  0  0  0  0
  -22.0585   -2.7633   23.2833 H   0  0  0  0  0  0
  -22.4106  -11.9833   22.4794 H   0  0  0  0  0  0
  -21.1110  -13.1188   22.2648 H   0  0  0  0  0  0
  -24.6332  -15.8296   20.5150 H   0  0  0  0  0  0
  -26.2544  -15.6434   20.0794 H   0  0  0  0  0  0
  -26.7102  -32.5570   23.1190 H   0  0  0  0  0  0
  -25.0098  -33.9800   25.0531 H   0  0  0  0  0  0
  -22.6833  -31.3103   21.4160 H   0  0  0  0  0  0
  -23.3747  -35.9643   23.3298 H   0  0  0  0  0  0
  -24.3593  -36.8929   22.2053 H   0  0  0  0  0  0
  -23.7218  -37.6515   23.6643 H   0  0  0  0  0  0
  -26.0172  -31.6195   20.5862 H   0  0  0  0  0  0
  -26.8098  -30.9139   21.9664 H   0  0  0  0  0  0
  -28.0877  -29.1870   21.1481 H   0  0  0  0  0  0
  -26.1008  -25.9921   19.0274 H   0  0  0  0  0  0
  -23.9898  -27.2897   19.0418 H   0  0  0  0  0  0
  -23.6987  -30.5944   19.4046 H   0  0  0  0  0  0
  -22.7274  -29.2319   19.8799 H   0  0  0  0  0  0
  -25.1286  -36.1984   25.0835 H   0  0  0  0  0  0
  -20.9938  -28.3197   24.1466 H   0  0  0  0  0  0
  -20.5679  -26.2259   23.3601 H   0  0  0  0  0  0
  -21.6630  -26.7459   22.1195 H   0  0  0  0  0  0
  -19.6902  -25.6299   21.1244 H   0  0  0  0  0  0
  -19.6701  -27.3207   20.6762 H   0  0  0  0  0  0
  -17.4206  -26.6719   21.3982 H   0  0  0  0  0  0
  -18.0281  -26.0043   22.8970 H   0  0  0  0  0  0
  -19.7915  -30.7247   24.2306 H   0  0  0  0  0  0
  -17.4998  -31.6280   24.5126 H   0  0  0  0  0  0
  -15.5342  -30.2996   23.7634 H   0  0  0  0  0  0
  -15.8649  -28.0822   22.7076 H   0  0  0  0  0  0
  -24.5947  -30.7000   25.7802 H   0  0  0  0  0  0
  -24.8939  -32.2815   26.4939 H   0  0  0  0  0  0
  -25.8129  -30.8824   27.0204 H   0  0  0  0  0  0
  -26.2811  -29.6802   24.1123 H   0  0  0  0  0  0
  -27.4144  -29.7274   25.4450 H   0  0  0  0  0  0
  -27.8620  -30.4394   23.9116 H   0  0  0  0  0  0
  -27.2693  -33.3591   26.2076 H   0  0  0  0  0  0
  -28.3870  -32.6842   25.0293 H   0  0  0  0  0  0
  -28.0721  -31.8389   26.5375 H   0  0  0  0  0  0
  -28.2595  -38.0113   24.7522 H   0  0  0  0  0  0
  -28.1088  -36.2651   24.6267 H   0  0  0  0  0  0
  -27.2308  -37.1412   25.8866 H   0  0  0  0  0  0
  -20.9275  -29.8759   21.6988 H   0  0  0  0  0  0
  -26.0183  -38.2887   24.1418 H   0  0  0  0  0  0
  -32.2476  -18.6550   19.8862 H   0  0  0  0  0  0
  -31.9848  -21.0128   19.8098 H   0  0  0  0  0  0
  -31.9152  -16.6850   20.8468 H   0  0  0  0  0  0
  -28.0238  -20.7547   23.4926 H   0  0  0  0  0  0
  -29.0269  -15.7284   21.0949 H   0  0  0  0  0  0
  -27.2146  -21.7703   20.7293 H   0  0  0  0  0  0
  -26.0110  -22.1580   23.5644 H   0  0  0  0  0  0
  -25.0328  -21.7863   22.1396 H   0  0  0  0  0  0
  -25.9016  -23.3203   22.2384 H   0  0  0  0  0  0
  -26.5358  -17.0633   22.6085 H   0  0  0  0  0  0
  -27.2814  -17.2756   21.0230 H   0  0  0  0  0  0
  -26.5734  -18.6500   21.8525 H   0  0  0  0  0  0
  -28.3298  -18.5032   23.6361 H   0  0  0  0  0  0
  -28.9730  -17.0689   22.9557 H   0  0  0  0  0  0
  -30.6991  -25.5317   22.1123 H   0  0  0  0  0  0
  -29.1086  -24.8735   21.8206 H   0  0  0  0  0  0
  -31.2347  -25.2882   19.6661 H   0  0  0  0  0  0
  -29.6578  -24.6173   19.3747 H   0  0  0  0  0  0
  -30.1790  -27.4817   20.6079 H   0  0  0  0  0  0
  -29.0293  -27.3173   21.9333 H   0  0  0  0  0  0
  -31.8265  -23.3349   21.0981 H   0  0  0  0  0  0
  -31.3336  -22.9248   19.4571 H   0  0  0  0  0  0
  1 25  1  0  0  0
  1 30  2  0  0  0
  1 79  1  0  0  0
  2  3  1  0  0  0
  2 25  1  0  0  0
  2 89  1  0  0  0
  2 90  1  0  0  0
  3  4  1  0  0  0
  3 91  1  0  0  0
  3 92  1  0  0  0
  4  5  1  0  0  0
  4 93  1  0  0  0
  4 94  1  0  0  0
  5  6  1  0  0  0
  5 26  1  0  0  0
  5 95  1  0  0  0
  6 25  1  0  0  0
  6 96  1  0  0  0
  6 97  1  0  0  0
  7  8  2  0  0  0
  7 26  1  0  0  0
  7 29  1  0  0  0
  8  9  1  0  0  0
  8 22  1  0  0  0
  9 10  1  0  0  0
  9 27  2  0  0  0
 10 11  2  0  0  0
 10 15  1  0  0  0
 11 12  1  0  0  0
 11 98  1  0  0  0
 12 13  2  0  0  0
 12 99  1  0  0  0
 13 14  1  0  0  0
 13 31  1  0  0  0
 14 15  2  0  0  0
 14100  1  0  0  0
 15101  1  0  0  0
 16 17  2  0  0  0
 16 21  1  0  0  0
 16 31  1  0  0  0
 17 18  1  0  0  0
 17102  1  0  0  0
 18 19  2  0  0  0
 18103  1  0  0  0
 19 20  1  0  0  0
 19 24  1  0  0  0
 20 21  2  0  0  0
 20104  1  0  0  0
 21 23  1  0  0  0
 22 28  1  0  0  0
 22 32  2  0  0  0
 26 27  1  0  0  0
 28105  1  0  0  0
 28106  1  0  0  0
 29107  1  0  0  0
 29108  1  0  0  0
 33 34  1  0  0  0
 33 66  1  0  0  0
 33 70  2  0  0  0
 34 36  1  0  0  0
 34 59  1  0  0  0
 34109  1  0  0  0
 35 44  2  0  0  0
 35 45  1  0  0  0
 35 68  1  0  0  0
 36 56  1  0  0  0
 36110  1  0  0  0
 37 39  1  0  0  0
 37 47  1  0  0  0
 37 66  1  0  0  0
 37111  1  0  0  0
 38 43  2  0  0  0
 38 46  1  0  0  0
 38 47  1  0  0  0
 39 64  1  0  0  0
 39 67  2  0  0  0
 40 52  1  0  0  0
 40 53  2  0  0  0
 40 58  1  0  0  0
 41112  1  0  0  0
 41113  1  0  0  0
 41114  1  0  0  0
 41 48  1  0  0  0
 42 43  1  0  0  0
 42 66  1  0  0  0
 42115  1  0  0  0
 42116  1  0  0  0
 43 44  1  0  0  0
 44117  1  0  0  0
 45 46  2  0  0  0
 45118  1  0  0  0
 46119  1  0  0  0
 47120  1  0  0  0
 47121  1  0  0  0
 48 56  1  0  0  0
 48 65  1  0  0  0
 48122  1  0  0  0
 49 50  1  0  0  0
 49 53  1  0  0  0
 49 64  1  0  0  0
 49123  1  0  0  0
 50 51  1  0  0  0
 50124  1  0  0  0
 50125  1  0  0  0
 51 52  1  0  0  0
 51126  1  0  0  0
 51127  1  0  0  0
 52128  1  0  0  0
 52129  1  0  0  0
 53 54  1  0  0  0
 54 55  2  0  0  0
 54130  1  0  0  0
 55 57  1  0  0  0
 55131  1  0  0  0
 56 69  2  0  0  0
 57 58  2  0  0  0
 57132  1  0  0  0
 58133  1  0  0  0
 59 60  1  0  0  0
 59 61  1  0  0  0
 59 62  1  0  0  0
 60134  1  0  0  0
 60135  1  0  0  0
 60136  1  0  0  0
 61137  1  0  0  0
 61138  1  0  0  0
 61139  1  0  0  0
 62140  1  0  0  0
 62141  1  0  0  0
 62142  1  0  0  0
 63 65  1  0  0  0
 63143  1  0  0  0
 63144  1  0  0  0
 63145  1  0  0  0
 64146  1  0  0  0
 65147  1  0  0  0
 68 86  1  0  0  0
 71 72  2  0  0  0
 71 73  1  0  0  0
 71148  1  0  0  0
 72 76  1  0  0  0
 72149  1  0  0  0
 73 75  2  0  0  0
 73 77  1  0  0  0
 74 75  1  0  0  0
 74 76  2  0  0  0
 74 78  1  0  0  0
 75 83  1  0  0  0
 76 88  1  0  0  0
 77 79  2  0  0  0
 77150  1  0  0  0
 78 80  2  0  0  0
 78151  1  0  0  0
 79152  1  0  0  0
 80 81  1  0  0  0
 80153  1  0  0  0
 81154  1  0  0  0
 81155  1  0  0  0
 81156  1  0  0  0
 82 83  1  0  0  0
 82157  1  0  0  0
 82158  1  0  0  0
 82159  1  0  0  0
 83160  1  0  0  0
 83161  1  0  0  0
 84 85  1  0  0  0
 84 86  1  0  0  0
 84162  1  0  0  0
 84163  1  0  0  0
 85 87  1  0  0  0
 85164  1  0  0  0
 85165  1  0  0  0
 86166  1  0  0  0
 86167  1  0  0  0
 87 88  1  0  0  0
 87168  1  0  0  0
 87169  1  0  0  0
M  ISO  4   1 100  68 101  79 100  86 101
M  END
> <chiral flag>
0

> <version>
0

> <s_m_source_file>
/data/baiqing/PycharmProjects/Reinvent-master-3.2/result/LINK_invent/BTK/process_docking_weight1_custom_product_contain_oxygen_bond_distance_aromatic_linkinvent_7_9_3/rearranged_h_0121.sdf

> <i_m_source_file_index>
40

> <r_mmod_Potential_Energy-OPLS-2005>
43.5004463195801

> <r_mmod_Stretch_Energy-OPLS-2005>
38.5117988586426

> <r_mmod_Bend_Energy-OPLS-2005>
131.199462890625

> <r_mmod_Torsional_Energy-OPLS-2005>
217.0283203125

> <r_mmod_Improper_Torsional_Energy-OPLS-2005>
6.20034456253052

> <r_mmod_Van_der_Waal_Energy-OPLS-2005>
170.167236328125

> <r_mmod_Electrostatic_Energy-OPLS-2005>
-348.0546875

> <r_mmod_Solvation_Energy-OPLS-2005>
-188.015213012695

> <b_mmod_Minimization_Converged-OPLS-2005>
0

> <r_mmod_RMS_Derivative-OPLS-2005>
2.66341423988342

$$$$
40
                    3D
 Structure written by MMmdl.
156164  0  0  1  0            999 V2000
  -30.7564  -14.4124   20.6687 C   0  0  0  0  0  0
  -30.4183  -12.3109   19.4136 C   0  0  0  0  0  0
  -29.4880  -12.5217   18.2040 C   0  0  0  0  0  0
  -28.0137  -12.3734   18.6197 C   0  0  0  0  0  0
  -27.6644  -13.2063   19.8812 C   0  0  2  0  0  0
  -28.7021  -12.9751   21.0025 C   0  0  0  0  0  0
  -25.2602  -13.8161   20.5680 C   0  0  0  0  0  0
  -24.1845  -13.0436   20.9156 C   0  0  0  0  0  0
  -24.6402  -11.6904   20.8733 C   0  0  0  0  0  0
  -23.9069  -10.4291   21.0408 C   0  0  0  0  0  0
  -24.3620   -9.4208   21.9182 C   0  0  0  0  0  0
  -23.6293   -8.2248   22.0763 C   0  0  0  0  0  0
  -22.4278   -8.0282   21.3551 C   0  0  0  0  0  0
  -21.9912   -9.0257   20.4653 C   0  0  0  0  0  0
  -22.7245  -10.2137   20.3056 C   0  0  0  0  0  0
  -21.6844   -6.0735   22.5275 C   0  0  0  0  0  0
  -21.4014   -6.5643   23.8209 C   0  0  0  0  0  0
  -21.3658   -5.6797   24.9171 C   0  0  0  0  0  0
  -21.6041   -4.3060   24.7223 C   0  0  0  0  0  0
  -21.8819   -3.8151   23.4346 C   0  0  0  0  0  0
  -21.9198   -4.6964   22.3399 C   0  0  0  0  0  0
  -22.7872  -13.5245   21.1817 C   0  0  0  0  0  0
  -22.1662   -4.2154   21.0974 F   0  0  0  0  0  0
  -21.5630   -3.4542   25.7734 F   0  0  0  0  0  0
  -30.0386  -13.2757   20.4592 N   0  0  0  0  0  0
  -26.3040  -12.9332   20.3394 N   0  0  0  0  0  0
  -25.9328  -11.6491   20.5778 N   0  0  0  0  0  0
  -22.0514  -12.8239   22.0378 N   0  0  0  0  0  0
  -25.4343  -15.1874   20.4082 N   0  0  0  0  0  0
  -31.8172  -14.6450   20.0794 O   0  0  0  0  0  0
  -21.6642   -6.8882   21.4241 O   0  0  0  0  0  0
  -22.3556  -14.5551   20.6663 O   0  0  0  0  0  0
  -24.6125  -31.8690   23.2109 C   0  0  0  0  0  0
  -25.9018  -32.4827   23.8395 C   0  0  1  0  0  0
  -27.2321  -27.4342   20.0936 C   0  0  0  0  0  0
  -25.5894  -33.8622   24.2336 N   0  0  0  0  0  0
  -23.3992  -30.4922   21.5503 C   0  0  2  0  0  0
  -24.8432  -28.9573   20.1137 C   0  0  0  0  0  0
  -22.7403  -29.4660   22.4997 C   0  0  0  0  0  0
  -18.0274  -28.1378   22.8483 C   0  0  0  0  0  0
  -24.1498  -36.7313   23.2637 C   0  0  0  0  0  0
  -25.9251  -30.8359   21.3594 C   0  0  0  0  0  0
  -26.0014  -29.4682   20.7099 C   0  0  0  0  0  0
  -27.1953  -28.7140   20.6954 C   0  0  0  0  0  0
  -26.0490  -26.9334   19.4980 C   0  0  0  0  0  0
  -24.8601  -27.6904   19.5068 C   0  0  0  0  0  0
  -23.6058  -29.8237   20.1646 C   0  0  0  0  0  0
  -25.4115  -36.3107   24.0337 C   0  0  1  0  0  0
  -20.5852  -28.3660   23.1318 C   0  0  2  0  0  0
  -20.6750  -26.9400   22.5408 C   0  0  0  0  0  0
  -19.5737  -26.6383   21.5199 C   0  0  0  0  0  0
  -18.1917  -26.7919   22.1605 C   0  0  0  0  0  0
  -19.1522  -28.8832   23.2892 C   0  0  0  0  0  0
  -18.9456  -30.1435   23.8903 C   0  0  0  0  0  0
  -17.6466  -30.6581   24.0563 C   0  0  0  0  0  0
  -25.9035  -34.9473   23.5125 C   0  0  0  0  0  0
  -16.5353  -29.9088   23.6327 C   0  0  0  0  0  0
  -16.7262  -28.6507   23.0335 C   0  0  0  0  0  0
  -26.4464  -31.6593   25.0703 C   0  0  0  0  0  0
  -25.3743  -31.3665   26.1460 C   0  0  0  0  0  0
  -27.0292  -30.3051   24.6029 C   0  0  0  0  0  0
  -27.6063  -32.4290   25.7459 C   0  0  0  0  0  0
  -27.5585  -37.1800   24.8461 C   0  0  0  0  0  0
  -21.4132  -29.3026   22.3733 N   0  0  0  0  0  0
  -26.4297  -37.3792   23.9408 N   0  0  0  0  0  0
  -24.6642  -31.0796   22.0996 N   0  0  0  0  0  0
  -23.4185  -28.8211   23.3039 O   0  0  0  0  0  0
  -28.4306  -26.7463   20.1120 O   0  0  0  0  0  0
  -26.5609  -34.8920   22.4697 O   0  0  0  0  0  0
  -23.5319  -32.1435   23.7501 O   0  0  0  0  0  0
  -30.1787  -17.7173   22.0701 C   0  0  0  0  0  0
  -32.1239  -18.7721   23.0929 C   0  0  0  0  0  0
  -32.1866  -16.4044   22.5374 C   0  0  0  0  0  0
  -30.8051  -18.8755   22.6029 C   0  0  0  0  0  0
  -30.8678  -16.4763   22.0293 C   0  0  0  0  0  0
  -32.8131  -17.5483   23.0607 C   0  0  0  0  0  0
  -30.1804  -20.2142   22.6369 C   0  0  0  0  0  0
  -29.2075  -20.6934   21.8390 C   0  0  0  0  0  0
  -28.2031  -24.3915   20.8440 C   0  0  0  0  0  0
  -28.6160  -22.0914   21.9805 C   0  0  0  0  0  0
  -28.7496  -22.9576   20.7040 C   0  0  0  0  0  0
  -28.5043  -25.3721   19.6929 C   0  0  0  0  0  0
  -30.2237  -15.3039   21.5275 N   0  0  0  0  0  0
  -27.5454  -24.7342   21.8343 O   0  0  0  0  0  0
  -34.0800  -17.4718   23.5347 F   0  0  0  0  0  0
  -31.4616  -12.4124   19.1073 H   0  0  0  0  0  0
  -30.3247  -11.2945   19.7983 H   0  0  0  0  0  0
  -29.7283  -11.8063   17.4173 H   0  0  0  0  0  0
  -29.6533  -13.5131   17.7788 H   0  0  0  0  0  0
  -27.8281  -11.3163   18.8115 H   0  0  0  0  0  0
  -27.3594  -12.6519   17.7936 H   0  0  0  0  0  0
  -27.7154  -14.2567   19.5949 H   0  0  0  0  0  0
  -28.6740  -11.9363   21.3345 H   0  0  0  0  0  0
  -28.4515  -13.5652   21.8842 H   0  0  0  0  0  0
  -25.2764   -9.5676   22.4760 H   0  0  0  0  0  0
  -23.9994   -7.4640   22.7486 H   0  0  0  0  0  0
  -21.0844   -8.8780   19.8956 H   0  0  0  0  0  0
  -22.3704  -10.9677   19.6173 H   0  0  0  0  0  0
  -21.2007   -7.6153   23.9710 H   0  0  0  0  0  0
  -21.1476   -6.0529   25.9071 H   0  0  0  0  0  0
  -22.0603   -2.7615   23.2841 H   0  0  0  0  0  0
  -22.4131  -11.9896   22.4752 H   0  0  0  0  0  0
  -21.1140  -13.1278   22.2600 H   0  0  0  0  0  0
  -24.6720  -15.8481   20.5120 H   0  0  0  0  0  0
  -26.2953  -15.6215   20.0974 H   0  0  0  0  0  0
  -26.7077  -32.5569   23.1158 H   0  0  0  0  0  0
  -25.0032  -33.9788   25.0471 H   0  0  0  0  0  0
  -22.6865  -31.3092   21.4123 H   0  0  0  0  0  0
  -23.3749  -35.9654   23.3298 H   0  0  0  0  0  0
  -24.3584  -36.8932   22.2048 H   0  0  0  0  0  0
  -23.7254  -37.6517   23.6660 H   0  0  0  0  0  0
  -26.0287  -31.6016   20.5900 H   0  0  0  0  0  0
  -26.8165  -30.8951   21.9709 H   0  0  0  0  0  0
  -28.0919  -29.1058   21.1549 H   0  0  0  0  0  0
  -26.0148  -25.9684   19.0180 H   0  0  0  0  0  0
  -23.9667  -27.2957   19.0423 H   0  0  0  0  0  0
  -23.7126  -30.5988   19.4055 H   0  0  0  0  0  0
  -22.7301  -29.2426   19.8710 H   0  0  0  0  0  0
  -25.1283  -36.1970   25.0825 H   0  0  0  0  0  0
  -20.9942  -28.3233   24.1445 H   0  0  0  0  0  0
  -20.5648  -26.2280   23.3598 H   0  0  0  0  0  0
  -21.6627  -26.7444   22.1215 H   0  0  0  0  0  0
  -19.6915  -25.6303   21.1220 H   0  0  0  0  0  0
  -19.6686  -27.3200   20.6733 H   0  0  0  0  0  0
  -17.4184  -26.6669   21.4008 H   0  0  0  0  0  0
  -18.0320  -26.0072   22.9008 H   0  0  0  0  0  0
  -19.7938  -30.7217   24.2309 H   0  0  0  0  0  0
  -17.5026  -31.6271   24.5148 H   0  0  0  0  0  0
  -15.5346  -30.2980   23.7652 H   0  0  0  0  0  0
  -15.8661  -28.0814   22.7048 H   0  0  0  0  0  0
  -24.5952  -30.6976   25.7777 H   0  0  0  0  0  0
  -24.8888  -32.2798   26.4915 H   0  0  0  0  0  0
  -25.8107  -30.8835   27.0216 H   0  0  0  0  0  0
  -26.2801  -29.6804   24.1150 H   0  0  0  0  0  0
  -27.4159  -29.7283   25.4438 H   0  0  0  0  0  0
  -27.8593  -30.4380   23.9090 H   0  0  0  0  0  0
  -27.2736  -33.3616   26.2031 H   0  0  0  0  0  0
  -28.3890  -32.6800   25.0285 H   0  0  0  0  0  0
  -28.0718  -31.8408   26.5384 H   0  0  0  0  0  0
  -28.2582  -38.0118   24.7523 H   0  0  0  0  0  0
  -28.1102  -36.2641   24.6267 H   0  0  0  0  0  0
  -27.2301  -37.1420   25.8864 H   0  0  0  0  0  0
  -20.9302  -29.8772   21.6969 H   0  0  0  0  0  0
  -26.0187  -38.2864   24.1431 H   0  0  0  0  0  0
  -29.1661  -17.7829   21.6973 H   0  0  0  0  0  0
  -32.6256  -19.6420   23.4934 H   0  0  0  0  0  0
  -32.7333  -15.4739   22.5349 H   0  0  0  0  0  0
  -30.5531  -20.8680   23.4148 H   0  0  0  0  0  0
  -28.8051  -20.0772   21.0482 H   0  0  0  0  0  0
  -29.0969  -22.6030   22.8176 H   0  0  0  0  0  0
  -27.5643  -21.9869   22.2495 H   0  0  0  0  0  0
  -29.7999  -23.0288   20.4198 H   0  0  0  0  0  0
  -28.2319  -22.4749   19.8745 H   0  0  0  0  0  0
  -27.8809  -25.1541   18.8282 H   0  0  0  0  0  0
  -29.5268  -25.1891   19.3669 H   0  0  0  0  0  0
  -29.2890  -15.1113   21.8570 H   0  0  0  0  0  0
  1 25  1  0  0  0
  1 30  2  0  0  0
  1 83  1  0  0  0
  2  3  1  0  0  0
  2 25  1  0  0  0
  2 86  1  0  0  0
  2 87  1  0  0  0
  3  4  1  0  0  0
  3 88  1  0  0  0
  3 89  1  0  0  0
  4  5  1  0  0  0
  4 90  1  0  0  0
  4 91  1  0  0  0
  5  6  1  0  0  0
  5 26  1  0  0  0
  5 92  1  0  0  0
  6 25  1  0  0  0
  6 93  1  0  0  0
  6 94  1  0  0  0
  7  8  2  0  0  0
  7 26  1  0  0  0
  7 29  1  0  0  0
  8  9  1  0  0  0
  8 22  1  0  0  0
  9 10  1  0  0  0
  9 27  2  0  0  0
 10 11  2  0  0  0
 10 15  1  0  0  0
 11 12  1  0  0  0
 11 95  1  0  0  0
 12 13  2  0  0  0
 12 96  1  0  0  0
 13 14  1  0  0  0
 13 31  1  0  0  0
 14 15  2  0  0  0
 14 97  1  0  0  0
 15 98  1  0  0  0
 16 17  2  0  0  0
 16 21  1  0  0  0
 16 31  1  0  0  0
 17 18  1  0  0  0
 17 99  1  0  0  0
 18 19  2  0  0  0
 18100  1  0  0  0
 19 20  1  0  0  0
 19 24  1  0  0  0
 20 21  2  0  0  0
 20101  1  0  0  0
 21 23  1  0  0  0
 22 28  1  0  0  0
 22 32  2  0  0  0
 26 27  1  0  0  0
 28102  1  0  0  0
 28103  1  0  0  0
 29104  1  0  0  0
 29105  1  0  0  0
 33 34  1  0  0  0
 33 66  1  0  0  0
 33 70  2  0  0  0
 34 36  1  0  0  0
 34 59  1  0  0  0
 34106  1  0  0  0
 35 44  2  0  0  0
 35 45  1  0  0  0
 35 68  1  0  0  0
 36 56  1  0  0  0
 36107  1  0  0  0
 37 39  1  0  0  0
 37 47  1  0  0  0
 37 66  1  0  0  0
 37108  1  0  0  0
 38 43  2  0  0  0
 38 46  1  0  0  0
 38 47  1  0  0  0
 39 64  1  0  0  0
 39 67  2  0  0  0
 40 52  1  0  0  0
 40 53  2  0  0  0
 40 58  1  0  0  0
 41109  1  0  0  0
 41110  1  0  0  0
 41111  1  0  0  0
 41 48  1  0  0  0
 42 43  1  0  0  0
 42 66  1  0  0  0
 42112  1  0  0  0
 42113  1  0  0  0
 43 44  1  0  0  0
 44114  1  0  0  0
 45 46  2  0  0  0
 45115  1  0  0  0
 46116  1  0  0  0
 47117  1  0  0  0
 47118  1  0  0  0
 48 56  1  0  0  0
 48 65  1  0  0  0
 48119  1  0  0  0
 49 50  1  0  0  0
 49 53  1  0  0  0
 49 64  1  0  0  0
 49120  1  0  0  0
 50 51  1  0  0  0
 50121  1  0  0  0
 50122  1  0  0  0
 51 52  1  0  0  0
 51123  1  0  0  0
 51124  1  0  0  0
 52125  1  0  0  0
 52126  1  0  0  0
 53 54  1  0  0  0
 54 55  2  0  0  0
 54127  1  0  0  0
 55 57  1  0  0  0
 55128  1  0  0  0
 56 69  2  0  0  0
 57 58  2  0  0  0
 57129  1  0  0  0
 58130  1  0  0  0
 59 60  1  0  0  0
 59 61  1  0  0  0
 59 62  1  0  0  0
 60131  1  0  0  0
 60132  1  0  0  0
 60133  1  0  0  0
 61134  1  0  0  0
 61135  1  0  0  0
 61136  1  0  0  0
 62137  1  0  0  0
 62138  1  0  0  0
 62139  1  0  0  0
 63 65  1  0  0  0
 63140  1  0  0  0
 63141  1  0  0  0
 63142  1  0  0  0
 64143  1  0  0  0
 65144  1  0  0  0
 68 82  1  0  0  0
 71 74  2  0  0  0
 71 75  1  0  0  0
 71145  1  0  0  0
 72 74  1  0  0  0
 72 76  2  0  0  0
 72146  1  0  0  0
 73 75  2  0  0  0
 73 76  1  0  0  0
 73147  1  0  0  0
 74 77  1  0  0  0
 75 83  1  0  0  0
 76 85  1  0  0  0
 77 78  2  0  0  0
 77148  1  0  0  0
 78 80  1  0  0  0
 78149  1  0  0  0
 79 81  1  0  0  0
 79 82  1  0  0  0
 79 84  2  0  0  0
 80 81  1  0  0  0
 80150  1  0  0  0
 80151  1  0  0  0
 81152  1  0  0  0
 81153  1  0  0  0
 82154  1  0  0  0
 82155  1  0  0  0
 83156  1  0  0  0
M  ISO  4   1 100  68 101  82 101  83 100
M  END
> <chiral flag>
0

> <version>
0

> <s_m_source_file>
/data/baiqing/PycharmProjects/Reinvent-master-3.2/result/LINK_invent/BTK/process_docking_weight1_custom_product_contain_oxygen_bond_distance_aromatic_linkinvent_7_9_3/rearranged_h_0121.sdf

> <i_m_source_file_index>
41

> <r_mmod_Potential_Energy-OPLS-2005>
-24.169282913208

> <r_mmod_Stretch_Energy-OPLS-2005>
36.8052978515625

> <r_mmod_Bend_Energy-OPLS-2005>
100.774032592773

> <r_mmod_Torsional_Energy-OPLS-2005>
211.186126708984

> <r_mmod_Improper_Torsional_Energy-OPLS-2005>
1.84115469455719

> <r_mmod_Van_der_Waal_Energy-OPLS-2005>
154.973937988281

> <r_mmod_Electrostatic_Energy-OPLS-2005>
-313.04541015625

> <r_mmod_Solvation_Energy-OPLS-2005>
-226.306976318359

> <b_mmod_Minimization_Converged-OPLS-2005>
0

> <r_mmod_RMS_Derivative-OPLS-2005>
2.25532412528992

$$$$
41
                    3D
 Structure written by MMmdl.
158166  0  0  1  0            999 V2000
  -30.7314  -14.4156   20.5113 C   0  0  0  0  0  0
  -30.4046  -12.2509   19.4370 C   0  0  0  0  0  0
  -29.4947  -12.4826   18.2128 C   0  0  0  0  0  0
  -28.0119  -12.3643   18.6148 C   0  0  0  0  0  0
  -27.6591  -13.2074   19.8704 C   0  0  2  0  0  0
  -28.6973  -13.0020   20.9955 C   0  0  0  0  0  0
  -25.2602  -13.8181   20.5714 C   0  0  0  0  0  0
  -24.1835  -13.0466   20.9168 C   0  0  0  0  0  0
  -24.6380  -11.6927   20.8711 C   0  0  0  0  0  0
  -23.9054  -10.4307   21.0381 C   0  0  0  0  0  0
  -24.3619   -9.4227   21.9164 C   0  0  0  0  0  0
  -23.6305   -8.2259   22.0737 C   0  0  0  0  0  0
  -22.4281   -8.0289   21.3537 C   0  0  0  0  0  0
  -21.9911   -9.0253   20.4632 C   0  0  0  0  0  0
  -22.7232  -10.2133   20.3030 C   0  0  0  0  0  0
  -21.6860   -6.0744   22.5281 C   0  0  0  0  0  0
  -21.4020   -6.5647   23.8213 C   0  0  0  0  0  0
  -21.3652   -5.6794   24.9174 C   0  0  0  0  0  0
  -21.6032   -4.3056   24.7218 C   0  0  0  0  0  0
  -21.8819   -3.8156   23.4334 C   0  0  0  0  0  0
  -21.9203   -4.6977   22.3398 C   0  0  0  0  0  0
  -22.7858  -13.5261   21.1844 C   0  0  0  0  0  0
  -22.1670   -4.2166   21.0975 F   0  0  0  0  0  0
  -21.5622   -3.4533   25.7724 F   0  0  0  0  0  0
  -30.0373  -13.2526   20.4477 N   0  0  0  0  0  0
  -26.3018  -12.9345   20.3347 N   0  0  0  0  0  0
  -25.9304  -11.6506   20.5741 N   0  0  0  0  0  0
  -22.0498  -12.8247   22.0394 N   0  0  0  0  0  0
  -25.4390  -15.1902   20.4215 N   0  0  0  0  0  0
  -31.9099  -14.5036   20.1564 O   0  0  0  0  0  0
  -21.6650   -6.8886   21.4245 O   0  0  0  0  0  0
  -22.3529  -14.5571   20.6705 O   0  0  0  0  0  0
  -24.6086  -31.8736   23.2156 C   0  0  0  0  0  0
  -25.9002  -32.4858   23.8432 C   0  0  1  0  0  0
  -27.2304  -27.4903   20.0858 C   0  0  0  0  0  0
  -25.5884  -33.8656   24.2366 N   0  0  0  0  0  0
  -23.3923  -30.4979   21.5560 C   0  0  2  0  0  0
  -24.8363  -28.9706   20.1189 C   0  0  0  0  0  0
  -22.7379  -29.4684   22.5036 C   0  0  0  0  0  0
  -18.0262  -28.1376   22.8499 C   0  0  0  0  0  0
  -24.1485  -36.7328   23.2637 C   0  0  0  0  0  0
  -25.9150  -30.8583   21.3568 C   0  0  0  0  0  0
  -25.9946  -29.4967   20.7045 C   0  0  0  0  0  0
  -27.1974  -28.7653   20.6803 C   0  0  0  0  0  0
  -26.0559  -26.9620   19.5045 C   0  0  0  0  0  0
  -24.8587  -27.7003   19.5181 C   0  0  0  0  0  0
  -23.5963  -29.8313   20.1699 C   0  0  0  0  0  0
  -25.4107  -36.3132   24.0341 C   0  0  1  0  0  0
  -20.5847  -28.3650   23.1349 C   0  0  2  0  0  0
  -20.6756  -26.9398   22.5428 C   0  0  0  0  0  0
  -19.5738  -26.6393   21.5222 C   0  0  0  0  0  0
  -18.1912  -26.7926   22.1624 C   0  0  0  0  0  0
  -19.1508  -28.8831   23.2921 C   0  0  0  0  0  0
  -18.9439  -30.1441   23.8926 C   0  0  0  0  0  0
  -17.6443  -30.6585   24.0572 C   0  0  0  0  0  0
  -25.9030  -34.9494   23.5147 C   0  0  0  0  0  0
  -16.5335  -29.9089   23.6324 C   0  0  0  0  0  0
  -16.7253  -28.6507   23.0345 C   0  0  0  0  0  0
  -26.4454  -31.6622   25.0732 C   0  0  0  0  0  0
  -25.3742  -31.3680   26.1489 C   0  0  0  0  0  0
  -27.0284  -30.3085   24.6050 C   0  0  0  0  0  0
  -27.6049  -32.4327   25.7478 C   0  0  0  0  0  0
  -27.5585  -37.1811   24.8462 C   0  0  0  0  0  0
  -21.4116  -29.3024   22.3767 N   0  0  0  0  0  0
  -26.4298  -37.3809   23.9408 N   0  0  0  0  0  0
  -24.6569  -31.0891   22.1024 N   0  0  0  0  0  0
  -23.4184  -28.8234   23.3057 O   0  0  0  0  0  0
  -28.4152  -26.8035   20.0754 O   0  0  0  0  0  0
  -26.5592  -34.8927   22.4706 O   0  0  0  0  0  0
  -23.5295  -32.1458   23.7594 O   0  0  0  0  0  0
  -28.2345  -19.6595   18.7097 C   0  0  0  0  0  0
  -30.2600  -18.9235   20.5005 C   0  0  0  0  0  0
  -28.9805  -20.6621   19.3626 C   0  0  0  0  0  0
  -29.5517  -17.9295   19.8033 C   0  0  0  0  0  0
  -29.9973  -20.2885   20.2830 C   0  0  0  0  0  0
  -28.5222  -18.2957   18.9068 C   0  0  0  0  0  0
  -28.6730  -22.0529   19.0177 C   0  0  0  0  0  0
  -30.1165  -16.5885   19.8185 C   0  0  0  0  0  0
  -28.6011  -23.0628   19.8992 C   0  0  0  0  0  0
  -29.9420  -15.6145   20.7319 C   0  0  0  0  0  0
  -28.3993  -24.4453   19.4707 C   0  0  0  0  0  0
  -30.9041  -21.2988   20.9720 C   0  0  0  0  0  0
  -27.7492  -17.2661   18.0981 C   0  0  0  0  0  0
  -28.3403  -25.4808   20.5927 C   0  0  0  0  0  0
  -28.2991  -24.7862   18.2862 O   0  0  0  0  0  0
  -31.4554  -12.3047   19.1467 H   0  0  0  0  0  0
  -30.2589  -11.2473   19.8389 H   0  0  0  0  0  0
  -29.7244  -11.7587   17.4295 H   0  0  0  0  0  0
  -29.6878  -13.4694   17.7881 H   0  0  0  0  0  0
  -27.8078  -11.3098   18.8046 H   0  0  0  0  0  0
  -27.3718  -12.6516   17.7798 H   0  0  0  0  0  0
  -27.7004  -14.2516   19.5675 H   0  0  0  0  0  0
  -28.6510  -11.9799   21.3729 H   0  0  0  0  0  0
  -28.4785  -13.6396   21.8520 H   0  0  0  0  0  0
  -25.2750   -9.5723   22.4757 H   0  0  0  0  0  0
  -24.0019   -7.4667   22.7467 H   0  0  0  0  0  0
  -21.0834   -8.8785   19.8941 H   0  0  0  0  0  0
  -22.3696  -10.9684   19.6152 H   0  0  0  0  0  0
  -21.2011   -7.6153   23.9715 H   0  0  0  0  0  0
  -21.1476   -6.0525   25.9078 H   0  0  0  0  0  0
  -22.0599   -2.7624   23.2837 H   0  0  0  0  0  0
  -22.4128  -11.9901   22.4748 H   0  0  0  0  0  0
  -21.1111  -13.1260   22.2595 H   0  0  0  0  0  0
  -24.6880  -15.8566   20.5651 H   0  0  0  0  0  0
  -26.3188  -15.6270   20.1775 H   0  0  0  0  0  0
  -26.7073  -32.5591   23.1210 H   0  0  0  0  0  0
  -25.0039  -33.9840   25.0509 H   0  0  0  0  0  0
  -22.6768  -31.3117   21.4213 H   0  0  0  0  0  0
  -23.3747  -35.9659   23.3309 H   0  0  0  0  0  0
  -24.3572  -36.8936   22.2049 H   0  0  0  0  0  0
  -23.7236  -37.6532   23.6647 H   0  0  0  0  0  0
  -26.0144  -31.6276   20.5893 H   0  0  0  0  0  0
  -26.8078  -30.9158   21.9674 H   0  0  0  0  0  0
  -28.0961  -29.1733   21.1209 H   0  0  0  0  0  0
  -26.0579  -25.9941   19.0254 H   0  0  0  0  0  0
  -23.9667  -27.2903   19.0655 H   0  0  0  0  0  0
  -23.6995  -30.6069   19.4104 H   0  0  0  0  0  0
  -22.7212  -29.2482   19.8771 H   0  0  0  0  0  0
  -25.1280  -36.2008   25.0835 H   0  0  0  0  0  0
  -20.9936  -28.3208   24.1470 H   0  0  0  0  0  0
  -20.5678  -26.2257   23.3604 H   0  0  0  0  0  0
  -21.6626  -26.7455   22.1212 H   0  0  0  0  0  0
  -19.6901  -25.6313   21.1228 H   0  0  0  0  0  0
  -19.6686  -27.3225   20.6771 H   0  0  0  0  0  0
  -17.4192  -26.6693   21.4013 H   0  0  0  0  0  0
  -18.0294  -26.0061   22.9009 H   0  0  0  0  0  0
  -19.7912  -30.7253   24.2313 H   0  0  0  0  0  0
  -17.4994  -31.6266   24.5174 H   0  0  0  0  0  0
  -15.5336  -30.3003   23.7636 H   0  0  0  0  0  0
  -15.8650  -28.0843   22.7040 H   0  0  0  0  0  0
  -24.5931  -30.7015   25.7817 H   0  0  0  0  0  0
  -24.8914  -32.2816   26.4968 H   0  0  0  0  0  0
  -25.8121  -30.8832   27.0229 H   0  0  0  0  0  0
  -26.2807  -29.6839   24.1152 H   0  0  0  0  0  0
  -27.4144  -29.7314   25.4467 H   0  0  0  0  0  0
  -27.8595  -30.4433   23.9122 H   0  0  0  0  0  0
  -27.2687  -33.3612   26.2096 H   0  0  0  0  0  0
  -28.3824  -32.6915   25.0280 H   0  0  0  0  0  0
  -28.0756  -31.8432   26.5352 H   0  0  0  0  0  0
  -28.2603  -38.0109   24.7526 H   0  0  0  0  0  0
  -28.1087  -36.2645   24.6277 H   0  0  0  0  0  0
  -27.2302  -37.1446   25.8864 H   0  0  0  0  0  0
  -20.9277  -29.8746   21.6987 H   0  0  0  0  0  0
  -26.0197  -38.2886   24.1428 H   0  0  0  0  0  0
  -27.4619  -19.9411   18.0063 H   0  0  0  0  0  0
  -31.0775  -18.6321   21.1466 H   0  0  0  0  0  0
  -28.5371  -22.2545   17.9627 H   0  0  0  0  0  0
  -30.7817  -16.4093   18.9832 H   0  0  0  0  0  0
  -28.7041  -22.8836   20.9583 H   0  0  0  0  0  0
  -29.2821  -15.7316   21.5777 H   0  0  0  0  0  0
  -31.8173  -20.8253   21.3344 H   0  0  0  0  0  0
  -30.4101  -21.7492   21.8323 H   0  0  0  0  0  0
  -31.2084  -22.0878   20.2841 H   0  0  0  0  0  0
  -28.0043  -17.3421   17.0406 H   0  0  0  0  0  0
  -26.6775  -17.4384   18.2004 H   0  0  0  0  0  0
  -27.9491  -16.2457   18.4173 H   0  0  0  0  0  0
  -29.1880  -25.3227   21.2597 H   0  0  0  0  0  0
  -27.4360  -25.3266   21.1839 H   0  0  0  0  0  0
  1 25  1  0  0  0
  1 30  2  0  0  0
  1 80  1  0  0  0
  2  3  1  0  0  0
  2 25  1  0  0  0
  2 86  1  0  0  0
  2 87  1  0  0  0
  3  4  1  0  0  0
  3 88  1  0  0  0
  3 89  1  0  0  0
  4  5  1  0  0  0
  4 90  1  0  0  0
  4 91  1  0  0  0
  5  6  1  0  0  0
  5 26  1  0  0  0
  5 92  1  0  0  0
  6 25  1  0  0  0
  6 93  1  0  0  0
  6 94  1  0  0  0
  7  8  2  0  0  0
  7 26  1  0  0  0
  7 29  1  0  0  0
  8  9  1  0  0  0
  8 22  1  0  0  0
  9 10  1  0  0  0
  9 27  2  0  0  0
 10 11  2  0  0  0
 10 15  1  0  0  0
 11 12  1  0  0  0
 11 95  1  0  0  0
 12 13  2  0  0  0
 12 96  1  0  0  0
 13 14  1  0  0  0
 13 31  1  0  0  0
 14 15  2  0  0  0
 14 97  1  0  0  0
 15 98  1  0  0  0
 16 17  2  0  0  0
 16 21  1  0  0  0
 16 31  1  0  0  0
 17 18  1  0  0  0
 17 99  1  0  0  0
 18 19  2  0  0  0
 18100  1  0  0  0
 19 20  1  0  0  0
 19 24  1  0  0  0
 20 21  2  0  0  0
 20101  1  0  0  0
 21 23  1  0  0  0
 22 28  1  0  0  0
 22 32  2  0  0  0
 26 27  1  0  0  0
 28102  1  0  0  0
 28103  1  0  0  0
 29104  1  0  0  0
 29105  1  0  0  0
 33 34  1  0  0  0
 33 66  1  0  0  0
 33 70  2  0  0  0
 34 36  1  0  0  0
 34 59  1  0  0  0
 34106  1  0  0  0
 35 44  2  0  0  0
 35 45  1  0  0  0
 35 68  1  0  0  0
 36 56  1  0  0  0
 36107  1  0  0  0
 37 39  1  0  0  0
 37 47  1  0  0  0
 37 66  1  0  0  0
 37108  1  0  0  0
 38 43  2  0  0  0
 38 46  1  0  0  0
 38 47  1  0  0  0
 39 64  1  0  0  0
 39 67  2  0  0  0
 40 52  1  0  0  0
 40 53  2  0  0  0
 40 58  1  0  0  0
 41109  1  0  0  0
 41110  1  0  0  0
 41111  1  0  0  0
 41 48  1  0  0  0
 42 43  1  0  0  0
 42 66  1  0  0  0
 42112  1  0  0  0
 42113  1  0  0  0
 43 44  1  0  0  0
 44114  1  0  0  0
 45 46  2  0  0  0
 45115  1  0  0  0
 46116  1  0  0  0
 47117  1  0  0  0
 47118  1  0  0  0
 48 56  1  0  0  0
 48 65  1  0  0  0
 48119  1  0  0  0
 49 50  1  0  0  0
 49 53  1  0  0  0
 49 64  1  0  0  0
 49120  1  0  0  0
 50 51  1  0  0  0
 50121  1  0  0  0
 50122  1  0  0  0
 51 52  1  0  0  0
 51123  1  0  0  0
 51124  1  0  0  0
 52125  1  0  0  0
 52126  1  0  0  0
 53 54  1  0  0  0
 54 55  2  0  0  0
 54127  1  0  0  0
 55 57  1  0  0  0
 55128  1  0  0  0
 56 69  2  0  0  0
 57 58  2  0  0  0
 57129  1  0  0  0
 58130  1  0  0  0
 59 60  1  0  0  0
 59 61  1  0  0  0
 59 62  1  0  0  0
 60131  1  0  0  0
 60132  1  0  0  0
 60133  1  0  0  0
 61134  1  0  0  0
 61135  1  0  0  0
 61136  1  0  0  0
 62137  1  0  0  0
 62138  1  0  0  0
 62139  1  0  0  0
 63 65  1  0  0  0
 63140  1  0  0  0
 63141  1  0  0  0
 63142  1  0  0  0
 64143  1  0  0  0
 65144  1  0  0  0
 68 84  1  0  0  0
 71 73  2  0  0  0
 71 76  1  0  0  0
 71145  1  0  0  0
 72 74  1  0  0  0
 72 75  2  0  0  0
 72146  1  0  0  0
 73 75  1  0  0  0
 73 77  1  0  0  0
 74 76  2  0  0  0
 74 78  1  0  0  0
 75 82  1  0  0  0
 76 83  1  0  0  0
 77 79  2  0  0  0
 77147  1  0  0  0
 78 80  2  0  0  0
 78148  1  0  0  0
 79 81  1  0  0  0
 79149  1  0  0  0
 80150  1  0  0  0
 81 84  1  0  0  0
 81 85  2  0  0  0
 82151  1  0  0  0
 82152  1  0  0  0
 82153  1  0  0  0
 83154  1  0  0  0
 83155  1  0  0  0
 83156  1  0  0  0
 84157  1  0  0  0
 84158  1  0  0  0
M  ISO  4   1 100  68 101  80 100  84 101
M  END
> <chiral flag>
0

> <version>
0

> <s_m_source_file>
/data/baiqing/PycharmProjects/Reinvent-master-3.2/result/LINK_invent/BTK/process_docking_weight1_custom_product_contain_oxygen_bond_distance_aromatic_linkinvent_7_9_3/rearranged_h_0121.sdf

> <i_m_source_file_index>
42

> <r_mmod_Potential_Energy-OPLS-2005>
20.8117198944092

> <r_mmod_Stretch_Energy-OPLS-2005>
30.038423538208

> <r_mmod_Bend_Energy-OPLS-2005>
95.7392807006836

> <r_mmod_Torsional_Energy-OPLS-2005>
259.714630126953

> <r_mmod_Improper_Torsional_Energy-OPLS-2005>
9.31748199462891

> <r_mmod_Van_der_Waal_Energy-OPLS-2005>
161.745101928711

> <r_mmod_Electrostatic_Energy-OPLS-2005>
-343.439788818359

> <r_mmod_Solvation_Energy-OPLS-2005>
-208.453704833984

> <b_mmod_Minimization_Converged-OPLS-2005>
0

> <r_mmod_RMS_Derivative-OPLS-2005>
1.50485289096832

$$$$
42
                    3D
 Structure written by MMmdl.
157165  0  0  1  0            999 V2000
  -30.6841  -14.5015   20.5273 C   0  0  0  0  0  0
  -30.4258  -12.3050   19.4471 C   0  0  0  0  0  0
  -29.5077  -12.4897   18.2196 C   0  0  0  0  0  0
  -28.0244  -12.3637   18.6207 C   0  0  0  0  0  0
  -27.6625  -13.2100   19.8716 C   0  0  2  0  0  0
  -28.7010  -13.0108   21.0003 C   0  0  0  0  0  0
  -25.2598  -13.8167   20.5681 C   0  0  0  0  0  0
  -24.1840  -13.0442   20.9151 C   0  0  0  0  0  0
  -24.6391  -11.6909   20.8703 C   0  0  0  0  0  0
  -23.9053  -10.4294   21.0385 C   0  0  0  0  0  0
  -24.3601   -9.4212   21.9167 C   0  0  0  0  0  0
  -23.6272   -8.2251   22.0747 C   0  0  0  0  0  0
  -22.4257   -8.0279   21.3545 C   0  0  0  0  0  0
  -21.9890   -9.0249   20.4649 C   0  0  0  0  0  0
  -22.7217  -10.2127   20.3048 C   0  0  0  0  0  0
  -21.6852   -6.0723   22.5271 C   0  0  0  0  0  0
  -21.4017   -6.5629   23.8205 C   0  0  0  0  0  0
  -21.3666   -5.6780   24.9165 C   0  0  0  0  0  0
  -21.6047   -4.3043   24.7219 C   0  0  0  0  0  0
  -21.8819   -3.8138   23.4337 C   0  0  0  0  0  0
  -21.9198   -4.6952   22.3395 C   0  0  0  0  0  0
  -22.7864  -13.5245   21.1821 C   0  0  0  0  0  0
  -22.1668   -4.2143   21.0973 F   0  0  0  0  0  0
  -21.5628   -3.4532   25.7730 F   0  0  0  0  0  0
  -30.0361  -13.3062   20.4545 N   0  0  0  0  0  0
  -26.3028  -12.9341   20.3326 N   0  0  0  0  0  0
  -25.9318  -11.6498   20.5718 N   0  0  0  0  0  0
  -22.0498  -12.8251   22.0380 N   0  0  0  0  0  0
  -25.4350  -15.1882   20.4151 N   0  0  0  0  0  0
  -31.8216  -14.6729   20.0795 O   0  0  0  0  0  0
  -21.6634   -6.8865   21.4235 O   0  0  0  0  0  0
  -22.3556  -14.5558   20.6677 O   0  0  0  0  0  0
  -24.6176  -31.8667   23.2083 C   0  0  0  0  0  0
  -25.9067  -32.4812   23.8377 C   0  0  1  0  0  0
  -27.2262  -27.4046   20.0974 C   0  0  0  0  0  0
  -25.5911  -33.8610   24.2307 N   0  0  0  0  0  0
  -23.4051  -30.4918   21.5505 C   0  0  2  0  0  0
  -24.8494  -28.9578   20.1120 C   0  0  0  0  0  0
  -22.7420  -29.4661   22.4981 C   0  0  0  0  0  0
  -18.0274  -28.1378   22.8491 C   0  0  0  0  0  0
  -24.1488  -36.7308   23.2635 C   0  0  0  0  0  0
  -25.9378  -30.8241   21.3652 C   0  0  0  0  0  0
  -26.0137  -29.4578   20.7092 C   0  0  0  0  0  0
  -27.2058  -28.6905   20.6961 C   0  0  0  0  0  0
  -26.0419  -26.9354   19.4820 C   0  0  0  0  0  0
  -24.8607  -27.6975   19.4941 C   0  0  0  0  0  0
  -23.6132  -29.8276   20.1641 C   0  0  0  0  0  0
  -25.4108  -36.3100   24.0330 C   0  0  1  0  0  0
  -20.5867  -28.3671   23.1313 C   0  0  2  0  0  0
  -20.6769  -26.9406   22.5416 C   0  0  0  0  0  0
  -19.5743  -26.6389   21.5213 C   0  0  0  0  0  0
  -18.1922  -26.7926   22.1625 C   0  0  0  0  0  0
  -19.1525  -28.8838   23.2899 C   0  0  0  0  0  0
  -18.9455  -30.1447   23.8911 C   0  0  0  0  0  0
  -17.6458  -30.6588   24.0567 C   0  0  0  0  0  0
  -25.9041  -34.9468   23.5115 C   0  0  0  0  0  0
  -16.5349  -29.9092   23.6325 C   0  0  0  0  0  0
  -16.7265  -28.6506   23.0350 C   0  0  0  0  0  0
  -26.4482  -31.6596   25.0714 C   0  0  0  0  0  0
  -25.3738  -31.3725   26.1455 C   0  0  0  0  0  0
  -27.0311  -30.3031   24.6111 C   0  0  0  0  0  0
  -27.6050  -32.4318   25.7485 C   0  0  0  0  0  0
  -27.5580  -37.1807   24.8462 C   0  0  0  0  0  0
  -21.4146  -29.3041   22.3724 N   0  0  0  0  0  0
  -26.4290  -37.3788   23.9410 N   0  0  0  0  0  0
  -24.6720  -31.0747   22.0998 N   0  0  0  0  0  0
  -23.4182  -28.8204   23.3031 O   0  0  0  0  0  0
  -28.3731  -26.6242   20.1354 O   0  0  0  0  0  0
  -26.5607  -34.8926   22.4681 O   0  0  0  0  0  0
  -23.5365  -32.1437   23.7465 O   0  0  0  0  0  0
  -29.1695  -17.8039   18.0713 C   0  0  0  0  0  0
  -29.5239  -16.6663   18.8103 C   0  0  0  0  0  0
  -29.5797  -18.0215   20.8258 C   0  0  0  0  0  0
  -29.2358  -19.1986   20.0926 C   0  0  0  0  0  0
  -29.0033  -19.0590   18.6919 C   0  0  0  0  0  0
  -29.7207  -16.7498   20.2041 C   0  0  0  0  0  0
  -29.1456  -20.4931   20.8455 C   0  0  0  0  0  0
  -29.1720  -21.7819   20.4139 C   0  0  0  0  0  0
  -28.5161  -20.1933   17.8059 C   0  0  0  0  0  0
  -29.0236  -22.9903   21.3421 C   0  0  0  0  0  0
  -29.3655  -24.3999   20.7591 C   0  0  0  0  0  0
  -28.1712  -25.1891   20.1607 C   0  0  0  0  0  0
  -29.9507  -15.5505   20.9621 N   0  0  0  0  0  0
  -31.4745  -12.3880   19.1555 H   0  0  0  0  0  0
  -30.3128  -11.3015   19.8592 H   0  0  0  0  0  0
  -29.7504  -11.7501   17.4559 H   0  0  0  0  0  0
  -29.6856  -13.4634   17.7621 H   0  0  0  0  0  0
  -27.8243  -11.3093   18.8144 H   0  0  0  0  0  0
  -27.3847  -12.6407   17.7824 H   0  0  0  0  0  0
  -27.7002  -14.2548   19.5636 H   0  0  0  0  0  0
  -28.6734  -11.9821   21.3614 H   0  0  0  0  0  0
  -28.4612  -13.6324   21.8645 H   0  0  0  0  0  0
  -25.2749   -9.5688   22.4733 H   0  0  0  0  0  0
  -23.9987   -7.4646   22.7467 H   0  0  0  0  0  0
  -21.0819   -8.8757   19.8954 H   0  0  0  0  0  0
  -22.3666  -10.9654   19.6157 H   0  0  0  0  0  0
  -21.2008   -7.6136   23.9695 H   0  0  0  0  0  0
  -21.1491   -6.0518   25.9066 H   0  0  0  0  0  0
  -22.0600   -2.7598   23.2834 H   0  0  0  0  0  0
  -22.4102  -11.9916   22.4792 H   0  0  0  0  0  0
  -21.1124  -13.1301   22.2587 H   0  0  0  0  0  0
  -24.6740  -15.8484   20.5290 H   0  0  0  0  0  0
  -26.3011  -15.6276   20.1288 H   0  0  0  0  0  0
  -26.7137  -32.5508   23.1135 H   0  0  0  0  0  0
  -25.0066  -33.9767   25.0457 H   0  0  0  0  0  0
  -22.6942  -31.3092   21.4130 H   0  0  0  0  0  0
  -23.3742  -35.9650   23.3308 H   0  0  0  0  0  0
  -24.3581  -36.8917   22.2049 H   0  0  0  0  0  0
  -23.7256  -37.6520   23.6649 H   0  0  0  0  0  0
  -26.0535  -31.5896   20.5963 H   0  0  0  0  0  0
  -26.8246  -30.8749   21.9855 H   0  0  0  0  0  0
  -28.1010  -29.0702   21.1689 H   0  0  0  0  0  0
  -26.0104  -25.9740   18.9902 H   0  0  0  0  0  0
  -23.9676  -27.3068   19.0259 H   0  0  0  0  0  0
  -23.7243  -30.6046   19.4065 H   0  0  0  0  0  0
  -22.7348  -29.2513   19.8664 H   0  0  0  0  0  0
  -25.1288  -36.1954   25.0822 H   0  0  0  0  0  0
  -20.9956  -28.3241   24.1433 H   0  0  0  0  0  0
  -20.5677  -26.2279   23.3606 H   0  0  0  0  0  0
  -21.6642  -26.7455   22.1207 H   0  0  0  0  0  0
  -19.6906  -25.6303   21.1239 H   0  0  0  0  0  0
  -19.6679  -27.3204   20.6746 H   0  0  0  0  0  0
  -17.4193  -26.6675   21.4027 H   0  0  0  0  0  0
  -18.0320  -26.0068   22.9020 H   0  0  0  0  0  0
  -19.7932  -30.7256   24.2288 H   0  0  0  0  0  0
  -17.5017  -31.6270   24.5169 H   0  0  0  0  0  0
  -15.5350  -30.3001   23.7642 H   0  0  0  0  0  0
  -15.8664  -28.0833   22.7058 H   0  0  0  0  0  0
  -24.5898  -30.7085   25.7799 H   0  0  0  0  0  0
  -24.8942  -32.2890   26.4896 H   0  0  0  0  0  0
  -25.8073  -30.8897   27.0220 H   0  0  0  0  0  0
  -26.2865  -29.6794   24.1149 H   0  0  0  0  0  0
  -27.4057  -29.7266   25.4581 H   0  0  0  0  0  0
  -27.8709  -30.4341   23.9282 H   0  0  0  0  0  0
  -27.2659  -33.3606   26.2087 H   0  0  0  0  0  0
  -28.3849  -32.6899   25.0308 H   0  0  0  0  0  0
  -28.0728  -31.8426   26.5384 H   0  0  0  0  0  0
  -28.2598  -38.0103   24.7507 H   0  0  0  0  0  0
  -28.1074  -36.2634   24.6283 H   0  0  0  0  0  0
  -27.2299  -37.1459   25.8865 H   0  0  0  0  0  0
  -20.9304  -29.8764   21.6950 H   0  0  0  0  0  0
  -26.0171  -38.2865   24.1407 H   0  0  0  0  0  0
  -28.9968  -17.6930   17.0092 H   0  0  0  0  0  0
  -29.6033  -15.7235   18.2902 H   0  0  0  0  0  0
  -29.7322  -18.0960   21.8936 H   0  0  0  0  0  0
  -29.0198  -20.3644   21.9120 H   0  0  0  0  0  0
  -29.3023  -22.0252   19.3729 H   0  0  0  0  0  0
  -28.0833  -19.8111   16.8808 H   0  0  0  0  0  0
  -29.3404  -20.8499   17.5284 H   0  0  0  0  0  0
  -27.7321  -20.7704   18.2963 H   0  0  0  0  0  0
  -29.6838  -22.8051   22.1907 H   0  0  0  0  0  0
  -28.0150  -22.9885   21.7573 H   0  0  0  0  0  0
  -30.1882  -24.3410   20.0458 H   0  0  0  0  0  0
  -29.7452  -24.9965   21.5899 H   0  0  0  0  0  0
  -27.2915  -24.9687   20.7681 H   0  0  0  0  0  0
  -27.9656  -24.8216   19.1543 H   0  0  0  0  0  0
  -29.1970  -15.3011   21.5851 H   0  0  0  0  0  0
  1 25  1  0  0  0
  1 30  2  0  0  0
  1 83  1  0  0  0
  2  3  1  0  0  0
  2 25  1  0  0  0
  2 84  1  0  0  0
  2 85  1  0  0  0
  3  4  1  0  0  0
  3 86  1  0  0  0
  3 87  1  0  0  0
  4  5  1  0  0  0
  4 88  1  0  0  0
  4 89  1  0  0  0
  5  6  1  0  0  0
  5 26  1  0  0  0
  5 90  1  0  0  0
  6 25  1  0  0  0
  6 91  1  0  0  0
  6 92  1  0  0  0
  7  8  2  0  0  0
  7 26  1  0  0  0
  7 29  1  0  0  0
  8  9  1  0  0  0
  8 22  1  0  0  0
  9 10  1  0  0  0
  9 27  2  0  0  0
 10 11  2  0  0  0
 10 15  1  0  0  0
 11 12  1  0  0  0
 11 93  1  0  0  0
 12 13  2  0  0  0
 12 94  1  0  0  0
 13 14  1  0  0  0
 13 31  1  0  0  0
 14 15  2  0  0  0
 14 95  1  0  0  0
 15 96  1  0  0  0
 16 17  2  0  0  0
 16 21  1  0  0  0
 16 31  1  0  0  0
 17 18  1  0  0  0
 17 97  1  0  0  0
 18 19  2  0  0  0
 18 98  1  0  0  0
 19 20  1  0  0  0
 19 24  1  0  0  0
 20 21  2  0  0  0
 20 99  1  0  0  0
 21 23  1  0  0  0
 22 28  1  0  0  0
 22 32  2  0  0  0
 26 27  1  0  0  0
 28100  1  0  0  0
 28101  1  0  0  0
 29102  1  0  0  0
 29103  1  0  0  0
 33 34  1  0  0  0
 33 66  1  0  0  0
 33 70  2  0  0  0
 34 36  1  0  0  0
 34 59  1  0  0  0
 34104  1  0  0  0
 35 44  2  0  0  0
 35 45  1  0  0  0
 35 68  1  0  0  0
 36 56  1  0  0  0
 36105  1  0  0  0
 37 39  1  0  0  0
 37 47  1  0  0  0
 37 66  1  0  0  0
 37106  1  0  0  0
 38 43  2  0  0  0
 38 46  1  0  0  0
 38 47  1  0  0  0
 39 64  1  0  0  0
 39 67  2  0  0  0
 40 52  1  0  0  0
 40 53  2  0  0  0
 40 58  1  0  0  0
 41107  1  0  0  0
 41108  1  0  0  0
 41109  1  0  0  0
 41 48  1  0  0  0
 42 43  1  0  0  0
 42 66  1  0  0  0
 42110  1  0  0  0
 42111  1  0  0  0
 43 44  1  0  0  0
 44112  1  0  0  0
 45 46  2  0  0  0
 45113  1  0  0  0
 46114  1  0  0  0
 47115  1  0  0  0
 47116  1  0  0  0
 48 56  1  0  0  0
 48 65  1  0  0  0
 48117  1  0  0  0
 49 50  1  0  0  0
 49 53  1  0  0  0
 49 64  1  0  0  0
 49118  1  0  0  0
 50 51  1  0  0  0
 50119  1  0  0  0
 50120  1  0  0  0
 51 52  1  0  0  0
 51121  1  0  0  0
 51122  1  0  0  0
 52123  1  0  0  0
 52124  1  0  0  0
 53 54  1  0  0  0
 54 55  2  0  0  0
 54125  1  0  0  0
 55 57  1  0  0  0
 55126  1  0  0  0
 56 69  2  0  0  0
 57 58  2  0  0  0
 57127  1  0  0  0
 58128  1  0  0  0
 59 60  1  0  0  0
 59 61  1  0  0  0
 59 62  1  0  0  0
 60129  1  0  0  0
 60130  1  0  0  0
 60131  1  0  0  0
 61132  1  0  0  0
 61133  1  0  0  0
 61134  1  0  0  0
 62135  1  0  0  0
 62136  1  0  0  0
 62137  1  0  0  0
 63 65  1  0  0  0
 63138  1  0  0  0
 63139  1  0  0  0
 63140  1  0  0  0
 64141  1  0  0  0
 65142  1  0  0  0
 68 82  1  0  0  0
 71 72  2  0  0  0
 71 75  1  0  0  0
 71143  1  0  0  0
 72 76  1  0  0  0
 72144  1  0  0  0
 73 74  1  0  0  0
 73 76  2  0  0  0
 73145  1  0  0  0
 74 75  2  0  0  0
 74 77  1  0  0  0
 75 79  1  0  0  0
 76 83  1  0  0  0
 77 78  2  0  0  0
 77146  1  0  0  0
 78 80  1  0  0  0
 78147  1  0  0  0
 79148  1  0  0  0
 79149  1  0  0  0
 79150  1  0  0  0
 80 81  1  0  0  0
 80151  1  0  0  0
 80152  1  0  0  0
 81 82  1  0  0  0
 81153  1  0  0  0
 81154  1  0  0  0
 82155  1  0  0  0
 82156  1  0  0  0
 83157  1  0  0  0
M  ISO  4   1 100  68 101  82 101  83 100
M  END
> <chiral flag>
0

> <version>
0

> <s_m_source_file>
/data/baiqing/PycharmProjects/Reinvent-master-3.2/result/LINK_invent/BTK/process_docking_weight1_custom_product_contain_oxygen_bond_distance_aromatic_linkinvent_7_9_3/rearranged_h_0121.sdf

> <i_m_source_file_index>
43

> <r_mmod_Potential_Energy-OPLS-2005>
32.5816268920898

> <r_mmod_Stretch_Energy-OPLS-2005>
45.6307907104492

> <r_mmod_Bend_Energy-OPLS-2005>
105.298713684082

> <r_mmod_Torsional_Energy-OPLS-2005>
265.013458251953

> <r_mmod_Improper_Torsional_Energy-OPLS-2005>
6.46704339981079

> <r_mmod_Van_der_Waal_Energy-OPLS-2005>
156.291061401367

> <r_mmod_Electrostatic_Energy-OPLS-2005>
-360.215545654297

> <r_mmod_Solvation_Energy-OPLS-2005>
-204.573516845703

> <b_mmod_Minimization_Converged-OPLS-2005>
0

> <r_mmod_RMS_Derivative-OPLS-2005>
1.34924864768982

$$$$
43
                    3D
 Structure written by MMmdl.
160168  0  0  1  0            999 V2000
  -30.7740  -14.3550   20.6909 C   0  0  0  0  0  0
  -30.4073  -12.2934   19.3935 C   0  0  0  0  0  0
  -29.4778  -12.5367   18.1920 C   0  0  0  0  0  0
  -28.0032  -12.3869   18.6066 C   0  0  0  0  0  0
  -27.6611  -13.2069   19.8782 C   0  0  2  0  0  0
  -28.6964  -12.9537   20.9955 C   0  0  0  0  0  0
  -25.2564  -13.8190   20.5663 C   0  0  0  0  0  0
  -24.1804  -13.0454   20.9153 C   0  0  0  0  0  0
  -24.6362  -11.6924   20.8706 C   0  0  0  0  0  0
  -23.9039  -10.4303   21.0387 C   0  0  0  0  0  0
  -24.3601   -9.4223   21.9162 C   0  0  0  0  0  0
  -23.6287   -8.2251   22.0733 C   0  0  0  0  0  0
  -22.4265   -8.0282   21.3531 C   0  0  0  0  0  0
  -21.9895   -9.0252   20.4628 C   0  0  0  0  0  0
  -22.7214  -10.2139   20.3038 C   0  0  0  0  0  0
  -21.6859   -6.0736   22.5279 C   0  0  0  0  0  0
  -21.4013   -6.5637   23.8212 C   0  0  0  0  0  0
  -21.3664   -5.6791   24.9177 C   0  0  0  0  0  0
  -21.6050   -4.3053   24.7227 C   0  0  0  0  0  0
  -21.8818   -3.8143   23.4347 C   0  0  0  0  0  0
  -21.9192   -4.6963   22.3405 C   0  0  0  0  0  0
  -22.7833  -13.5250   21.1852 C   0  0  0  0  0  0
  -22.1658   -4.2146   21.0984 F   0  0  0  0  0  0
  -21.5632   -3.4536   25.7739 F   0  0  0  0  0  0
  -30.0434  -13.2349   20.4616 N   0  0  0  0  0  0
  -26.2995  -12.9347   20.3359 N   0  0  0  0  0  0
  -25.9282  -11.6500   20.5726 N   0  0  0  0  0  0
  -22.0492  -12.8222   22.0421 N   0  0  0  0  0  0
  -25.4316  -15.1901   20.4096 N   0  0  0  0  0  0
  -31.7719  -14.6604   20.0289 O   0  0  0  0  0  0
  -21.6640   -6.8871   21.4235 O   0  0  0  0  0  0
  -22.3496  -14.5552   20.6726 O   0  0  0  0  0  0
  -24.6117  -31.8725   23.2109 C   0  0  0  0  0  0
  -25.9025  -32.4843   23.8405 C   0  0  1  0  0  0
  -27.2358  -27.4821   20.0830 C   0  0  0  0  0  0
  -25.5892  -33.8637   24.2350 N   0  0  0  0  0  0
  -23.3962  -30.4933   21.5514 C   0  0  2  0  0  0
  -24.8423  -28.9638   20.1133 C   0  0  0  0  0  0
  -22.7396  -29.4693   22.5025 C   0  0  0  0  0  0
  -18.0292  -28.1358   22.8476 C   0  0  0  0  0  0
  -24.1487  -36.7331   23.2633 C   0  0  0  0  0  0
  -25.9170  -30.8520   21.3523 C   0  0  0  0  0  0
  -25.9994  -29.4881   20.7045 C   0  0  0  0  0  0
  -27.2025  -28.7536   20.6876 C   0  0  0  0  0  0
  -26.0680  -26.9598   19.4908 C   0  0  0  0  0  0
  -24.8712  -27.6978   19.5012 C   0  0  0  0  0  0
  -23.5990  -29.8213   20.1659 C   0  0  0  0  0  0
  -25.4105  -36.3125   24.0340 C   0  0  1  0  0  0
  -20.5867  -28.3648   23.1316 C   0  0  2  0  0  0
  -20.6796  -26.9407   22.5368 C   0  0  0  0  0  0
  -19.5768  -26.6416   21.5157 C   0  0  0  0  0  0
  -18.1949  -26.7916   22.1583 C   0  0  0  0  0  0
  -19.1532  -28.8816   23.2891 C   0  0  0  0  0  0
  -18.9459  -30.1421   23.8897 C   0  0  0  0  0  0
  -17.6462  -30.6564   24.0549 C   0  0  0  0  0  0
  -25.9025  -34.9485   23.5137 C   0  0  0  0  0  0
  -16.5357  -29.9061   23.6308 C   0  0  0  0  0  0
  -16.7282  -28.6482   23.0321 C   0  0  0  0  0  0
  -26.4454  -31.6593   25.0709 C   0  0  0  0  0  0
  -25.3735  -31.3683   26.1471 C   0  0  0  0  0  0
  -27.0267  -30.3049   24.6020 C   0  0  0  0  0  0
  -27.6045  -32.4285   25.7471 C   0  0  0  0  0  0
  -27.5579  -37.1829   24.8470 C   0  0  0  0  0  0
  -21.4129  -29.3040   22.3748 N   0  0  0  0  0  0
  -26.4300  -37.3795   23.9404 N   0  0  0  0  0  0
  -24.6598  -31.0865   22.0975 N   0  0  0  0  0  0
  -23.4203  -28.8259   23.3054 O   0  0  0  0  0  0
  -28.3897  -26.7445   20.1080 O   0  0  0  0  0  0
  -26.5583  -34.8938   22.4695 O   0  0  0  0  0  0
  -23.5332  -32.1453   23.7538 O   0  0  0  0  0  0
  -30.6300  -19.8560   21.1429 C   0  0  0  0  0  0
  -31.2045  -18.5892   21.3498 C   0  0  0  0  0  0
  -29.1160  -17.8073   22.3172 C   0  0  0  0  0  0
  -29.3077  -20.1274   21.5478 C   0  0  0  0  0  0
  -30.4562  -17.5625   21.9579 C   0  0  0  0  0  0
  -28.5375  -19.0823   22.1279 C   0  0  0  0  0  0
  -28.8279  -21.5048   21.3504 C   0  0  0  0  0  0
  -27.6140  -21.8899   20.9177 C   0  0  0  0  0  0
  -27.1187  -19.2996   22.6251 C   0  0  0  0  0  0
  -31.1101  -16.2290   22.2825 C   0  0  0  0  0  0
  -27.1477  -23.3312   20.8255 C   0  0  0  0  0  0
  -28.1708  -24.3114   20.2059 C   0  0  0  0  0  0
  -28.3035  -25.6285   20.9906 C   0  0  0  0  0  0
  -30.3923  -15.0748   21.7500 N   0  0  0  0  0  0
  -31.4494  -12.3970   19.0869 H   0  0  0  0  0  0
  -30.3038  -11.2698   19.7569 H   0  0  0  0  0  0
  -29.7152  -11.8418   17.3856 H   0  0  0  0  0  0
  -29.6435  -13.5397   17.7935 H   0  0  0  0  0  0
  -27.8098  -11.3280   18.7809 H   0  0  0  0  0  0
  -27.3519  -12.6844   17.7831 H   0  0  0  0  0  0
  -27.7181  -14.2613   19.6062 H   0  0  0  0  0  0
  -28.6500  -11.9139   21.3224 H   0  0  0  0  0  0
  -28.4397  -13.5453   21.8740 H   0  0  0  0  0  0
  -25.2753   -9.5720   22.4715 H   0  0  0  0  0  0
  -24.0021   -7.4648   22.7441 H   0  0  0  0  0  0
  -21.0829   -8.8761   19.8926 H   0  0  0  0  0  0
  -22.3664  -10.9670   19.6139 H   0  0  0  0  0  0
  -21.1998   -7.6141   23.9717 H   0  0  0  0  0  0
  -21.1487   -6.0517   25.9083 H   0  0  0  0  0  0
  -22.0590   -2.7599   23.2852 H   0  0  0  0  0  0
  -22.4125  -11.9900   22.4816 H   0  0  0  0  0  0
  -21.1097  -13.1206   22.2622 H   0  0  0  0  0  0
  -24.6717  -15.8545   20.5085 H   0  0  0  0  0  0
  -26.3029  -15.6237   20.1297 H   0  0  0  0  0  0
  -26.7103  -32.5568   23.1190 H   0  0  0  0  0  0
  -25.0054  -33.9788   25.0503 H   0  0  0  0  0  0
  -22.6827  -31.3082   21.4163 H   0  0  0  0  0  0
  -23.3732  -35.9679   23.3324 H   0  0  0  0  0  0
  -24.3583  -36.8912   22.2040 H   0  0  0  0  0  0
  -23.7263  -37.6559   23.6620 H   0  0  0  0  0  0
  -26.0085  -31.6118   20.5750 H   0  0  0  0  0  0
  -26.8119  -30.9164   21.9588 H   0  0  0  0  0  0
  -28.0956  -29.1514   21.1474 H   0  0  0  0  0  0
  -26.0826  -25.9844   19.0282 H   0  0  0  0  0  0
  -23.9844  -27.2870   19.0392 H   0  0  0  0  0  0
  -23.6936  -30.5933   19.4011 H   0  0  0  0  0  0
  -22.7247  -29.2327   19.8794 H   0  0  0  0  0  0
  -25.1279  -36.1990   25.0831 H   0  0  0  0  0  0
  -20.9935  -28.3195   24.1446 H   0  0  0  0  0  0
  -20.5732  -26.2230   23.3516 H   0  0  0  0  0  0
  -21.6667  -26.7500   22.1139 H   0  0  0  0  0  0
  -19.6938  -25.6364   21.1098 H   0  0  0  0  0  0
  -19.6687  -27.3292   20.6742 H   0  0  0  0  0  0
  -18.0348  -26.0028   22.8953 H   0  0  0  0  0  0
  -17.4236  -26.6683   21.3960 H   0  0  0  0  0  0
  -19.7941  -30.7214   24.2278 H   0  0  0  0  0  0
  -17.5017  -31.6249   24.5137 H   0  0  0  0  0  0
  -15.5348  -30.2941   23.7611 H   0  0  0  0  0  0
  -15.8701  -28.0785   22.7018 H   0  0  0  0  0  0
  -24.5915  -30.7011   25.7827 H   0  0  0  0  0  0
  -24.8911  -32.2826   26.4931 H   0  0  0  0  0  0
  -25.8102  -30.8864   27.0225 H   0  0  0  0  0  0
  -26.2784  -29.6844   24.1077 H   0  0  0  0  0  0
  -27.4071  -29.7240   25.4431 H   0  0  0  0  0  0
  -27.8593  -30.4400   23.9119 H   0  0  0  0  0  0
  -27.2673  -33.3564   26.2099 H   0  0  0  0  0  0
  -28.3826  -32.6870   25.0279 H   0  0  0  0  0  0
  -28.0738  -31.8375   26.5348 H   0  0  0  0  0  0
  -28.2625  -38.0100   24.7486 H   0  0  0  0  0  0
  -28.1046  -36.2634   24.6323 H   0  0  0  0  0  0
  -27.2305  -37.1521   25.8878 H   0  0  0  0  0  0
  -20.9304  -29.8736   21.6933 H   0  0  0  0  0  0
  -26.0202  -38.2882   24.1365 H   0  0  0  0  0  0
  -31.2236  -20.6359   20.6860 H   0  0  0  0  0  0
  -32.2325  -18.4251   21.0596 H   0  0  0  0  0  0
  -28.5407  -17.0202   22.7856 H   0  0  0  0  0  0
  -29.5391  -22.2696   21.6287 H   0  0  0  0  0  0
  -26.8860  -21.1461   20.6309 H   0  0  0  0  0  0
  -26.8683  -18.5846   23.4091 H   0  0  0  0  0  0
  -26.4097  -19.1686   21.8077 H   0  0  0  0  0  0
  -26.9861  -20.2950   23.0496 H   0  0  0  0  0  0
  -31.1450  -16.1294   23.3676 H   0  0  0  0  0  0
  -32.1539  -16.2366   21.9592 H   0  0  0  0  0  0
  -26.8708  -23.6299   21.8374 H   0  0  0  0  0  0
  -26.2217  -23.3663   20.2483 H   0  0  0  0  0  0
  -27.8641  -24.5179   19.1812 H   0  0  0  0  0  0
  -29.1646  -23.8734   20.1081 H   0  0  0  0  0  0
  -27.4840  -25.7567   21.7005 H   0  0  0  0  0  0
  -29.2016  -25.6044   21.6071 H   0  0  0  0  0  0
  -29.5887  -14.7453   22.2633 H   0  0  0  0  0  0
  1 25  1  0  0  0
  1 30  2  0  0  0
  1 84  1  0  0  0
  2  3  1  0  0  0
  2 25  1  0  0  0
  2 85  1  0  0  0
  2 86  1  0  0  0
  3  4  1  0  0  0
  3 87  1  0  0  0
  3 88  1  0  0  0
  4  5  1  0  0  0
  4 89  1  0  0  0
  4 90  1  0  0  0
  5  6  1  0  0  0
  5 26  1  0  0  0
  5 91  1  0  0  0
  6 25  1  0  0  0
  6 92  1  0  0  0
  6 93  1  0  0  0
  7  8  2  0  0  0
  7 26  1  0  0  0
  7 29  1  0  0  0
  8  9  1  0  0  0
  8 22  1  0  0  0
  9 10  1  0  0  0
  9 27  2  0  0  0
 10 11  2  0  0  0
 10 15  1  0  0  0
 11 12  1  0  0  0
 11 94  1  0  0  0
 12 13  2  0  0  0
 12 95  1  0  0  0
 13 14  1  0  0  0
 13 31  1  0  0  0
 14 15  2  0  0  0
 14 96  1  0  0  0
 15 97  1  0  0  0
 16 17  2  0  0  0
 16 21  1  0  0  0
 16 31  1  0  0  0
 17 18  1  0  0  0
 17 98  1  0  0  0
 18 19  2  0  0  0
 18 99  1  0  0  0
 19 20  1  0  0  0
 19 24  1  0  0  0
 20 21  2  0  0  0
 20100  1  0  0  0
 21 23  1  0  0  0
 22 28  1  0  0  0
 22 32  2  0  0  0
 26 27  1  0  0  0
 28101  1  0  0  0
 28102  1  0  0  0
 29103  1  0  0  0
 29104  1  0  0  0
 33 34  1  0  0  0
 33 66  1  0  0  0
 33 70  2  0  0  0
 34 36  1  0  0  0
 34 59  1  0  0  0
 34105  1  0  0  0
 35 44  2  0  0  0
 35 45  1  0  0  0
 35 68  1  0  0  0
 36 56  1  0  0  0
 36106  1  0  0  0
 37 39  1  0  0  0
 37 47  1  0  0  0
 37 66  1  0  0  0
 37107  1  0  0  0
 38 43  2  0  0  0
 38 46  1  0  0  0
 38 47  1  0  0  0
 39 64  1  0  0  0
 39 67  2  0  0  0
 40 52  1  0  0  0
 40 53  2  0  0  0
 40 58  1  0  0  0
 41108  1  0  0  0
 41109  1  0  0  0
 41110  1  0  0  0
 41 48  1  0  0  0
 42 43  1  0  0  0
 42 66  1  0  0  0
 42111  1  0  0  0
 42112  1  0  0  0
 43 44  1  0  0  0
 44113  1  0  0  0
 45 46  2  0  0  0
 45114  1  0  0  0
 46115  1  0  0  0
 47116  1  0  0  0
 47117  1  0  0  0
 48 56  1  0  0  0
 48 65  1  0  0  0
 48118  1  0  0  0
 49 50  1  0  0  0
 49 53  1  0  0  0
 49 64  1  0  0  0
 49119  1  0  0  0
 50 51  1  0  0  0
 50120  1  0  0  0
 50121  1  0  0  0
 51 52  1  0  0  0
 51122  1  0  0  0
 51123  1  0  0  0
 52124  1  0  0  0
 52125  1  0  0  0
 53 54  1  0  0  0
 54 55  2  0  0  0
 54126  1  0  0  0
 55 57  1  0  0  0
 55127  1  0  0  0
 56 69  2  0  0  0
 57 58  2  0  0  0
 57128  1  0  0  0
 58129  1  0  0  0
 59 60  1  0  0  0
 59 61  1  0  0  0
 59 62  1  0  0  0
 60130  1  0  0  0
 60131  1  0  0  0
 60132  1  0  0  0
 61133  1  0  0  0
 61134  1  0  0  0
 61135  1  0  0  0
 62136  1  0  0  0
 62137  1  0  0  0
 62138  1  0  0  0
 63 65  1  0  0  0
 63139  1  0  0  0
 63140  1  0  0  0
 63141  1  0  0  0
 64142  1  0  0  0
 65143  1  0  0  0
 68 83  1  0  0  0
 71 72  2  0  0  0
 71 74  1  0  0  0
 71144  1  0  0  0
 72 75  1  0  0  0
 72145  1  0  0  0
 73 75  2  0  0  0
 73 76  1  0  0  0
 73146  1  0  0  0
 74 76  2  0  0  0
 74 77  1  0  0  0
 75 80  1  0  0  0
 76 79  1  0  0  0
 77 78  2  0  0  0
 77147  1  0  0  0
 78 81  1  0  0  0
 78148  1  0  0  0
 79149  1  0  0  0
 79150  1  0  0  0
 79151  1  0  0  0
 80 84  1  0  0  0
 80152  1  0  0  0
 80153  1  0  0  0
 81 82  1  0  0  0
 81154  1  0  0  0
 81155  1  0  0  0
 82 83  1  0  0  0
 82156  1  0  0  0
 82157  1  0  0  0
 83158  1  0  0  0
 83159  1  0  0  0
 84160  1  0  0  0
M  ISO  4   1 100  68 101  83 101  84 100
M  END
> <chiral flag>
0

> <version>
0

> <s_m_source_file>
/data/baiqing/PycharmProjects/Reinvent-master-3.2/result/LINK_invent/BTK/process_docking_weight1_custom_product_contain_oxygen_bond_distance_aromatic_linkinvent_7_9_3/rearranged_h_0121.sdf

> <i_m_source_file_index>
44

> <r_mmod_Potential_Energy-OPLS-2005>
-75.1365127563477

> <r_mmod_Stretch_Energy-OPLS-2005>
30.9867267608643

> <r_mmod_Bend_Energy-OPLS-2005>
87.1380920410156

> <r_mmod_Torsional_Energy-OPLS-2005>
254.224548339844

> <r_mmod_Improper_Torsional_Energy-OPLS-2005>
2.68448901176453

> <r_mmod_Van_der_Waal_Energy-OPLS-2005>
159.30583190918

> <r_mmod_Electrostatic_Energy-OPLS-2005>
-415.015625

> <r_mmod_Solvation_Energy-OPLS-2005>
-201.705047607422

> <b_mmod_Minimization_Converged-OPLS-2005>
0

> <r_mmod_RMS_Derivative-OPLS-2005>
2.36607122421265

$$$$
44
                    3D
 Structure written by MMmdl.
167175  0  0  1  0            999 V2000
  -30.7816  -14.3770   20.6554 C   0  0  0  0  0  0
  -30.4035  -12.2869   19.4038 C   0  0  0  0  0  0
  -29.4794  -12.5170   18.1941 C   0  0  0  0  0  0
  -28.0045  -12.3775   18.6107 C   0  0  0  0  0  0
  -27.6607  -13.2092   19.8745 C   0  0  2  0  0  0
  -28.6996  -12.9813   20.9958 C   0  0  0  0  0  0
  -25.2571  -13.8169   20.5679 C   0  0  0  0  0  0
  -24.1827  -13.0447   20.9165 C   0  0  0  0  0  0
  -24.6386  -11.6913   20.8720 C   0  0  0  0  0  0
  -23.9055  -10.4299   21.0398 C   0  0  0  0  0  0
  -24.3611   -9.4217   21.9181 C   0  0  0  0  0  0
  -23.6295   -8.2249   22.0753 C   0  0  0  0  0  0
  -22.4276   -8.0283   21.3540 C   0  0  0  0  0  0
  -21.9908   -9.0252   20.4642 C   0  0  0  0  0  0
  -22.7229  -10.2136   20.3052 C   0  0  0  0  0  0
  -21.6849   -6.0736   22.5285 C   0  0  0  0  0  0
  -21.4013   -6.5643   23.8217 C   0  0  0  0  0  0
  -21.3659   -5.6794   24.9179 C   0  0  0  0  0  0
  -21.6042   -4.3058   24.7226 C   0  0  0  0  0  0
  -21.8821   -3.8148   23.4350 C   0  0  0  0  0  0
  -21.9192   -4.6963   22.3407 C   0  0  0  0  0  0
  -22.7852  -13.5237   21.1845 C   0  0  0  0  0  0
  -22.1660   -4.2152   21.0983 F   0  0  0  0  0  0
  -21.5629   -3.4545   25.7735 F   0  0  0  0  0  0
  -30.0418  -13.2556   20.4523 N   0  0  0  0  0  0
  -26.3015  -12.9355   20.3365 N   0  0  0  0  0  0
  -25.9312  -11.6505   20.5754 N   0  0  0  0  0  0
  -22.0486  -12.8227   22.0393 N   0  0  0  0  0  0
  -25.4291  -15.1893   20.4090 N   0  0  0  0  0  0
  -31.8190  -14.6101   20.0282 O   0  0  0  0  0  0
  -21.6639   -6.8880   21.4246 O   0  0  0  0  0  0
  -22.3539  -14.5542   20.6694 O   0  0  0  0  0  0
  -24.6131  -31.8687   23.2101 C   0  0  0  0  0  0
  -25.9030  -32.4820   23.8392 C   0  0  1  0  0  0
  -27.2451  -27.4510   20.0781 C   0  0  0  0  0  0
  -25.5883  -33.8612   24.2327 N   0  0  0  0  0  0
  -23.3996  -30.4930   21.5505 C   0  0  2  0  0  0
  -24.8455  -28.9546   20.1197 C   0  0  0  0  0  0
  -22.7397  -29.4678   22.5001 C   0  0  0  0  0  0
  -18.0267  -28.1381   22.8501 C   0  0  0  0  0  0
  -24.1497  -36.7314   23.2635 C   0  0  0  0  0  0
  -25.9277  -30.8381   21.3633 C   0  0  0  0  0  0
  -26.0052  -29.4725   20.7093 C   0  0  0  0  0  0
  -27.2019  -28.7253   20.6879 C   0  0  0  0  0  0
  -26.0587  -26.9316   19.5073 C   0  0  0  0  0  0
  -24.8657  -27.6805   19.5244 C   0  0  0  0  0  0
  -23.6058  -29.8202   20.1684 C   0  0  0  0  0  0
  -25.4115  -36.3104   24.0335 C   0  0  1  0  0  0
  -20.5863  -28.3675   23.1335 C   0  0  2  0  0  0
  -20.6774  -26.9417   22.5438 C   0  0  0  0  0  0
  -19.5760  -26.6391   21.5227 C   0  0  0  0  0  0
  -18.1920  -26.7936   22.1616 C   0  0  0  0  0  0
  -19.1516  -28.8838   23.2910 C   0  0  0  0  0  0
  -18.9449  -30.1437   23.8932 C   0  0  0  0  0  0
  -17.6459  -30.6600   24.0576 C   0  0  0  0  0  0
  -25.9040  -34.9472   23.5131 C   0  0  0  0  0  0
  -16.5342  -29.9115   23.6331 C   0  0  0  0  0  0
  -16.7254  -28.6522   23.0362 C   0  0  0  0  0  0
  -26.4464  -31.6603   25.0723 C   0  0  0  0  0  0
  -25.3712  -31.3710   26.1458 C   0  0  0  0  0  0
  -27.0303  -30.3044   24.6113 C   0  0  0  0  0  0
  -27.6039  -32.4320   25.7480 C   0  0  0  0  0  0
  -27.5585  -37.1810   24.8455 C   0  0  0  0  0  0
  -21.4124  -29.3038   22.3729 N   0  0  0  0  0  0
  -26.4301  -37.3797   23.9401 N   0  0  0  0  0  0
  -24.6643  -31.0815   22.0986 N   0  0  0  0  0  0
  -23.4176  -28.8220   23.3035 O   0  0  0  0  0  0
  -28.4584  -26.7938   20.0645 O   0  0  0  0  0  0
  -26.5617  -34.8917   22.4704 O   0  0  0  0  0  0
  -23.5332  -32.1397   23.7529 O   0  0  0  0  0  0
  -28.9877  -19.9284   23.2654 C   0  0  0  0  0  0
  -30.0400  -18.5625   21.5665 C   0  0  0  0  0  0
  -29.2717  -18.9560   24.2546 C   0  0  0  0  0  0
  -30.3249  -17.5651   22.5257 C   0  0  0  0  0  0
  -29.9173  -17.7443   23.8758 C   0  0  0  0  0  0
  -29.3823  -19.7567   21.9184 C   0  0  0  0  0  0
  -28.0375  -20.1512   26.1086 C   0  0  0  0  0  0
  -28.8937  -19.2159   25.6634 C   0  0  0  0  0  0
  -31.5213  -16.8411   25.6522 C   0  0  0  0  0  0
  -30.1887  -16.6482   24.9119 C   0  0  0  0  0  0
  -31.1454  -16.3574   22.0783 C   0  0  0  0  0  0
  -28.2781  -24.3957   20.5110 C   0  0  0  0  0  0
  -28.8252  -23.0004   20.1402 C   0  0  0  0  0  0
  -28.5994  -25.4962   19.4813 C   0  0  0  0  0  0
  -28.6826  -21.9884   21.2945 C   0  0  0  0  0  0
  -30.3565  -15.2162   21.6095 N   0  0  0  0  0  0
  -29.1918  -20.7037   20.9254 O   0  0  0  0  0  0
  -31.4492  -12.3627   19.0994 H   0  0  0  0  0  0
  -30.2846  -11.2714   19.7851 H   0  0  0  0  0  0
  -29.7117  -11.8055   17.4006 H   0  0  0  0  0  0
  -29.6539  -13.5098   17.7766 H   0  0  0  0  0  0
  -27.8109  -11.3202   18.7954 H   0  0  0  0  0  0
  -27.3529  -12.6639   17.7843 H   0  0  0  0  0  0
  -27.7102  -14.2596   19.5866 H   0  0  0  0  0  0
  -28.6586  -11.9476   21.3436 H   0  0  0  0  0  0
  -28.4535  -13.5912   21.8649 H   0  0  0  0  0  0
  -25.2761   -9.5697   22.4754 H   0  0  0  0  0  0
  -24.0006   -7.4640   22.7473 H   0  0  0  0  0  0
  -21.0842   -8.8770   19.8944 H   0  0  0  0  0  0
  -22.3694  -10.9672   19.6159 H   0  0  0  0  0  0
  -21.2006   -7.6154   23.9723 H   0  0  0  0  0  0
  -21.1479   -6.0524   25.9081 H   0  0  0  0  0  0
  -22.0596   -2.7610   23.2850 H   0  0  0  0  0  0
  -22.4105  -11.9897   22.4787 H   0  0  0  0  0  0
  -21.1094  -13.1244   22.2576 H   0  0  0  0  0  0
  -24.6654  -15.8476   20.5205 H   0  0  0  0  0  0
  -26.2927  -15.6296   20.1156 H   0  0  0  0  0  0
  -26.7106  -32.5580   23.1165 H   0  0  0  0  0  0
  -24.9989  -33.9756   25.0439 H   0  0  0  0  0  0
  -22.6862  -31.3076   21.4122 H   0  0  0  0  0  0
  -23.3753  -35.9654   23.3300 H   0  0  0  0  0  0
  -24.3575  -36.8923   22.2041 H   0  0  0  0  0  0
  -23.7259  -37.6520   23.6664 H   0  0  0  0  0  0
  -26.0448  -31.6099   20.6013 H   0  0  0  0  0  0
  -26.8134  -30.8864   21.9867 H   0  0  0  0  0  0
  -28.1008  -29.1279   21.1353 H   0  0  0  0  0  0
  -26.0323  -25.9562   19.0453 H   0  0  0  0  0  0
  -23.9702  -27.2693   19.0806 H   0  0  0  0  0  0
  -23.7083  -30.5929   19.4053 H   0  0  0  0  0  0
  -22.7289  -29.2375   19.8820 H   0  0  0  0  0  0
  -25.1303  -36.1959   25.0833 H   0  0  0  0  0  0
  -20.9964  -28.3284   24.1456 H   0  0  0  0  0  0
  -20.5718  -26.2277   23.3620 H   0  0  0  0  0  0
  -21.6630  -26.7493   22.1204 H   0  0  0  0  0  0
  -19.6941  -25.6313   21.1235 H   0  0  0  0  0  0
  -19.6711  -27.3212   20.6770 H   0  0  0  0  0  0
  -17.4194  -26.6677   21.4013 H   0  0  0  0  0  0
  -18.0300  -26.0079   22.9011 H   0  0  0  0  0  0
  -19.7925  -30.7221   24.2338 H   0  0  0  0  0  0
  -17.5025  -31.6298   24.5149 H   0  0  0  0  0  0
  -15.5350  -30.3035   23.7654 H   0  0  0  0  0  0
  -15.8635  -28.0864   22.7081 H   0  0  0  0  0  0
  -24.5935  -30.6992   25.7807 H   0  0  0  0  0  0
  -24.8824  -32.2846   26.4861 H   0  0  0  0  0  0
  -25.8048  -30.8942   27.0252 H   0  0  0  0  0  0
  -26.2872  -29.6793   24.1146 H   0  0  0  0  0  0
  -27.4028  -29.7300   25.4602 H   0  0  0  0  0  0
  -27.8724  -30.4339   23.9306 H   0  0  0  0  0  0
  -27.2681  -33.3629   26.2064 H   0  0  0  0  0  0
  -28.3856  -32.6845   25.0305 H   0  0  0  0  0  0
  -28.0696  -31.8419   26.5380 H   0  0  0  0  0  0
  -28.2608  -38.0104   24.7521 H   0  0  0  0  0  0
  -28.1083  -36.2635   24.6289 H   0  0  0  0  0  0
  -27.2292  -37.1460   25.8853 H   0  0  0  0  0  0
  -20.9265  -29.8701   21.6921 H   0  0  0  0  0  0
  -26.0191  -38.2884   24.1392 H   0  0  0  0  0  0
  -28.4845  -20.8345   23.5593 H   0  0  0  0  0  0
  -30.3652  -18.4258   20.5439 H   0  0  0  0  0  0
  -27.8591  -20.2582   27.1694 H   0  0  0  0  0  0
  -27.5002  -20.8215   25.4555 H   0  0  0  0  0  0
  -29.3754  -18.6160   26.4218 H   0  0  0  0  0  0
  -31.6913  -16.0306   26.3618 H   0  0  0  0  0  0
  -31.5369  -17.7775   26.2096 H   0  0  0  0  0  0
  -32.3660  -16.8578   24.9636 H   0  0  0  0  0  0
  -30.1722  -15.6678   24.4384 H   0  0  0  0  0  0
  -29.3683  -16.5951   25.6275 H   0  0  0  0  0  0
  -31.8033  -16.0140   22.8757 H   0  0  0  0  0  0
  -31.8282  -16.7067   21.3006 H   0  0  0  0  0  0
  -28.7092  -24.6914   21.4675 H   0  0  0  0  0  0
  -27.2005  -24.3417   20.6687 H   0  0  0  0  0  0
  -29.8815  -23.0864   19.8824 H   0  0  0  0  0  0
  -28.3225  -22.6303   19.2453 H   0  0  0  0  0  0
  -28.0399  -25.3760   18.5536 H   0  0  0  0  0  0
  -29.6477  -25.4154   19.1914 H   0  0  0  0  0  0
  -27.6341  -21.8986   21.5848 H   0  0  0  0  0  0
  -29.2360  -22.3754   22.1532 H   0  0  0  0  0  0
  -29.5001  -14.9939   22.0929 H   0  0  0  0  0  0
  1 25  1  0  0  0
  1 30  2  0  0  0
  1 86  1  0  0  0
  2  3  1  0  0  0
  2 25  1  0  0  0
  2 88  1  0  0  0
  2 89  1  0  0  0
  3  4  1  0  0  0
  3 90  1  0  0  0
  3 91  1  0  0  0
  4  5  1  0  0  0
  4 92  1  0  0  0
  4 93  1  0  0  0
  5  6  1  0  0  0
  5 26  1  0  0  0
  5 94  1  0  0  0
  6 25  1  0  0  0
  6 95  1  0  0  0
  6 96  1  0  0  0
  7  8  2  0  0  0
  7 26  1  0  0  0
  7 29  1  0  0  0
  8  9  1  0  0  0
  8 22  1  0  0  0
  9 10  1  0  0  0
  9 27  2  0  0  0
 10 11  2  0  0  0
 10 15  1  0  0  0
 11 12  1  0  0  0
 11 97  1  0  0  0
 12 13  2  0  0  0
 12 98  1  0  0  0
 13 14  1  0  0  0
 13 31  1  0  0  0
 14 15  2  0  0  0
 14 99  1  0  0  0
 15100  1  0  0  0
 16 17  2  0  0  0
 16 21  1  0  0  0
 16 31  1  0  0  0
 17 18  1  0  0  0
 17101  1  0  0  0
 18 19  2  0  0  0
 18102  1  0  0  0
 19 20  1  0  0  0
 19 24  1  0  0  0
 20 21  2  0  0  0
 20103  1  0  0  0
 21 23  1  0  0  0
 22 28  1  0  0  0
 22 32  2  0  0  0
 26 27  1  0  0  0
 28104  1  0  0  0
 28105  1  0  0  0
 29106  1  0  0  0
 29107  1  0  0  0
 33 34  1  0  0  0
 33 66  1  0  0  0
 33 70  2  0  0  0
 34 36  1  0  0  0
 34 59  1  0  0  0
 34108  1  0  0  0
 35 44  2  0  0  0
 35 45  1  0  0  0
 35 68  1  0  0  0
 36 56  1  0  0  0
 36109  1  0  0  0
 37 39  1  0  0  0
 37 47  1  0  0  0
 37 66  1  0  0  0
 37110  1  0  0  0
 38 43  2  0  0  0
 38 46  1  0  0  0
 38 47  1  0  0  0
 39 64  1  0  0  0
 39 67  2  0  0  0
 40 52  1  0  0  0
 40 53  2  0  0  0
 40 58  1  0  0  0
 41111  1  0  0  0
 41112  1  0  0  0
 41113  1  0  0  0
 41 48  1  0  0  0
 42 43  1  0  0  0
 42 66  1  0  0  0
 42114  1  0  0  0
 42115  1  0  0  0
 43 44  1  0  0  0
 44116  1  0  0  0
 45 46  2  0  0  0
 45117  1  0  0  0
 46118  1  0  0  0
 47119  1  0  0  0
 47120  1  0  0  0
 48 56  1  0  0  0
 48 65  1  0  0  0
 48121  1  0  0  0
 49 50  1  0  0  0
 49 53  1  0  0  0
 49 64  1  0  0  0
 49122  1  0  0  0
 50 51  1  0  0  0
 50123  1  0  0  0
 50124  1  0  0  0
 51 52  1  0  0  0
 51125  1  0  0  0
 51126  1  0  0  0
 52127  1  0  0  0
 52128  1  0  0  0
 53 54  1  0  0  0
 54 55  2  0  0  0
 54129  1  0  0  0
 55 57  1  0  0  0
 55130  1  0  0  0
 56 69  2  0  0  0
 57 58  2  0  0  0
 57131  1  0  0  0
 58132  1  0  0  0
 59 60  1  0  0  0
 59 61  1  0  0  0
 59 62  1  0  0  0
 60133  1  0  0  0
 60134  1  0  0  0
 60135  1  0  0  0
 61136  1  0  0  0
 61137  1  0  0  0
 61138  1  0  0  0
 62139  1  0  0  0
 62140  1  0  0  0
 62141  1  0  0  0
 63 65  1  0  0  0
 63142  1  0  0  0
 63143  1  0  0  0
 63144  1  0  0  0
 64145  1  0  0  0
 65146  1  0  0  0
 68 84  1  0  0  0
 71 73  2  0  0  0
 71 76  1  0  0  0
 71147  1  0  0  0
 72 74  1  0  0  0
 72 76  2  0  0  0
 72148  1  0  0  0
 73 75  1  0  0  0
 73 78  1  0  0  0
 74 75  2  0  0  0
 74 81  1  0  0  0
 75 80  1  0  0  0
 76 87  1  0  0  0
 77 78  2  0  0  0
 77149  1  0  0  0
 77150  1  0  0  0
 78151  1  0  0  0
 79 80  1  0  0  0
 79152  1  0  0  0
 79153  1  0  0  0
 79154  1  0  0  0
 80155  1  0  0  0
 80156  1  0  0  0
 81 86  1  0  0  0
 81157  1  0  0  0
 81158  1  0  0  0
 82 83  1  0  0  0
 82 84  1  0  0  0
 82159  1  0  0  0
 82160  1  0  0  0
 83 85  1  0  0  0
 83161  1  0  0  0
 83162  1  0  0  0
 84163  1  0  0  0
 84164  1  0  0  0
 85 87  1  0  0  0
 85165  1  0  0  0
 85166  1  0  0  0
 86167  1  0  0  0
M  ISO  4   1 100  68 101  84 101  86 100
M  END
> <chiral flag>
0

> <version>
0

> <s_m_source_file>
/data/baiqing/PycharmProjects/Reinvent-master-3.2/result/LINK_invent/BTK/process_docking_weight1_custom_product_contain_oxygen_bond_distance_aromatic_linkinvent_7_9_3/rearranged_h_0121.sdf

> <i_m_source_file_index>
45

> <r_mmod_Potential_Energy-OPLS-2005>
-119.860733032227

> <r_mmod_Stretch_Energy-OPLS-2005>
37.3229026794434

> <r_mmod_Bend_Energy-OPLS-2005>
109.328903198242

> <r_mmod_Torsional_Energy-OPLS-2005>
195.005661010742

> <r_mmod_Improper_Torsional_Energy-OPLS-2005>
2.10290265083313

> <r_mmod_Van_der_Waal_Energy-OPLS-2005>
169.951065063477

> <r_mmod_Electrostatic_Energy-OPLS-2005>
-438.858764648438

> <r_mmod_Solvation_Energy-OPLS-2005>
-203.534393310547

> <b_mmod_Minimization_Converged-OPLS-2005>
0

> <r_mmod_RMS_Derivative-OPLS-2005>
2.07744121551514

$$$$
45
                    3D
 Structure written by MMmdl.
167175  0  0  1  0            999 V2000
  -30.6839  -14.4795   20.5392 C   0  0  0  0  0  0
  -30.4293  -12.3014   19.4226 C   0  0  0  0  0  0
  -29.4991  -12.4992   18.2060 C   0  0  0  0  0  0
  -28.0172  -12.3627   18.6135 C   0  0  0  0  0  0
  -27.6628  -13.1973   19.8731 C   0  0  2  0  0  0
  -28.7058  -12.9587   20.9888 C   0  0  0  0  0  0
  -25.2617  -13.8146   20.5678 C   0  0  0  0  0  0
  -24.1849  -13.0442   20.9162 C   0  0  0  0  0  0
  -24.6382  -11.6901   20.8727 C   0  0  0  0  0  0
  -23.9050  -10.4295   21.0403 C   0  0  0  0  0  0
  -24.3604   -9.4213   21.9182 C   0  0  0  0  0  0
  -23.6284   -8.2246   22.0755 C   0  0  0  0  0  0
  -22.4265   -8.0283   21.3548 C   0  0  0  0  0  0
  -21.9890   -9.0256   20.4652 C   0  0  0  0  0  0
  -22.7220  -10.2134   20.3058 C   0  0  0  0  0  0
  -21.6848   -6.0734   22.5283 C   0  0  0  0  0  0
  -21.4011   -6.5635   23.8217 C   0  0  0  0  0  0
  -21.3660   -5.6788   24.9181 C   0  0  0  0  0  0
  -21.6043   -4.3055   24.7226 C   0  0  0  0  0  0
  -21.8823   -3.8142   23.4349 C   0  0  0  0  0  0
  -21.9192   -4.6960   22.3404 C   0  0  0  0  0  0
  -22.7878  -13.5264   21.1833 C   0  0  0  0  0  0
  -22.1663   -4.2152   21.0985 F   0  0  0  0  0  0
  -21.5622   -3.4537   25.7734 F   0  0  0  0  0  0
  -30.0340  -13.2847   20.4430 N   0  0  0  0  0  0
  -26.3029  -12.9290   20.3346 N   0  0  0  0  0  0
  -25.9303  -11.6461   20.5734 N   0  0  0  0  0  0
  -22.0506  -12.8269   22.0390 N   0  0  0  0  0  0
  -25.4372  -15.1859   20.4104 N   0  0  0  0  0  0
  -31.8415  -14.6225   20.1332 O   0  0  0  0  0  0
  -21.6637   -6.8873   21.4241 O   0  0  0  0  0  0
  -22.3577  -14.5577   20.6689 O   0  0  0  0  0  0
  -24.6151  -31.8683   23.2119 C   0  0  0  0  0  0
  -25.9045  -32.4821   23.8407 C   0  0  1  0  0  0
  -27.2304  -27.4362   20.0893 C   0  0  0  0  0  0
  -25.5901  -33.8621   24.2339 N   0  0  0  0  0  0
  -23.4016  -30.4942   21.5532 C   0  0  2  0  0  0
  -24.8457  -28.9641   20.1131 C   0  0  0  0  0  0
  -22.7413  -29.4659   22.4999 C   0  0  0  0  0  0
  -18.0273  -28.1380   22.8490 C   0  0  0  0  0  0
  -24.1485  -36.7320   23.2637 C   0  0  0  0  0  0
  -25.9317  -30.8342   21.3648 C   0  0  0  0  0  0
  -26.0069  -29.4703   20.7095 C   0  0  0  0  0  0
  -27.2020  -28.7136   20.6944 C   0  0  0  0  0  0
  -26.0479  -26.9508   19.4807 C   0  0  0  0  0  0
  -24.8603  -27.7031   19.4960 C   0  0  0  0  0  0
  -23.6078  -29.8300   20.1665 C   0  0  0  0  0  0
  -25.4103  -36.3111   24.0340 C   0  0  1  0  0  0
  -20.5864  -28.3665   23.1324 C   0  0  2  0  0  0
  -20.6771  -26.9403   22.5422 C   0  0  0  0  0  0
  -19.5749  -26.6385   21.5216 C   0  0  0  0  0  0
  -18.1923  -26.7925   22.1620 C   0  0  0  0  0  0
  -19.1522  -28.8839   23.2902 C   0  0  0  0  0  0
  -18.9453  -30.1445   23.8913 C   0  0  0  0  0  0
  -17.6457  -30.6584   24.0567 C   0  0  0  0  0  0
  -25.9029  -34.9475   23.5132 C   0  0  0  0  0  0
  -16.5348  -29.9090   23.6324 C   0  0  0  0  0  0
  -16.7264  -28.6506   23.0345 C   0  0  0  0  0  0
  -26.4473  -31.6597   25.0732 C   0  0  0  0  0  0
  -25.3752  -31.3699   26.1494 C   0  0  0  0  0  0
  -27.0299  -30.3044   24.6093 C   0  0  0  0  0  0
  -27.6056  -32.4313   25.7482 C   0  0  0  0  0  0
  -27.5579  -37.1812   24.8464 C   0  0  0  0  0  0
  -21.4145  -29.3026   22.3732 N   0  0  0  0  0  0
  -26.4291  -37.3797   23.9406 N   0  0  0  0  0  0
  -24.6679  -31.0798   22.1016 N   0  0  0  0  0  0
  -23.4185  -28.8199   23.3041 O   0  0  0  0  0  0
  -28.3973  -26.6943   20.1149 O   0  0  0  0  0  0
  -26.5594  -34.8923   22.4694 O   0  0  0  0  0  0
  -23.5341  -32.1434   23.7513 O   0  0  0  0  0  0
  -28.3582  -18.0157   21.9562 C   0  0  0  0  0  0
  -27.9691  -20.4004   21.7862 C   0  0  0  0  0  0
  -29.5473  -18.1257   21.2021 C   0  0  0  0  0  0
  -29.1515  -20.5707   21.0264 C   0  0  0  0  0  0
  -29.9275  -19.4121   20.7045 C   0  0  0  0  0  0
  -27.5523  -19.1286   22.2361 C   0  0  0  0  0  0
  -23.5332  -19.8761   24.7114 C   0  0  0  0  0  0
  -30.3211  -16.8902   20.8926 C   0  0  0  0  0  0
  -29.5511  -21.9529   20.6199 C   0  0  0  0  0  0
  -29.8526  -15.6207   20.9381 C   0  0  0  0  0  0
  -24.1391  -19.4115   23.6078 C   0  0  0  0  0  0
  -29.0626  -23.1095   21.1177 C   0  0  0  0  0  0
  -32.4334  -19.8436   20.6212 C   0  0  0  0  0  0
  -31.1663  -19.5408   19.8141 C   0  0  0  0  0  0
  -29.4461  -24.5147   20.6674 C   0  0  0  0  0  0
  -25.4418  -19.9432   23.0511 C   0  0  0  0  0  0
  -28.2340  -25.2687   20.0898 C   0  0  0  0  0  0
  -26.3934  -18.8925   22.9453 O   0  0  0  0  0  0
  -31.4728  -12.4012   19.1195 H   0  0  0  0  0  0
  -30.3323  -11.2893   19.8188 H   0  0  0  0  0  0
  -29.7399  -11.7728   17.4292 H   0  0  0  0  0  0
  -29.6703  -13.4830   17.7655 H   0  0  0  0  0  0
  -27.8218  -11.3069   18.8043 H   0  0  0  0  0  0
  -27.3724  -12.6445   17.7804 H   0  0  0  0  0  0
  -27.7095  -14.2443   19.5749 H   0  0  0  0  0  0
  -28.6890  -11.9124   21.2982 H   0  0  0  0  0  0
  -28.4709  -13.5169   21.8950 H   0  0  0  0  0  0
  -25.2752   -9.5684   22.4759 H   0  0  0  0  0  0
  -23.9995   -7.4632   22.7468 H   0  0  0  0  0  0
  -21.0821   -8.8774   19.8961 H   0  0  0  0  0  0
  -22.3680  -10.9673   19.6168 H   0  0  0  0  0  0
  -21.2010   -7.6142   23.9716 H   0  0  0  0  0  0
  -21.1474   -6.0522   25.9082 H   0  0  0  0  0  0
  -22.0600   -2.7602   23.2852 H   0  0  0  0  0  0
  -22.4098  -11.9939   22.4803 H   0  0  0  0  0  0
  -21.1128  -13.1316   22.2584 H   0  0  0  0  0  0
  -24.6750  -15.8444   20.5273 H   0  0  0  0  0  0
  -26.2946  -15.6241   20.0986 H   0  0  0  0  0  0
  -26.7117  -32.5530   23.1170 H   0  0  0  0  0  0
  -25.0067  -33.9786   25.0491 H   0  0  0  0  0  0
  -22.6890  -31.3106   21.4173 H   0  0  0  0  0  0
  -23.3734  -35.9665   23.3311 H   0  0  0  0  0  0
  -24.3584  -36.8922   22.2049 H   0  0  0  0  0  0
  -23.7250  -37.6534   23.6644 H   0  0  0  0  0  0
  -26.0440  -31.5994   20.5954 H   0  0  0  0  0  0
  -26.8196  -30.8864   21.9827 H   0  0  0  0  0  0
  -28.0969  -29.0978   21.1629 H   0  0  0  0  0  0
  -26.0226  -25.9902   18.9870 H   0  0  0  0  0  0
  -23.9687  -27.3093   19.0275 H   0  0  0  0  0  0
  -23.7139  -30.6053   19.4075 H   0  0  0  0  0  0
  -22.7308  -29.2506   19.8712 H   0  0  0  0  0  0
  -25.1273  -36.1979   25.0835 H   0  0  0  0  0  0
  -20.9950  -28.3233   24.1446 H   0  0  0  0  0  0
  -20.5682  -26.2271   23.3606 H   0  0  0  0  0  0
  -21.6645  -26.7456   22.1211 H   0  0  0  0  0  0
  -19.6915  -25.6296   21.1237 H   0  0  0  0  0  0
  -19.6688  -27.3202   20.6749 H   0  0  0  0  0  0
  -17.4197  -26.6676   21.4017 H   0  0  0  0  0  0
  -18.0321  -26.0064   22.9013 H   0  0  0  0  0  0
  -19.7932  -30.7257   24.2289 H   0  0  0  0  0  0
  -17.5015  -31.6264   24.5168 H   0  0  0  0  0  0
  -15.5351  -30.3001   23.7638 H   0  0  0  0  0  0
  -15.8660  -28.0832   22.7055 H   0  0  0  0  0  0
  -24.5913  -30.7054   25.7846 H   0  0  0  0  0  0
  -24.8959  -32.2853   26.4976 H   0  0  0  0  0  0
  -25.8122  -30.8851   27.0233 H   0  0  0  0  0  0
  -26.2834  -29.6806   24.1164 H   0  0  0  0  0  0
  -27.4094  -29.7277   25.4537 H   0  0  0  0  0  0
  -27.8659  -30.4366   23.9222 H   0  0  0  0  0  0
  -27.2681  -33.3598   26.2099 H   0  0  0  0  0  0
  -28.3840  -32.6898   25.0290 H   0  0  0  0  0  0
  -28.0756  -31.8418   26.5363 H   0  0  0  0  0  0
  -28.2605  -38.0102   24.7505 H   0  0  0  0  0  0
  -28.1066  -36.2636   24.6287 H   0  0  0  0  0  0
  -27.2306  -37.1469   25.8872 H   0  0  0  0  0  0
  -20.9309  -29.8750   21.6953 H   0  0  0  0  0  0
  -26.0179  -38.2874   24.1405 H   0  0  0  0  0  0
  -28.0303  -17.0612   22.3377 H   0  0  0  0  0  0
  -27.3617  -21.2607   22.0128 H   0  0  0  0  0  0
  -22.5986  -19.4530   25.0526 H   0  0  0  0  0  0
  -23.9567  -20.6846   25.2904 H   0  0  0  0  0  0
  -31.3554  -17.0318   20.6146 H   0  0  0  0  0  0
  -30.2865  -22.0527   19.8381 H   0  0  0  0  0  0
  -28.8309  -15.4712   21.2331 H   0  0  0  0  0  0
  -23.6847  -18.6020   23.0531 H   0  0  0  0  0  0
  -28.3293  -23.0961   21.9097 H   0  0  0  0  0  0
  -33.3039  -19.9058   19.9682 H   0  0  0  0  0  0
  -32.6269  -19.0637   21.3579 H   0  0  0  0  0  0
  -32.3461  -20.7921   21.1514 H   0  0  0  0  0  0
  -31.0191  -20.2976   19.0473 H   0  0  0  0  0  0
  -31.3092  -18.6392   19.2199 H   0  0  0  0  0  0
  -30.2602  -24.4862   19.9419 H   0  0  0  0  0  0
  -29.8227  -25.0441   21.5432 H   0  0  0  0  0  0
  -25.8274  -20.7356   23.6946 H   0  0  0  0  0  0
  -25.2300  -20.3711   22.0701 H   0  0  0  0  0  0
  -27.3575  -24.9947   20.6809 H   0  0  0  0  0  0
  -28.0534  -24.9319   19.0679 H   0  0  0  0  0  0
  1 25  1  0  0  0
  1 30  2  0  0  0
  1 80  1  0  0  0
  2  3  1  0  0  0
  2 25  1  0  0  0
  2 89  1  0  0  0
  2 90  1  0  0  0
  3  4  1  0  0  0
  3 91  1  0  0  0
  3 92  1  0  0  0
  4  5  1  0  0  0
  4 93  1  0  0  0
  4 94  1  0  0  0
  5  6  1  0  0  0
  5 26  1  0  0  0
  5 95  1  0  0  0
  6 25  1  0  0  0
  6 96  1  0  0  0
  6 97  1  0  0  0
  7  8  2  0  0  0
  7 26  1  0  0  0
  7 29  1  0  0  0
  8  9  1  0  0  0
  8 22  1  0  0  0
  9 10  1  0  0  0
  9 27  2  0  0  0
 10 11  2  0  0  0
 10 15  1  0  0  0
 11 12  1  0  0  0
 11 98  1  0  0  0
 12 13  2  0  0  0
 12 99  1  0  0  0
 13 14  1  0  0  0
 13 31  1  0  0  0
 14 15  2  0  0  0
 14100  1  0  0  0
 15101  1  0  0  0
 16 17  2  0  0  0
 16 21  1  0  0  0
 16 31  1  0  0  0
 17 18  1  0  0  0
 17102  1  0  0  0
 18 19  2  0  0  0
 18103  1  0  0  0
 19 20  1  0  0  0
 19 24  1  0  0  0
 20 21  2  0  0  0
 20104  1  0  0  0
 21 23  1  0  0  0
 22 28  1  0  0  0
 22 32  2  0  0  0
 26 27  1  0  0  0
 28105  1  0  0  0
 28106  1  0  0  0
 29107  1  0  0  0
 29108  1  0  0  0
 33 34  1  0  0  0
 33 66  1  0  0  0
 33 70  2  0  0  0
 34 36  1  0  0  0
 34 59  1  0  0  0
 34109  1  0  0  0
 35 44  2  0  0  0
 35 45  1  0  0  0
 35 68  1  0  0  0
 36 56  1  0  0  0
 36110  1  0  0  0
 37 39  1  0  0  0
 37 47  1  0  0  0
 37 66  1  0  0  0
 37111  1  0  0  0
 38 43  2  0  0  0
 38 46  1  0  0  0
 38 47  1  0  0  0
 39 64  1  0  0  0
 39 67  2  0  0  0
 40 52  1  0  0  0
 40 53  2  0  0  0
 40 58  1  0  0  0
 41112  1  0  0  0
 41113  1  0  0  0
 41114  1  0  0  0
 41 48  1  0  0  0
 42 43  1  0  0  0
 42 66  1  0  0  0
 42115  1  0  0  0
 42116  1  0  0  0
 43 44  1  0  0  0
 44117  1  0  0  0
 45 46  2  0  0  0
 45118  1  0  0  0
 46119  1  0  0  0
 47120  1  0  0  0
 47121  1  0  0  0
 48 56  1  0  0  0
 48 65  1  0  0  0
 48122  1  0  0  0
 49 50  1  0  0  0
 49 53  1  0  0  0
 49 64  1  0  0  0
 49123  1  0  0  0
 50 51  1  0  0  0
 50124  1  0  0  0
 50125  1  0  0  0
 51 52  1  0  0  0
 51126  1  0  0  0
 51127  1  0  0  0
 52128  1  0  0  0
 52129  1  0  0  0
 53 54  1  0  0  0
 54 55  2  0  0  0
 54130  1  0  0  0
 55 57  1  0  0  0
 55131  1  0  0  0
 56 69  2  0  0  0
 57 58  2  0  0  0
 57132  1  0  0  0
 58133  1  0  0  0
 59 60  1  0  0  0
 59 61  1  0  0  0
 59 62  1  0  0  0
 60134  1  0  0  0
 60135  1  0  0  0
 60136  1  0  0  0
 61137  1  0  0  0
 61138  1  0  0  0
 61139  1  0  0  0
 62140  1  0  0  0
 62141  1  0  0  0
 62142  1  0  0  0
 63 65  1  0  0  0
 63143  1  0  0  0
 63144  1  0  0  0
 63145  1  0  0  0
 64146  1  0  0  0
 65147  1  0  0  0
 68 87  1  0  0  0
 71 73  2  0  0  0
 71 76  1  0  0  0
 71148  1  0  0  0
 72 74  1  0  0  0
 72 76  2  0  0  0
 72149  1  0  0  0
 73 75  1  0  0  0
 73 78  1  0  0  0
 74 75  2  0  0  0
 74 79  1  0  0  0
 75 84  1  0  0  0
 76 88  1  0  0  0
 77 81  2  0  0  0
 77150  1  0  0  0
 77151  1  0  0  0
 78 80  2  0  0  0
 78152  1  0  0  0
 79 82  2  0  0  0
 79153  1  0  0  0
 80154  1  0  0  0
 81 86  1  0  0  0
 81155  1  0  0  0
 82 85  1  0  0  0
 82156  1  0  0  0
 83 84  1  0  0  0
 83157  1  0  0  0
 83158  1  0  0  0
 83159  1  0  0  0
 84160  1  0  0  0
 84161  1  0  0  0
 85 87  1  0  0  0
 85162  1  0  0  0
 85163  1  0  0  0
 86 88  1  0  0  0
 86164  1  0  0  0
 86165  1  0  0  0
 87166  1  0  0  0
 87167  1  0  0  0
M  ISO  4   1 100  68 101  80 100  87 101
M  END
> <chiral flag>
0

> <version>
0

> <s_m_source_file>
/data/baiqing/PycharmProjects/Reinvent-master-3.2/result/LINK_invent/BTK/process_docking_weight1_custom_product_contain_oxygen_bond_distance_aromatic_linkinvent_7_9_3/rearranged_h_0121.sdf

> <i_m_source_file_index>
46

> <r_mmod_Potential_Energy-OPLS-2005>
1.80262613296509

> <r_mmod_Stretch_Energy-OPLS-2005>
42.1436653137207

> <r_mmod_Bend_Energy-OPLS-2005>
100.92448425293

> <r_mmod_Torsional_Energy-OPLS-2005>
181.40364074707

> <r_mmod_Improper_Torsional_Energy-OPLS-2005>
5.15278768539429

> <r_mmod_Van_der_Waal_Energy-OPLS-2005>
180.676544189453

> <r_mmod_Electrostatic_Energy-OPLS-2005>
-332.756072998047

> <r_mmod_Solvation_Energy-OPLS-2005>
-190.494720458984

> <b_mmod_Minimization_Converged-OPLS-2005>
0

> <r_mmod_RMS_Derivative-OPLS-2005>
1.39209258556366

$$$$
46
                    3D
 Structure written by MMmdl.
158166  0  0  1  0            999 V2000
  -30.7899  -14.4259   20.5451 C   0  0  0  0  0  0
  -30.3950  -12.2698   19.4419 C   0  0  0  0  0  0
  -29.4929  -12.4922   18.2138 C   0  0  0  0  0  0
  -28.0110  -12.3749   18.6189 C   0  0  0  0  0  0
  -27.6572  -13.2234   19.8704 C   0  0  2  0  0  0
  -28.6997  -13.0562   20.9983 C   0  0  0  0  0  0
  -25.2570  -13.8199   20.5723 C   0  0  0  0  0  0
  -24.1823  -13.0467   20.9195 C   0  0  0  0  0  0
  -24.6383  -11.6931   20.8728 C   0  0  0  0  0  0
  -23.9044  -10.4303   21.0394 C   0  0  0  0  0  0
  -24.3591   -9.4223   21.9178 C   0  0  0  0  0  0
  -23.6286   -8.2246   22.0749 C   0  0  0  0  0  0
  -22.4271   -8.0273   21.3537 C   0  0  0  0  0  0
  -21.9898   -9.0246   20.4654 C   0  0  0  0  0  0
  -22.7211  -10.2137   20.3053 C   0  0  0  0  0  0
  -21.6853   -6.0717   22.5277 C   0  0  0  0  0  0
  -21.4013   -6.5618   23.8214 C   0  0  0  0  0  0
  -21.3673   -5.6764   24.9175 C   0  0  0  0  0  0
  -21.6057   -4.3022   24.7208 C   0  0  0  0  0  0
  -21.8820   -3.8127   23.4322 C   0  0  0  0  0  0
  -21.9199   -4.6952   22.3391 C   0  0  0  0  0  0
  -22.7853  -13.5276   21.1847 C   0  0  0  0  0  0
  -22.1674   -4.2150   21.0967 F   0  0  0  0  0  0
  -21.5639   -3.4506   25.7711 F   0  0  0  0  0  0
  -30.0364  -13.2965   20.4358 N   0  0  0  0  0  0
  -26.3013  -12.9401   20.3381 N   0  0  0  0  0  0
  -25.9318  -11.6536   20.5744 N   0  0  0  0  0  0
  -22.0458  -12.8297   22.0391 N   0  0  0  0  0  0
  -25.4260  -15.1930   20.4156 N   0  0  0  0  0  0
  -31.9474  -14.4628   20.1223 O   0  0  0  0  0  0
  -21.6629   -6.8879   21.4243 O   0  0  0  0  0  0
  -22.3571  -14.5588   20.6699 O   0  0  0  0  0  0
  -24.6122  -31.8694   23.2118 C   0  0  0  0  0  0
  -25.9015  -32.4827   23.8411 C   0  0  1  0  0  0
  -27.2342  -27.4532   20.0993 C   0  0  0  0  0  0
  -25.5884  -33.8629   24.2351 N   0  0  0  0  0  0
  -23.4005  -30.4942   21.5503 C   0  0  2  0  0  0
  -24.8497  -28.9636   20.1137 C   0  0  0  0  0  0
  -22.7396  -29.4666   22.4970 C   0  0  0  0  0  0
  -18.0257  -28.1390   22.8510 C   0  0  0  0  0  0
  -24.1487  -36.7322   23.2640 C   0  0  0  0  0  0
  -25.9290  -30.8420   21.3626 C   0  0  0  0  0  0
  -26.0091  -29.4793   20.7086 C   0  0  0  0  0  0
  -27.2082  -28.7327   20.6962 C   0  0  0  0  0  0
  -26.0642  -26.9513   19.4931 C   0  0  0  0  0  0
  -24.8715  -27.6975   19.5015 C   0  0  0  0  0  0
  -23.6101  -29.8263   20.1644 C   0  0  0  0  0  0
  -25.4099  -36.3111   24.0345 C   0  0  1  0  0  0
  -20.5854  -28.3667   23.1323 C   0  0  2  0  0  0
  -20.6738  -26.9397   22.5419 C   0  0  0  0  0  0
  -19.5709  -26.6380   21.5226 C   0  0  0  0  0  0
  -18.1893  -26.7935   22.1641 C   0  0  0  0  0  0
  -19.1514  -28.8839   23.2922 C   0  0  0  0  0  0
  -18.9446  -30.1453   23.8911 C   0  0  0  0  0  0
  -17.6452  -30.6603   24.0554 C   0  0  0  0  0  0
  -25.9019  -34.9479   23.5146 C   0  0  0  0  0  0
  -16.5336  -29.9098   23.6334 C   0  0  0  0  0  0
  -16.7250  -28.6519   23.0356 C   0  0  0  0  0  0
  -26.4461  -31.6599   25.0736 C   0  0  0  0  0  0
  -25.3763  -31.3736   26.1530 C   0  0  0  0  0  0
  -27.0230  -30.3017   24.6098 C   0  0  0  0  0  0
  -27.6073  -32.4293   25.7468 C   0  0  0  0  0  0
  -27.5588  -37.1817   24.8462 C   0  0  0  0  0  0
  -21.4122  -29.3058   22.3742 N   0  0  0  0  0  0
  -26.4287  -37.3797   23.9414 N   0  0  0  0  0  0
  -24.6658  -31.0813   22.1004 N   0  0  0  0  0  0
  -23.4188  -28.8169   23.2964 O   0  0  0  0  0  0
  -28.3734  -26.6862   20.1204 O   0  0  0  0  0  0
  -26.5581  -34.8925   22.4704 O   0  0  0  0  0  0
  -23.5313  -32.1419   23.7522 O   0  0  0  0  0  0
  -31.3613  -18.9401   22.2918 C   0  0  0  0  0  0
  -31.2867  -20.3414   22.1948 C   0  0  0  0  0  0
  -29.7128  -18.7357   20.5240 C   0  0  0  0  0  0
  -30.6146  -18.1269   21.4190 C   0  0  0  0  0  0
  -30.4645  -20.9656   21.2271 C   0  0  0  0  0  0
  -29.6455  -20.1441   20.3955 C   0  0  0  0  0  0
  -30.9244  -16.6927   21.3302 C   0  0  0  0  0  0
  -30.1331  -15.6759   20.9151 C   0  0  0  0  0  0
  -29.3994  -23.2930   21.1445 C   0  0  0  0  0  0
  -29.4412  -24.6202   20.8927 C   0  0  0  0  0  0
  -30.6105  -22.4513   21.0967 C   0  0  0  0  0  0
  -29.6183  -21.0489   18.0198 C   0  0  0  0  0  0
  -28.7857  -20.6921   19.2591 C   0  0  0  0  0  0
  -28.2356  -25.5359   20.9620 C   0  0  0  0  0  0
  -31.7375  -22.9545   21.0152 O   0  0  0  0  0  0
  -31.4447  -12.2974   19.1457 H   0  0  0  0  0  0
  -30.2332  -11.2719   19.8531 H   0  0  0  0  0  0
  -29.7275  -11.7653   17.4356 H   0  0  0  0  0  0
  -29.6870  -13.4773   17.7849 H   0  0  0  0  0  0
  -27.8046  -11.3217   18.8122 H   0  0  0  0  0  0
  -27.3696  -12.6618   17.7837 H   0  0  0  0  0  0
  -27.6881  -14.2667   19.5542 H   0  0  0  0  0  0
  -28.6516  -12.0496   21.4169 H   0  0  0  0  0  0
  -28.4822  -13.7304   21.8266 H   0  0  0  0  0  0
  -25.2728   -9.5720   22.4752 H   0  0  0  0  0  0
  -24.0019   -7.4622   22.7442 H   0  0  0  0  0  0
  -21.0839   -8.8747   19.8942 H   0  0  0  0  0  0
  -22.3664  -10.9660   19.6155 H   0  0  0  0  0  0
  -21.1982   -7.6115   23.9723 H   0  0  0  0  0  0
  -21.1520   -6.0475   25.9091 H   0  0  0  0  0  0
  -22.0589   -2.7585   23.2787 H   0  0  0  0  0  0
  -22.4032  -11.9962   22.4814 H   0  0  0  0  0  0
  -21.1084  -13.1398   22.2547 H   0  0  0  0  0  0
  -24.6561  -15.8439   20.5224 H   0  0  0  0  0  0
  -26.2805  -15.6376   20.1055 H   0  0  0  0  0  0
  -26.7092  -32.5552   23.1186 H   0  0  0  0  0  0
  -25.0026  -33.9782   25.0489 H   0  0  0  0  0  0
  -22.6895  -31.3115   21.4110 H   0  0  0  0  0  0
  -23.3763  -35.9641   23.3261 H   0  0  0  0  0  0
  -24.3598  -36.8975   22.2065 H   0  0  0  0  0  0
  -23.7218  -37.6507   23.6680 H   0  0  0  0  0  0
  -26.0406  -31.6118   20.5971 H   0  0  0  0  0  0
  -26.8158  -30.8937   21.9820 H   0  0  0  0  0  0
  -28.1042  -29.1253   21.1576 H   0  0  0  0  0  0
  -26.0769  -25.9809   19.0168 H   0  0  0  0  0  0
  -23.9807  -27.2967   19.0374 H   0  0  0  0  0  0
  -23.7160  -30.6009   19.4037 H   0  0  0  0  0  0
  -22.7365  -29.2414   19.8703 H   0  0  0  0  0  0
  -25.1273  -36.1977   25.0837 H   0  0  0  0  0  0
  -20.9965  -28.3224   24.1438 H   0  0  0  0  0  0
  -20.5654  -26.2263   23.3609 H   0  0  0  0  0  0
  -21.6605  -26.7433   22.1208 H   0  0  0  0  0  0
  -19.6851  -25.6287   21.1269 H   0  0  0  0  0  0
  -19.6653  -27.3178   20.6747 H   0  0  0  0  0  0
  -17.4166  -26.6710   21.4039 H   0  0  0  0  0  0
  -18.0274  -26.0073   22.9033 H   0  0  0  0  0  0
  -19.7921  -30.7272   24.2285 H   0  0  0  0  0  0
  -17.5006  -31.6296   24.5134 H   0  0  0  0  0  0
  -15.5337  -30.3007   23.7652 H   0  0  0  0  0  0
  -15.8651  -28.0844   22.7052 H   0  0  0  0  0  0
  -24.5753  -30.7323   25.7849 H   0  0  0  0  0  0
  -24.9200  -32.2932   26.5211 H   0  0  0  0  0  0
  -25.8105  -30.8655   27.0153 H   0  0  0  0  0  0
  -26.2730  -29.6819   24.1177 H   0  0  0  0  0  0
  -27.3988  -29.7225   25.4542 H   0  0  0  0  0  0
  -27.8599  -30.4289   23.9224 H   0  0  0  0  0  0
  -27.2737  -33.3611   26.2053 H   0  0  0  0  0  0
  -28.3881  -32.6823   25.0284 H   0  0  0  0  0  0
  -28.0746  -31.8406   26.5374 H   0  0  0  0  0  0
  -28.2601  -38.0118   24.7502 H   0  0  0  0  0  0
  -28.1084  -36.2649   24.6281 H   0  0  0  0  0  0
  -27.2319  -37.1467   25.8867 H   0  0  0  0  0  0
  -20.9247  -29.8845   21.7046 H   0  0  0  0  0  0
  -26.0180  -38.2882   24.1395 H   0  0  0  0  0  0
  -32.0598  -18.4978   22.9896 H   0  0  0  0  0  0
  -31.9177  -20.9420   22.8377 H   0  0  0  0  0  0
  -29.1563  -18.1135   19.8358 H   0  0  0  0  0  0
  -31.9689  -16.4803   21.5273 H   0  0  0  0  0  0
  -29.0738  -15.8162   20.7629 H   0  0  0  0  0  0
  -28.4675  -22.8160   21.4085 H   0  0  0  0  0  0
  -30.3802  -25.0958   20.6422 H   0  0  0  0  0  0
  -28.9741  -21.3989   17.2129 H   0  0  0  0  0  0
  -30.1679  -20.1817   17.6532 H   0  0  0  0  0  0
  -30.3417  -21.8355   18.2310 H   0  0  0  0  0  0
  -28.1934  -21.5454   19.5805 H   0  0  0  0  0  0
  -28.0489  -19.9384   18.9765 H   0  0  0  0  0  0
  -28.1263  -25.8673   21.9961 H   0  0  0  0  0  0
  -27.3466  -24.9509   20.7209 H   0  0  0  0  0  0
  1 25  1  0  0  0
  1 30  2  0  0  0
  1 78  1  0  0  0
  2  3  1  0  0  0
  2 25  1  0  0  0
  2 86  1  0  0  0
  2 87  1  0  0  0
  3  4  1  0  0  0
  3 88  1  0  0  0
  3 89  1  0  0  0
  4  5  1  0  0  0
  4 90  1  0  0  0
  4 91  1  0  0  0
  5  6  1  0  0  0
  5 26  1  0  0  0
  5 92  1  0  0  0
  6 25  1  0  0  0
  6 93  1  0  0  0
  6 94  1  0  0  0
  7  8  2  0  0  0
  7 26  1  0  0  0
  7 29  1  0  0  0
  8  9  1  0  0  0
  8 22  1  0  0  0
  9 10  1  0  0  0
  9 27  2  0  0  0
 10 11  2  0  0  0
 10 15  1  0  0  0
 11 12  1  0  0  0
 11 95  1  0  0  0
 12 13  2  0  0  0
 12 96  1  0  0  0
 13 14  1  0  0  0
 13 31  1  0  0  0
 14 15  2  0  0  0
 14 97  1  0  0  0
 15 98  1  0  0  0
 16 17  2  0  0  0
 16 21  1  0  0  0
 16 31  1  0  0  0
 17 18  1  0  0  0
 17 99  1  0  0  0
 18 19  2  0  0  0
 18100  1  0  0  0
 19 20  1  0  0  0
 19 24  1  0  0  0
 20 21  2  0  0  0
 20101  1  0  0  0
 21 23  1  0  0  0
 22 28  1  0  0  0
 22 32  2  0  0  0
 26 27  1  0  0  0
 28102  1  0  0  0
 28103  1  0  0  0
 29104  1  0  0  0
 29105  1  0  0  0
 33 34  1  0  0  0
 33 66  1  0  0  0
 33 70  2  0  0  0
 34 36  1  0  0  0
 34 59  1  0  0  0
 34106  1  0  0  0
 35 44  2  0  0  0
 35 45  1  0  0  0
 35 68  1  0  0  0
 36 56  1  0  0  0
 36107  1  0  0  0
 37 39  1  0  0  0
 37 47  1  0  0  0
 37 66  1  0  0  0
 37108  1  0  0  0
 38 43  2  0  0  0
 38 46  1  0  0  0
 38 47  1  0  0  0
 39 64  1  0  0  0
 39 67  2  0  0  0
 40 52  1  0  0  0
 40 53  2  0  0  0
 40 58  1  0  0  0
 41109  1  0  0  0
 41110  1  0  0  0
 41111  1  0  0  0
 41 48  1  0  0  0
 42 43  1  0  0  0
 42 66  1  0  0  0
 42112  1  0  0  0
 42113  1  0  0  0
 43 44  1  0  0  0
 44114  1  0  0  0
 45 46  2  0  0  0
 45115  1  0  0  0
 46116  1  0  0  0
 47117  1  0  0  0
 47118  1  0  0  0
 48 56  1  0  0  0
 48 65  1  0  0  0
 48119  1  0  0  0
 49 50  1  0  0  0
 49 53  1  0  0  0
 49 64  1  0  0  0
 49120  1  0  0  0
 50 51  1  0  0  0
 50121  1  0  0  0
 50122  1  0  0  0
 51 52  1  0  0  0
 51123  1  0  0  0
 51124  1  0  0  0
 52125  1  0  0  0
 52126  1  0  0  0
 53 54  1  0  0  0
 54 55  2  0  0  0
 54127  1  0  0  0
 55 57  1  0  0  0
 55128  1  0  0  0
 56 69  2  0  0  0
 57 58  2  0  0  0
 57129  1  0  0  0
 58130  1  0  0  0
 59 60  1  0  0  0
 59 61  1  0  0  0
 59 62  1  0  0  0
 60131  1  0  0  0
 60132  1  0  0  0
 60133  1  0  0  0
 61134  1  0  0  0
 61135  1  0  0  0
 61136  1  0  0  0
 62137  1  0  0  0
 62138  1  0  0  0
 62139  1  0  0  0
 63 65  1  0  0  0
 63140  1  0  0  0
 63141  1  0  0  0
 63142  1  0  0  0
 64143  1  0  0  0
 65144  1  0  0  0
 68 84  1  0  0  0
 71 72  2  0  0  0
 71 74  1  0  0  0
 71145  1  0  0  0
 72 75  1  0  0  0
 72146  1  0  0  0
 73 74  2  0  0  0
 73 76  1  0  0  0
 73147  1  0  0  0
 74 77  1  0  0  0
 75 76  2  0  0  0
 75 81  1  0  0  0
 76 83  1  0  0  0
 77 78  2  0  0  0
 77148  1  0  0  0
 78149  1  0  0  0
 79 80  2  0  0  0
 79 81  1  0  0  0
 79150  1  0  0  0
 80 84  1  0  0  0
 80151  1  0  0  0
 81 85  2  0  0  0
 82 83  1  0  0  0
 82152  1  0  0  0
 82153  1  0  0  0
 82154  1  0  0  0
 83155  1  0  0  0
 83156  1  0  0  0
 84157  1  0  0  0
 84158  1  0  0  0
M  ISO  4   1 100  68 101  78 100  84 101
M  END
> <chiral flag>
0

> <version>
0

> <s_m_source_file>
/data/baiqing/PycharmProjects/Reinvent-master-3.2/result/LINK_invent/BTK/process_docking_weight1_custom_product_contain_oxygen_bond_distance_aromatic_linkinvent_7_9_3/rearranged_h_0121.sdf

> <i_m_source_file_index>
47

> <r_mmod_Potential_Energy-OPLS-2005>
41.2466163635254

> <r_mmod_Stretch_Energy-OPLS-2005>
35.9375648498535

> <r_mmod_Bend_Energy-OPLS-2005>
100.932968139648

> <r_mmod_Torsional_Energy-OPLS-2005>
244.605651855469

> <r_mmod_Improper_Torsional_Energy-OPLS-2005>
11.0343151092529

> <r_mmod_Van_der_Waal_Energy-OPLS-2005>
159.517654418945

> <r_mmod_Electrostatic_Energy-OPLS-2005>
-327.918609619141

> <r_mmod_Solvation_Energy-OPLS-2005>
-202.704528808594

> <b_mmod_Minimization_Converged-OPLS-2005>
0

> <r_mmod_RMS_Derivative-OPLS-2005>
2.65369343757629

$$$$
47
                    3D
 Structure written by MMmdl.
157165  0  0  1  0            999 V2000
  -30.6325  -14.5983   20.4730 C   0  0  0  0  0  0
  -30.4418  -12.3569   19.4533 C   0  0  0  0  0  0
  -29.5095  -12.4913   18.2266 C   0  0  0  0  0  0
  -28.0288  -12.3350   18.6292 C   0  0  0  0  0  0
  -27.6520  -13.1990   19.8585 C   0  0  2  0  0  0
  -28.6998  -13.0407   20.9852 C   0  0  0  0  0  0
  -25.2581  -13.8111   20.5703 C   0  0  0  0  0  0
  -24.1825  -13.0394   20.9161 C   0  0  0  0  0  0
  -24.6375  -11.6864   20.8728 C   0  0  0  0  0  0
  -23.9034  -10.4265   21.0398 C   0  0  0  0  0  0
  -24.3587   -9.4195   21.9177 C   0  0  0  0  0  0
  -23.6262   -8.2238   22.0753 C   0  0  0  0  0  0
  -22.4250   -8.0263   21.3545 C   0  0  0  0  0  0
  -21.9882   -9.0232   20.4659 C   0  0  0  0  0  0
  -22.7200  -10.2107   20.3061 C   0  0  0  0  0  0
  -21.6856   -6.0721   22.5264 C   0  0  0  0  0  0
  -21.4017   -6.5625   23.8196 C   0  0  0  0  0  0
  -21.3659   -5.6782   24.9162 C   0  0  0  0  0  0
  -21.6043   -4.3043   24.7217 C   0  0  0  0  0  0
  -21.8822   -3.8135   23.4337 C   0  0  0  0  0  0
  -21.9192   -4.6950   22.3392 C   0  0  0  0  0  0
  -22.7852  -13.5220   21.1832 C   0  0  0  0  0  0
  -22.1664   -4.2137   21.0970 F   0  0  0  0  0  0
  -21.5628   -3.4529   25.7736 F   0  0  0  0  0  0
  -30.0237  -13.3721   20.4361 N   0  0  0  0  0  0
  -26.2990  -12.9251   20.3316 N   0  0  0  0  0  0
  -25.9304  -11.6424   20.5750 N   0  0  0  0  0  0
  -22.0501  -12.8213   22.0400 N   0  0  0  0  0  0
  -25.4304  -15.1842   20.4195 N   0  0  0  0  0  0
  -31.8244  -14.7253   20.1790 O   0  0  0  0  0  0
  -21.6630   -6.8859   21.4228 O   0  0  0  0  0  0
  -22.3517  -14.5526   20.6679 O   0  0  0  0  0  0
  -24.6200  -31.8641   23.2081 C   0  0  0  0  0  0
  -25.9072  -32.4804   23.8385 C   0  0  1  0  0  0
  -27.2280  -27.3750   20.1051 C   0  0  0  0  0  0
  -25.5909  -33.8605   24.2303 N   0  0  0  0  0  0
  -23.4105  -30.4875   21.5495 C   0  0  2  0  0  0
  -24.8567  -28.9516   20.1125 C   0  0  0  0  0  0
  -22.7436  -29.4634   22.4977 C   0  0  0  0  0  0
  -18.0274  -28.1376   22.8496 C   0  0  0  0  0  0
  -24.1488  -36.7304   23.2637 C   0  0  0  0  0  0
  -25.9470  -30.8102   21.3722 C   0  0  0  0  0  0
  -26.0211  -29.4427   20.7144 C   0  0  0  0  0  0
  -27.2086  -28.6641   20.7050 C   0  0  0  0  0  0
  -26.0430  -26.9243   19.4777 C   0  0  0  0  0  0
  -24.8654  -27.6943   19.4882 C   0  0  0  0  0  0
  -23.6212  -29.8235   20.1643 C   0  0  0  0  0  0
  -25.4112  -36.3092   24.0329 C   0  0  1  0  0  0
  -20.5874  -28.3668   23.1313 C   0  0  2  0  0  0
  -20.6772  -26.9398   22.5422 C   0  0  0  0  0  0
  -19.5748  -26.6375   21.5225 C   0  0  0  0  0  0
  -18.1922  -26.7921   22.1628 C   0  0  0  0  0  0
  -19.1527  -28.8839   23.2897 C   0  0  0  0  0  0
  -18.9450  -30.1449   23.8902 C   0  0  0  0  0  0
  -17.6454  -30.6585   24.0562 C   0  0  0  0  0  0
  -25.9041  -34.9463   23.5114 C   0  0  0  0  0  0
  -16.5345  -29.9084   23.6333 C   0  0  0  0  0  0
  -16.7263  -28.6499   23.0355 C   0  0  0  0  0  0
  -26.4481  -31.6597   25.0726 C   0  0  0  0  0  0
  -25.3739  -31.3733   26.1470 C   0  0  0  0  0  0
  -27.0313  -30.3021   24.6157 C   0  0  0  0  0  0
  -27.6036  -32.4333   25.7501 C   0  0  0  0  0  0
  -27.5586  -37.1806   24.8462 C   0  0  0  0  0  0
  -21.4159  -29.3024   22.3712 N   0  0  0  0  0  0
  -26.4295  -37.3786   23.9410 N   0  0  0  0  0  0
  -24.6772  -31.0703   22.1001 N   0  0  0  0  0  0
  -23.4187  -28.8177   23.3031 O   0  0  0  0  0  0
  -28.3728  -26.5808   20.1545 O   0  0  0  0  0  0
  -26.5607  -34.8917   22.4677 O   0  0  0  0  0  0
  -23.5377  -32.1417   23.7443 O   0  0  0  0  0  0
  -27.8023  -17.7112   19.3892 C   0  0  0  0  0  0
  -26.8289  -18.6366   18.9955 C   0  0  0  0  0  0
  -29.2309  -19.5362   20.1347 C   0  0  0  0  0  0
  -29.0289  -18.1268   19.9444 C   0  0  0  0  0  0
  -28.2473  -20.5083   19.7335 C   0  0  0  0  0  0
  -27.0452  -20.0181   19.1458 C   0  0  0  0  0  0
  -30.3890  -24.8270   21.1522 C   0  0  0  0  0  0
  -30.0321  -17.0367   20.2020 C   0  0  0  0  0  0
  -28.3851  -22.0073   19.8726 C   0  0  0  0  0  0
  -29.7092  -15.7562   20.5530 C   0  0  0  0  0  0
  -29.3366  -22.7654   20.4639 C   0  0  0  0  0  0
  -29.3446  -24.2485   20.5326 C   0  0  0  0  0  0
  -25.9481  -20.9421   18.6290 C   0  0  0  0  0  0
  -28.2203  -25.1417   19.9500 C   0  0  0  0  0  0
  -31.4834  -12.4799   19.1516 H   0  0  0  0  0  0
  -30.3748  -11.3567   19.8860 H   0  0  0  0  0  0
  -29.7696  -11.7483   17.4715 H   0  0  0  0  0  0
  -29.6559  -13.4663   17.7591 H   0  0  0  0  0  0
  -27.8503  -11.2820   18.8467 H   0  0  0  0  0  0
  -27.3842  -12.5835   17.7867 H   0  0  0  0  0  0
  -27.6633  -14.2279   19.5049 H   0  0  0  0  0  0
  -28.7031  -12.0162   21.3605 H   0  0  0  0  0  0
  -28.4611  -13.6625   21.8478 H   0  0  0  0  0  0
  -25.2743   -9.5666   22.4734 H   0  0  0  0  0  0
  -23.9982   -7.4631   22.7463 H   0  0  0  0  0  0
  -21.0807   -8.8724   19.8964 H   0  0  0  0  0  0
  -22.3646  -10.9630   19.6162 H   0  0  0  0  0  0
  -21.2010   -7.6144   23.9684 H   0  0  0  0  0  0
  -21.1487   -6.0534   25.9064 H   0  0  0  0  0  0
  -22.0610   -2.7604   23.2847 H   0  0  0  0  0  0
  -22.4126  -11.9876   22.4780 H   0  0  0  0  0  0
  -21.1141  -13.1274   22.2655 H   0  0  0  0  0  0
  -24.6736  -15.8473   20.5522 H   0  0  0  0  0  0
  -26.2999  -15.6266   20.1560 H   0  0  0  0  0  0
  -26.7138  -32.5491   23.1139 H   0  0  0  0  0  0
  -25.0072  -33.9772   25.0458 H   0  0  0  0  0  0
  -22.7006  -31.3047   21.4108 H   0  0  0  0  0  0
  -23.3748  -35.9642   23.3305 H   0  0  0  0  0  0
  -24.3580  -36.8921   22.2049 H   0  0  0  0  0  0
  -23.7247  -37.6513   23.6655 H   0  0  0  0  0  0
  -26.0748  -31.5777   20.6066 H   0  0  0  0  0  0
  -26.8286  -30.8567   21.9999 H   0  0  0  0  0  0
  -28.1023  -29.0355   21.1849 H   0  0  0  0  0  0
  -26.0004  -25.9682   18.9765 H   0  0  0  0  0  0
  -23.9726  -27.3131   19.0111 H   0  0  0  0  0  0
  -23.7324  -30.5995   19.4069 H   0  0  0  0  0  0
  -22.7438  -29.2457   19.8677 H   0  0  0  0  0  0
  -25.1296  -36.1955   25.0826 H   0  0  0  0  0  0
  -20.9960  -28.3233   24.1438 H   0  0  0  0  0  0
  -20.5691  -26.2265   23.3610 H   0  0  0  0  0  0
  -21.6636  -26.7446   22.1207 H   0  0  0  0  0  0
  -19.6909  -25.6290   21.1249 H   0  0  0  0  0  0
  -19.6696  -27.3193   20.6763 H   0  0  0  0  0  0
  -17.4198  -26.6678   21.4021 H   0  0  0  0  0  0
  -18.0310  -26.0064   22.9018 H   0  0  0  0  0  0
  -19.7924  -30.7266   24.2266 H   0  0  0  0  0  0
  -17.5006  -31.6267   24.5153 H   0  0  0  0  0  0
  -15.5348  -30.2984   23.7658 H   0  0  0  0  0  0
  -15.8660  -28.0823   22.7067 H   0  0  0  0  0  0
  -24.5901  -30.7089   25.7821 H   0  0  0  0  0  0
  -24.8940  -32.2894   26.4913 H   0  0  0  0  0  0
  -25.8074  -30.8907   27.0233 H   0  0  0  0  0  0
  -26.2870  -29.6790   24.1174 H   0  0  0  0  0  0
  -27.4007  -29.7261   25.4651 H   0  0  0  0  0  0
  -27.8746  -30.4314   23.9370 H   0  0  0  0  0  0
  -27.2633  -33.3625   26.2095 H   0  0  0  0  0  0
  -28.3841  -32.6917   25.0332 H   0  0  0  0  0  0
  -28.0711  -31.8453   26.5414 H   0  0  0  0  0  0
  -28.2596  -38.0108   24.7510 H   0  0  0  0  0  0
  -28.1083  -36.2635   24.6281 H   0  0  0  0  0  0
  -27.2298  -37.1455   25.8863 H   0  0  0  0  0  0
  -20.9321  -29.8738   21.6934 H   0  0  0  0  0  0
  -26.0174  -38.2865   24.1410 H   0  0  0  0  0  0
  -27.6152  -16.6663   19.1864 H   0  0  0  0  0  0
  -25.9171  -18.2727   18.5429 H   0  0  0  0  0  0
  -30.1660  -19.8734   20.5589 H   0  0  0  0  0  0
  -31.1900  -24.2394   21.5785 H   0  0  0  0  0  0
  -30.4682  -25.9012   21.2491 H   0  0  0  0  0  0
  -31.0610  -17.2800   19.9748 H   0  0  0  0  0  0
  -27.5928  -22.5831   19.4224 H   0  0  0  0  0  0
  -28.6858  -15.5906   20.8405 H   0  0  0  0  0  0
  -30.1561  -22.2372   20.9310 H   0  0  0  0  0  0
  -25.1101  -20.3791   18.2175 H   0  0  0  0  0  0
  -26.3295  -21.5773   17.8283 H   0  0  0  0  0  0
  -25.5545  -21.5737   19.4257 H   0  0  0  0  0  0
  -27.2947  -24.7930   20.4123 H   0  0  0  0  0  0
  -28.1458  -24.9466   18.8796 H   0  0  0  0  0  0
  1 25  1  0  0  0
  1 30  2  0  0  0
  1 80  1  0  0  0
  2  3  1  0  0  0
  2 25  1  0  0  0
  2 85  1  0  0  0
  2 86  1  0  0  0
  3  4  1  0  0  0
  3 87  1  0  0  0
  3 88  1  0  0  0
  4  5  1  0  0  0
  4 89  1  0  0  0
  4 90  1  0  0  0
  5  6  1  0  0  0
  5 26  1  0  0  0
  5 91  1  0  0  0
  6 25  1  0  0  0
  6 92  1  0  0  0
  6 93  1  0  0  0
  7  8  2  0  0  0
  7 26  1  0  0  0
  7 29  1  0  0  0
  8  9  1  0  0  0
  8 22  1  0  0  0
  9 10  1  0  0  0
  9 27  2  0  0  0
 10 11  2  0  0  0
 10 15  1  0  0  0
 11 12  1  0  0  0
 11 94  1  0  0  0
 12 13  2  0  0  0
 12 95  1  0  0  0
 13 14  1  0  0  0
 13 31  1  0  0  0
 14 15  2  0  0  0
 14 96  1  0  0  0
 15 97  1  0  0  0
 16 17  2  0  0  0
 16 21  1  0  0  0
 16 31  1  0  0  0
 17 18  1  0  0  0
 17 98  1  0  0  0
 18 19  2  0  0  0
 18 99  1  0  0  0
 19 20  1  0  0  0
 19 24  1  0  0  0
 20 21  2  0  0  0
 20100  1  0  0  0
 21 23  1  0  0  0
 22 28  1  0  0  0
 22 32  2  0  0  0
 26 27  1  0  0  0
 28101  1  0  0  0
 28102  1  0  0  0
 29103  1  0  0  0
 29104  1  0  0  0
 33 34  1  0  0  0
 33 66  1  0  0  0
 33 70  2  0  0  0
 34 36  1  0  0  0
 34 59  1  0  0  0
 34105  1  0  0  0
 35 44  2  0  0  0
 35 45  1  0  0  0
 35 68  1  0  0  0
 36 56  1  0  0  0
 36106  1  0  0  0
 37 39  1  0  0  0
 37 47  1  0  0  0
 37 66  1  0  0  0
 37107  1  0  0  0
 38 43  2  0  0  0
 38 46  1  0  0  0
 38 47  1  0  0  0
 39 64  1  0  0  0
 39 67  2  0  0  0
 40 52  1  0  0  0
 40 53  2  0  0  0
 40 58  1  0  0  0
 41108  1  0  0  0
 41109  1  0  0  0
 41110  1  0  0  0
 41 48  1  0  0  0
 42 43  1  0  0  0
 42 66  1  0  0  0
 42111  1  0  0  0
 42112  1  0  0  0
 43 44  1  0  0  0
 44113  1  0  0  0
 45 46  2  0  0  0
 45114  1  0  0  0
 46115  1  0  0  0
 47116  1  0  0  0
 47117  1  0  0  0
 48 56  1  0  0  0
 48 65  1  0  0  0
 48118  1  0  0  0
 49 50  1  0  0  0
 49 53  1  0  0  0
 49 64  1  0  0  0
 49119  1  0  0  0
 50 51  1  0  0  0
 50120  1  0  0  0
 50121  1  0  0  0
 51 52  1  0  0  0
 51122  1  0  0  0
 51123  1  0  0  0
 52124  1  0  0  0
 52125  1  0  0  0
 53 54  1  0  0  0
 54 55  2  0  0  0
 54126  1  0  0  0
 55 57  1  0  0  0
 55127  1  0  0  0
 56 69  2  0  0  0
 57 58  2  0  0  0
 57128  1  0  0  0
 58129  1  0  0  0
 59 60  1  0  0  0
 59 61  1  0  0  0
 59 62  1  0  0  0
 60130  1  0  0  0
 60131  1  0  0  0
 60132  1  0  0  0
 61133  1  0  0  0
 61134  1  0  0  0
 61135  1  0  0  0
 62136  1  0  0  0
 62137  1  0  0  0
 62138  1  0  0  0
 63 65  1  0  0  0
 63139  1  0  0  0
 63140  1  0  0  0
 63141  1  0  0  0
 64142  1  0  0  0
 65143  1  0  0  0
 68 84  1  0  0  0
 71 72  2  0  0  0
 71 74  1  0  0  0
 71144  1  0  0  0
 72 76  1  0  0  0
 72145  1  0  0  0
 73 74  2  0  0  0
 73 75  1  0  0  0
 73146  1  0  0  0
 74 78  1  0  0  0
 75 76  2  0  0  0
 75 79  1  0  0  0
 76 83  1  0  0  0
 77 82  2  0  0  0
 77147  1  0  0  0
 77148  1  0  0  0
 78 80  2  0  0  0
 78149  1  0  0  0
 79 81  2  0  0  0
 79150  1  0  0  0
 80151  1  0  0  0
 81 82  1  0  0  0
 81152  1  0  0  0
 82 84  1  0  0  0
 83153  1  0  0  0
 83154  1  0  0  0
 83155  1  0  0  0
 84156  1  0  0  0
 84157  1  0  0  0
M  ISO  4   1 100  68 101  80 100  84 101
M  END
> <chiral flag>
0

> <version>
0

> <s_m_source_file>
/data/baiqing/PycharmProjects/Reinvent-master-3.2/result/LINK_invent/BTK/process_docking_weight1_custom_product_contain_oxygen_bond_distance_aromatic_linkinvent_7_9_3/rearranged_h_0121.sdf

> <i_m_source_file_index>
48

> <r_mmod_Potential_Energy-OPLS-2005>
61.334774017334

> <r_mmod_Stretch_Energy-OPLS-2005>
59.9394836425781

> <r_mmod_Bend_Energy-OPLS-2005>
116.577026367188

> <r_mmod_Torsional_Energy-OPLS-2005>
199.086822509766

> <r_mmod_Improper_Torsional_Energy-OPLS-2005>
10.4414119720459

> <r_mmod_Van_der_Waal_Energy-OPLS-2005>
163.824310302734

> <r_mmod_Electrostatic_Energy-OPLS-2005>
-332.546783447266

> <r_mmod_Solvation_Energy-OPLS-2005>
-190.315399169922

> <b_mmod_Minimization_Converged-OPLS-2005>
0

> <r_mmod_RMS_Derivative-OPLS-2005>
2.37499308586121

$$$$
48
                    3D
 Structure written by MMmdl.
156164  0  0  1  0            999 V2000
  -30.7092  -14.5387   20.4736 C   0  0  0  0  0  0
  -30.4097  -12.3150   19.4670 C   0  0  0  0  0  0
  -29.5020  -12.4695   18.2295 C   0  0  0  0  0  0
  -28.0223  -12.3357   18.6350 C   0  0  0  0  0  0
  -27.6521  -13.2185   19.8580 C   0  0  2  0  0  0
  -28.6911  -13.0853   20.9928 C   0  0  0  0  0  0
  -25.2576  -13.8185   20.5690 C   0  0  0  0  0  0
  -24.1832  -13.0450   20.9177 C   0  0  0  0  0  0
  -24.6397  -11.6921   20.8735 C   0  0  0  0  0  0
  -23.9061  -10.4305   21.0407 C   0  0  0  0  0  0
  -24.3617   -9.4223   21.9188 C   0  0  0  0  0  0
  -23.6298   -8.2250   22.0753 C   0  0  0  0  0  0
  -22.4285   -8.0280   21.3540 C   0  0  0  0  0  0
  -21.9914   -9.0249   20.4644 C   0  0  0  0  0  0
  -22.7231  -10.2139   20.3057 C   0  0  0  0  0  0
  -21.6857   -6.0741   22.5276 C   0  0  0  0  0  0
  -21.4013   -6.5643   23.8208 C   0  0  0  0  0  0
  -21.3662   -5.6795   24.9171 C   0  0  0  0  0  0
  -21.6042   -4.3057   24.7226 C   0  0  0  0  0  0
  -21.8823   -3.8151   23.4347 C   0  0  0  0  0  0
  -21.9197   -4.6968   22.3403 C   0  0  0  0  0  0
  -22.7859  -13.5245   21.1849 C   0  0  0  0  0  0
  -22.1668   -4.2150   21.0980 F   0  0  0  0  0  0
  -21.5630   -3.4538   25.7741 F   0  0  0  0  0  0
  -30.0204  -13.3605   20.4327 N   0  0  0  0  0  0
  -26.2992  -12.9368   20.3299 N   0  0  0  0  0  0
  -25.9326  -11.6520   20.5748 N   0  0  0  0  0  0
  -22.0513  -12.8220   22.0395 N   0  0  0  0  0  0
  -25.4318  -15.1908   20.4130 N   0  0  0  0  0  0
  -31.8941  -14.5819   20.1340 O   0  0  0  0  0  0
  -21.6648   -6.8884   21.4237 O   0  0  0  0  0  0
  -22.3542  -14.5558   20.6718 O   0  0  0  0  0  0
  -24.6193  -31.8654   23.2109 C   0  0  0  0  0  0
  -25.9080  -32.4807   23.8399 C   0  0  1  0  0  0
  -27.2163  -27.3832   20.1024 C   0  0  0  0  0  0
  -25.5934  -33.8607   24.2328 N   0  0  0  0  0  0
  -23.4084  -30.4927   21.5526 C   0  0  2  0  0  0
  -24.8520  -28.9626   20.1089 C   0  0  0  0  0  0
  -22.7442  -29.4644   22.4979 C   0  0  0  0  0  0
  -18.0276  -28.1376   22.8489 C   0  0  0  0  0  0
  -24.1492  -36.7297   23.2641 C   0  0  0  0  0  0
  -25.9457  -30.8142   21.3757 C   0  0  0  0  0  0
  -26.0182  -29.4498   20.7134 C   0  0  0  0  0  0
  -27.2045  -28.6693   20.7054 C   0  0  0  0  0  0
  -26.0328  -26.9428   19.4611 C   0  0  0  0  0  0
  -24.8578  -27.7120   19.4757 C   0  0  0  0  0  0
  -23.6178  -29.8346   20.1643 C   0  0  0  0  0  0
  -25.4119  -36.3101   24.0336 C   0  0  1  0  0  0
  -20.5871  -28.3662   23.1308 C   0  0  2  0  0  0
  -20.6770  -26.9396   22.5410 C   0  0  0  0  0  0
  -19.5747  -26.6379   21.5210 C   0  0  0  0  0  0
  -18.1922  -26.7918   22.1619 C   0  0  0  0  0  0
  -19.1527  -28.8835   23.2888 C   0  0  0  0  0  0
  -18.9455  -30.1449   23.8894 C   0  0  0  0  0  0
  -17.6455  -30.6578   24.0558 C   0  0  0  0  0  0
  -25.9050  -34.9461   23.5125 C   0  0  0  0  0  0
  -16.5344  -29.9076   23.6335 C   0  0  0  0  0  0
  -16.7262  -28.6492   23.0350 C   0  0  0  0  0  0
  -26.4494  -31.6594   25.0738 C   0  0  0  0  0  0
  -25.3751  -31.3710   26.1482 C   0  0  0  0  0  0
  -27.0328  -30.3027   24.6148 C   0  0  0  0  0  0
  -27.6062  -32.4328   25.7491 C   0  0  0  0  0  0
  -27.5586  -37.1810   24.8475 C   0  0  0  0  0  0
  -21.4162  -29.3026   22.3720 N   0  0  0  0  0  0
  -26.4309  -37.3787   23.9401 N   0  0  0  0  0  0
  -24.6759  -31.0722   22.1033 N   0  0  0  0  0  0
  -23.4205  -28.8176   23.3021 O   0  0  0  0  0  0
  -28.3430  -26.5669   20.1687 O   0  0  0  0  0  0
  -26.5600  -34.8912   22.4677 O   0  0  0  0  0  0
  -23.5374  -32.1435   23.7477 O   0  0  0  0  0  0
  -31.1622  -20.0594   18.2508 C   0  0  0  0  0  0
  -30.4450  -19.4953   19.3494 C   0  0  0  0  0  0
  -30.6794  -18.1203   19.3213 C   0  0  0  0  0  0
  -31.8179  -19.0367   17.6438 C   0  0  0  0  0  0
  -29.6495  -20.3690   20.2588 C   0  0  0  0  0  0
  -30.3943  -16.8555   19.9684 C   0  0  0  0  0  0
  -29.9561  -15.7882   20.6956 C   0  0  0  0  0  0
  -29.4089  -21.6864   20.0035 C   0  0  0  0  0  0
  -32.7468  -18.9602   16.4803 C   0  0  0  0  0  0
  -28.6622  -22.6957   20.8807 C   0  0  0  0  0  0
  -29.1328  -24.1899   20.7507 C   0  0  0  0  0  0
  -28.1067  -25.1334   20.0562 C   0  0  0  0  0  0
  -31.5343  -17.8764   18.2808 O   0  0  0  0  0  0
  -31.4610  -12.3678   19.1776 H   0  0  0  0  0  0
  -30.2793  -11.3279   19.9134 H   0  0  0  0  0  0
  -29.7523  -11.7134   17.4830 H   0  0  0  0  0  0
  -29.6732  -13.4393   17.7588 H   0  0  0  0  0  0
  -27.8435  -11.2864   18.8713 H   0  0  0  0  0  0
  -27.3734  -12.5673   17.7900 H   0  0  0  0  0  0
  -27.6746  -14.2515   19.5089 H   0  0  0  0  0  0
  -28.6717  -12.0804   21.4165 H   0  0  0  0  0  0
  -28.4572  -13.7567   21.8186 H   0  0  0  0  0  0
  -25.2766   -9.5711   22.4759 H   0  0  0  0  0  0
  -24.0017   -7.4652   22.7480 H   0  0  0  0  0  0
  -21.0839   -8.8762   19.8960 H   0  0  0  0  0  0
  -22.3677  -10.9673   19.6170 H   0  0  0  0  0  0
  -21.1998   -7.6150   23.9706 H   0  0  0  0  0  0
  -21.1480   -6.0529   25.9071 H   0  0  0  0  0  0
  -22.0603   -2.7612   23.2843 H   0  0  0  0  0  0
  -22.4133  -11.9859   22.4744 H   0  0  0  0  0  0
  -21.1144  -13.1247   22.2646 H   0  0  0  0  0  0
  -24.6722  -15.8525   20.5286 H   0  0  0  0  0  0
  -26.2924  -15.6248   20.1032 H   0  0  0  0  0  0
  -26.7136  -32.5495   23.1145 H   0  0  0  0  0  0
  -25.0111  -33.9764   25.0496 H   0  0  0  0  0  0
  -22.6979  -31.3113   21.4183 H   0  0  0  0  0  0
  -23.3751  -35.9636   23.3330 H   0  0  0  0  0  0
  -24.3586  -36.8885   22.2051 H   0  0  0  0  0  0
  -23.7247  -37.6511   23.6634 H   0  0  0  0  0  0
  -26.0785  -31.5825   20.6135 H   0  0  0  0  0  0
  -26.8271  -30.8550   22.0043 H   0  0  0  0  0  0
  -28.0981  -29.0346   21.1930 H   0  0  0  0  0  0
  -25.9845  -25.9917   18.9510 H   0  0  0  0  0  0
  -23.9657  -27.3376   18.9925 H   0  0  0  0  0  0
  -23.7309  -30.6153   19.4111 H   0  0  0  0  0  0
  -22.7386  -29.2613   19.8635 H   0  0  0  0  0  0
  -25.1297  -36.1971   25.0829 H   0  0  0  0  0  0
  -20.9959  -28.3223   24.1433 H   0  0  0  0  0  0
  -20.5686  -26.2258   23.3596 H   0  0  0  0  0  0
  -21.6636  -26.7448   22.1193 H   0  0  0  0  0  0
  -19.6910  -25.6297   21.1225 H   0  0  0  0  0  0
  -19.6685  -27.3202   20.6751 H   0  0  0  0  0  0
  -17.4195  -26.6666   21.4019 H   0  0  0  0  0  0
  -18.0330  -26.0061   22.9016 H   0  0  0  0  0  0
  -19.7927  -30.7268   24.2258 H   0  0  0  0  0  0
  -17.5004  -31.6262   24.5155 H   0  0  0  0  0  0
  -15.5344  -30.2970   23.7668 H   0  0  0  0  0  0
  -15.8660  -28.0812   22.7070 H   0  0  0  0  0  0
  -24.5922  -30.7061   25.7824 H   0  0  0  0  0  0
  -24.8947  -32.2862   26.4942 H   0  0  0  0  0  0
  -25.8108  -30.8870   27.0234 H   0  0  0  0  0  0
  -26.2884  -29.6779   24.1200 H   0  0  0  0  0  0
  -27.4081  -29.7277   25.4626 H   0  0  0  0  0  0
  -27.8732  -30.4329   23.9329 H   0  0  0  0  0  0
  -27.2677  -33.3619   26.2087 H   0  0  0  0  0  0
  -28.3855  -32.6909   25.0310 H   0  0  0  0  0  0
  -28.0750  -31.8450   26.5394 H   0  0  0  0  0  0
  -28.2625  -38.0086   24.7500 H   0  0  0  0  0  0
  -28.1059  -36.2616   24.6335 H   0  0  0  0  0  0
  -27.2294  -37.1504   25.8877 H   0  0  0  0  0  0
  -20.9340  -29.8745   21.6932 H   0  0  0  0  0  0
  -26.0195  -38.2869   24.1380 H   0  0  0  0  0  0
  -31.2269  -21.0917   17.9385 H   0  0  0  0  0  0
  -29.2791  -19.9180   21.1688 H   0  0  0  0  0  0
  -29.5923  -17.4042   20.4406 H   0  0  0  0  0  0
  -29.1266  -15.8230   21.3923 H   0  0  0  0  0  0
  -29.7560  -22.1185   19.0771 H   0  0  0  0  0  0
  -33.6347  -19.5673   16.6595 H   0  0  0  0  0  0
  -32.2643  -19.3339   15.5776 H   0  0  0  0  0  0
  -33.0705  -17.9368   16.2904 H   0  0  0  0  0  0
  -28.7506  -22.3718   21.9182 H   0  0  0  0  0  0
  -27.6010  -22.6187   20.6411 H   0  0  0  0  0  0
  -30.1028  -24.2536   20.2538 H   0  0  0  0  0  0
  -29.2973  -24.5730   21.7585 H   0  0  0  0  0  0
  -27.1415  -24.8905   20.5045 H   0  0  0  0  0  0
  -28.0431  -24.8701   18.9993 H   0  0  0  0  0  0
  1 25  1  0  0  0
  1 30  2  0  0  0
  1 77  1  0  0  0
  2  3  1  0  0  0
  2 25  1  0  0  0
  2 84  1  0  0  0
  2 85  1  0  0  0
  3  4  1  0  0  0
  3 86  1  0  0  0
  3 87  1  0  0  0
  4  5  1  0  0  0
  4 88  1  0  0  0
  4 89  1  0  0  0
  5  6  1  0  0  0
  5 26  1  0  0  0
  5 90  1  0  0  0
  6 25  1  0  0  0
  6 91  1  0  0  0
  6 92  1  0  0  0
  7  8  2  0  0  0
  7 26  1  0  0  0
  7 29  1  0  0  0
  8  9  1  0  0  0
  8 22  1  0  0  0
  9 10  1  0  0  0
  9 27  2  0  0  0
 10 11  2  0  0  0
 10 15  1  0  0  0
 11 12  1  0  0  0
 11 93  1  0  0  0
 12 13  2  0  0  0
 12 94  1  0  0  0
 13 14  1  0  0  0
 13 31  1  0  0  0
 14 15  2  0  0  0
 14 95  1  0  0  0
 15 96  1  0  0  0
 16 17  2  0  0  0
 16 21  1  0  0  0
 16 31  1  0  0  0
 17 18  1  0  0  0
 17 97  1  0  0  0
 18 19  2  0  0  0
 18 98  1  0  0  0
 19 20  1  0  0  0
 19 24  1  0  0  0
 20 21  2  0  0  0
 20 99  1  0  0  0
 21 23  1  0  0  0
 22 28  1  0  0  0
 22 32  2  0  0  0
 26 27  1  0  0  0
 28100  1  0  0  0
 28101  1  0  0  0
 29102  1  0  0  0
 29103  1  0  0  0
 33 34  1  0  0  0
 33 66  1  0  0  0
 33 70  2  0  0  0
 34 36  1  0  0  0
 34 59  1  0  0  0
 34104  1  0  0  0
 35 44  2  0  0  0
 35 45  1  0  0  0
 35 68  1  0  0  0
 36 56  1  0  0  0
 36105  1  0  0  0
 37 39  1  0  0  0
 37 47  1  0  0  0
 37 66  1  0  0  0
 37106  1  0  0  0
 38 43  2  0  0  0
 38 46  1  0  0  0
 38 47  1  0  0  0
 39 64  1  0  0  0
 39 67  2  0  0  0
 40 52  1  0  0  0
 40 53  2  0  0  0
 40 58  1  0  0  0
 41107  1  0  0  0
 41108  1  0  0  0
 41109  1  0  0  0
 41 48  1  0  0  0
 42 43  1  0  0  0
 42 66  1  0  0  0
 42110  1  0  0  0
 42111  1  0  0  0
 43 44  1  0  0  0
 44112  1  0  0  0
 45 46  2  0  0  0
 45113  1  0  0  0
 46114  1  0  0  0
 47115  1  0  0  0
 47116  1  0  0  0
 48 56  1  0  0  0
 48 65  1  0  0  0
 48117  1  0  0  0
 49 50  1  0  0  0
 49 53  1  0  0  0
 49 64  1  0  0  0
 49118  1  0  0  0
 50 51  1  0  0  0
 50119  1  0  0  0
 50120  1  0  0  0
 51 52  1  0  0  0
 51121  1  0  0  0
 51122  1  0  0  0
 52123  1  0  0  0
 52124  1  0  0  0
 53 54  1  0  0  0
 54 55  2  0  0  0
 54125  1  0  0  0
 55 57  1  0  0  0
 55126  1  0  0  0
 56 69  2  0  0  0
 57 58  2  0  0  0
 57127  1  0  0  0
 58128  1  0  0  0
 59 60  1  0  0  0
 59 61  1  0  0  0
 59 62  1  0  0  0
 60129  1  0  0  0
 60130  1  0  0  0
 60131  1  0  0  0
 61132  1  0  0  0
 61133  1  0  0  0
 61134  1  0  0  0
 62135  1  0  0  0
 62136  1  0  0  0
 62137  1  0  0  0
 63 65  1  0  0  0
 63138  1  0  0  0
 63139  1  0  0  0
 63140  1  0  0  0
 64141  1  0  0  0
 65142  1  0  0  0
 68 82  1  0  0  0
 71 72  1  0  0  0
 71 74  2  0  0  0
 71143  1  0  0  0
 72 73  2  0  0  0
 72 75  1  0  0  0
 73 76  1  0  0  0
 73 83  1  0  0  0
 74 79  1  0  0  0
 74 83  1  0  0  0
 75 78  2  0  0  0
 75144  1  0  0  0
 76 77  2  0  0  0
 76145  1  0  0  0
 77146  1  0  0  0
 78 80  1  0  0  0
 78147  1  0  0  0
 79148  1  0  0  0
 79149  1  0  0  0
 79150  1  0  0  0
 80 81  1  0  0  0
 80151  1  0  0  0
 80152  1  0  0  0
 81 82  1  0  0  0
 81153  1  0  0  0
 81154  1  0  0  0
 82155  1  0  0  0
 82156  1  0  0  0
M  ISO  4   1 100  68 101  77 100  82 101
M  END
> <chiral flag>
0

> <version>
0

> <s_m_source_file>
/data/baiqing/PycharmProjects/Reinvent-master-3.2/result/LINK_invent/BTK/process_docking_weight1_custom_product_contain_oxygen_bond_distance_aromatic_linkinvent_7_9_3/rearranged_h_0121.sdf

> <i_m_source_file_index>
49

> <r_mmod_Potential_Energy-OPLS-2005>
263.002716064453

> <r_mmod_Stretch_Energy-OPLS-2005>
47.9832458496094

> <r_mmod_Bend_Energy-OPLS-2005>
360.714477539062

> <r_mmod_Torsional_Energy-OPLS-2005>
204.595062255859

> <r_mmod_Improper_Torsional_Energy-OPLS-2005>
5.11655282974243

> <r_mmod_Van_der_Waal_Energy-OPLS-2005>
142.564559936523

> <r_mmod_Electrostatic_Energy-OPLS-2005>
-327.619842529297

> <r_mmod_Solvation_Energy-OPLS-2005>
-202.51091003418

> <b_mmod_Minimization_Converged-OPLS-2005>
0

> <r_mmod_RMS_Derivative-OPLS-2005>
1.70838010311127

$$$$
49
                    3D
 Structure written by MMmdl.
159168  0  0  1  0            999 V2000
  -30.6327  -14.5998   20.3857 C   0  0  0  0  0  0
  -30.4150  -12.3402   19.4496 C   0  0  0  0  0  0
  -29.5040  -12.4843   18.2142 C   0  0  0  0  0  0
  -28.0174  -12.3348   18.6040 C   0  0  0  0  0  0
  -27.6344  -13.2059   19.8277 C   0  0  2  0  0  0
  -28.6774  -13.0949   20.9591 C   0  0  0  0  0  0
  -25.2504  -13.8147   20.5673 C   0  0  0  0  0  0
  -24.1761  -13.0444   20.9201 C   0  0  0  0  0  0
  -24.6304  -11.6897   20.8718 C   0  0  0  0  0  0
  -23.8975  -10.4315   21.0408 C   0  0  0  0  0  0
  -24.3547   -9.4239   21.9178 C   0  0  0  0  0  0
  -23.6269   -8.2239   22.0724 C   0  0  0  0  0  0
  -22.4232   -8.0277   21.3544 C   0  0  0  0  0  0
  -21.9853   -9.0230   20.4635 C   0  0  0  0  0  0
  -22.7154  -10.2126   20.3049 C   0  0  0  0  0  0
  -21.6842   -6.0746   22.5296 C   0  0  0  0  0  0
  -21.4007   -6.5636   23.8237 C   0  0  0  0  0  0
  -21.3662   -5.6769   24.9193 C   0  0  0  0  0  0
  -21.6041   -4.3033   24.7222 C   0  0  0  0  0  0
  -21.8820   -3.8142   23.4335 C   0  0  0  0  0  0
  -21.9201   -4.6980   22.3407 C   0  0  0  0  0  0
  -22.7794  -13.5265   21.1882 C   0  0  0  0  0  0
  -22.1666   -4.2194   21.0968 F   0  0  0  0  0  0
  -21.5629   -3.4500   25.7728 F   0  0  0  0  0  0
  -30.0058  -13.3844   20.4052 N   0  0  0  0  0  0
  -26.2873  -12.9283   20.3117 N   0  0  0  0  0  0
  -25.9209  -11.6462   20.5588 N   0  0  0  0  0  0
  -22.0401  -12.8270   22.0436 N   0  0  0  0  0  0
  -25.4230  -15.1869   20.4156 N   0  0  0  0  0  0
  -31.8437  -14.6764   20.1760 O   0  0  0  0  0  0
  -21.6610   -6.8862   21.4247 O   0  0  0  0  0  0
  -22.3491  -14.5599   20.6769 O   0  0  0  0  0  0
  -24.6223  -31.8628   23.2025 C   0  0  0  0  0  0
  -25.9089  -32.4773   23.8384 C   0  0  1  0  0  0
  -27.2380  -27.3673   20.1074 C   0  0  0  0  0  0
  -25.5903  -33.8572   24.2298 N   0  0  0  0  0  0
  -23.4175  -30.4819   21.5431 C   0  0  2  0  0  0
  -24.8691  -28.9371   20.1146 C   0  0  0  0  0  0
  -22.7472  -29.4624   22.4935 C   0  0  0  0  0  0
  -18.0291  -28.1380   22.8470 C   0  0  0  0  0  0
  -24.1483  -36.7296   23.2647 C   0  0  0  0  0  0
  -25.9540  -30.8018   21.3741 C   0  0  0  0  0  0
  -26.0325  -29.4293   20.7229 C   0  0  0  0  0  0
  -27.2226  -28.6525   20.7170 C   0  0  0  0  0  0
  -26.0608  -26.9072   19.4874 C   0  0  0  0  0  0
  -24.8814  -27.6768   19.4933 C   0  0  0  0  0  0
  -23.6343  -29.8118   20.1603 C   0  0  0  0  0  0
  -25.4097  -36.3080   24.0343 C   0  0  1  0  0  0
  -20.5890  -28.3690   23.1288 C   0  0  2  0  0  0
  -20.6771  -26.9399   22.5438 C   0  0  0  0  0  0
  -19.5769  -26.6381   21.5213 C   0  0  0  0  0  0
  -18.1930  -26.7923   22.1602 C   0  0  0  0  0  0
  -19.1540  -28.8853   23.2885 C   0  0  0  0  0  0
  -18.9459  -30.1439   23.8935 C   0  0  0  0  0  0
  -17.6461  -30.6577   24.0574 C   0  0  0  0  0  0
  -25.9034  -34.9454   23.5127 C   0  0  0  0  0  0
  -16.5349  -29.9090   23.6305 C   0  0  0  0  0  0
  -16.7280  -28.6503   23.0324 C   0  0  0  0  0  0
  -26.4470  -31.6578   25.0753 C   0  0  0  0  0  0
  -25.3711  -31.3742   26.1502 C   0  0  0  0  0  0
  -27.0325  -30.3008   24.6208 C   0  0  0  0  0  0
  -27.6102  -32.4284   25.7469 C   0  0  0  0  0  0
  -27.5572  -37.1793   24.8449 C   0  0  0  0  0  0
  -21.4187  -29.3048   22.3679 N   0  0  0  0  0  0
  -26.4265  -37.3779   23.9419 N   0  0  0  0  0  0
  -24.6819  -31.0663   22.0955 N   0  0  0  0  0  0
  -23.4189  -28.8172   23.3027 O   0  0  0  0  0  0
  -28.3473  -26.5361   20.0569 O   0  0  0  0  0  0
  -26.5625  -34.8918   22.4705 O   0  0  0  0  0  0
  -23.5393  -32.1419   23.7346 O   0  0  0  0  0  0
  -28.0420  -19.4094   17.8083 C   0  0  0  0  0  0
  -28.2395  -20.6330   18.4740 C   0  0  0  0  0  0
  -29.6029  -19.4829   20.1207 C   0  0  0  0  0  0
  -29.4301  -18.2271   19.4535 C   0  0  0  0  0  0
  -28.6230  -18.2128   18.2798 C   0  0  0  0  0  0
  -29.0067  -20.7042   19.6563 C   0  0  0  0  0  0
  -28.6834  -24.2499   21.0039 C   0  0  0  0  0  0
  -30.2110  -17.0002   19.8484 C   0  0  0  0  0  0
  -28.4814  -25.6027   21.0747 C   0  0  0  0  0  0
  -29.7473  -15.7890   20.2716 C   0  0  0  0  0  0
  -28.8641  -23.3997   22.2436 C   0  0  0  0  0  0
  -28.7705  -23.2933   19.8064 C   0  0  0  0  0  0
  -29.2365  -21.9764   21.7847 C   0  0  0  0  0  0
  -28.4069  -16.9458   17.4573 C   0  0  0  0  0  0
  -29.1577  -21.9577   20.3295 N   0  0  0  0  0  0
  -31.4640  -12.4246   19.1576 H   0  0  0  0  0  0
  -30.3055  -11.3515   19.8940 H   0  0  0  0  0  0
  -29.7657  -11.7473   17.4541 H   0  0  0  0  0  0
  -29.6666  -13.4591   17.7531 H   0  0  0  0  0  0
  -27.8275  -11.2835   18.8225 H   0  0  0  0  0  0
  -27.3851  -12.5887   17.7537 H   0  0  0  0  0  0
  -27.6216  -14.2232   19.4431 H   0  0  0  0  0  0
  -28.6666  -12.0937   21.3921 H   0  0  0  0  0  0
  -28.4331  -13.7759   21.7743 H   0  0  0  0  0  0
  -25.2684   -9.5768   22.4744 H   0  0  0  0  0  0
  -24.0055   -7.4611   22.7387 H   0  0  0  0  0  0
  -21.0806   -8.8683   19.8920 H   0  0  0  0  0  0
  -22.3575  -10.9632   19.6155 H   0  0  0  0  0  0
  -21.1958   -7.6141   23.9754 H   0  0  0  0  0  0
  -21.1484   -6.0483   25.9095 H   0  0  0  0  0  0
  -22.0588   -2.7621   23.2798 H   0  0  0  0  0  0
  -22.3896  -11.9966   22.4963 H   0  0  0  0  0  0
  -21.1012  -13.1329   22.2538 H   0  0  0  0  0  0
  -24.6577  -15.8426   20.5261 H   0  0  0  0  0  0
  -26.2764  -15.6357   20.1096 H   0  0  0  0  0  0
  -26.7170  -32.5460   23.1159 H   0  0  0  0  0  0
  -25.0003  -33.9727   25.0410 H   0  0  0  0  0  0
  -22.7088  -31.2978   21.3948 H   0  0  0  0  0  0
  -23.3738  -35.9627   23.3271 H   0  0  0  0  0  0
  -24.3591  -36.8957   22.2070 H   0  0  0  0  0  0
  -23.7228  -37.6487   23.6686 H   0  0  0  0  0  0
  -26.0867  -31.5608   20.6007 H   0  0  0  0  0  0
  -26.8346  -30.8508   22.0037 H   0  0  0  0  0  0
  -28.1220  -29.0230   21.1912 H   0  0  0  0  0  0
  -26.0618  -25.9397   19.0039 H   0  0  0  0  0  0
  -23.9920  -27.2882   19.0160 H   0  0  0  0  0  0
  -23.7520  -30.5841   19.3997 H   0  0  0  0  0  0
  -22.7575  -29.2348   19.8609 H   0  0  0  0  0  0
  -25.1256  -36.1934   25.0828 H   0  0  0  0  0  0
  -20.9977  -28.3277   24.1415 H   0  0  0  0  0  0
  -20.5633  -26.2293   23.3645 H   0  0  0  0  0  0
  -21.6644  -26.7402   22.1260 H   0  0  0  0  0  0
  -19.6917  -25.6292   21.1250 H   0  0  0  0  0  0
  -19.6702  -27.3190   20.6738 H   0  0  0  0  0  0
  -17.4191  -26.6676   21.3996 H   0  0  0  0  0  0
  -18.0308  -26.0074   22.9015 H   0  0  0  0  0  0
  -19.7945  -30.7237   24.2318 H   0  0  0  0  0  0
  -17.5025  -31.6247   24.5204 H   0  0  0  0  0  0
  -15.5348  -30.3000   23.7633 H   0  0  0  0  0  0
  -15.8674  -28.0844   22.7006 H   0  0  0  0  0  0
  -24.5772  -30.7221   25.7803 H   0  0  0  0  0  0
  -24.9024  -32.2933   26.5060 H   0  0  0  0  0  0
  -25.8009  -30.8765   27.0212 H   0  0  0  0  0  0
  -26.2902  -29.6728   24.1246 H   0  0  0  0  0  0
  -27.4050  -29.7287   25.4723 H   0  0  0  0  0  0
  -27.8768  -30.4301   23.9426 H   0  0  0  0  0  0
  -27.2785  -33.3587   26.2100 H   0  0  0  0  0  0
  -28.3863  -32.6821   25.0226 H   0  0  0  0  0  0
  -28.0831  -31.8359   26.5321 H   0  0  0  0  0  0
  -28.2576  -38.0101   24.7489 H   0  0  0  0  0  0
  -28.1065  -36.2632   24.6217 H   0  0  0  0  0  0
  -27.2322  -37.1427   25.8864 H   0  0  0  0  0  0
  -20.9342  -29.8768   21.6895 H   0  0  0  0  0  0
  -26.0138  -38.2844   24.1423 H   0  0  0  0  0  0
  -27.4479  -19.4043   16.9048 H   0  0  0  0  0  0
  -27.7746  -21.5123   18.0563 H   0  0  0  0  0  0
  -30.2384  -19.4965   20.9933 H   0  0  0  0  0  0
  -31.2766  -17.0926   19.6820 H   0  0  0  0  0  0
  -28.4447  -26.0974   22.0371 H   0  0  0  0  0  0
  -28.6918  -15.7111   20.4695 H   0  0  0  0  0  0
  -27.9300  -23.3794   22.8048 H   0  0  0  0  0  0
  -29.6303  -23.8259   22.8925 H   0  0  0  0  0  0
  -29.5073  -23.6545   19.0893 H   0  0  0  0  0  0
  -27.7978  -23.2603   19.3181 H   0  0  0  0  0  0
  -28.5547  -21.2431   22.2205 H   0  0  0  0  0  0
  -30.2451  -21.7147   22.1068 H   0  0  0  0  0  0
  -27.6650  -17.1001   16.6698 H   0  0  0  0  0  0
  -28.0417  -16.1251   18.0717 H   0  0  0  0  0  0
  -29.3332  -16.6322   16.9740 H   0  0  0  0  0  0
  1 25  1  0  0  0
  1 30  2  0  0  0
  1 80  1  0  0  0
  2  3  1  0  0  0
  2 25  1  0  0  0
  2 86  1  0  0  0
  2 87  1  0  0  0
  3  4  1  0  0  0
  3 88  1  0  0  0
  3 89  1  0  0  0
  4  5  1  0  0  0
  4 90  1  0  0  0
  4 91  1  0  0  0
  5  6  1  0  0  0
  5 26  1  0  0  0
  5 92  1  0  0  0
  6 25  1  0  0  0
  6 93  1  0  0  0
  6 94  1  0  0  0
  7  8  2  0  0  0
  7 26  1  0  0  0
  7 29  1  0  0  0
  8  9  1  0  0  0
  8 22  1  0  0  0
  9 10  1  0  0  0
  9 27  2  0  0  0
 10 11  2  0  0  0
 10 15  1  0  0  0
 11 12  1  0  0  0
 11 95  1  0  0  0
 12 13  2  0  0  0
 12 96  1  0  0  0
 13 14  1  0  0  0
 13 31  1  0  0  0
 14 15  2  0  0  0
 14 97  1  0  0  0
 15 98  1  0  0  0
 16 17  2  0  0  0
 16 21  1  0  0  0
 16 31  1  0  0  0
 17 18  1  0  0  0
 17 99  1  0  0  0
 18 19  2  0  0  0
 18100  1  0  0  0
 19 20  1  0  0  0
 19 24  1  0  0  0
 20 21  2  0  0  0
 20101  1  0  0  0
 21 23  1  0  0  0
 22 28  1  0  0  0
 22 32  2  0  0  0
 26 27  1  0  0  0
 28102  1  0  0  0
 28103  1  0  0  0
 29104  1  0  0  0
 29105  1  0  0  0
 33 34  1  0  0  0
 33 66  1  0  0  0
 33 70  2  0  0  0
 34 36  1  0  0  0
 34 59  1  0  0  0
 34106  1  0  0  0
 35 44  2  0  0  0
 35 45  1  0  0  0
 35 68  1  0  0  0
 36 56  1  0  0  0
 36107  1  0  0  0
 37 39  1  0  0  0
 37 47  1  0  0  0
 37 66  1  0  0  0
 37108  1  0  0  0
 38 43  2  0  0  0
 38 46  1  0  0  0
 38 47  1  0  0  0
 39 64  1  0  0  0
 39 67  2  0  0  0
 40 52  1  0  0  0
 40 53  2  0  0  0
 40 58  1  0  0  0
 41109  1  0  0  0
 41110  1  0  0  0
 41111  1  0  0  0
 41 48  1  0  0  0
 42 43  1  0  0  0
 42 66  1  0  0  0
 42112  1  0  0  0
 42113  1  0  0  0
 43 44  1  0  0  0
 44114  1  0  0  0
 45 46  2  0  0  0
 45115  1  0  0  0
 46116  1  0  0  0
 47117  1  0  0  0
 47118  1  0  0  0
 48 56  1  0  0  0
 48 65  1  0  0  0
 48119  1  0  0  0
 49 50  1  0  0  0
 49 53  1  0  0  0
 49 64  1  0  0  0
 49120  1  0  0  0
 50 51  1  0  0  0
 50121  1  0  0  0
 50122  1  0  0  0
 51 52  1  0  0  0
 51123  1  0  0  0
 51124  1  0  0  0
 52125  1  0  0  0
 52126  1  0  0  0
 53 54  1  0  0  0
 54 55  2  0  0  0
 54127  1  0  0  0
 55 57  1  0  0  0
 55128  1  0  0  0
 56 69  2  0  0  0
 57 58  2  0  0  0
 57129  1  0  0  0
 58130  1  0  0  0
 59 60  1  0  0  0
 59 61  1  0  0  0
 59 62  1  0  0  0
 60131  1  0  0  0
 60132  1  0  0  0
 60133  1  0  0  0
 61134  1  0  0  0
 61135  1  0  0  0
 61136  1  0  0  0
 62137  1  0  0  0
 62138  1  0  0  0
 62139  1  0  0  0
 63 65  1  0  0  0
 63140  1  0  0  0
 63141  1  0  0  0
 63142  1  0  0  0
 64143  1  0  0  0
 65144  1  0  0  0
 68 79  1  0  0  0
 71 72  2  0  0  0
 71 75  1  0  0  0
 71145  1  0  0  0
 72 76  1  0  0  0
 72146  1  0  0  0
 73 74  1  0  0  0
 73 76  2  0  0  0
 73147  1  0  0  0
 74 75  2  0  0  0
 74 78  1  0  0  0
 75 84  1  0  0  0
 76 85  1  0  0  0
 77 79  2  0  0  0
 77 81  1  0  0  0
 77 82  1  0  0  0
 78 80  2  0  0  0
 78148  1  0  0  0
 79149  1  0  0  0
 80150  1  0  0  0
 81 83  1  0  0  0
 81151  1  0  0  0
 81152  1  0  0  0
 82 85  1  0  0  0
 82153  1  0  0  0
 82154  1  0  0  0
 83 85  1  0  0  0
 83155  1  0  0  0
 83156  1  0  0  0
 84157  1  0  0  0
 84158  1  0  0  0
 84159  1  0  0  0
M  ISO  4   1 100  68 101  79 101  80 100
M  END
> <chiral flag>
0

> <version>
0

> <s_m_source_file>
/data/baiqing/PycharmProjects/Reinvent-master-3.2/result/LINK_invent/BTK/process_docking_weight1_custom_product_contain_oxygen_bond_distance_aromatic_linkinvent_7_9_3/rearranged_h_0121.sdf

> <i_m_source_file_index>
50

> <r_mmod_Potential_Energy-OPLS-2005>
113.096458435059

> <r_mmod_Stretch_Energy-OPLS-2005>
56.4732856750488

> <r_mmod_Bend_Energy-OPLS-2005>
151.638442993164

> <r_mmod_Torsional_Energy-OPLS-2005>
262.901885986328

> <r_mmod_Improper_Torsional_Energy-OPLS-2005>
12.3134670257568

> <r_mmod_Van_der_Waal_Energy-OPLS-2005>
138.74186706543

> <r_mmod_Electrostatic_Energy-OPLS-2005>
-338.432006835938

> <r_mmod_Solvation_Energy-OPLS-2005>
-212.326782226562

> <b_mmod_Minimization_Converged-OPLS-2005>
0

> <r_mmod_RMS_Derivative-OPLS-2005>
4.98656225204468

$$$$
50
                    3D
 Structure written by MMmdl.
159167  0  0  1  0            999 V2000
  -30.6187  -14.6090   20.3255 C   0  0  0  0  0  0
  -30.4370  -12.3296   19.4427 C   0  0  0  0  0  0
  -29.5015  -12.3969   18.2138 C   0  0  0  0  0  0
  -28.0195  -12.2911   18.6352 C   0  0  0  0  0  0
  -27.6399  -13.1961   19.8380 C   0  0  2  0  0  0
  -28.6996  -13.1158   20.9599 C   0  0  0  0  0  0
  -25.2563  -13.8118   20.5697 C   0  0  0  0  0  0
  -24.1810  -13.0421   20.9180 C   0  0  0  0  0  0
  -24.6347  -11.6885   20.8756 C   0  0  0  0  0  0
  -23.9020  -10.4286   21.0404 C   0  0  0  0  0  0
  -24.3602   -9.4216   21.9173 C   0  0  0  0  0  0
  -23.6284   -8.2255   22.0764 C   0  0  0  0  0  0
  -22.4264   -8.0276   21.3551 C   0  0  0  0  0  0
  -21.9887   -9.0244   20.4653 C   0  0  0  0  0  0
  -22.7200  -10.2123   20.3052 C   0  0  0  0  0  0
  -21.6854   -6.0736   22.5275 C   0  0  0  0  0  0
  -21.4015   -6.5642   23.8203 C   0  0  0  0  0  0
  -21.3667   -5.6794   24.9166 C   0  0  0  0  0  0
  -21.6049   -4.3052   24.7214 C   0  0  0  0  0  0
  -21.8814   -3.8146   23.4340 C   0  0  0  0  0  0
  -21.9198   -4.6970   22.3407 C   0  0  0  0  0  0
  -22.7839  -13.5228   21.1846 C   0  0  0  0  0  0
  -22.1651   -4.2153   21.0985 F   0  0  0  0  0  0
  -21.5651   -3.4542   25.7726 F   0  0  0  0  0  0
  -30.0300  -13.3786   20.3888 N   0  0  0  0  0  0
  -26.2940  -12.9234   20.3279 N   0  0  0  0  0  0
  -25.9262  -11.6421   20.5786 N   0  0  0  0  0  0
  -22.0500  -12.8216   22.0412 N   0  0  0  0  0  0
  -25.4311  -15.1847   20.4128 N   0  0  0  0  0  0
  -31.8417  -14.7445   20.3360 O   0  0  0  0  0  0
  -21.6637   -6.8869   21.4225 O   0  0  0  0  0  0
  -22.3525  -14.5555   20.6702 O   0  0  0  0  0  0
  -24.6183  -31.8650   23.2048 C   0  0  0  0  0  0
  -25.9072  -32.4810   23.8372 C   0  0  1  0  0  0
  -27.2328  -27.3946   20.1110 C   0  0  0  0  0  0
  -25.5914  -33.8618   24.2292 N   0  0  0  0  0  0
  -23.4077  -30.4911   21.5460 C   0  0  2  0  0  0
  -24.8572  -28.9630   20.1070 C   0  0  0  0  0  0
  -22.7435  -29.4614   22.4920 C   0  0  0  0  0  0
  -18.0278  -28.1411   22.8469 C   0  0  0  0  0  0
  -24.1488  -36.7310   23.2631 C   0  0  0  0  0  0
  -25.9399  -30.8287   21.3579 C   0  0  0  0  0  0
  -26.0210  -29.4617   20.7032 C   0  0  0  0  0  0
  -27.2138  -28.6900   20.6942 C   0  0  0  0  0  0
  -26.0437  -26.9315   19.4968 C   0  0  0  0  0  0
  -24.8671  -27.7005   19.4976 C   0  0  0  0  0  0
  -23.6215  -29.8350   20.1573 C   0  0  0  0  0  0
  -25.4108  -36.3095   24.0322 C   0  0  1  0  0  0
  -20.5872  -28.3684   23.1301 C   0  0  2  0  0  0
  -20.6796  -26.9420   22.5430 C   0  0  0  0  0  0
  -19.5778  -26.6383   21.5233 C   0  0  0  0  0  0
  -18.1934  -26.7952   22.1597 C   0  0  0  0  0  0
  -19.1534  -28.8858   23.2877 C   0  0  0  0  0  0
  -18.9476  -30.1470   23.8869 C   0  0  0  0  0  0
  -17.6485  -30.6610   24.0571 C   0  0  0  0  0  0
  -25.9042  -34.9469   23.5099 C   0  0  0  0  0  0
  -16.5371  -29.9110   23.6340 C   0  0  0  0  0  0
  -16.7263  -28.6545   23.0310 C   0  0  0  0  0  0
  -26.4492  -31.6606   25.0710 C   0  0  0  0  0  0
  -25.3729  -31.3766   26.1441 C   0  0  0  0  0  0
  -27.0333  -30.3041   24.6105 C   0  0  0  0  0  0
  -27.6041  -32.4351   25.7493 C   0  0  0  0  0  0
  -27.5567  -37.1793   24.8459 C   0  0  0  0  0  0
  -21.4146  -29.3024   22.3675 N   0  0  0  0  0  0
  -26.4275  -37.3793   23.9422 N   0  0  0  0  0  0
  -24.6731  -31.0739   22.0955 N   0  0  0  0  0  0
  -23.4198  -28.8131   23.2960 O   0  0  0  0  0  0
  -28.3777  -26.6006   20.1573 O   0  0  0  0  0  0
  -26.5591  -34.8933   22.4651 O   0  0  0  0  0  0
  -23.5367  -32.1427   23.7413 O   0  0  0  0  0  0
  -29.5275  -18.9025   22.8172 C   0  0  0  0  0  0
  -29.5951  -17.8145   21.9284 C   0  0  0  0  0  0
  -29.6657  -20.2244   22.3492 C   0  0  0  0  0  0
  -29.7871  -18.0303   20.5501 C   0  0  0  0  0  0
  -30.0007  -19.3776   20.0861 C   0  0  0  0  0  0
  -29.9089  -20.4870   20.9843 C   0  0  0  0  0  0
  -29.5547  -16.8944   19.6127 C   0  0  0  0  0  0
  -29.8038  -15.5548   19.5446 C   0  0  0  0  0  0
  -31.7940  -19.6080   18.2904 C   0  0  0  0  0  0
  -30.2940  -19.6723   18.6151 C   0  0  0  0  0  0
  -29.3930  -24.2530   20.5325 C   0  0  0  0  0  0
  -28.1601  -25.1628   20.2325 C   0  0  0  0  0  0
  -29.0198  -22.7454   20.7695 C   0  0  0  0  0  0
  -30.0934  -21.7974   20.5440 O   0  0  0  0  0  0
  -31.4776  -12.4454   19.1303 H   0  0  0  0  0  0
  -30.3704  -11.3514   19.9198 H   0  0  0  0  0  0
  -29.7397  -11.5810   17.5288 H   0  0  0  0  0  0
  -29.6780  -13.3041   17.6402 H   0  0  0  0  0  0
  -27.8396  -11.2486   18.8976 H   0  0  0  0  0  0
  -27.3696  -12.4968   17.7850 H   0  0  0  0  0  0
  -27.6041  -14.2099   19.4560 H   0  0  0  0  0  0
  -28.6868  -12.1334   21.4335 H   0  0  0  0  0  0
  -28.4738  -13.8392   21.7452 H   0  0  0  0  0  0
  -25.2761   -9.5722   22.4714 H   0  0  0  0  0  0
  -24.0023   -7.4663   22.7489 H   0  0  0  0  0  0
  -21.0835   -8.8757   19.8943 H   0  0  0  0  0  0
  -22.3667  -10.9672   19.6169 H   0  0  0  0  0  0
  -21.1978   -7.6139   23.9706 H   0  0  0  0  0  0
  -21.1496   -6.0525   25.9079 H   0  0  0  0  0  0
  -22.0581   -2.7608   23.2836 H   0  0  0  0  0  0
  -22.4108  -11.9871   22.4797 H   0  0  0  0  0  0
  -21.1127  -13.1251   22.2648 H   0  0  0  0  0  0
  -24.6734  -15.8472   20.5340 H   0  0  0  0  0  0
  -26.3000  -15.6250   20.1379 H   0  0  0  0  0  0
  -26.7136  -32.5521   23.1127 H   0  0  0  0  0  0
  -25.0133  -33.9817   25.0476 H   0  0  0  0  0  0
  -22.6960  -31.3082   21.4070 H   0  0  0  0  0  0
  -23.3745  -35.9644   23.3308 H   0  0  0  0  0  0
  -24.3569  -36.8924   22.2039 H   0  0  0  0  0  0
  -23.7272  -37.6522   23.6670 H   0  0  0  0  0  0
  -26.0543  -31.5993   20.5947 H   0  0  0  0  0  0
  -26.8241  -30.8815   21.9804 H   0  0  0  0  0  0
  -28.1077  -29.0716   21.1679 H   0  0  0  0  0  0
  -25.9949  -25.9696   19.0140 H   0  0  0  0  0  0
  -23.9750  -27.3160   19.0244 H   0  0  0  0  0  0
  -23.7347  -30.6202   19.4073 H   0  0  0  0  0  0
  -22.7428  -29.2651   19.8509 H   0  0  0  0  0  0
  -25.1302  -36.1924   25.0817 H   0  0  0  0  0  0
  -20.9972  -28.3289   24.1414 H   0  0  0  0  0  0
  -20.5787  -26.2268   23.3613 H   0  0  0  0  0  0
  -21.6649  -26.7532   22.1159 H   0  0  0  0  0  0
  -19.6987  -25.6300   21.1248 H   0  0  0  0  0  0
  -19.6746  -27.3202   20.6782 H   0  0  0  0  0  0
  -17.4227  -26.6694   21.3971 H   0  0  0  0  0  0
  -18.0305  -26.0127   22.9016 H   0  0  0  0  0  0
  -19.7967  -30.7308   24.2184 H   0  0  0  0  0  0
  -17.5048  -31.6271   24.5213 H   0  0  0  0  0  0
  -15.5373  -30.3008   23.7704 H   0  0  0  0  0  0
  -15.8649  -28.0906   22.6961 H   0  0  0  0  0  0
  -24.5906  -30.7104   25.7812 H   0  0  0  0  0  0
  -24.8923  -32.2956   26.4826 H   0  0  0  0  0  0
  -25.8058  -30.9006   27.0242 H   0  0  0  0  0  0
  -26.2903  -29.6794   24.1121 H   0  0  0  0  0  0
  -27.4082  -29.7284   25.4577 H   0  0  0  0  0  0
  -27.8752  -30.4355   23.9296 H   0  0  0  0  0  0
  -27.2620  -33.3666   26.2021 H   0  0  0  0  0  0
  -28.3887  -32.6890   25.0363 H   0  0  0  0  0  0
  -28.0667  -31.8518   26.5467 H   0  0  0  0  0  0
  -28.2555  -38.0109   24.7510 H   0  0  0  0  0  0
  -28.1073  -36.2625   24.6263 H   0  0  0  0  0  0
  -27.2281  -37.1431   25.8859 H   0  0  0  0  0  0
  -20.9318  -29.8774   21.6921 H   0  0  0  0  0  0
  -26.0145  -38.2862   24.1455 H   0  0  0  0  0  0
  -29.3302  -18.7174   23.8636 H   0  0  0  0  0  0
  -29.4139  -16.8178   22.3085 H   0  0  0  0  0  0
  -29.5974  -21.0402   23.0530 H   0  0  0  0  0  0
  -28.9320  -17.2077   18.7871 H   0  0  0  0  0  0
  -29.3431  -15.1189   18.6741 H   0  0  0  0  0  0
  -32.3652  -20.3297   18.8765 H   0  0  0  0  0  0
  -31.9769  -19.8223   17.2352 H   0  0  0  0  0  0
  -32.1979  -18.6179   18.4972 H   0  0  0  0  0  0
  -29.7498  -19.0006   17.9545 H   0  0  0  0  0  0
  -29.9132  -20.6628   18.3635 H   0  0  0  0  0  0
  -29.9211  -24.6285   21.4115 H   0  0  0  0  0  0
  -30.0891  -24.3308   19.6981 H   0  0  0  0  0  0
  -27.4027  -24.9699   20.9947 H   0  0  0  0  0  0
  -27.7521  -24.8154   19.2850 H   0  0  0  0  0  0
  -28.2106  -22.4703   20.0923 H   0  0  0  0  0  0
  -28.6152  -22.6485   21.7762 H   0  0  0  0  0  0
  1 25  1  0  0  0
  1 30  2  0  0  0
  1 78  1  0  0  0
  2  3  1  0  0  0
  2 25  1  0  0  0
  2 85  1  0  0  0
  2 86  1  0  0  0
  3  4  1  0  0  0
  3 87  1  0  0  0
  3 88  1  0  0  0
  4  5  1  0  0  0
  4 89  1  0  0  0
  4 90  1  0  0  0
  5  6  1  0  0  0
  5 26  1  0  0  0
  5 91  1  0  0  0
  6 25  1  0  0  0
  6 92  1  0  0  0
  6 93  1  0  0  0
  7  8  2  0  0  0
  7 26  1  0  0  0
  7 29  1  0  0  0
  8  9  1  0  0  0
  8 22  1  0  0  0
  9 10  1  0  0  0
  9 27  2  0  0  0
 10 11  2  0  0  0
 10 15  1  0  0  0
 11 12  1  0  0  0
 11 94  1  0  0  0
 12 13  2  0  0  0
 12 95  1  0  0  0
 13 14  1  0  0  0
 13 31  1  0  0  0
 14 15  2  0  0  0
 14 96  1  0  0  0
 15 97  1  0  0  0
 16 17  2  0  0  0
 16 21  1  0  0  0
 16 31  1  0  0  0
 17 18  1  0  0  0
 17 98  1  0  0  0
 18 19  2  0  0  0
 18 99  1  0  0  0
 19 20  1  0  0  0
 19 24  1  0  0  0
 20 21  2  0  0  0
 20100  1  0  0  0
 21 23  1  0  0  0
 22 28  1  0  0  0
 22 32  2  0  0  0
 26 27  1  0  0  0
 28101  1  0  0  0
 28102  1  0  0  0
 29103  1  0  0  0
 29104  1  0  0  0
 33 34  1  0  0  0
 33 66  1  0  0  0
 33 70  2  0  0  0
 34 36  1  0  0  0
 34 59  1  0  0  0
 34105  1  0  0  0
 35 44  2  0  0  0
 35 45  1  0  0  0
 35 68  1  0  0  0
 36 56  1  0  0  0
 36106  1  0  0  0
 37 39  1  0  0  0
 37 47  1  0  0  0
 37 66  1  0  0  0
 37107  1  0  0  0
 38 43  2  0  0  0
 38 46  1  0  0  0
 38 47  1  0  0  0
 39 64  1  0  0  0
 39 67  2  0  0  0
 40 52  1  0  0  0
 40 53  2  0  0  0
 40 58  1  0  0  0
 41108  1  0  0  0
 41109  1  0  0  0
 41110  1  0  0  0
 41 48  1  0  0  0
 42 43  1  0  0  0
 42 66  1  0  0  0
 42111  1  0  0  0
 42112  1  0  0  0
 43 44  1  0  0  0
 44113  1  0  0  0
 45 46  2  0  0  0
 45114  1  0  0  0
 46115  1  0  0  0
 47116  1  0  0  0
 47117  1  0  0  0
 48 56  1  0  0  0
 48 65  1  0  0  0
 48118  1  0  0  0
 49 50  1  0  0  0
 49 53  1  0  0  0
 49 64  1  0  0  0
 49119  1  0  0  0
 50 51  1  0  0  0
 50120  1  0  0  0
 50121  1  0  0  0
 51 52  1  0  0  0
 51122  1  0  0  0
 51123  1  0  0  0
 52124  1  0  0  0
 52125  1  0  0  0
 53 54  1  0  0  0
 54 55  2  0  0  0
 54126  1  0  0  0
 55 57  1  0  0  0
 55127  1  0  0  0
 56 69  2  0  0  0
 57 58  2  0  0  0
 57128  1  0  0  0
 58129  1  0  0  0
 59 60  1  0  0  0
 59 61  1  0  0  0
 59 62  1  0  0  0
 60130  1  0  0  0
 60131  1  0  0  0
 60132  1  0  0  0
 61133  1  0  0  0
 61134  1  0  0  0
 61135  1  0  0  0
 62136  1  0  0  0
 62137  1  0  0  0
 62138  1  0  0  0
 63 65  1  0  0  0
 63139  1  0  0  0
 63140  1  0  0  0
 63141  1  0  0  0
 64142  1  0  0  0
 65143  1  0  0  0
 68 82  1  0  0  0
 71 72  2  0  0  0
 71 73  1  0  0  0
 71144  1  0  0  0
 72 74  1  0  0  0
 72145  1  0  0  0
 73 76  2  0  0  0
 73146  1  0  0  0
 74 75  2  0  0  0
 74 77  1  0  0  0
 75 76  1  0  0  0
 75 80  1  0  0  0
 76 84  1  0  0  0
 77 78  2  0  0  0
 77147  1  0  0  0
 78148  1  0  0  0
 79 80  1  0  0  0
 79149  1  0  0  0
 79150  1  0  0  0
 79151  1  0  0  0
 80152  1  0  0  0
 80153  1  0  0  0
 81 82  1  0  0  0
 81 83  1  0  0  0
 81154  1  0  0  0
 81155  1  0  0  0
 82156  1  0  0  0
 82157  1  0  0  0
 83 84  1  0  0  0
 83158  1  0  0  0
 83159  1  0  0  0
M  ISO  4   1 100  68 101  78 100  82 101
M  END
> <chiral flag>
0

> <version>
0

> <s_m_source_file>
/data/baiqing/PycharmProjects/Reinvent-master-3.2/result/LINK_invent/BTK/process_docking_weight1_custom_product_contain_oxygen_bond_distance_aromatic_linkinvent_7_9_3/rearranged_h_0121.sdf

> <i_m_source_file_index>
51

> <r_mmod_Potential_Energy-OPLS-2005>
175.884765625

> <r_mmod_Stretch_Energy-OPLS-2005>
52.7778663635254

> <r_mmod_Bend_Energy-OPLS-2005>
151.08039855957

> <r_mmod_Torsional_Energy-OPLS-2005>
278.426177978516

> <r_mmod_Improper_Torsional_Energy-OPLS-2005>
27.3947620391846

> <r_mmod_Van_der_Waal_Energy-OPLS-2005>
151.079696655273

> <r_mmod_Electrostatic_Energy-OPLS-2005>
-336.892944335938

> <r_mmod_Solvation_Energy-OPLS-2005>
-200.454574584961

> <b_mmod_Minimization_Converged-OPLS-2005>
0

> <r_mmod_RMS_Derivative-OPLS-2005>
4.00062227249146

$$$$
51
                    3D
 Structure written by MMmdl.
156164  0  0  1  0            999 V2000
  -30.7551  -14.3897   20.5667 C   0  0  0  0  0  0
  -30.4048  -12.2514   19.4314 C   0  0  0  0  0  0
  -29.4992  -12.5067   18.2106 C   0  0  0  0  0  0
  -28.0144  -12.3885   18.6094 C   0  0  0  0  0  0
  -27.6665  -13.2124   19.8806 C   0  0  2  0  0  0
  -28.7020  -12.9780   21.0029 C   0  0  0  0  0  0
  -25.2609  -13.8167   20.5681 C   0  0  0  0  0  0
  -24.1860  -13.0437   20.9161 C   0  0  0  0  0  0
  -24.6423  -11.6906   20.8715 C   0  0  0  0  0  0
  -23.9081  -10.4296   21.0386 C   0  0  0  0  0  0
  -24.3634   -9.4222   21.9173 C   0  0  0  0  0  0
  -23.6309   -8.2257   22.0753 C   0  0  0  0  0  0
  -22.4286   -8.0288   21.3548 C   0  0  0  0  0  0
  -21.9922   -9.0263   20.4647 C   0  0  0  0  0  0
  -22.7252  -10.2140   20.3049 C   0  0  0  0  0  0
  -21.6859   -6.0745   22.5286 C   0  0  0  0  0  0
  -21.4018   -6.5638   23.8223 C   0  0  0  0  0  0
  -21.3660   -5.6790   24.9180 C   0  0  0  0  0  0
  -21.6043   -4.3056   24.7225 C   0  0  0  0  0  0
  -21.8818   -3.8148   23.4348 C   0  0  0  0  0  0
  -21.9198   -4.6969   22.3408 C   0  0  0  0  0  0
  -22.7879  -13.5236   21.1824 C   0  0  0  0  0  0
  -22.1658   -4.2158   21.0987 F   0  0  0  0  0  0
  -21.5639   -3.4537   25.7738 F   0  0  0  0  0  0
  -30.0439  -13.2375   20.4605 N   0  0  0  0  0  0
  -26.3058  -12.9354   20.3373 N   0  0  0  0  0  0
  -25.9351  -11.6502   20.5740 N   0  0  0  0  0  0
  -22.0516  -12.8244   22.0386 N   0  0  0  0  0  0
  -25.4334  -15.1876   20.4118 N   0  0  0  0  0  0
  -31.8907  -14.5079   20.0956 O   0  0  0  0  0  0
  -21.6646   -6.8886   21.4243 O   0  0  0  0  0  0
  -22.3579  -14.5552   20.6681 O   0  0  0  0  0  0
  -24.6120  -31.8707   23.2138 C   0  0  0  0  0  0
  -25.9022  -32.4831   23.8417 C   0  0  1  0  0  0
  -27.2272  -27.4569   20.0763 C   0  0  0  0  0  0
  -25.5896  -33.8637   24.2346 N   0  0  0  0  0  0
  -23.3974  -30.4963   21.5553 C   0  0  2  0  0  0
  -24.8385  -28.9683   20.1139 C   0  0  0  0  0  0
  -22.7403  -29.4657   22.5017 C   0  0  0  0  0  0
  -18.0263  -28.1366   22.8495 C   0  0  0  0  0  0
  -24.1484  -36.7323   23.2633 C   0  0  0  0  0  0
  -25.9246  -30.8405   21.3636 C   0  0  0  0  0  0
  -25.9984  -29.4773   20.7099 C   0  0  0  0  0  0
  -27.1931  -28.7269   20.6916 C   0  0  0  0  0  0
  -26.0488  -26.9652   19.4645 C   0  0  0  0  0  0
  -24.8575  -27.7105   19.4908 C   0  0  0  0  0  0
  -23.6026  -29.8346   20.1672 C   0  0  0  0  0  0
  -25.4097  -36.3120   24.0337 C   0  0  1  0  0  0
  -20.5852  -28.3644   23.1340 C   0  0  2  0  0  0
  -20.6750  -26.9385   22.5427 C   0  0  0  0  0  0
  -19.5724  -26.6382   21.5224 C   0  0  0  0  0  0
  -18.1906  -26.7913   22.1631 C   0  0  0  0  0  0
  -19.1511  -28.8823   23.2912 C   0  0  0  0  0  0
  -18.9436  -30.1434   23.8912 C   0  0  0  0  0  0
  -17.6437  -30.6570   24.0566 C   0  0  0  0  0  0
  -25.9036  -34.9482   23.5138 C   0  0  0  0  0  0
  -16.5331  -29.9076   23.6313 C   0  0  0  0  0  0
  -16.7253  -28.6498   23.0330 C   0  0  0  0  0  0
  -26.4457  -31.6590   25.0729 C   0  0  0  0  0  0
  -25.3751  -31.3671   26.1497 C   0  0  0  0  0  0
  -27.0264  -30.3032   24.6063 C   0  0  0  0  0  0
  -27.6031  -32.4305   25.7494 C   0  0  0  0  0  0
  -27.5582  -37.1811   24.8458 C   0  0  0  0  0  0
  -21.4135  -29.3024   22.3764 N   0  0  0  0  0  0
  -26.4279  -37.3807   23.9424 N   0  0  0  0  0  0
  -24.6629  -31.0828   22.1027 N   0  0  0  0  0  0
  -23.4198  -28.8193   23.3030 O   0  0  0  0  0  0
  -28.4142  -26.7577   20.0929 O   0  0  0  0  0  0
  -26.5600  -34.8926   22.4703 O   0  0  0  0  0  0
  -23.5322  -32.1445   23.7558 O   0  0  0  0  0  0
  -29.4879  -19.9136   22.1269 C   0  0  0  0  0  0
  -29.6863  -18.5364   21.9019 C   0  0  0  0  0  0
  -29.1682  -20.2575   19.7438 C   0  0  0  0  0  0
  -29.2687  -20.7927   21.0452 C   0  0  0  0  0  0
  -29.6916  -18.0262   20.5871 C   0  0  0  0  0  0
  -29.3635  -18.8838   19.5095 C   0  0  0  0  0  0
  -29.2574  -22.2453   21.2785 C   0  0  0  0  0  0
  -30.1247  -16.6532   20.3097 C   0  0  0  0  0  0
  -30.0612  -15.5537   21.0870 C   0  0  0  0  0  0
  -29.4893  -23.1771   20.3350 C   0  0  0  0  0  0
  -29.2621  -18.3697   18.0817 C   0  0  0  0  0  0
  -29.4892  -24.6709   20.5767 C   0  0  0  0  0  0
  -28.3879  -25.3675   19.7763 C   0  0  0  0  0  0
  -31.4568  -12.2964   19.1422 H   0  0  0  0  0  0
  -30.2548  -11.2406   19.8124 H   0  0  0  0  0  0
  -29.7341  -11.7996   17.4150 H   0  0  0  0  0  0
  -29.6959  -13.5003   17.8030 H   0  0  0  0  0  0
  -27.8045  -11.3325   18.7793 H   0  0  0  0  0  0
  -27.3777  -12.6960   17.7786 H   0  0  0  0  0  0
  -27.7190  -14.2656   19.6042 H   0  0  0  0  0  0
  -28.6505  -11.9461   21.3534 H   0  0  0  0  0  0
  -28.4768  -13.5905   21.8764 H   0  0  0  0  0  0
  -25.2788   -9.5709   22.4738 H   0  0  0  0  0  0
  -24.0031   -7.4653   22.7471 H   0  0  0  0  0  0
  -21.0859   -8.8778   19.8956 H   0  0  0  0  0  0
  -22.3707  -10.9678   19.6155 H   0  0  0  0  0  0
  -21.2002   -7.6146   23.9736 H   0  0  0  0  0  0
  -21.1479   -6.0511   25.9090 H   0  0  0  0  0  0
  -22.0595   -2.7609   23.2841 H   0  0  0  0  0  0
  -22.4105  -11.9897   22.4779 H   0  0  0  0  0  0
  -21.1131  -13.1284   22.2561 H   0  0  0  0  0  0
  -24.6722  -15.8457   20.5375 H   0  0  0  0  0  0
  -26.3020  -15.6314   20.1391 H   0  0  0  0  0  0
  -26.7098  -32.5545   23.1190 H   0  0  0  0  0  0
  -25.0040  -33.9814   25.0484 H   0  0  0  0  0  0
  -22.6827  -31.3111   21.4223 H   0  0  0  0  0  0
  -23.3746  -35.9657   23.3282 H   0  0  0  0  0  0
  -24.3592  -36.8952   22.2052 H   0  0  0  0  0  0
  -23.7229  -37.6522   23.6653 H   0  0  0  0  0  0
  -26.0342  -31.6068   20.5949 H   0  0  0  0  0  0
  -26.8151  -30.8942   21.9780 H   0  0  0  0  0  0
  -28.0902  -29.1185   21.1510 H   0  0  0  0  0  0
  -26.0265  -26.0187   18.9451 H   0  0  0  0  0  0
  -23.9676  -27.3175   19.0179 H   0  0  0  0  0  0
  -23.7131  -30.6132   19.4110 H   0  0  0  0  0  0
  -22.7259  -29.2567   19.8697 H   0  0  0  0  0  0
  -25.1264  -36.1983   25.0827 H   0  0  0  0  0  0
  -20.9930  -28.3194   24.1465 H   0  0  0  0  0  0
  -20.5658  -26.2248   23.3610 H   0  0  0  0  0  0
  -21.6617  -26.7441   22.1208 H   0  0  0  0  0  0
  -19.6878  -25.6305   21.1223 H   0  0  0  0  0  0
  -19.6652  -27.3220   20.6776 H   0  0  0  0  0  0
  -17.4183  -26.6674   21.4026 H   0  0  0  0  0  0
  -18.0289  -26.0046   22.9016 H   0  0  0  0  0  0
  -19.7913  -30.7251   24.2280 H   0  0  0  0  0  0
  -17.4989  -31.6249   24.5174 H   0  0  0  0  0  0
  -15.5328  -30.2984   23.7620 H   0  0  0  0  0  0
  -15.8655  -28.0837   22.7006 H   0  0  0  0  0  0
  -24.5934  -30.6993   25.7855 H   0  0  0  0  0  0
  -24.8933  -32.2816   26.4968 H   0  0  0  0  0  0
  -25.8145  -30.8846   27.0239 H   0  0  0  0  0  0
  -26.2785  -29.6827   24.1107 H   0  0  0  0  0  0
  -27.4031  -29.7216   25.4488 H   0  0  0  0  0  0
  -27.8625  -30.4345   23.9191 H   0  0  0  0  0  0
  -27.2634  -33.3592   26.2088 H   0  0  0  0  0  0
  -28.3830  -32.6886   25.0319 H   0  0  0  0  0  0
  -28.0701  -31.8421   26.5402 H   0  0  0  0  0  0
  -28.2573  -38.0135   24.7548 H   0  0  0  0  0  0
  -28.1104  -36.2675   24.6212 H   0  0  0  0  0  0
  -27.2327  -37.1373   25.8866 H   0  0  0  0  0  0
  -20.9287  -29.8779   21.7023 H   0  0  0  0  0  0
  -26.0165  -38.2880   24.1446 H   0  0  0  0  0  0
  -29.5676  -20.2999   23.1334 H   0  0  0  0  0  0
  -29.9211  -17.8945   22.7395 H   0  0  0  0  0  0
  -28.9699  -20.9031   18.9008 H   0  0  0  0  0  0
  -29.0430  -22.5663   22.2889 H   0  0  0  0  0  0
  -30.6268  -16.5525   19.3565 H   0  0  0  0  0  0
  -29.5682  -15.5482   22.0478 H   0  0  0  0  0  0
  -29.7037  -22.8851   19.3169 H   0  0  0  0  0  0
  -28.7625  -19.0917   17.4352 H   0  0  0  0  0  0
  -28.6874  -17.4430   18.0407 H   0  0  0  0  0  0
  -30.2539  -18.1817   17.6700 H   0  0  0  0  0  0
  -30.4663  -25.0703   20.3043 H   0  0  0  0  0  0
  -29.3527  -24.8710   21.6400 H   0  0  0  0  0  0
  -27.4478  -24.8874   20.0508 H   0  0  0  0  0  0
  -28.5359  -25.2327   18.7029 H   0  0  0  0  0  0
  1 25  1  0  0  0
  1 30  2  0  0  0
  1 79  1  0  0  0
  2  3  1  0  0  0
  2 25  1  0  0  0
  2 84  1  0  0  0
  2 85  1  0  0  0
  3  4  1  0  0  0
  3 86  1  0  0  0
  3 87  1  0  0  0
  4  5  1  0  0  0
  4 88  1  0  0  0
  4 89  1  0  0  0
  5  6  1  0  0  0
  5 26  1  0  0  0
  5 90  1  0  0  0
  6 25  1  0  0  0
  6 91  1  0  0  0
  6 92  1  0  0  0
  7  8  2  0  0  0
  7 26  1  0  0  0
  7 29  1  0  0  0
  8  9  1  0  0  0
  8 22  1  0  0  0
  9 10  1  0  0  0
  9 27  2  0  0  0
 10 11  2  0  0  0
 10 15  1  0  0  0
 11 12  1  0  0  0
 11 93  1  0  0  0
 12 13  2  0  0  0
 12 94  1  0  0  0
 13 14  1  0  0  0
 13 31  1  0  0  0
 14 15  2  0  0  0
 14 95  1  0  0  0
 15 96  1  0  0  0
 16 17  2  0  0  0
 16 21  1  0  0  0
 16 31  1  0  0  0
 17 18  1  0  0  0
 17 97  1  0  0  0
 18 19  2  0  0  0
 18 98  1  0  0  0
 19 20  1  0  0  0
 19 24  1  0  0  0
 20 21  2  0  0  0
 20 99  1  0  0  0
 21 23  1  0  0  0
 22 28  1  0  0  0
 22 32  2  0  0  0
 26 27  1  0  0  0
 28100  1  0  0  0
 28101  1  0  0  0
 29102  1  0  0  0
 29103  1  0  0  0
 33 34  1  0  0  0
 33 66  1  0  0  0
 33 70  2  0  0  0
 34 36  1  0  0  0
 34 59  1  0  0  0
 34104  1  0  0  0
 35 44  2  0  0  0
 35 45  1  0  0  0
 35 68  1  0  0  0
 36 56  1  0  0  0
 36105  1  0  0  0
 37 39  1  0  0  0
 37 47  1  0  0  0
 37 66  1  0  0  0
 37106  1  0  0  0
 38 43  2  0  0  0
 38 46  1  0  0  0
 38 47  1  0  0  0
 39 64  1  0  0  0
 39 67  2  0  0  0
 40 52  1  0  0  0
 40 53  2  0  0  0
 40 58  1  0  0  0
 41107  1  0  0  0
 41108  1  0  0  0
 41109  1  0  0  0
 41 48  1  0  0  0
 42 43  1  0  0  0
 42 66  1  0  0  0
 42110  1  0  0  0
 42111  1  0  0  0
 43 44  1  0  0  0
 44112  1  0  0  0
 45 46  2  0  0  0
 45113  1  0  0  0
 46114  1  0  0  0
 47115  1  0  0  0
 47116  1  0  0  0
 48 56  1  0  0  0
 48 65  1  0  0  0
 48117  1  0  0  0
 49 50  1  0  0  0
 49 53  1  0  0  0
 49 64  1  0  0  0
 49118  1  0  0  0
 50 51  1  0  0  0
 50119  1  0  0  0
 50120  1  0  0  0
 51 52  1  0  0  0
 51121  1  0  0  0
 51122  1  0  0  0
 52123  1  0  0  0
 52124  1  0  0  0
 53 54  1  0  0  0
 54 55  2  0  0  0
 54125  1  0  0  0
 55 57  1  0  0  0
 55126  1  0  0  0
 56 69  2  0  0  0
 57 58  2  0  0  0
 57127  1  0  0  0
 58128  1  0  0  0
 59 60  1  0  0  0
 59 61  1  0  0  0
 59 62  1  0  0  0
 60129  1  0  0  0
 60130  1  0  0  0
 60131  1  0  0  0
 61132  1  0  0  0
 61133  1  0  0  0
 61134  1  0  0  0
 62135  1  0  0  0
 62136  1  0  0  0
 62137  1  0  0  0
 63 65  1  0  0  0
 63138  1  0  0  0
 63139  1  0  0  0
 63140  1  0  0  0
 64141  1  0  0  0
 65142  1  0  0  0
 68 83  1  0  0  0
 71 72  2  0  0  0
 71 74  1  0  0  0
 71143  1  0  0  0
 72 75  1  0  0  0
 72144  1  0  0  0
 73 74  2  0  0  0
 73 76  1  0  0  0
 73145  1  0  0  0
 74 77  1  0  0  0
 75 76  2  0  0  0
 75 78  1  0  0  0
 76 81  1  0  0  0
 77 80  2  0  0  0
 77146  1  0  0  0
 78 79  2  0  0  0
 78147  1  0  0  0
 79148  1  0  0  0
 80 82  1  0  0  0
 80149  1  0  0  0
 81150  1  0  0  0
 81151  1  0  0  0
 81152  1  0  0  0
 82 83  1  0  0  0
 82153  1  0  0  0
 82154  1  0  0  0
 83155  1  0  0  0
 83156  1  0  0  0
M  ISO  4   1 100  68 101  79 100  83 101
M  END
> <chiral flag>
0

> <version>
0

> <s_m_source_file>
/data/baiqing/PycharmProjects/Reinvent-master-3.2/result/LINK_invent/BTK/process_docking_weight1_custom_product_contain_oxygen_bond_distance_aromatic_linkinvent_7_9_3/rearranged_h_0121.sdf

> <i_m_source_file_index>
52

> <r_mmod_Potential_Energy-OPLS-2005>
-13.907190322876

> <r_mmod_Stretch_Energy-OPLS-2005>
31.1868381500244

> <r_mmod_Bend_Energy-OPLS-2005>
98.5071716308594

> <r_mmod_Torsional_Energy-OPLS-2005>
200.145690917969

> <r_mmod_Improper_Torsional_Energy-OPLS-2005>
5.40911722183228

> <r_mmod_Van_der_Waal_Energy-OPLS-2005>
167.818801879883

> <r_mmod_Electrostatic_Energy-OPLS-2005>
-340.814056396484

> <r_mmod_Solvation_Energy-OPLS-2005>
-189.276382446289

> <b_mmod_Minimization_Converged-OPLS-2005>
0

> <r_mmod_RMS_Derivative-OPLS-2005>
1.69844627380371

$$$$
52
                    3D
 Structure written by MMmdl.
163171  0  0  1  0            999 V2000
  -30.6166  -14.5690   20.5249 C   0  0  0  0  0  0
  -30.4429  -12.3553   19.4258 C   0  0  0  0  0  0
  -29.5026  -12.4997   18.2089 C   0  0  0  0  0  0
  -28.0243  -12.3377   18.6225 C   0  0  0  0  0  0
  -27.6534  -13.1962   19.8611 C   0  0  2  0  0  0
  -28.6991  -13.0144   20.9847 C   0  0  0  0  0  0
  -25.2579  -13.8124   20.5649 C   0  0  0  0  0  0
  -24.1823  -13.0415   20.9161 C   0  0  0  0  0  0
  -24.6367  -11.6885   20.8725 C   0  0  0  0  0  0
  -23.9032  -10.4281   21.0405 C   0  0  0  0  0  0
  -24.3597   -9.4206   21.9185 C   0  0  0  0  0  0
  -23.6277   -8.2241   22.0759 C   0  0  0  0  0  0
  -22.4261   -8.0274   21.3546 C   0  0  0  0  0  0
  -21.9887   -9.0246   20.4649 C   0  0  0  0  0  0
  -22.7208  -10.2127   20.3055 C   0  0  0  0  0  0
  -21.6851   -6.0728   22.5281 C   0  0  0  0  0  0
  -21.4017   -6.5635   23.8217 C   0  0  0  0  0  0
  -21.3659   -5.6790   24.9181 C   0  0  0  0  0  0
  -21.6047   -4.3055   24.7230 C   0  0  0  0  0  0
  -21.8817   -3.8140   23.4352 C   0  0  0  0  0  0
  -21.9193   -4.6955   22.3407 C   0  0  0  0  0  0
  -22.7859  -13.5247   21.1832 C   0  0  0  0  0  0
  -22.1659   -4.2144   21.0983 F   0  0  0  0  0  0
  -21.5626   -3.4536   25.7742 F   0  0  0  0  0  0
  -30.0159  -13.3501   20.4197 N   0  0  0  0  0  0
  -26.2978  -12.9261   20.3297 N   0  0  0  0  0  0
  -25.9287  -11.6443   20.5733 N   0  0  0  0  0  0
  -22.0491  -12.8256   22.0390 N   0  0  0  0  0  0
  -25.4282  -15.1843   20.4068 N   0  0  0  0  0  0
  -31.7953  -14.7640   20.2114 O   0  0  0  0  0  0
  -21.6628   -6.8869   21.4243 O   0  0  0  0  0  0
  -22.3559  -14.5557   20.6677 O   0  0  0  0  0  0
  -24.6171  -31.8682   23.2054 C   0  0  0  0  0  0
  -25.9056  -32.4816   23.8386 C   0  0  1  0  0  0
  -27.2315  -27.3993   20.1130 C   0  0  0  0  0  0
  -25.5903  -33.8620   24.2316 N   0  0  0  0  0  0
  -23.4084  -30.4869   21.5502 C   0  0  2  0  0  0
  -24.8545  -28.9477   20.1140 C   0  0  0  0  0  0
  -22.7447  -29.4626   22.4994 C   0  0  0  0  0  0
  -18.0291  -28.1366   22.8493 C   0  0  0  0  0  0
  -24.1503  -36.7337   23.2625 C   0  0  0  0  0  0
  -25.9382  -30.8258   21.3594 C   0  0  0  0  0  0
  -26.0167  -29.4554   20.7091 C   0  0  0  0  0  0
  -27.2106  -28.6907   20.6983 C   0  0  0  0  0  0
  -26.0526  -26.9139   19.5097 C   0  0  0  0  0  0
  -24.8699  -27.6793   19.5062 C   0  0  0  0  0  0
  -23.6188  -29.8190   20.1639 C   0  0  0  0  0  0
  -25.4113  -36.3106   24.0317 C   0  0  1  0  0  0
  -20.5885  -28.3649   23.1326 C   0  0  2  0  0  0
  -20.6779  -26.9380   22.5418 C   0  0  0  0  0  0
  -19.5748  -26.6365   21.5213 C   0  0  0  0  0  0
  -18.1926  -26.7916   22.1620 C   0  0  0  0  0  0
  -19.1538  -28.8821   23.2903 C   0  0  0  0  0  0
  -18.9460  -30.1431   23.8899 C   0  0  0  0  0  0
  -17.6457  -30.6561   24.0557 C   0  0  0  0  0  0
  -25.9039  -34.9464   23.5103 C   0  0  0  0  0  0
  -16.5355  -29.9063   23.6312 C   0  0  0  0  0  0
  -16.7278  -28.6489   23.0325 C   0  0  0  0  0  0
  -26.4466  -31.6601   25.0727 C   0  0  0  0  0  0
  -25.3707  -31.3737   26.1464 C   0  0  0  0  0  0
  -27.0291  -30.3034   24.6104 C   0  0  0  0  0  0
  -27.6050  -32.4325   25.7485 C   0  0  0  0  0  0
  -27.5591  -37.1817   24.8444 C   0  0  0  0  0  0
  -21.4174  -29.3021   22.3741 N   0  0  0  0  0  0
  -26.4295  -37.3789   23.9399 N   0  0  0  0  0  0
  -24.6738  -31.0745   22.0978 N   0  0  0  0  0  0
  -23.4197  -28.8158   23.3040 O   0  0  0  0  0  0
  -28.3832  -26.6321   20.1106 O   0  0  0  0  0  0
  -26.5587  -34.8910   22.4663 O   0  0  0  0  0  0
  -23.5355  -32.1480   23.7401 O   0  0  0  0  0  0
  -29.8444  -18.0966   20.5808 C   0  0  0  0  0  0
  -29.8012  -16.9157   22.7017 C   0  0  0  0  0  0
  -29.7905  -19.3679   21.2360 C   0  0  0  0  0  0
  -29.7169  -18.1438   23.3852 C   0  0  0  0  0  0
  -29.7442  -19.3738   22.6667 C   0  0  0  0  0  0
  -29.8765  -16.8683   21.3013 C   0  0  0  0  0  0
  -29.7693  -20.6152   20.3824 C   0  0  0  0  0  0
  -29.2483  -21.8548   20.6163 C   0  0  0  0  0  0
  -29.7558  -20.6851   23.4468 C   0  0  0  0  0  0
  -30.9201  -18.0326   25.6285 C   0  0  0  0  0  0
  -29.5682  -18.0725   24.9023 C   0  0  0  0  0  0
  -29.4133  -23.0789   19.6914 C   0  0  0  0  0  0
  -28.2412  -24.1192   19.6333 C   0  0  0  0  0  0
  -28.2846  -25.2921   20.6621 C   0  0  0  0  0  0
  -29.7298  -15.5860   20.6775 N   0  0  0  0  0  0
  -31.4815  -12.4995   19.1208 H   0  0  0  0  0  0
  -30.3860  -11.3503   19.8458 H   0  0  0  0  0  0
  -29.7605  -11.7657   17.4437 H   0  0  0  0  0  0
  -29.6467  -13.4804   17.7517 H   0  0  0  0  0  0
  -27.8531  -11.2822   18.8378 H   0  0  0  0  0  0
  -27.3720  -12.5831   17.7834 H   0  0  0  0  0  0
  -27.6779  -14.2334   19.5292 H   0  0  0  0  0  0
  -28.6988  -11.9851   21.3467 H   0  0  0  0  0  0
  -28.4572  -13.6327   21.8512 H   0  0  0  0  0  0
  -25.2743   -9.5688   22.4757 H   0  0  0  0  0  0
  -23.9990   -7.4639   22.7485 H   0  0  0  0  0  0
  -21.0818   -8.8763   19.8959 H   0  0  0  0  0  0
  -22.3666  -10.9665   19.6167 H   0  0  0  0  0  0
  -21.2009   -7.6145   23.9724 H   0  0  0  0  0  0
  -21.1485   -6.0515   25.9086 H   0  0  0  0  0  0
  -22.0593   -2.7599   23.2854 H   0  0  0  0  0  0
  -22.4084  -11.9909   22.4777 H   0  0  0  0  0  0
  -21.1127  -13.1321   22.2619 H   0  0  0  0  0  0
  -24.6547  -15.8320   20.5139 H   0  0  0  0  0  0
  -26.2748  -15.6371   20.0871 H   0  0  0  0  0  0
  -26.7143  -32.5535   23.1170 H   0  0  0  0  0  0
  -25.0077  -33.9804   25.0477 H   0  0  0  0  0  0
  -22.6951  -31.3007   21.4064 H   0  0  0  0  0  0
  -23.3741  -35.9690   23.3271 H   0  0  0  0  0  0
  -24.3607  -36.8983   22.2041 H   0  0  0  0  0  0
  -23.7294  -37.6542   23.6681 H   0  0  0  0  0  0
  -26.0452  -31.5883   20.5869 H   0  0  0  0  0  0
  -26.8275  -30.8918   21.9739 H   0  0  0  0  0  0
  -28.1102  -29.0798   21.1553 H   0  0  0  0  0  0
  -26.0528  -25.9426   19.0360 H   0  0  0  0  0  0
  -23.9773  -27.2855   19.0375 H   0  0  0  0  0  0
  -23.7318  -30.5951   19.4050 H   0  0  0  0  0  0
  -22.7430  -29.2403   19.8636 H   0  0  0  0  0  0
  -25.1300  -36.1959   25.0809 H   0  0  0  0  0  0
  -20.9978  -28.3209   24.1450 H   0  0  0  0  0  0
  -20.5705  -26.2257   23.3612 H   0  0  0  0  0  0
  -21.6652  -26.7438   22.1189 H   0  0  0  0  0  0
  -19.6907  -25.6268   21.1250 H   0  0  0  0  0  0
  -19.6673  -27.3172   20.6730 H   0  0  0  0  0  0
  -17.4209  -26.6666   21.4005 H   0  0  0  0  0  0
  -18.0298  -26.0054   22.9006 H   0  0  0  0  0  0
  -19.7931  -30.7247   24.2279 H   0  0  0  0  0  0
  -17.5013  -31.6250   24.5141 H   0  0  0  0  0  0
  -15.5357  -30.2957   23.7645 H   0  0  0  0  0  0
  -15.8685  -28.0824   22.7012 H   0  0  0  0  0  0
  -24.5899  -30.7046   25.7834 H   0  0  0  0  0  0
  -24.8846  -32.2894   26.4833 H   0  0  0  0  0  0
  -25.8034  -30.8987   27.0274 H   0  0  0  0  0  0
  -26.2841  -29.6807   24.1132 H   0  0  0  0  0  0
  -27.4050  -29.7240   25.4549 H   0  0  0  0  0  0
  -27.8679  -30.4347   23.9266 H   0  0  0  0  0  0
  -27.2692  -33.3645   26.2040 H   0  0  0  0  0  0
  -28.3865  -32.6852   25.0318 H   0  0  0  0  0  0
  -28.0709  -31.8464   26.5418 H   0  0  0  0  0  0
  -28.2568  -38.0148   24.7523 H   0  0  0  0  0  0
  -28.1137  -36.2679   24.6245 H   0  0  0  0  0  0
  -27.2319  -37.1433   25.8846 H   0  0  0  0  0  0
  -20.9348  -29.8803   21.7006 H   0  0  0  0  0  0
  -26.0173  -38.2859   24.1416 H   0  0  0  0  0  0
  -29.8305  -18.0637   19.5007 H   0  0  0  0  0  0
  -29.7617  -15.9923   23.2638 H   0  0  0  0  0  0
  -30.3017  -20.5098   19.4473 H   0  0  0  0  0  0
  -28.6959  -22.0549   21.5195 H   0  0  0  0  0  0
  -30.3900  -21.4289   22.9663 H   0  0  0  0  0  0
  -30.1588  -20.5785   24.4515 H   0  0  0  0  0  0
  -28.7445  -21.0798   23.5369 H   0  0  0  0  0  0
  -30.7722  -17.9712   26.7068 H   0  0  0  0  0  0
  -31.5144  -18.9234   25.4265 H   0  0  0  0  0  0
  -31.5085  -17.1652   25.3279 H   0  0  0  0  0  0
  -29.0075  -17.1707   25.1547 H   0  0  0  0  0  0
  -28.9497  -18.8889   25.2759 H   0  0  0  0  0  0
  -29.5973  -22.7092   18.6815 H   0  0  0  0  0  0
  -30.3271  -23.5972   19.9787 H   0  0  0  0  0  0
  -27.2882  -23.5938   19.7081 H   0  0  0  0  0  0
  -28.2267  -24.5681   18.6391 H   0  0  0  0  0  0
  -29.1504  -25.1538   21.3093 H   0  0  0  0  0  0
  -27.4246  -25.2178   21.3304 H   0  0  0  0  0  0
  -28.7831  -15.2416   20.6898 H   0  0  0  0  0  0
  1 25  1  0  0  0
  1 30  2  0  0  0
  1 85  1  0  0  0
  2  3  1  0  0  0
  2 25  1  0  0  0
  2 86  1  0  0  0
  2 87  1  0  0  0
  3  4  1  0  0  0
  3 88  1  0  0  0
  3 89  1  0  0  0
  4  5  1  0  0  0
  4 90  1  0  0  0
  4 91  1  0  0  0
  5  6  1  0  0  0
  5 26  1  0  0  0
  5 92  1  0  0  0
  6 25  1  0  0  0
  6 93  1  0  0  0
  6 94  1  0  0  0
  7  8  2  0  0  0
  7 26  1  0  0  0
  7 29  1  0  0  0
  8  9  1  0  0  0
  8 22  1  0  0  0
  9 10  1  0  0  0
  9 27  2  0  0  0
 10 11  2  0  0  0
 10 15  1  0  0  0
 11 12  1  0  0  0
 11 95  1  0  0  0
 12 13  2  0  0  0
 12 96  1  0  0  0
 13 14  1  0  0  0
 13 31  1  0  0  0
 14 15  2  0  0  0
 14 97  1  0  0  0
 15 98  1  0  0  0
 16 17  2  0  0  0
 16 21  1  0  0  0
 16 31  1  0  0  0
 17 18  1  0  0  0
 17 99  1  0  0  0
 18 19  2  0  0  0
 18100  1  0  0  0
 19 20  1  0  0  0
 19 24  1  0  0  0
 20 21  2  0  0  0
 20101  1  0  0  0
 21 23  1  0  0  0
 22 28  1  0  0  0
 22 32  2  0  0  0
 26 27  1  0  0  0
 28102  1  0  0  0
 28103  1  0  0  0
 29104  1  0  0  0
 29105  1  0  0  0
 33 34  1  0  0  0
 33 66  1  0  0  0
 33 70  2  0  0  0
 34 36  1  0  0  0
 34 59  1  0  0  0
 34106  1  0  0  0
 35 44  2  0  0  0
 35 45  1  0  0  0
 35 68  1  0  0  0
 36 56  1  0  0  0
 36107  1  0  0  0
 37 39  1  0  0  0
 37 47  1  0  0  0
 37 66  1  0  0  0
 37108  1  0  0  0
 38 43  2  0  0  0
 38 46  1  0  0  0
 38 47  1  0  0  0
 39 64  1  0  0  0
 39 67  2  0  0  0
 40 52  1  0  0  0
 40 53  2  0  0  0
 40 58  1  0  0  0
 41109  1  0  0  0
 41110  1  0  0  0
 41111  1  0  0  0
 41 48  1  0  0  0
 42 43  1  0  0  0
 42 66  1  0  0  0
 42112  1  0  0  0
 42113  1  0  0  0
 43 44  1  0  0  0
 44114  1  0  0  0
 45 46  2  0  0  0
 45115  1  0  0  0
 46116  1  0  0  0
 47117  1  0  0  0
 47118  1  0  0  0
 48 56  1  0  0  0
 48 65  1  0  0  0
 48119  1  0  0  0
 49 50  1  0  0  0
 49 53  1  0  0  0
 49 64  1  0  0  0
 49120  1  0  0  0
 50 51  1  0  0  0
 50121  1  0  0  0
 50122  1  0  0  0
 51 52  1  0  0  0
 51123  1  0  0  0
 51124  1  0  0  0
 52125  1  0  0  0
 52126  1  0  0  0
 53 54  1  0  0  0
 54 55  2  0  0  0
 54127  1  0  0  0
 55 57  1  0  0  0
 55128  1  0  0  0
 56 69  2  0  0  0
 57 58  2  0  0  0
 57129  1  0  0  0
 58130  1  0  0  0
 59 60  1  0  0  0
 59 61  1  0  0  0
 59 62  1  0  0  0
 60131  1  0  0  0
 60132  1  0  0  0
 60133  1  0  0  0
 61134  1  0  0  0
 61135  1  0  0  0
 61136  1  0  0  0
 62137  1  0  0  0
 62138  1  0  0  0
 62139  1  0  0  0
 63 65  1  0  0  0
 63140  1  0  0  0
 63141  1  0  0  0
 63142  1  0  0  0
 64143  1  0  0  0
 65144  1  0  0  0
 68 84  1  0  0  0
 71 73  2  0  0  0
 71 76  1  0  0  0
 71145  1  0  0  0
 72 74  1  0  0  0
 72 76  2  0  0  0
 72146  1  0  0  0
 73 75  1  0  0  0
 73 77  1  0  0  0
 74 75  2  0  0  0
 74 81  1  0  0  0
 75 79  1  0  0  0
 76 85  1  0  0  0
 77 78  2  0  0  0
 77147  1  0  0  0
 78 82  1  0  0  0
 78148  1  0  0  0
 79149  1  0  0  0
 79150  1  0  0  0
 79151  1  0  0  0
 80 81  1  0  0  0
 80152  1  0  0  0
 80153  1  0  0  0
 80154  1  0  0  0
 81155  1  0  0  0
 81156  1  0  0  0
 82 83  1  0  0  0
 82157  1  0  0  0
 82158  1  0  0  0
 83 84  1  0  0  0
 83159  1  0  0  0
 83160  1  0  0  0
 84161  1  0  0  0
 84162  1  0  0  0
 85163  1  0  0  0
M  ISO  4   1 100  68 101  84 101  85 100
M  END
> <chiral flag>
0

> <version>
0

> <s_m_source_file>
/data/baiqing/PycharmProjects/Reinvent-master-3.2/result/LINK_invent/BTK/process_docking_weight1_custom_product_contain_oxygen_bond_distance_aromatic_linkinvent_7_9_3/rearranged_h_0121.sdf

> <i_m_source_file_index>
53

> <r_mmod_Potential_Energy-OPLS-2005>
71.2866821289062

> <r_mmod_Stretch_Energy-OPLS-2005>
52.1043663024902

> <r_mmod_Bend_Energy-OPLS-2005>
116.082336425781

> <r_mmod_Torsional_Energy-OPLS-2005>
288.386413574219

> <r_mmod_Improper_Torsional_Energy-OPLS-2005>
11.7869262695312

> <r_mmod_Van_der_Waal_Energy-OPLS-2005>
149.017013549805

> <r_mmod_Electrostatic_Energy-OPLS-2005>
-372.097747802734

> <r_mmod_Solvation_Energy-OPLS-2005>
-201.253051757812

> <b_mmod_Minimization_Converged-OPLS-2005>
0

> <r_mmod_RMS_Derivative-OPLS-2005>
2.60733675956726

$$$$
53
                    3D
 Structure written by MMmdl.
163171  0  0  1  0            999 V2000
  -30.7678  -14.4622   20.5647 C   0  0  0  0  0  0
  -30.4008  -12.3088   19.4295 C   0  0  0  0  0  0
  -29.4953  -12.5388   18.2047 C   0  0  0  0  0  0
  -28.0164  -12.3866   18.6120 C   0  0  0  0  0  0
  -27.6564  -13.2273   19.8675 C   0  0  2  0  0  0
  -28.6968  -13.0523   20.9973 C   0  0  0  0  0  0
  -25.2560  -13.8199   20.5685 C   0  0  0  0  0  0
  -24.1849  -13.0439   20.9192 C   0  0  0  0  0  0
  -24.6438  -11.6919   20.8723 C   0  0  0  0  0  0
  -23.9117  -10.4293   21.0380 C   0  0  0  0  0  0
  -24.3660   -9.4226   21.9166 C   0  0  0  0  0  0
  -23.6329   -8.2258   22.0726 C   0  0  0  0  0  0
  -22.4332   -8.0290   21.3528 C   0  0  0  0  0  0
  -21.9966   -9.0264   20.4630 C   0  0  0  0  0  0
  -22.7293  -10.2148   20.3029 C   0  0  0  0  0  0
  -21.6862   -6.0767   22.5282 C   0  0  0  0  0  0
  -21.3999   -6.5674   23.8219 C   0  0  0  0  0  0
  -21.3657   -5.6803   24.9179 C   0  0  0  0  0  0
  -21.6040   -4.3067   24.7240 C   0  0  0  0  0  0
  -21.8820   -3.8178   23.4348 C   0  0  0  0  0  0
  -21.9191   -4.6992   22.3398 C   0  0  0  0  0  0
  -22.7885  -13.5191   21.1853 C   0  0  0  0  0  0
  -22.1661   -4.2169   21.0993 F   0  0  0  0  0  0
  -21.5636   -3.4548   25.7745 F   0  0  0  0  0  0
  -30.0326  -13.3200   20.4415 N   0  0  0  0  0  0
  -26.3009  -12.9415   20.3322 N   0  0  0  0  0  0
  -25.9364  -11.6552   20.5718 N   0  0  0  0  0  0
  -22.0497  -12.8202   22.0402 N   0  0  0  0  0  0
  -25.4271  -15.1917   20.4129 N   0  0  0  0  0  0
  -31.8987  -14.5319   20.0768 O   0  0  0  0  0  0
  -21.6663   -6.8905   21.4243 O   0  0  0  0  0  0
  -22.3559  -14.5494   20.6659 O   0  0  0  0  0  0
  -24.6198  -31.8684   23.2079 C   0  0  0  0  0  0
  -25.9126  -32.4806   23.8374 C   0  0  1  0  0  0
  -27.2087  -27.4152   20.0980 C   0  0  0  0  0  0
  -25.6027  -33.8599   24.2317 N   0  0  0  0  0  0
  -23.4027  -30.4953   21.5454 C   0  0  2  0  0  0
  -24.8462  -28.9585   20.1084 C   0  0  0  0  0  0
  -22.7418  -29.4686   22.4930 C   0  0  0  0  0  0
  -18.0293  -28.1426   22.8476 C   0  0  0  0  0  0
  -24.1487  -36.7255   23.2614 C   0  0  0  0  0  0
  -25.9359  -30.8191   21.3709 C   0  0  0  0  0  0
  -26.0038  -29.4520   20.7230 C   0  0  0  0  0  0
  -27.1915  -28.6828   20.7245 C   0  0  0  0  0  0
  -26.0433  -26.9448   19.4610 C   0  0  0  0  0  0
  -24.8611  -27.7044   19.4746 C   0  0  0  0  0  0
  -23.6114  -29.8294   20.1579 C   0  0  0  0  0  0
  -25.4114  -36.3074   24.0320 C   0  0  1  0  0  0
  -20.5877  -28.3702   23.1324 C   0  0  2  0  0  0
  -20.6765  -26.9440   22.5427 C   0  0  0  0  0  0
  -19.5750  -26.6402   21.5228 C   0  0  0  0  0  0
  -18.1922  -26.7988   22.1609 C   0  0  0  0  0  0
  -19.1532  -28.8879   23.2892 C   0  0  0  0  0  0
  -18.9465  -30.1484   23.8882 C   0  0  0  0  0  0
  -17.6463  -30.6629   24.0551 C   0  0  0  0  0  0
  -25.9072  -34.9459   23.5083 C   0  0  0  0  0  0
  -16.5361  -29.9109   23.6342 C   0  0  0  0  0  0
  -16.7274  -28.6545   23.0342 C   0  0  0  0  0  0
  -26.4548  -31.6604   25.0693 C   0  0  0  0  0  0
  -25.3829  -31.3789   26.1471 C   0  0  0  0  0  0
  -27.0382  -30.3025   24.6132 C   0  0  0  0  0  0
  -27.6101  -32.4335   25.7525 C   0  0  0  0  0  0
  -27.5613  -37.1733   24.8412 C   0  0  0  0  0  0
  -21.4145  -29.3081   22.3729 N   0  0  0  0  0  0
  -26.4246  -37.3807   23.9483 N   0  0  0  0  0  0
  -24.6697  -31.0782   22.0984 N   0  0  0  0  0  0
  -23.4211  -28.8199   23.2929 O   0  0  0  0  0  0
  -28.3431  -26.6394   20.0867 O   0  0  0  0  0  0
  -26.5525  -34.8926   22.4590 O   0  0  0  0  0  0
  -23.5398  -32.1451   23.7482 O   0  0  0  0  0  0
  -29.3110  -18.6342   21.6498 C   0  0  0  0  0  0
  -29.9481  -20.6949   22.7629 C   0  0  0  0  0  0
  -30.5937  -18.0830   21.8948 C   0  0  0  0  0  0
  -31.5728  -18.8744   22.5673 C   0  0  0  0  0  0
  -31.2315  -20.1786   23.0127 C   0  0  0  0  0  0
  -29.0012  -19.9585   22.0317 C   0  0  0  0  0  0
  -33.5805  -18.2609   23.9510 C   0  0  0  0  0  0
  -30.9329  -16.7099   21.4395 C   0  0  0  0  0  0
  -32.9435  -18.3566   22.7704 C   0  0  0  0  0  0
  -30.1328  -15.6578   21.1326 C   0  0  0  0  0  0
  -32.2296  -21.0825   23.7213 C   0  0  0  0  0  0
  -27.7616  -24.1854   20.4034 C   0  0  0  0  0  0
  -27.9370  -23.0051   21.3895 C   0  0  0  0  0  0
  -28.3109  -25.5156   20.9838 C   0  0  0  0  0  0
  -27.8106  -21.5931   20.7642 C   0  0  0  0  0  0
  -27.7825  -20.5139   21.7131 O   0  0  0  0  0  0
  -31.4486  -12.3586   19.1273 H   0  0  0  0  0  0
  -30.2643  -11.3024   19.8290 H   0  0  0  0  0  0
  -29.7526  -11.8435   17.4045 H   0  0  0  0  0  0
  -29.6654  -13.5396   17.7987 H   0  0  0  0  0  0
  -27.8362  -11.3292   18.8115 H   0  0  0  0  0  0
  -27.3679  -12.6570   17.7781 H   0  0  0  0  0  0
  -27.6830  -14.2725   19.5560 H   0  0  0  0  0  0
  -28.6632  -12.0378   21.4012 H   0  0  0  0  0  0
  -28.4600  -13.7048   21.8393 H   0  0  0  0  0  0
  -25.2818   -9.5708   22.4716 H   0  0  0  0  0  0
  -24.0076   -7.4640   22.7424 H   0  0  0  0  0  0
  -21.0911   -8.8796   19.8894 H   0  0  0  0  0  0
  -22.3791  -10.9680   19.6117 H   0  0  0  0  0  0
  -21.1978   -7.6175   23.9723 H   0  0  0  0  0  0
  -21.1459   -6.0544   25.9079 H   0  0  0  0  0  0
  -22.0585   -2.7634   23.2843 H   0  0  0  0  0  0
  -22.4133  -11.9924   22.4898 H   0  0  0  0  0  0
  -21.1053  -13.1151   22.2425 H   0  0  0  0  0  0
  -24.6587  -15.8476   20.5091 H   0  0  0  0  0  0
  -26.2926  -15.6299   20.1198 H   0  0  0  0  0  0
  -26.7178  -32.5504   23.1112 H   0  0  0  0  0  0
  -25.0400  -33.9754   25.0609 H   0  0  0  0  0  0
  -22.6912  -31.3125   21.4077 H   0  0  0  0  0  0
  -23.3837  -35.9493   23.3130 H   0  0  0  0  0  0
  -24.3621  -36.9029   22.2066 H   0  0  0  0  0  0
  -23.7116  -37.6361   23.6720 H   0  0  0  0  0  0
  -26.0563  -31.5790   20.5976 H   0  0  0  0  0  0
  -26.8235  -30.8674   21.9898 H   0  0  0  0  0  0
  -28.0849  -29.0433   21.2162 H   0  0  0  0  0  0
  -26.0497  -25.9986   18.9417 H   0  0  0  0  0  0
  -23.9755  -27.3294   18.9806 H   0  0  0  0  0  0
  -23.7175  -30.6014   19.3946 H   0  0  0  0  0  0
  -22.7370  -29.2475   19.8621 H   0  0  0  0  0  0
  -25.1280  -36.1875   25.0791 H   0  0  0  0  0  0
  -20.9967  -28.3295   24.1450 H   0  0  0  0  0  0
  -20.5731  -26.2304   23.3612 H   0  0  0  0  0  0
  -21.6630  -26.7518   22.1207 H   0  0  0  0  0  0
  -19.6877  -25.6304   21.1275 H   0  0  0  0  0  0
  -19.6743  -27.3179   20.6736 H   0  0  0  0  0  0
  -17.4234  -26.6815   21.3959 H   0  0  0  0  0  0
  -18.0259  -26.0144   22.9000 H   0  0  0  0  0  0
  -19.7935  -30.7282   24.2264 H   0  0  0  0  0  0
  -17.5038  -31.6300   24.5161 H   0  0  0  0  0  0
  -15.5359  -30.2991   23.7694 H   0  0  0  0  0  0
  -15.8700  -28.0860   22.7030 H   0  0  0  0  0  0
  -24.5949  -30.7172   25.7854 H   0  0  0  0  0  0
  -24.9087  -32.2989   26.4898 H   0  0  0  0  0  0
  -25.8199  -30.8988   27.0227 H   0  0  0  0  0  0
  -26.2910  -29.6773   24.1207 H   0  0  0  0  0  0
  -27.4157  -29.7291   25.4606 H   0  0  0  0  0  0
  -27.8768  -30.4314   23.9275 H   0  0  0  0  0  0
  -27.2695  -33.3653   26.2073 H   0  0  0  0  0  0
  -28.4002  -32.6888   25.0436 H   0  0  0  0  0  0
  -28.0679  -31.8466   26.5502 H   0  0  0  0  0  0
  -28.2438  -38.0213   24.7781 H   0  0  0  0  0  0
  -28.1303  -36.2778   24.5836 H   0  0  0  0  0  0
  -27.2380  -37.0883   25.8796 H   0  0  0  0  0  0
  -20.9279  -29.8865   21.7022 H   0  0  0  0  0  0
  -26.0109  -38.2837   24.1684 H   0  0  0  0  0  0
  -28.5729  -18.0524   21.1162 H   0  0  0  0  0  0
  -29.6990  -21.6769   23.1308 H   0  0  0  0  0  0
  -34.5928  -17.8878   24.0081 H   0  0  0  0  0  0
  -33.1046  -18.5501   24.8757 H   0  0  0  0  0  0
  -31.9928  -16.5615   21.2965 H   0  0  0  0  0  0
  -33.4791  -18.0635   21.8794 H   0  0  0  0  0  0
  -29.0634  -15.7235   21.2593 H   0  0  0  0  0  0
  -31.9340  -22.1286   23.6429 H   0  0  0  0  0  0
  -33.2270  -21.0042   23.2887 H   0  0  0  0  0  0
  -32.2799  -20.8340   24.7809 H   0  0  0  0  0  0
  -26.7019  -24.2822   20.1686 H   0  0  0  0  0  0
  -28.2693  -23.9634   19.4649 H   0  0  0  0  0  0
  -27.2108  -23.1050   22.1953 H   0  0  0  0  0  0
  -28.9175  -23.1092   21.8461 H   0  0  0  0  0  0
  -29.3404  -25.3458   21.2995 H   0  0  0  0  0  0
  -27.7647  -25.7699   21.8936 H   0  0  0  0  0  0
  -28.6014  -21.4330   20.0280 H   0  0  0  0  0  0
  -26.8765  -21.5337   20.2068 H   0  0  0  0  0  0
  1 25  1  0  0  0
  1 30  2  0  0  0
  1 80  1  0  0  0
  2  3  1  0  0  0
  2 25  1  0  0  0
  2 87  1  0  0  0
  2 88  1  0  0  0
  3  4  1  0  0  0
  3 89  1  0  0  0
  3 90  1  0  0  0
  4  5  1  0  0  0
  4 91  1  0  0  0
  4 92  1  0  0  0
  5  6  1  0  0  0
  5 26  1  0  0  0
  5 93  1  0  0  0
  6 25  1  0  0  0
  6 94  1  0  0  0
  6 95  1  0  0  0
  7  8  2  0  0  0
  7 26  1  0  0  0
  7 29  1  0  0  0
  8  9  1  0  0  0
  8 22  1  0  0  0
  9 10  1  0  0  0
  9 27  2  0  0  0
 10 11  2  0  0  0
 10 15  1  0  0  0
 11 12  1  0  0  0
 11 96  1  0  0  0
 12 13  2  0  0  0
 12 97  1  0  0  0
 13 14  1  0  0  0
 13 31  1  0  0  0
 14 15  2  0  0  0
 14 98  1  0  0  0
 15 99  1  0  0  0
 16 17  2  0  0  0
 16 21  1  0  0  0
 16 31  1  0  0  0
 17 18  1  0  0  0
 17100  1  0  0  0
 18 19  2  0  0  0
 18101  1  0  0  0
 19 20  1  0  0  0
 19 24  1  0  0  0
 20 21  2  0  0  0
 20102  1  0  0  0
 21 23  1  0  0  0
 22 28  1  0  0  0
 22 32  2  0  0  0
 26 27  1  0  0  0
 28103  1  0  0  0
 28104  1  0  0  0
 29105  1  0  0  0
 29106  1  0  0  0
 33 34  1  0  0  0
 33 66  1  0  0  0
 33 70  2  0  0  0
 34 36  1  0  0  0
 34 59  1  0  0  0
 34107  1  0  0  0
 35 44  2  0  0  0
 35 45  1  0  0  0
 35 68  1  0  0  0
 36 56  1  0  0  0
 36108  1  0  0  0
 37 39  1  0  0  0
 37 47  1  0  0  0
 37 66  1  0  0  0
 37109  1  0  0  0
 38 43  2  0  0  0
 38 46  1  0  0  0
 38 47  1  0  0  0
 39 64  1  0  0  0
 39 67  2  0  0  0
 40 52  1  0  0  0
 40 53  2  0  0  0
 40 58  1  0  0  0
 41110  1  0  0  0
 41111  1  0  0  0
 41112  1  0  0  0
 41 48  1  0  0  0
 42 43  1  0  0  0
 42 66  1  0  0  0
 42113  1  0  0  0
 42114  1  0  0  0
 43 44  1  0  0  0
 44115  1  0  0  0
 45 46  2  0  0  0
 45116  1  0  0  0
 46117  1  0  0  0
 47118  1  0  0  0
 47119  1  0  0  0
 48 56  1  0  0  0
 48 65  1  0  0  0
 48120  1  0  0  0
 49 50  1  0  0  0
 49 53  1  0  0  0
 49 64  1  0  0  0
 49121  1  0  0  0
 50 51  1  0  0  0
 50122  1  0  0  0
 50123  1  0  0  0
 51 52  1  0  0  0
 51124  1  0  0  0
 51125  1  0  0  0
 52126  1  0  0  0
 52127  1  0  0  0
 53 54  1  0  0  0
 54 55  2  0  0  0
 54128  1  0  0  0
 55 57  1  0  0  0
 55129  1  0  0  0
 56 69  2  0  0  0
 57 58  2  0  0  0
 57130  1  0  0  0
 58131  1  0  0  0
 59 60  1  0  0  0
 59 61  1  0  0  0
 59 62  1  0  0  0
 60132  1  0  0  0
 60133  1  0  0  0
 60134  1  0  0  0
 61135  1  0  0  0
 61136  1  0  0  0
 61137  1  0  0  0
 62138  1  0  0  0
 62139  1  0  0  0
 62140  1  0  0  0
 63 65  1  0  0  0
 63141  1  0  0  0
 63142  1  0  0  0
 63143  1  0  0  0
 64144  1  0  0  0
 65145  1  0  0  0
 68 84  1  0  0  0
 71 73  2  0  0  0
 71 76  1  0  0  0
 71146  1  0  0  0
 72 75  1  0  0  0
 72 76  2  0  0  0
 72147  1  0  0  0
 73 74  1  0  0  0
 73 78  1  0  0  0
 74 75  2  0  0  0
 74 79  1  0  0  0
 75 81  1  0  0  0
 76 86  1  0  0  0
 77 79  2  0  0  0
 77148  1  0  0  0
 77149  1  0  0  0
 78 80  2  0  0  0
 78150  1  0  0  0
 79151  1  0  0  0
 80152  1  0  0  0
 81153  1  0  0  0
 81154  1  0  0  0
 81155  1  0  0  0
 82 83  1  0  0  0
 82 84  1  0  0  0
 82156  1  0  0  0
 82157  1  0  0  0
 83 85  1  0  0  0
 83158  1  0  0  0
 83159  1  0  0  0
 84160  1  0  0  0
 84161  1  0  0  0
 85 86  1  0  0  0
 85162  1  0  0  0
 85163  1  0  0  0
M  ISO  4   1 100  68 101  80 100  84 101
M  END
> <chiral flag>
0

> <version>
0

> <s_m_source_file>
/data/baiqing/PycharmProjects/Reinvent-master-3.2/result/LINK_invent/BTK/process_docking_weight1_custom_product_contain_oxygen_bond_distance_aromatic_linkinvent_7_9_3/rearranged_h_0121.sdf

> <i_m_source_file_index>
54

> <r_mmod_Potential_Energy-OPLS-2005>
48.3090972900391

> <r_mmod_Stretch_Energy-OPLS-2005>
40.2204513549805

> <r_mmod_Bend_Energy-OPLS-2005>
106.728713989258

> <r_mmod_Torsional_Energy-OPLS-2005>
251.368041992188

> <r_mmod_Improper_Torsional_Energy-OPLS-2005>
4.08765840530396

> <r_mmod_Van_der_Waal_Energy-OPLS-2005>
168.482894897461

> <r_mmod_Electrostatic_Energy-OPLS-2005>
-349.155212402344

> <r_mmod_Solvation_Energy-OPLS-2005>
-192.742752075195

> <b_mmod_Minimization_Converged-OPLS-2005>
0

> <r_mmod_RMS_Derivative-OPLS-2005>
4.75958347320557

$$$$
54
                    3D
 Structure written by MMmdl.
162170  0  0  1  0            999 V2000
  -30.6969  -14.4802   20.5140 C   0  0  0  0  0  0
  -30.4141  -12.2950   19.4356 C   0  0  0  0  0  0
  -29.4947  -12.4957   18.2130 C   0  0  0  0  0  0
  -28.0149  -12.3623   18.6208 C   0  0  0  0  0  0
  -27.6581  -13.2111   19.8711 C   0  0  2  0  0  0
  -28.6984  -13.0177   20.9986 C   0  0  0  0  0  0
  -25.2555  -13.8163   20.5619 C   0  0  0  0  0  0
  -24.1830  -13.0439   20.9180 C   0  0  0  0  0  0
  -24.6392  -11.6911   20.8748 C   0  0  0  0  0  0
  -23.9059  -10.4295   21.0409 C   0  0  0  0  0  0
  -24.3614   -9.4209   21.9187 C   0  0  0  0  0  0
  -23.6287   -8.2243   22.0754 C   0  0  0  0  0  0
  -22.4273   -8.0278   21.3541 C   0  0  0  0  0  0
  -21.9913   -9.0253   20.4638 C   0  0  0  0  0  0
  -22.7234  -10.2136   20.3049 C   0  0  0  0  0  0
  -21.6849   -6.0736   22.5278 C   0  0  0  0  0  0
  -21.4009   -6.5641   23.8211 C   0  0  0  0  0  0
  -21.3660   -5.6792   24.9173 C   0  0  0  0  0  0
  -21.6043   -4.3055   24.7219 C   0  0  0  0  0  0
  -21.8822   -3.8151   23.4337 C   0  0  0  0  0  0
  -21.9194   -4.6966   22.3396 C   0  0  0  0  0  0
  -22.7853  -13.5239   21.1844 C   0  0  0  0  0  0
  -22.1663   -4.2152   21.0971 F   0  0  0  0  0  0
  -21.5637   -3.4538   25.7730 F   0  0  0  0  0  0
  -30.0313  -13.2973   20.4424 N   0  0  0  0  0  0
  -26.3003  -12.9344   20.3343 N   0  0  0  0  0  0
  -25.9320  -11.6502   20.5781 N   0  0  0  0  0  0
  -22.0500  -12.8220   22.0396 N   0  0  0  0  0  0
  -25.4229  -15.1862   20.3892 N   0  0  0  0  0  0
  -31.8651  -14.6077   20.1356 O   0  0  0  0  0  0
  -21.6637   -6.8876   21.4239 O   0  0  0  0  0  0
  -22.3531  -14.5545   20.6699 O   0  0  0  0  0  0
  -24.6141  -31.8687   23.2101 C   0  0  0  0  0  0
  -25.9036  -32.4824   23.8404 C   0  0  1  0  0  0
  -27.2338  -27.4444   20.1025 C   0  0  0  0  0  0
  -25.5898  -33.8623   24.2333 N   0  0  0  0  0  0
  -23.4024  -30.4911   21.5497 C   0  0  2  0  0  0
  -24.8511  -28.9569   20.1145 C   0  0  0  0  0  0
  -22.7410  -29.4664   22.4992 C   0  0  0  0  0  0
  -18.0267  -28.1388   22.8497 C   0  0  0  0  0  0
  -24.1484  -36.7314   23.2643 C   0  0  0  0  0  0
  -25.9291  -30.8391   21.3601 C   0  0  0  0  0  0
  -26.0103  -29.4737   20.7087 C   0  0  0  0  0  0
  -27.2089  -28.7248   20.6985 C   0  0  0  0  0  0
  -26.0641  -26.9393   19.4989 C   0  0  0  0  0  0
  -24.8722  -27.6888   19.5057 C   0  0  0  0  0  0
  -23.6113  -29.8212   20.1648 C   0  0  0  0  0  0
  -25.4106  -36.3111   24.0336 C   0  0  1  0  0  0
  -20.5861  -28.3669   23.1324 C   0  0  2  0  0  0
  -20.6757  -26.9406   22.5425 C   0  0  0  0  0  0
  -19.5730  -26.6389   21.5220 C   0  0  0  0  0  0
  -18.1908  -26.7936   22.1628 C   0  0  0  0  0  0
  -19.1521  -28.8844   23.2908 C   0  0  0  0  0  0
  -18.9446  -30.1457   23.8907 C   0  0  0  0  0  0
  -17.6450  -30.6594   24.0570 C   0  0  0  0  0  0
  -25.9033  -34.9476   23.5129 C   0  0  0  0  0  0
  -16.5342  -29.9095   23.6339 C   0  0  0  0  0  0
  -16.7259  -28.6518   23.0349 C   0  0  0  0  0  0
  -26.4466  -31.6601   25.0732 C   0  0  0  0  0  0
  -25.3743  -31.3708   26.1493 C   0  0  0  0  0  0
  -27.0288  -30.3040   24.6105 C   0  0  0  0  0  0
  -27.6055  -32.4310   25.7493 C   0  0  0  0  0  0
  -27.5581  -37.1814   24.8472 C   0  0  0  0  0  0
  -21.4136  -29.3036   22.3729 N   0  0  0  0  0  0
  -26.4294  -37.3794   23.9411 N   0  0  0  0  0  0
  -24.6668  -31.0796   22.0992 N   0  0  0  0  0  0
  -23.4185  -28.8207   23.3036 O   0  0  0  0  0  0
  -28.3717  -26.6750   20.1172 O   0  0  0  0  0  0
  -26.5597  -34.8927   22.4693 O   0  0  0  0  0  0
  -23.5337  -32.1431   23.7500 O   0  0  0  0  0  0
  -30.7207  -18.3384   18.4309 C   0  0  0  0  0  0
  -30.2312  -19.4562   19.1198 C   0  0  0  0  0  0
  -30.6229  -17.0634   19.0041 C   0  0  0  0  0  0
  -29.6234  -19.3236   20.3881 C   0  0  0  0  0  0
  -29.5623  -18.0251   20.9907 C   0  0  0  0  0  0
  -30.0653  -16.8814   20.2940 C   0  0  0  0  0  0
  -29.1032  -20.5564   21.0414 C   0  0  0  0  0  0
  -29.5522  -21.8147   20.8237 C   0  0  0  0  0  0
  -28.8518  -24.2679   20.4731 C   0  0  0  0  0  0
  -26.9368  -17.2752   23.7991 C   0  0  0  0  0  0
  -28.9864  -17.8527   22.3958 C   0  0  0  0  0  0
  -28.9796  -23.0836   21.4553 C   0  0  0  0  0  0
  -28.2879  -25.5811   21.0489 C   0  0  0  0  0  0
  -27.4943  -17.4903   22.3873 C   0  0  0  0  0  0
  -29.9501  -15.5560   20.8459 N   0  0  0  0  0  0
  -29.1885  -24.1730   19.2871 O   0  0  0  0  0  0
  -31.4615  -12.3757   19.1383 H   0  0  0  0  0  0
  -30.2976  -11.2907   19.8450 H   0  0  0  0  0  0
  -29.7337  -11.7671   17.4374 H   0  0  0  0  0  0
  -29.6681  -13.4792   17.7736 H   0  0  0  0  0  0
  -27.8211  -11.3076   18.8201 H   0  0  0  0  0  0
  -27.3693  -12.6352   17.7850 H   0  0  0  0  0  0
  -27.6950  -14.2553   19.5605 H   0  0  0  0  0  0
  -28.6661  -11.9948   21.3762 H   0  0  0  0  0  0
  -28.4698  -13.6568   21.8530 H   0  0  0  0  0  0
  -25.2756   -9.5692   22.4766 H   0  0  0  0  0  0
  -23.9996   -7.4637   22.7478 H   0  0  0  0  0  0
  -21.0852   -8.8763   19.8938 H   0  0  0  0  0  0
  -22.3686  -10.9678   19.6161 H   0  0  0  0  0  0
  -21.1994   -7.6149   23.9709 H   0  0  0  0  0  0
  -21.1483   -6.0523   25.9074 H   0  0  0  0  0  0
  -22.0599   -2.7613   23.2833 H   0  0  0  0  0  0
  -22.4128  -11.9874   22.4765 H   0  0  0  0  0  0
  -21.1116  -13.1235   22.2605 H   0  0  0  0  0  0
  -24.6526  -15.8380   20.4858 H   0  0  0  0  0  0
  -26.2615  -15.6165   20.0215 H   0  0  0  0  0  0
  -26.7117  -32.5551   23.1188 H   0  0  0  0  0  0
  -25.0067  -33.9785   25.0491 H   0  0  0  0  0  0
  -22.6901  -31.3066   21.4093 H   0  0  0  0  0  0
  -23.3760  -35.9630   23.3276 H   0  0  0  0  0  0
  -24.3573  -36.8969   22.2061 H   0  0  0  0  0  0
  -23.7214  -37.6498   23.6685 H   0  0  0  0  0  0
  -26.0361  -31.6044   20.5898 H   0  0  0  0  0  0
  -26.8185  -30.8963   21.9755 H   0  0  0  0  0  0
  -28.1048  -29.1164   21.1598 H   0  0  0  0  0  0
  -26.0746  -25.9631   19.0338 H   0  0  0  0  0  0
  -23.9803  -27.2851   19.0461 H   0  0  0  0  0  0
  -23.7175  -30.5951   19.4036 H   0  0  0  0  0  0
  -22.7356  -29.2389   19.8717 H   0  0  0  0  0  0
  -25.1281  -36.1976   25.0830 H   0  0  0  0  0  0
  -20.9949  -28.3232   24.1446 H   0  0  0  0  0  0
  -20.5676  -26.2267   23.3604 H   0  0  0  0  0  0
  -21.6624  -26.7452   22.1208 H   0  0  0  0  0  0
  -19.6890  -25.6304   21.1234 H   0  0  0  0  0  0
  -19.6670  -27.3205   20.6755 H   0  0  0  0  0  0
  -17.4182  -26.6706   21.4025 H   0  0  0  0  0  0
  -18.0290  -26.0077   22.9019 H   0  0  0  0  0  0
  -19.7917  -30.7278   24.2275 H   0  0  0  0  0  0
  -17.5002  -31.6270   24.5177 H   0  0  0  0  0  0
  -15.5342  -30.2999   23.7661 H   0  0  0  0  0  0
  -15.8657  -28.0846   22.7048 H   0  0  0  0  0  0
  -24.5854  -30.7137   25.7814 H   0  0  0  0  0  0
  -24.9019  -32.2876   26.5030 H   0  0  0  0  0  0
  -25.8096  -30.8782   27.0200 H   0  0  0  0  0  0
  -26.2818  -29.6795   24.1193 H   0  0  0  0  0  0
  -27.4086  -29.7283   25.4558 H   0  0  0  0  0  0
  -27.8643  -30.4341   23.9223 H   0  0  0  0  0  0
  -27.2705  -33.3646   26.2025 H   0  0  0  0  0  0
  -28.3896  -32.6804   25.0331 H   0  0  0  0  0  0
  -28.0679  -31.8453   26.5449 H   0  0  0  0  0  0
  -28.2602  -38.0107   24.7519 H   0  0  0  0  0  0
  -28.1077  -36.2640   24.6309 H   0  0  0  0  0  0
  -27.2298  -37.1483   25.8876 H   0  0  0  0  0  0
  -20.9294  -29.8761   21.6955 H   0  0  0  0  0  0
  -26.0188  -38.2873   24.1420 H   0  0  0  0  0  0
  -31.1588  -18.4580   17.4503 H   0  0  0  0  0  0
  -30.3013  -20.4205   18.6366 H   0  0  0  0  0  0
  -30.9841  -16.2273   18.4229 H   0  0  0  0  0  0
  -28.2716  -20.4264   21.7199 H   0  0  0  0  0  0
  -30.3935  -21.9772   20.1646 H   0  0  0  0  0  0
  -25.8773  -17.0184   23.7656 H   0  0  0  0  0  0
  -27.0425  -18.1745   24.4064 H   0  0  0  0  0  0
  -27.4568  -16.4643   24.3105 H   0  0  0  0  0  0
  -29.1499  -18.7554   22.9845 H   0  0  0  0  0  0
  -29.5504  -17.0823   22.9226 H   0  0  0  0  0  0
  -29.6331  -23.3920   22.2716 H   0  0  0  0  0  0
  -28.0024  -22.8726   21.8904 H   0  0  0  0  0  0
  -28.8450  -25.8427   21.9488 H   0  0  0  0  0  0
  -27.2588  -25.3964   21.3600 H   0  0  0  0  0  0
  -26.9246  -18.2736   21.8859 H   0  0  0  0  0  0
  -27.3429  -16.5814   21.8063 H   0  0  0  0  0  0
  -29.0951  -15.3558   21.3410 H   0  0  0  0  0  0
  1 25  1  0  0  0
  1 30  2  0  0  0
  1 85  1  0  0  0
  2  3  1  0  0  0
  2 25  1  0  0  0
  2 87  1  0  0  0
  2 88  1  0  0  0
  3  4  1  0  0  0
  3 89  1  0  0  0
  3 90  1  0  0  0
  4  5  1  0  0  0
  4 91  1  0  0  0
  4 92  1  0  0  0
  5  6  1  0  0  0
  5 26  1  0  0  0
  5 93  1  0  0  0
  6 25  1  0  0  0
  6 94  1  0  0  0
  6 95  1  0  0  0
  7  8  2  0  0  0
  7 26  1  0  0  0
  7 29  1  0  0  0
  8  9  1  0  0  0
  8 22  1  0  0  0
  9 10  1  0  0  0
  9 27  2  0  0  0
 10 11  2  0  0  0
 10 15  1  0  0  0
 11 12  1  0  0  0
 11 96  1  0  0  0
 12 13  2  0  0  0
 12 97  1  0  0  0
 13 14  1  0  0  0
 13 31  1  0  0  0
 14 15  2  0  0  0
 14 98  1  0  0  0
 15 99  1  0  0  0
 16 17  2  0  0  0
 16 21  1  0  0  0
 16 31  1  0  0  0
 17 18  1  0  0  0
 17100  1  0  0  0
 18 19  2  0  0  0
 18101  1  0  0  0
 19 20  1  0  0  0
 19 24  1  0  0  0
 20 21  2  0  0  0
 20102  1  0  0  0
 21 23  1  0  0  0
 22 28  1  0  0  0
 22 32  2  0  0  0
 26 27  1  0  0  0
 28103  1  0  0  0
 28104  1  0  0  0
 29105  1  0  0  0
 29106  1  0  0  0
 33 34  1  0  0  0
 33 66  1  0  0  0
 33 70  2  0  0  0
 34 36  1  0  0  0
 34 59  1  0  0  0
 34107  1  0  0  0
 35 44  2  0  0  0
 35 45  1  0  0  0
 35 68  1  0  0  0
 36 56  1  0  0  0
 36108  1  0  0  0
 37 39  1  0  0  0
 37 47  1  0  0  0
 37 66  1  0  0  0
 37109  1  0  0  0
 38 43  2  0  0  0
 38 46  1  0  0  0
 38 47  1  0  0  0
 39 64  1  0  0  0
 39 67  2  0  0  0
 40 52  1  0  0  0
 40 53  2  0  0  0
 40 58  1  0  0  0
 41110  1  0  0  0
 41111  1  0  0  0
 41112  1  0  0  0
 41 48  1  0  0  0
 42 43  1  0  0  0
 42 66  1  0  0  0
 42113  1  0  0  0
 42114  1  0  0  0
 43 44  1  0  0  0
 44115  1  0  0  0
 45 46  2  0  0  0
 45116  1  0  0  0
 46117  1  0  0  0
 47118  1  0  0  0
 47119  1  0  0  0
 48 56  1  0  0  0
 48 65  1  0  0  0
 48120  1  0  0  0
 49 50  1  0  0  0
 49 53  1  0  0  0
 49 64  1  0  0  0
 49121  1  0  0  0
 50 51  1  0  0  0
 50122  1  0  0  0
 50123  1  0  0  0
 51 52  1  0  0  0
 51124  1  0  0  0
 51125  1  0  0  0
 52126  1  0  0  0
 52127  1  0  0  0
 53 54  1  0  0  0
 54 55  2  0  0  0
 54128  1  0  0  0
 55 57  1  0  0  0
 55129  1  0  0  0
 56 69  2  0  0  0
 57 58  2  0  0  0
 57130  1  0  0  0
 58131  1  0  0  0
 59 60  1  0  0  0
 59 61  1  0  0  0
 59 62  1  0  0  0
 60132  1  0  0  0
 60133  1  0  0  0
 60134  1  0  0  0
 61135  1  0  0  0
 61136  1  0  0  0
 61137  1  0  0  0
 62138  1  0  0  0
 62139  1  0  0  0
 62140  1  0  0  0
 63 65  1  0  0  0
 63141  1  0  0  0
 63142  1  0  0  0
 63143  1  0  0  0
 64144  1  0  0  0
 65145  1  0  0  0
 68 83  1  0  0  0
 71 72  2  0  0  0
 71 73  1  0  0  0
 71146  1  0  0  0
 72 74  1  0  0  0
 72147  1  0  0  0
 73 76  2  0  0  0
 73148  1  0  0  0
 74 75  2  0  0  0
 74 77  1  0  0  0
 75 76  1  0  0  0
 75 81  1  0  0  0
 76 85  1  0  0  0
 77 78  2  0  0  0
 77149  1  0  0  0
 78 82  1  0  0  0
 78150  1  0  0  0
 79 82  1  0  0  0
 79 83  1  0  0  0
 79 86  2  0  0  0
 80 84  1  0  0  0
 80151  1  0  0  0
 80152  1  0  0  0
 80153  1  0  0  0
 81 84  1  0  0  0
 81154  1  0  0  0
 81155  1  0  0  0
 82156  1  0  0  0
 82157  1  0  0  0
 83158  1  0  0  0
 83159  1  0  0  0
 84160  1  0  0  0
 84161  1  0  0  0
 85162  1  0  0  0
M  ISO  4   1 100  68 101  83 101  85 100
M  END
> <chiral flag>
0

> <version>
0

> <s_m_source_file>
/data/baiqing/PycharmProjects/Reinvent-master-3.2/result/LINK_invent/BTK/process_docking_weight1_custom_product_contain_oxygen_bond_distance_aromatic_linkinvent_7_9_3/rearranged_h_0121.sdf

> <i_m_source_file_index>
55

> <r_mmod_Potential_Energy-OPLS-2005>
2.38541030883789

> <r_mmod_Stretch_Energy-OPLS-2005>
41.2311096191406

> <r_mmod_Bend_Energy-OPLS-2005>
89.0874328613281

> <r_mmod_Torsional_Energy-OPLS-2005>
256.705596923828

> <r_mmod_Improper_Torsional_Energy-OPLS-2005>
5.44073390960693

> <r_mmod_Van_der_Waal_Energy-OPLS-2005>
151.412384033203

> <r_mmod_Electrostatic_Energy-OPLS-2005>
-340.833435058594

> <r_mmod_Solvation_Energy-OPLS-2005>
-216.649551391602

> <b_mmod_Minimization_Converged-OPLS-2005>
0

> <r_mmod_RMS_Derivative-OPLS-2005>
1.02182984352112

$$$$
55
                    3D
 Structure written by MMmdl.
160168  0  0  1  0            999 V2000
  -30.7188  -14.4323   20.6618 C   0  0  0  0  0  0
  -30.4258  -12.3121   19.4060 C   0  0  0  0  0  0
  -29.4900  -12.5249   18.1991 C   0  0  0  0  0  0
  -28.0129  -12.3756   18.6134 C   0  0  0  0  0  0
  -27.6654  -13.2017   19.8791 C   0  0  2  0  0  0
  -28.7057  -12.9536   20.9931 C   0  0  0  0  0  0
  -25.2606  -13.8158   20.5682 C   0  0  0  0  0  0
  -24.1843  -13.0438   20.9169 C   0  0  0  0  0  0
  -24.6384  -11.6902   20.8722 C   0  0  0  0  0  0
  -23.9041  -10.4293   21.0400 C   0  0  0  0  0  0
  -24.3593   -9.4215   21.9183 C   0  0  0  0  0  0
  -23.6278   -8.2250   22.0754 C   0  0  0  0  0  0
  -22.4265   -8.0278   21.3542 C   0  0  0  0  0  0
  -21.9895   -9.0244   20.4638 C   0  0  0  0  0  0
  -22.7215  -10.2130   20.3048 C   0  0  0  0  0  0
  -21.6845   -6.0730   22.5278 C   0  0  0  0  0  0
  -21.4009   -6.5636   23.8211 C   0  0  0  0  0  0
  -21.3659   -5.6790   24.9176 C   0  0  0  0  0  0
  -21.6047   -4.3056   24.7229 C   0  0  0  0  0  0
  -21.8817   -3.8144   23.4349 C   0  0  0  0  0  0
  -21.9189   -4.6958   22.3403 C   0  0  0  0  0  0
  -22.7869  -13.5241   21.1840 C   0  0  0  0  0  0
  -22.1658   -4.2145   21.0979 F   0  0  0  0  0  0
  -21.5634   -3.4540   25.7743 F   0  0  0  0  0  0
  -30.0400  -13.2689   20.4552 N   0  0  0  0  0  0
  -26.3039  -12.9311   20.3378 N   0  0  0  0  0  0
  -25.9311  -11.6469   20.5751 N   0  0  0  0  0  0
  -22.0495  -12.8228   22.0391 N   0  0  0  0  0  0
  -25.4348  -15.1873   20.4099 N   0  0  0  0  0  0
  -31.7805  -14.6697   20.0717 O   0  0  0  0  0  0
  -21.6631   -6.8872   21.4240 O   0  0  0  0  0  0
  -22.3559  -14.5554   20.6704 O   0  0  0  0  0  0
  -24.6164  -31.8680   23.2122 C   0  0  0  0  0  0
  -25.9053  -32.4816   23.8411 C   0  0  1  0  0  0
  -27.2242  -27.4219   20.0885 C   0  0  0  0  0  0
  -25.5907  -33.8616   24.2349 N   0  0  0  0  0  0
  -23.4033  -30.4959   21.5546 C   0  0  2  0  0  0
  -24.8455  -28.9663   20.1149 C   0  0  0  0  0  0
  -22.7406  -29.4670   22.4991 C   0  0  0  0  0  0
  -18.0272  -28.1370   22.8487 C   0  0  0  0  0  0
  -24.1473  -36.7305   23.2637 C   0  0  0  0  0  0
  -25.9350  -30.8316   21.3646 C   0  0  0  0  0  0
  -26.0107  -29.4662   20.7097 C   0  0  0  0  0  0
  -27.2035  -28.7032   20.6924 C   0  0  0  0  0  0
  -26.0342  -26.9482   19.4817 C   0  0  0  0  0  0
  -24.8533  -27.7069   19.4987 C   0  0  0  0  0  0
  -23.6096  -29.8354   20.1678 C   0  0  0  0  0  0
  -25.4096  -36.3106   24.0342 C   0  0  1  0  0  0
  -20.5862  -28.3658   23.1310 C   0  0  2  0  0  0
  -20.6761  -26.9399   22.5395 C   0  0  0  0  0  0
  -19.5734  -26.6390   21.5186 C   0  0  0  0  0  0
  -18.1919  -26.7925   22.1605 C   0  0  0  0  0  0
  -19.1519  -28.8830   23.2900 C   0  0  0  0  0  0
  -18.9449  -30.1432   23.8914 C   0  0  0  0  0  0
  -17.6455  -30.6579   24.0559 C   0  0  0  0  0  0
  -25.9031  -34.9472   23.5142 C   0  0  0  0  0  0
  -16.5344  -29.9084   23.6324 C   0  0  0  0  0  0
  -16.7263  -28.6497   23.0356 C   0  0  0  0  0  0
  -26.4489  -31.6591   25.0720 C   0  0  0  0  0  0
  -25.3750  -31.3648   26.1459 C   0  0  0  0  0  0
  -27.0354  -30.3057   24.6075 C   0  0  0  0  0  0
  -27.6048  -32.4318   25.7513 C   0  0  0  0  0  0
  -27.5582  -37.1810   24.8467 C   0  0  0  0  0  0
  -21.4133  -29.3040   22.3727 N   0  0  0  0  0  0
  -26.4281  -37.3792   23.9420 N   0  0  0  0  0  0
  -24.6704  -31.0776   22.1031 N   0  0  0  0  0  0
  -23.4168  -28.8177   23.3015 O   0  0  0  0  0  0
  -28.3789  -26.6581   20.1128 O   0  0  0  0  0  0
  -26.5578  -34.8919   22.4694 O   0  0  0  0  0  0
  -23.5360  -32.1449   23.7508 O   0  0  0  0  0  0
  -31.5636  -18.6697   20.5721 C   0  0  0  0  0  0
  -31.3880  -20.0065   20.1604 C   0  0  0  0  0  0
  -29.3673  -20.1476   21.4864 C   0  0  0  0  0  0
  -30.6637  -18.0508   21.4684 C   0  0  0  0  0  0
  -29.5417  -18.8080   21.9196 C   0  0  0  0  0  0
  -30.3031  -20.7736   20.6262 C   0  0  0  0  0  0
  -31.0047  -16.6833   21.9683 C   0  0  0  0  0  0
  -29.4101  -24.3974   20.3241 C   0  0  0  0  0  0
  -28.9140  -18.6144   24.3701 C   0  0  0  0  0  0
  -28.5332  -18.2633   22.9271 C   0  0  0  0  0  0
  -30.0970  -15.4987   21.6038 C   0  0  0  0  0  0
  -28.1724  -25.2358   19.9714 C   0  0  0  0  0  0
  -29.1567  -22.9137   20.6633 C   0  0  0  0  0  0
  -32.0122  -16.5127   22.7197 N   0  0  0  0  0  0
  -30.5482  -24.8826   20.3320 O   0  0  0  0  0  0
  -30.2502  -22.0974   20.2260 O   0  0  0  0  0  0
  -31.4674  -12.4219   19.1000 H   0  0  0  0  0  0
  -30.3361  -11.2917   19.7822 H   0  0  0  0  0  0
  -29.7293  -11.8149   17.4065 H   0  0  0  0  0  0
  -29.6532  -13.5189   17.7795 H   0  0  0  0  0  0
  -27.8244  -11.3173   18.7999 H   0  0  0  0  0  0
  -27.3594  -12.6591   17.7878 H   0  0  0  0  0  0
  -27.7196  -14.2546   19.6011 H   0  0  0  0  0  0
  -28.6823  -11.9081   21.3053 H   0  0  0  0  0  0
  -28.4429  -13.5194   21.8845 H   0  0  0  0  0  0
  -25.2731   -9.5707   22.4763 H   0  0  0  0  0  0
  -23.9995   -7.4646   22.7479 H   0  0  0  0  0  0
  -21.0833   -8.8743   19.8940 H   0  0  0  0  0  0
  -22.3661  -10.9663   19.6156 H   0  0  0  0  0  0
  -21.1997   -7.6145   23.9715 H   0  0  0  0  0  0
  -21.1487   -6.0522   25.9080 H   0  0  0  0  0  0
  -22.0597   -2.7605   23.2851 H   0  0  0  0  0  0
  -22.4083  -11.9860   22.4744 H   0  0  0  0  0  0
  -21.1123  -13.1267   22.2604 H   0  0  0  0  0  0
  -24.6697  -15.8452   20.5139 H   0  0  0  0  0  0
  -26.2927  -15.6246   20.0972 H   0  0  0  0  0  0
  -26.7121  -32.5545   23.1173 H   0  0  0  0  0  0
  -25.0053  -33.9771   25.0489 H   0  0  0  0  0  0
  -22.6926  -31.3137   21.4200 H   0  0  0  0  0  0
  -23.3729  -35.9639   23.3294 H   0  0  0  0  0  0
  -24.3563  -36.8928   22.2051 H   0  0  0  0  0  0
  -23.7224  -37.6506   23.6657 H   0  0  0  0  0  0
  -26.0422  -31.5953   20.5929 H   0  0  0  0  0  0
  -26.8265  -30.8893   21.9780 H   0  0  0  0  0  0
  -28.1022  -29.0845   21.1573 H   0  0  0  0  0  0
  -25.9884  -25.9899   18.9857 H   0  0  0  0  0  0
  -23.9576  -27.3196   19.0329 H   0  0  0  0  0  0
  -23.7187  -30.6143   19.4125 H   0  0  0  0  0  0
  -22.7310  -29.2595   19.8691 H   0  0  0  0  0  0
  -25.1254  -36.1976   25.0832 H   0  0  0  0  0  0
  -20.9955  -28.3223   24.1432 H   0  0  0  0  0  0
  -20.5663  -26.2250   23.3561 H   0  0  0  0  0  0
  -21.6634  -26.7447   22.1193 H   0  0  0  0  0  0
  -19.6889  -25.6305   21.1208 H   0  0  0  0  0  0
  -19.6676  -27.3198   20.6714 H   0  0  0  0  0  0
  -17.4176  -26.6660   21.4019 H   0  0  0  0  0  0
  -18.0333  -26.0061   22.8999 H   0  0  0  0  0  0
  -19.7925  -30.7237   24.2302 H   0  0  0  0  0  0
  -17.5016  -31.6269   24.5142 H   0  0  0  0  0  0
  -15.5354  -30.2993   23.7652 H   0  0  0  0  0  0
  -15.8657  -28.0831   22.7070 H   0  0  0  0  0  0
  -24.5937  -30.6995   25.7766 H   0  0  0  0  0  0
  -24.8911  -32.2772   26.4940 H   0  0  0  0  0  0
  -25.8095  -30.8783   27.0193 H   0  0  0  0  0  0
  -26.2908  -29.6782   24.1153 H   0  0  0  0  0  0
  -27.4209  -29.7308   25.4502 H   0  0  0  0  0  0
  -27.8690  -30.4423   23.9176 H   0  0  0  0  0  0
  -27.2675  -33.3641   26.2051 H   0  0  0  0  0  0
  -28.3887  -32.6842   25.0356 H   0  0  0  0  0  0
  -28.0670  -31.8451   26.5458 H   0  0  0  0  0  0
  -28.2574  -38.0135   24.7565 H   0  0  0  0  0  0
  -28.1118  -36.2669   24.6253 H   0  0  0  0  0  0
  -27.2294  -37.1414   25.8867 H   0  0  0  0  0  0
  -20.9270  -29.8806   21.7000 H   0  0  0  0  0  0
  -26.0168  -38.2867   24.1435 H   0  0  0  0  0  0
  -32.4267  -18.1227   20.2194 H   0  0  0  0  0  0
  -32.1135  -20.4554   19.4964 H   0  0  0  0  0  0
  -28.5160  -20.6963   21.8639 H   0  0  0  0  0  0
  -28.1807  -18.2171   25.0730 H   0  0  0  0  0  0
  -28.9601  -19.6946   24.5131 H   0  0  0  0  0  0
  -29.8867  -18.1987   24.6362 H   0  0  0  0  0  0
  -28.4091  -17.1869   22.8371 H   0  0  0  0  0  0
  -27.5497  -18.6784   22.7025 H   0  0  0  0  0  0
  -29.1884  -15.8703   21.1304 H   0  0  0  0  0  0
  -29.8061  -15.0270   22.5416 H   0  0  0  0  0  0
  -27.3502  -24.9116   20.6106 H   0  0  0  0  0  0
  -27.9038  -25.0014   18.9411 H   0  0  0  0  0  0
  -28.2334  -22.5796   20.1883 H   0  0  0  0  0  0
  -29.0289  -22.8360   21.7436 H   0  0  0  0  0  0
  -32.4995  -17.3883   22.8813 H   0  0  0  0  0  0
  1 25  1  0  0  0
  1 30  2  0  0  0
  1 81  1  0  0  0
  2  3  1  0  0  0
  2 25  1  0  0  0
  2 87  1  0  0  0
  2 88  1  0  0  0
  3  4  1  0  0  0
  3 89  1  0  0  0
  3 90  1  0  0  0
  4  5  1  0  0  0
  4 91  1  0  0  0
  4 92  1  0  0  0
  5  6  1  0  0  0
  5 26  1  0  0  0
  5 93  1  0  0  0
  6 25  1  0  0  0
  6 94  1  0  0  0
  6 95  1  0  0  0
  7  8  2  0  0  0
  7 26  1  0  0  0
  7 29  1  0  0  0
  8  9  1  0  0  0
  8 22  1  0  0  0
  9 10  1  0  0  0
  9 27  2  0  0  0
 10 11  2  0  0  0
 10 15  1  0  0  0
 11 12  1  0  0  0
 11 96  1  0  0  0
 12 13  2  0  0  0
 12 97  1  0  0  0
 13 14  1  0  0  0
 13 31  1  0  0  0
 14 15  2  0  0  0
 14 98  1  0  0  0
 15 99  1  0  0  0
 16 17  2  0  0  0
 16 21  1  0  0  0
 16 31  1  0  0  0
 17 18  1  0  0  0
 17100  1  0  0  0
 18 19  2  0  0  0
 18101  1  0  0  0
 19 20  1  0  0  0
 19 24  1  0  0  0
 20 21  2  0  0  0
 20102  1  0  0  0
 21 23  1  0  0  0
 22 28  1  0  0  0
 22 32  2  0  0  0
 26 27  1  0  0  0
 28103  1  0  0  0
 28104  1  0  0  0
 29105  1  0  0  0
 29106  1  0  0  0
 33 34  1  0  0  0
 33 66  1  0  0  0
 33 70  2  0  0  0
 34 36  1  0  0  0
 34 59  1  0  0  0
 34107  1  0  0  0
 35 44  2  0  0  0
 35 45  1  0  0  0
 35 68  1  0  0  0
 36 56  1  0  0  0
 36108  1  0  0  0
 37 39  1  0  0  0
 37 47  1  0  0  0
 37 66  1  0  0  0
 37109  1  0  0  0
 38 43  2  0  0  0
 38 46  1  0  0  0
 38 47  1  0  0  0
 39 64  1  0  0  0
 39 67  2  0  0  0
 40 52  1  0  0  0
 40 53  2  0  0  0
 40 58  1  0  0  0
 41110  1  0  0  0
 41111  1  0  0  0
 41112  1  0  0  0
 41 48  1  0  0  0
 42 43  1  0  0  0
 42 66  1  0  0  0
 42113  1  0  0  0
 42114  1  0  0  0
 43 44  1  0  0  0
 44115  1  0  0  0
 45 46  2  0  0  0
 45116  1  0  0  0
 46117  1  0  0  0
 47118  1  0  0  0
 47119  1  0  0  0
 48 56  1  0  0  0
 48 65  1  0  0  0
 48120  1  0  0  0
 49 50  1  0  0  0
 49 53  1  0  0  0
 49 64  1  0  0  0
 49121  1  0  0  0
 50 51  1  0  0  0
 50122  1  0  0  0
 50123  1  0  0  0
 51 52  1  0  0  0
 51124  1  0  0  0
 51125  1  0  0  0
 52126  1  0  0  0
 52127  1  0  0  0
 53 54  1  0  0  0
 54 55  2  0  0  0
 54128  1  0  0  0
 55 57  1  0  0  0
 55129  1  0  0  0
 56 69  2  0  0  0
 57 58  2  0  0  0
 57130  1  0  0  0
 58131  1  0  0  0
 59 60  1  0  0  0
 59 61  1  0  0  0
 59 62  1  0  0  0
 60132  1  0  0  0
 60133  1  0  0  0
 60134  1  0  0  0
 61135  1  0  0  0
 61136  1  0  0  0
 61137  1  0  0  0
 62138  1  0  0  0
 62139  1  0  0  0
 62140  1  0  0  0
 63 65  1  0  0  0
 63141  1  0  0  0
 63142  1  0  0  0
 63143  1  0  0  0
 64144  1  0  0  0
 65145  1  0  0  0
 68 82  1  0  0  0
 71 72  2  0  0  0
 71 74  1  0  0  0
 71146  1  0  0  0
 72 76  1  0  0  0
 72147  1  0  0  0
 73 75  1  0  0  0
 73 76  2  0  0  0
 73148  1  0  0  0
 74 75  2  0  0  0
 74 77  1  0  0  0
 75 80  1  0  0  0
 76 86  1  0  0  0
 77 81  1  0  0  0
 77 84  2  0  0  0
 78 82  1  0  0  0
 78 83  1  0  0  0
 78 85  2  0  0  0
 79 80  1  0  0  0
 79149  1  0  0  0
 79150  1  0  0  0
 79151  1  0  0  0
 80152  1  0  0  0
 80153  1  0  0  0
 81154  1  0  0  0
 81155  1  0  0  0
 82156  1  0  0  0
 82157  1  0  0  0
 83 86  1  0  0  0
 83158  1  0  0  0
 83159  1  0  0  0
 84160  1  0  0  0
M  ISO  4   1 100  68 101  81 100  82 101
M  END
> <chiral flag>
0

> <version>
0

> <s_m_source_file>
/data/baiqing/PycharmProjects/Reinvent-master-3.2/result/LINK_invent/BTK/process_docking_weight1_custom_product_contain_oxygen_bond_distance_aromatic_linkinvent_7_9_3/rearranged_h_0121.sdf

> <i_m_source_file_index>
56

> <r_mmod_Potential_Energy-OPLS-2005>
7.04016494750977

> <r_mmod_Stretch_Energy-OPLS-2005>
41.5102996826172

> <r_mmod_Bend_Energy-OPLS-2005>
103.922668457031

> <r_mmod_Torsional_Energy-OPLS-2005>
189.167678833008

> <r_mmod_Improper_Torsional_Energy-OPLS-2005>
2.52860999107361

> <r_mmod_Van_der_Waal_Energy-OPLS-2005>
158.520431518555

> <r_mmod_Electrostatic_Energy-OPLS-2005>
-255.71012878418

> <r_mmod_Solvation_Energy-OPLS-2005>
-244.105361938477

> <b_mmod_Minimization_Converged-OPLS-2005>
0

> <r_mmod_RMS_Derivative-OPLS-2005>
1.41219449043274

$$$$
56
                    3D
 Structure written by MMmdl.
157165  0  0  1  0            999 V2000
  -30.7521  -14.3946   20.6215 C   0  0  0  0  0  0
  -30.4240  -12.2767   19.4082 C   0  0  0  0  0  0
  -29.4928  -12.5270   18.2051 C   0  0  0  0  0  0
  -28.0136  -12.3925   18.6156 C   0  0  0  0  0  0
  -27.6726  -13.2005   19.8961 C   0  0  2  0  0  0
  -28.7187  -12.9436   21.0065 C   0  0  0  0  0  0
  -25.2616  -13.8125   20.5729 C   0  0  0  0  0  0
  -24.1853  -13.0419   20.9193 C   0  0  0  0  0  0
  -24.6415  -11.6878   20.8766 C   0  0  0  0  0  0
  -23.9087  -10.4269   21.0443 C   0  0  0  0  0  0
  -24.3631   -9.4175   21.9226 C   0  0  0  0  0  0
  -23.6292   -8.2218   22.0778 C   0  0  0  0  0  0
  -22.4274   -8.0281   21.3551 C   0  0  0  0  0  0
  -21.9916   -9.0275   20.4666 C   0  0  0  0  0  0
  -22.7261  -10.2144   20.3086 C   0  0  0  0  0  0
  -21.6836   -6.0742   22.5287 C   0  0  0  0  0  0
  -21.3992   -6.5646   23.8220 C   0  0  0  0  0  0
  -21.3660   -5.6806   24.9184 C   0  0  0  0  0  0
  -21.6042   -4.3067   24.7235 C   0  0  0  0  0  0
  -21.8800   -3.8152   23.4351 C   0  0  0  0  0  0
  -21.9176   -4.6969   22.3405 C   0  0  0  0  0  0
  -22.7861  -13.5233   21.1854 C   0  0  0  0  0  0
  -22.1655   -4.2156   21.0984 F   0  0  0  0  0  0
  -21.5643   -3.4556   25.7749 F   0  0  0  0  0  0
  -30.0609  -13.2340   20.4617 N   0  0  0  0  0  0
  -26.3092  -12.9306   20.3509 N   0  0  0  0  0  0
  -25.9351  -11.6462   20.5828 N   0  0  0  0  0  0
  -22.0459  -12.8248   22.0394 N   0  0  0  0  0  0
  -25.4265  -15.1852   20.4137 N   0  0  0  0  0  0
  -31.8250  -14.6335   20.0604 O   0  0  0  0  0  0
  -21.6614   -6.8890   21.4248 O   0  0  0  0  0  0
  -22.3570  -14.5554   20.6707 O   0  0  0  0  0  0
  -24.6153  -31.8692   23.2106 C   0  0  0  0  0  0
  -25.9049  -32.4837   23.8394 C   0  0  1  0  0  0
  -27.2391  -27.4522   20.0889 C   0  0  0  0  0  0
  -25.5913  -33.8637   24.2347 N   0  0  0  0  0  0
  -23.4015  -30.4920   21.5499 C   0  0  2  0  0  0
  -24.8512  -28.9531   20.1162 C   0  0  0  0  0  0
  -22.7395  -29.4676   22.4998 C   0  0  0  0  0  0
  -18.0283  -28.1372   22.8478 C   0  0  0  0  0  0
  -24.1482  -36.7316   23.2631 C   0  0  0  0  0  0
  -25.9279  -30.8377   21.3591 C   0  0  0  0  0  0
  -26.0101  -29.4712   20.7108 C   0  0  0  0  0  0
  -27.2120  -28.7266   20.6966 C   0  0  0  0  0  0
  -26.0685  -26.9400   19.4944 C   0  0  0  0  0  0
  -24.8745  -27.6857   19.5058 C   0  0  0  0  0  0
  -23.6118  -29.8166   20.1664 C   0  0  0  0  0  0
  -25.4097  -36.3127   24.0340 C   0  0  1  0  0  0
  -20.5861  -28.3675   23.1358 C   0  0  2  0  0  0
  -20.6785  -26.9432   22.5439 C   0  0  0  0  0  0
  -19.5782  -26.6435   21.5216 C   0  0  0  0  0  0
  -18.1945  -26.7928   22.1609 C   0  0  0  0  0  0
  -19.1516  -28.8831   23.2932 C   0  0  0  0  0  0
  -18.9436  -30.1442   23.8923 C   0  0  0  0  0  0
  -17.6439  -30.6573   24.0521 C   0  0  0  0  0  0
  -25.9020  -34.9491   23.5150 C   0  0  0  0  0  0
  -16.5337  -29.9053   23.6283 C   0  0  0  0  0  0
  -16.7261  -28.6474   23.0320 C   0  0  0  0  0  0
  -26.4473  -31.6609   25.0716 C   0  0  0  0  0  0
  -25.3746  -31.3690   26.1468 C   0  0  0  0  0  0
  -27.0289  -30.3067   24.6056 C   0  0  0  0  0  0
  -27.6081  -32.4285   25.7468 C   0  0  0  0  0  0
  -27.5566  -37.1815   24.8463 C   0  0  0  0  0  0
  -21.4128  -29.3075   22.3784 N   0  0  0  0  0  0
  -26.4285  -37.3792   23.9403 N   0  0  0  0  0  0
  -24.6658  -31.0800   22.0993 N   0  0  0  0  0  0
  -23.4204  -28.8189   23.2985 O   0  0  0  0  0  0
  -28.3906  -26.7030   20.0627 O   0  0  0  0  0  0
  -26.5565  -34.8946   22.4695 O   0  0  0  0  0  0
  -23.5345  -32.1448   23.7489 O   0  0  0  0  0  0
  -30.9940  -18.7850   22.4054 C   0  0  0  0  0  0
  -30.9894  -17.3778   22.3526 C   0  0  0  0  0  0
  -29.6910  -18.8753   20.3604 C   0  0  0  0  0  0
  -30.3130  -19.5491   21.4325 C   0  0  0  0  0  0
  -29.6943  -17.4651   20.2846 C   0  0  0  0  0  0
  -30.3165  -16.7076   21.3116 C   0  0  0  0  0  0
  -30.1593  -20.9969   21.6680 C   0  0  0  0  0  0
  -29.2010  -21.8045   21.1690 C   0  0  0  0  0  0
  -28.9669  -16.8091   19.1214 C   0  0  0  0  0  0
  -29.0342  -23.2587   21.5856 C   0  0  0  0  0  0
  -28.8146  -24.2823   20.4522 C   0  0  0  0  0  0
  -28.4242  -25.6584   21.0386 C   0  0  0  0  0  0
  -30.1526  -15.3029   21.4010 N   0  0  0  0  0  0
  -31.4710  -12.3637   19.1073 H   0  0  0  0  0  0
  -30.3119  -11.2575   19.7781 H   0  0  0  0  0  0
  -29.7237  -11.8334   17.3976 H   0  0  0  0  0  0
  -29.6759  -13.5248   17.8028 H   0  0  0  0  0  0
  -27.8027  -11.3350   18.7797 H   0  0  0  0  0  0
  -27.3695  -12.7073   17.7934 H   0  0  0  0  0  0
  -27.7272  -14.2543   19.6351 H   0  0  0  0  0  0
  -28.6808  -11.9004   21.3249 H   0  0  0  0  0  0
  -28.4864  -13.5199   21.9041 H   0  0  0  0  0  0
  -25.2784   -9.5622   22.4805 H   0  0  0  0  0  0
  -23.9980   -7.4590   22.7499 H   0  0  0  0  0  0
  -21.0840   -8.8827   19.8979 H   0  0  0  0  0  0
  -22.3762  -10.9700   19.6193 H   0  0  0  0  0  0
  -21.1972   -7.6155   23.9728 H   0  0  0  0  0  0
  -21.1514   -6.0542   25.9096 H   0  0  0  0  0  0
  -22.0573   -2.7611   23.2859 H   0  0  0  0  0  0
  -22.4041  -11.9927   22.4823 H   0  0  0  0  0  0
  -21.1085  -13.1302   22.2583 H   0  0  0  0  0  0
  -24.6504  -15.8284   20.5251 H   0  0  0  0  0  0
  -26.2794  -15.6396   20.1178 H   0  0  0  0  0  0
  -26.7123  -32.5576   23.1163 H   0  0  0  0  0  0
  -25.0121  -33.9768   25.0543 H   0  0  0  0  0  0
  -22.6899  -31.3080   21.4067 H   0  0  0  0  0  0
  -23.3738  -35.9648   23.3313 H   0  0  0  0  0  0
  -24.3573  -36.8911   22.2038 H   0  0  0  0  0  0
  -23.7255  -37.6538   23.6620 H   0  0  0  0  0  0
  -26.0320  -31.5979   20.5841 H   0  0  0  0  0  0
  -26.8195  -30.9059   21.9689 H   0  0  0  0  0  0
  -28.1106  -29.1189   21.1540 H   0  0  0  0  0  0
  -26.0871  -25.9644   19.0279 H   0  0  0  0  0  0
  -23.9836  -27.2814   19.0445 H   0  0  0  0  0  0
  -23.7210  -30.5888   19.4030 H   0  0  0  0  0  0
  -22.7385  -29.2300   19.8711 H   0  0  0  0  0  0
  -25.1277  -36.1959   25.0822 H   0  0  0  0  0  0
  -20.9966  -28.3187   24.1480 H   0  0  0  0  0  0
  -20.5688  -26.2284   23.3609 H   0  0  0  0  0  0
  -21.6683  -26.7513   22.1257 H   0  0  0  0  0  0
  -19.6952  -25.6360   21.1185 H   0  0  0  0  0  0
  -19.6748  -27.3288   20.6787 H   0  0  0  0  0  0
  -17.4266  -26.6670   21.3968 H   0  0  0  0  0  0
  -18.0366  -26.0030   22.8968 H   0  0  0  0  0  0
  -19.7897  -30.7259   24.2304 H   0  0  0  0  0  0
  -17.4994  -31.6251   24.5123 H   0  0  0  0  0  0
  -15.5335  -30.2973   23.7585 H   0  0  0  0  0  0
  -15.8667  -28.0774   22.7041 H   0  0  0  0  0  0
  -24.5936  -30.7020   25.7790 H   0  0  0  0  0  0
  -24.8906  -32.2833   26.4904 H   0  0  0  0  0  0
  -25.8118  -30.8864   27.0226 H   0  0  0  0  0  0
  -26.2829  -29.6840   24.1109 H   0  0  0  0  0  0
  -27.4100  -29.7272   25.4475 H   0  0  0  0  0  0
  -27.8636  -30.4407   23.9175 H   0  0  0  0  0  0
  -27.2749  -33.3578   26.2083 H   0  0  0  0  0  0
  -28.3870  -32.6845   25.0276 H   0  0  0  0  0  0
  -28.0759  -31.8374   26.5343 H   0  0  0  0  0  0
  -28.2605  -38.0088   24.7493 H   0  0  0  0  0  0
  -28.1052  -36.2640   24.6307 H   0  0  0  0  0  0
  -27.2298  -37.1490   25.8870 H   0  0  0  0  0  0
  -20.9291  -29.8929   21.7129 H   0  0  0  0  0  0
  -26.0188  -38.2871   24.1402 H   0  0  0  0  0  0
  -31.4743  -19.2784   23.2416 H   0  0  0  0  0  0
  -31.4666  -16.8160   23.1431 H   0  0  0  0  0  0
  -29.1671  -19.4312   19.5968 H   0  0  0  0  0  0
  -30.8894  -21.4303   22.3378 H   0  0  0  0  0  0
  -28.4610  -21.4160   20.4829 H   0  0  0  0  0  0
  -27.9557  -16.5417   19.4209 H   0  0  0  0  0  0
  -29.4780  -15.9185   18.7588 H   0  0  0  0  0  0
  -28.8922  -17.4915   18.2732 H   0  0  0  0  0  0
  -29.8906  -23.5680   22.1868 H   0  0  0  0  0  0
  -28.1749  -23.2861   22.2577 H   0  0  0  0  0  0
  -28.0267  -23.9403   19.7815 H   0  0  0  0  0  0
  -29.7197  -24.3707   19.8517 H   0  0  0  0  0  0
  -29.1498  -25.9500   21.7987 H   0  0  0  0  0  0
  -27.4673  -25.5559   21.5576 H   0  0  0  0  0  0
  -29.3352  -14.9758   21.8955 H   0  0  0  0  0  0
  1 25  1  0  0  0
  1 30  2  0  0  0
  1 83  1  0  0  0
  2  3  1  0  0  0
  2 25  1  0  0  0
  2 84  1  0  0  0
  2 85  1  0  0  0
  3  4  1  0  0  0
  3 86  1  0  0  0
  3 87  1  0  0  0
  4  5  1  0  0  0
  4 88  1  0  0  0
  4 89  1  0  0  0
  5  6  1  0  0  0
  5 26  1  0  0  0
  5 90  1  0  0  0
  6 25  1  0  0  0
  6 91  1  0  0  0
  6 92  1  0  0  0
  7  8  2  0  0  0
  7 26  1  0  0  0
  7 29  1  0  0  0
  8  9  1  0  0  0
  8 22  1  0  0  0
  9 10  1  0  0  0
  9 27  2  0  0  0
 10 11  2  0  0  0
 10 15  1  0  0  0
 11 12  1  0  0  0
 11 93  1  0  0  0
 12 13  2  0  0  0
 12 94  1  0  0  0
 13 14  1  0  0  0
 13 31  1  0  0  0
 14 15  2  0  0  0
 14 95  1  0  0  0
 15 96  1  0  0  0
 16 17  2  0  0  0
 16 21  1  0  0  0
 16 31  1  0  0  0
 17 18  1  0  0  0
 17 97  1  0  0  0
 18 19  2  0  0  0
 18 98  1  0  0  0
 19 20  1  0  0  0
 19 24  1  0  0  0
 20 21  2  0  0  0
 20 99  1  0  0  0
 21 23  1  0  0  0
 22 28  1  0  0  0
 22 32  2  0  0  0
 26 27  1  0  0  0
 28100  1  0  0  0
 28101  1  0  0  0
 29102  1  0  0  0
 29103  1  0  0  0
 33 34  1  0  0  0
 33 66  1  0  0  0
 33 70  2  0  0  0
 34 36  1  0  0  0
 34 59  1  0  0  0
 34104  1  0  0  0
 35 44  2  0  0  0
 35 45  1  0  0  0
 35 68  1  0  0  0
 36 56  1  0  0  0
 36105  1  0  0  0
 37 39  1  0  0  0
 37 47  1  0  0  0
 37 66  1  0  0  0
 37106  1  0  0  0
 38 43  2  0  0  0
 38 46  1  0  0  0
 38 47  1  0  0  0
 39 64  1  0  0  0
 39 67  2  0  0  0
 40 52  1  0  0  0
 40 53  2  0  0  0
 40 58  1  0  0  0
 41107  1  0  0  0
 41108  1  0  0  0
 41109  1  0  0  0
 41 48  1  0  0  0
 42 43  1  0  0  0
 42 66  1  0  0  0
 42110  1  0  0  0
 42111  1  0  0  0
 43 44  1  0  0  0
 44112  1  0  0  0
 45 46  2  0  0  0
 45113  1  0  0  0
 46114  1  0  0  0
 47115  1  0  0  0
 47116  1  0  0  0
 48 56  1  0  0  0
 48 65  1  0  0  0
 48117  1  0  0  0
 49 50  1  0  0  0
 49 53  1  0  0  0
 49 64  1  0  0  0
 49118  1  0  0  0
 50 51  1  0  0  0
 50119  1  0  0  0
 50120  1  0  0  0
 51 52  1  0  0  0
 51121  1  0  0  0
 51122  1  0  0  0
 52123  1  0  0  0
 52124  1  0  0  0
 53 54  1  0  0  0
 54 55  2  0  0  0
 54125  1  0  0  0
 55 57  1  0  0  0
 55126  1  0  0  0
 56 69  2  0  0  0
 57 58  2  0  0  0
 57127  1  0  0  0
 58128  1  0  0  0
 59 60  1  0  0  0
 59 61  1  0  0  0
 59 62  1  0  0  0
 60129  1  0  0  0
 60130  1  0  0  0
 60131  1  0  0  0
 61132  1  0  0  0
 61133  1  0  0  0
 61134  1  0  0  0
 62135  1  0  0  0
 62136  1  0  0  0
 62137  1  0  0  0
 63 65  1  0  0  0
 63138  1  0  0  0
 63139  1  0  0  0
 63140  1  0  0  0
 64141  1  0  0  0
 65142  1  0  0  0
 68 82  1  0  0  0
 71 72  2  0  0  0
 71 74  1  0  0  0
 71143  1  0  0  0
 72 76  1  0  0  0
 72144  1  0  0  0
 73 74  2  0  0  0
 73 75  1  0  0  0
 73145  1  0  0  0
 74 77  1  0  0  0
 75 76  2  0  0  0
 75 79  1  0  0  0
 76 83  1  0  0  0
 77 78  2  0  0  0
 77146  1  0  0  0
 78 80  1  0  0  0
 78147  1  0  0  0
 79148  1  0  0  0
 79149  1  0  0  0
 79150  1  0  0  0
 80 81  1  0  0  0
 80151  1  0  0  0
 80152  1  0  0  0
 81 82  1  0  0  0
 81153  1  0  0  0
 81154  1  0  0  0
 82155  1  0  0  0
 82156  1  0  0  0
 83157  1  0  0  0
M  ISO  4   1 100  68 101  82 101  83 100
M  END
> <chiral flag>
0

> <version>
0

> <s_m_source_file>
/data/baiqing/PycharmProjects/Reinvent-master-3.2/result/LINK_invent/BTK/process_docking_weight1_custom_product_contain_oxygen_bond_distance_aromatic_linkinvent_7_9_3/rearranged_h_0121.sdf

> <i_m_source_file_index>
57

> <r_mmod_Potential_Energy-OPLS-2005>
-35.1591300964355

> <r_mmod_Stretch_Energy-OPLS-2005>
33.5125274658203

> <r_mmod_Bend_Energy-OPLS-2005>
89.3756942749023

> <r_mmod_Torsional_Energy-OPLS-2005>
267.542236328125

> <r_mmod_Improper_Torsional_Energy-OPLS-2005>
4.70270681381226

> <r_mmod_Van_der_Waal_Energy-OPLS-2005>
147.110534667969

> <r_mmod_Electrostatic_Energy-OPLS-2005>
-381.602874755859

> <r_mmod_Solvation_Energy-OPLS-2005>
-203.593826293945

> <b_mmod_Minimization_Converged-OPLS-2005>
0

> <r_mmod_RMS_Derivative-OPLS-2005>
3.6567370891571

$$$$
57
                    3D
 Structure written by MMmdl.
164172  0  0  1  0            999 V2000
  -30.7504  -14.5206   20.6638 C   0  0  0  0  0  0
  -30.4107  -12.3763   19.4503 C   0  0  0  0  0  0
  -29.4931  -12.5364   18.2229 C   0  0  0  0  0  0
  -28.0195  -12.3617   18.6289 C   0  0  0  0  0  0
  -27.6549  -13.2170   19.8689 C   0  0  2  0  0  0
  -28.6885  -13.0507   21.0033 C   0  0  0  0  0  0
  -25.2559  -13.8188   20.5687 C   0  0  0  0  0  0
  -24.1818  -13.0455   20.9175 C   0  0  0  0  0  0
  -24.6385  -11.6921   20.8717 C   0  0  0  0  0  0
  -23.9058  -10.4302   21.0392 C   0  0  0  0  0  0
  -24.3605   -9.4225   21.9188 C   0  0  0  0  0  0
  -23.6285   -8.2257   22.0760 C   0  0  0  0  0  0
  -22.4276   -8.0290   21.3535 C   0  0  0  0  0  0
  -21.9903   -9.0261   20.4645 C   0  0  0  0  0  0
  -22.7227  -10.2148   20.3050 C   0  0  0  0  0  0
  -21.6852   -6.0748   22.5278 C   0  0  0  0  0  0
  -21.4019   -6.5646   23.8218 C   0  0  0  0  0  0
  -21.3667   -5.6791   24.9170 C   0  0  0  0  0  0
  -21.6036   -4.3052   24.7202 C   0  0  0  0  0  0
  -21.8821   -3.8158   23.4321 C   0  0  0  0  0  0
  -21.9191   -4.6979   22.3386 C   0  0  0  0  0  0
  -22.7844  -13.5239   21.1842 C   0  0  0  0  0  0
  -22.1659   -4.2177   21.0961 F   0  0  0  0  0  0
  -21.5622   -3.4532   25.7715 F   0  0  0  0  0  0
  -30.0222  -13.3711   20.4760 N   0  0  0  0  0  0
  -26.2986  -12.9373   20.3334 N   0  0  0  0  0  0
  -25.9311  -11.6520   20.5747 N   0  0  0  0  0  0
  -22.0473  -12.8224   22.0393 N   0  0  0  0  0  0
  -25.4296  -15.1892   20.4152 N   0  0  0  0  0  0
  -31.7518  -14.7633   19.9827 O   0  0  0  0  0  0
  -21.6626   -6.8899   21.4249 O   0  0  0  0  0  0
  -22.3553  -14.5567   20.6723 O   0  0  0  0  0  0
  -24.6247  -31.8575   23.2021 C   0  0  0  0  0  0
  -25.9083  -32.4771   23.8375 C   0  0  1  0  0  0
  -27.2447  -27.3573   20.0965 C   0  0  0  0  0  0
  -25.5902  -33.8575   24.2299 N   0  0  0  0  0  0
  -23.4185  -30.4801   21.5413 C   0  0  2  0  0  0
  -24.8675  -28.9304   20.1112 C   0  0  0  0  0  0
  -22.7490  -29.4588   22.4903 C   0  0  0  0  0  0
  -18.0299  -28.1350   22.8493 C   0  0  0  0  0  0
  -24.1474  -36.7326   23.2641 C   0  0  0  0  0  0
  -25.9525  -30.8018   21.3590 C   0  0  0  0  0  0
  -26.0293  -29.4256   20.7136 C   0  0  0  0  0  0
  -27.2161  -28.6458   20.7015 C   0  0  0  0  0  0
  -26.0535  -26.8864   19.4983 C   0  0  0  0  0  0
  -24.8774  -27.6638   19.5031 C   0  0  0  0  0  0
  -23.6359  -29.8104   20.1555 C   0  0  0  0  0  0
  -25.4082  -36.3093   24.0336 C   0  0  1  0  0  0
  -20.5901  -28.3638   23.1298 C   0  0  2  0  0  0
  -20.6755  -26.9347   22.5424 C   0  0  0  0  0  0
  -19.5736  -26.6351   21.5213 C   0  0  0  0  0  0
  -18.1917  -26.7903   22.1622 C   0  0  0  0  0  0
  -19.1549  -28.8814   23.2899 C   0  0  0  0  0  0
  -18.9465  -30.1411   23.8919 C   0  0  0  0  0  0
  -17.6460  -30.6542   24.0560 C   0  0  0  0  0  0
  -25.9027  -34.9449   23.5123 C   0  0  0  0  0  0
  -16.5356  -29.9047   23.6306 C   0  0  0  0  0  0
  -16.7291  -28.6472   23.0331 C   0  0  0  0  0  0
  -26.4499  -31.6588   25.0729 C   0  0  0  0  0  0
  -25.3771  -31.3637   26.1479 C   0  0  0  0  0  0
  -27.0364  -30.3069   24.6079 C   0  0  0  0  0  0
  -27.6059  -32.4327   25.7517 C   0  0  0  0  0  0
  -27.5559  -37.1816   24.8453 C   0  0  0  0  0  0
  -21.4199  -29.3021   22.3707 N   0  0  0  0  0  0
  -26.4265  -37.3783   23.9405 N   0  0  0  0  0  0
  -24.6855  -31.0629   22.0934 N   0  0  0  0  0  0
  -23.4239  -28.8088   23.2928 O   0  0  0  0  0  0
  -28.4244  -26.6173   20.1220 O   0  0  0  0  0  0
  -26.5595  -34.8911   22.4689 O   0  0  0  0  0  0
  -23.5427  -32.1341   23.7371 O   0  0  0  0  0  0
  -29.8444  -17.7922   21.1749 C   0  0  0  0  0  0
  -28.0290  -18.9883   22.2423 C   0  0  0  0  0  0
  -29.5876  -16.6067   21.9507 C   0  0  0  0  0  0
  -27.7282  -17.8510   23.0095 C   0  0  0  0  0  0
  -28.5318  -16.6806   22.9207 C   0  0  0  0  0  0
  -29.1029  -19.0117   21.3278 C   0  0  0  0  0  0
  -30.5296  -15.3984   21.9245 C   0  0  0  0  0  0
  -26.5302  -17.9431   23.9483 C   0  0  0  0  0  0
  -28.9011  -15.8596   25.3176 C   0  0  0  0  0  0
  -28.2758  -15.5617   23.9459 C   0  0  0  0  0  0
  -28.3372  -24.0506   20.4466 C   0  0  0  0  0  0
  -29.0333  -22.6920   20.0231 C   0  0  0  0  0  0
  -28.5652  -25.2962   19.5133 C   0  0  0  0  0  0
  -28.7555  -21.4482   20.9487 C   0  0  0  0  0  0
  -31.2348  -15.1398   22.9485 N   0  0  0  0  0  0
  -29.4196  -20.1826   20.6112 O   0  0  0  0  0  0
  -31.4529  -12.4787   19.1506 H   0  0  0  0  0  0
  -30.3250  -11.3694   19.8626 H   0  0  0  0  0  0
  -29.7624  -11.8148   17.4505 H   0  0  0  0  0  0
  -29.6370  -13.5248   17.7864 H   0  0  0  0  0  0
  -27.8528  -11.3048   18.8428 H   0  0  0  0  0  0
  -27.3665  -12.6147   17.7928 H   0  0  0  0  0  0
  -27.6867  -14.2593   19.5527 H   0  0  0  0  0  0
  -28.6751  -12.0316   21.3916 H   0  0  0  0  0  0
  -28.3956  -13.6915   21.8240 H   0  0  0  0  0  0
  -25.2750   -9.5700   22.4768 H   0  0  0  0  0  0
  -23.9997   -7.4642   22.7467 H   0  0  0  0  0  0
  -21.0848   -8.8775   19.8929 H   0  0  0  0  0  0
  -22.3691  -10.9687   19.6155 H   0  0  0  0  0  0
  -21.2025   -7.6156   23.9734 H   0  0  0  0  0  0
  -21.1486   -6.0509   25.9074 H   0  0  0  0  0  0
  -22.0594   -2.7630   23.2797 H   0  0  0  0  0  0
  -22.4066  -11.9841   22.4685 H   0  0  0  0  0  0
  -21.1114  -13.1295   22.2611 H   0  0  0  0  0  0
  -24.6691  -15.8481   20.5449 H   0  0  0  0  0  0
  -26.2959  -15.6373   20.1439 H   0  0  0  0  0  0
  -26.7150  -32.5476   23.1144 H   0  0  0  0  0  0
  -25.0057  -33.9730   25.0455 H   0  0  0  0  0  0
  -22.7110  -31.2980   21.3921 H   0  0  0  0  0  0
  -23.3718  -35.9681   23.3301 H   0  0  0  0  0  0
  -24.3578  -36.8973   22.2059 H   0  0  0  0  0  0
  -23.7260  -37.6540   23.6683 H   0  0  0  0  0  0
  -26.0511  -31.5529   20.5733 H   0  0  0  0  0  0
  -26.8469  -30.8800   21.9671 H   0  0  0  0  0  0
  -28.1164  -29.0216   21.1681 H   0  0  0  0  0  0
  -26.0074  -25.9126   19.0359 H   0  0  0  0  0  0
  -23.9811  -27.2777   19.0350 H   0  0  0  0  0  0
  -23.7569  -30.5851   19.3965 H   0  0  0  0  0  0
  -22.7589  -29.2379   19.8526 H   0  0  0  0  0  0
  -25.1255  -36.1949   25.0829 H   0  0  0  0  0  0
  -21.0013  -28.3192   24.1415 H   0  0  0  0  0  0
  -20.5609  -26.2234   23.3622 H   0  0  0  0  0  0
  -21.6615  -26.7325   22.1237 H   0  0  0  0  0  0
  -19.6872  -25.6273   21.1217 H   0  0  0  0  0  0
  -19.6679  -27.3186   20.6761 H   0  0  0  0  0  0
  -17.4187  -26.6705   21.4004 H   0  0  0  0  0  0
  -18.0271  -26.0011   22.8979 H   0  0  0  0  0  0
  -19.7936  -30.7213   24.2316 H   0  0  0  0  0  0
  -17.5005  -31.6228   24.5137 H   0  0  0  0  0  0
  -15.5354  -30.2939   23.7589 H   0  0  0  0  0  0
  -15.8709  -28.0795   22.7001 H   0  0  0  0  0  0
  -24.5999  -30.6912   25.7835 H   0  0  0  0  0  0
  -24.8868  -32.2736   26.4959 H   0  0  0  0  0  0
  -25.8142  -30.8835   27.0243 H   0  0  0  0  0  0
  -26.2926  -29.6807   24.1144 H   0  0  0  0  0  0
  -27.4216  -29.7309   25.4509 H   0  0  0  0  0  0
  -27.8701  -30.4460   23.9185 H   0  0  0  0  0  0
  -27.2708  -33.3652   26.2080 H   0  0  0  0  0  0
  -28.3908  -32.6853   25.0368 H   0  0  0  0  0  0
  -28.0694  -31.8447   26.5468 H   0  0  0  0  0  0
  -28.2542  -38.0134   24.7510 H   0  0  0  0  0  0
  -28.1080  -36.2671   24.6257 H   0  0  0  0  0  0
  -27.2292  -37.1455   25.8856 H   0  0  0  0  0  0
  -20.9339  -29.8897   21.7076 H   0  0  0  0  0  0
  -26.0147  -38.2857   24.1416 H   0  0  0  0  0  0
  -30.6850  -17.7845   20.4959 H   0  0  0  0  0  0
  -27.4125  -19.8597   22.3989 H   0  0  0  0  0  0
  -25.9653  -18.8596   23.7808 H   0  0  0  0  0  0
  -26.8269  -17.9500   24.9966 H   0  0  0  0  0  0
  -25.8373  -17.1181   23.7839 H   0  0  0  0  0  0
  -28.6796  -15.0584   26.0217 H   0  0  0  0  0  0
  -28.5326  -16.7871   25.7519 H   0  0  0  0  0  0
  -29.9854  -15.9420   25.2481 H   0  0  0  0  0  0
  -28.6698  -14.6030   23.6315 H   0  0  0  0  0  0
  -27.2046  -15.3850   24.0444 H   0  0  0  0  0  0
  -28.6783  -24.3110   21.4481 H   0  0  0  0  0  0
  -27.2619  -23.8917   20.5278 H   0  0  0  0  0  0
  -30.1089  -22.8580   19.9689 H   0  0  0  0  0  0
  -28.7176  -22.4385   19.0099 H   0  0  0  0  0  0
  -27.9900  -25.2005   18.5925 H   0  0  0  0  0  0
  -29.6019  -25.2556   19.1755 H   0  0  0  0  0  0
  -27.6747  -21.3079   20.9265 H   0  0  0  0  0  0
  -29.0265  -21.7106   21.9729 H   0  0  0  0  0  0
  -31.8424  -14.3477   22.7717 H   0  0  0  0  0  0
  1 25  1  0  0  0
  1 30  2  0  0  0
  1 77  1  0  0  0
  2  3  1  0  0  0
  2 25  1  0  0  0
  2 87  1  0  0  0
  2 88  1  0  0  0
  3  4  1  0  0  0
  3 89  1  0  0  0
  3 90  1  0  0  0
  4  5  1  0  0  0
  4 91  1  0  0  0
  4 92  1  0  0  0
  5  6  1  0  0  0
  5 26  1  0  0  0
  5 93  1  0  0  0
  6 25  1  0  0  0
  6 94  1  0  0  0
  6 95  1  0  0  0
  7  8  2  0  0  0
  7 26  1  0  0  0
  7 29  1  0  0  0
  8  9  1  0  0  0
  8 22  1  0  0  0
  9 10  1  0  0  0
  9 27  2  0  0  0
 10 11  2  0  0  0
 10 15  1  0  0  0
 11 12  1  0  0  0
 11 96  1  0  0  0
 12 13  2  0  0  0
 12 97  1  0  0  0
 13 14  1  0  0  0
 13 31  1  0  0  0
 14 15  2  0  0  0
 14 98  1  0  0  0
 15 99  1  0  0  0
 16 17  2  0  0  0
 16 21  1  0  0  0
 16 31  1  0  0  0
 17 18  1  0  0  0
 17100  1  0  0  0
 18 19  2  0  0  0
 18101  1  0  0  0
 19 20  1  0  0  0
 19 24  1  0  0  0
 20 21  2  0  0  0
 20102  1  0  0  0
 21 23  1  0  0  0
 22 28  1  0  0  0
 22 32  2  0  0  0
 26 27  1  0  0  0
 28103  1  0  0  0
 28104  1  0  0  0
 29105  1  0  0  0
 29106  1  0  0  0
 33 34  1  0  0  0
 33 66  1  0  0  0
 33 70  2  0  0  0
 34 36  1  0  0  0
 34 59  1  0  0  0
 34107  1  0  0  0
 35 44  2  0  0  0
 35 45  1  0  0  0
 35 68  1  0  0  0
 36 56  1  0  0  0
 36108  1  0  0  0
 37 39  1  0  0  0
 37 47  1  0  0  0
 37 66  1  0  0  0
 37109  1  0  0  0
 38 43  2  0  0  0
 38 46  1  0  0  0
 38 47  1  0  0  0
 39 64  1  0  0  0
 39 67  2  0  0  0
 40 52  1  0  0  0
 40 53  2  0  0  0
 40 58  1  0  0  0
 41110  1  0  0  0
 41111  1  0  0  0
 41112  1  0  0  0
 41 48  1  0  0  0
 42 43  1  0  0  0
 42 66  1  0  0  0
 42113  1  0  0  0
 42114  1  0  0  0
 43 44  1  0  0  0
 44115  1  0  0  0
 45 46  2  0  0  0
 45116  1  0  0  0
 46117  1  0  0  0
 47118  1  0  0  0
 47119  1  0  0  0
 48 56  1  0  0  0
 48 65  1  0  0  0
 48120  1  0  0  0
 49 50  1  0  0  0
 49 53  1  0  0  0
 49 64  1  0  0  0
 49121  1  0  0  0
 50 51  1  0  0  0
 50122  1  0  0  0
 50123  1  0  0  0
 51 52  1  0  0  0
 51124  1  0  0  0
 51125  1  0  0  0
 52126  1  0  0  0
 52127  1  0  0  0
 53 54  1  0  0  0
 54 55  2  0  0  0
 54128  1  0  0  0
 55 57  1  0  0  0
 55129  1  0  0  0
 56 69  2  0  0  0
 57 58  2  0  0  0
 57130  1  0  0  0
 58131  1  0  0  0
 59 60  1  0  0  0
 59 61  1  0  0  0
 59 62  1  0  0  0
 60132  1  0  0  0
 60133  1  0  0  0
 60134  1  0  0  0
 61135  1  0  0  0
 61136  1  0  0  0
 61137  1  0  0  0
 62138  1  0  0  0
 62139  1  0  0  0
 62140  1  0  0  0
 63 65  1  0  0  0
 63141  1  0  0  0
 63142  1  0  0  0
 63143  1  0  0  0
 64144  1  0  0  0
 65145  1  0  0  0
 68 83  1  0  0  0
 71 73  2  0  0  0
 71 76  1  0  0  0
 71146  1  0  0  0
 72 74  1  0  0  0
 72 76  2  0  0  0
 72147  1  0  0  0
 73 75  1  0  0  0
 73 77  1  0  0  0
 74 75  2  0  0  0
 74 78  1  0  0  0
 75 80  1  0  0  0
 76 86  1  0  0  0
 77 85  2  0  0  0
 78148  1  0  0  0
 78149  1  0  0  0
 78150  1  0  0  0
 79 80  1  0  0  0
 79151  1  0  0  0
 79152  1  0  0  0
 79153  1  0  0  0
 80154  1  0  0  0
 80155  1  0  0  0
 81 82  1  0  0  0
 81 83  1  0  0  0
 81156  1  0  0  0
 81157  1  0  0  0
 82 84  1  0  0  0
 82158  1  0  0  0
 82159  1  0  0  0
 83160  1  0  0  0
 83161  1  0  0  0
 84 86  1  0  0  0
 84162  1  0  0  0
 84163  1  0  0  0
 85164  1  0  0  0
M  ISO  4   1 100  68 101  77 100  83 101
M  END
> <chiral flag>
0

> <version>
0

> <s_m_source_file>
/data/baiqing/PycharmProjects/Reinvent-master-3.2/result/LINK_invent/BTK/process_docking_weight1_custom_product_contain_oxygen_bond_distance_aromatic_linkinvent_7_9_3/rearranged_h_0121.sdf

> <i_m_source_file_index>
58

> <r_mmod_Potential_Energy-OPLS-2005>
207.789916992188

> <r_mmod_Stretch_Energy-OPLS-2005>
76.887580871582

> <r_mmod_Bend_Energy-OPLS-2005>
154.731033325195

> <r_mmod_Torsional_Energy-OPLS-2005>
227.629791259766

> <r_mmod_Improper_Torsional_Energy-OPLS-2005>
7.60967969894409

> <r_mmod_Van_der_Waal_Energy-OPLS-2005>
150.501419067383

> <r_mmod_Electrostatic_Energy-OPLS-2005>
-239.79084777832

> <r_mmod_Solvation_Energy-OPLS-2005>
-194.913284301758

> <b_mmod_Minimization_Converged-OPLS-2005>
0

> <r_mmod_RMS_Derivative-OPLS-2005>
3.36290311813354

$$$$
58
                    3D
 Structure written by MMmdl.
159167  0  0  1  0            999 V2000
  -30.7392  -14.4143   20.6002 C   0  0  0  0  0  0
  -30.4120  -12.2785   19.4209 C   0  0  0  0  0  0
  -29.4936  -12.5070   18.2051 C   0  0  0  0  0  0
  -28.0137  -12.3716   18.6131 C   0  0  0  0  0  0
  -27.6620  -13.2065   19.8737 C   0  0  2  0  0  0
  -28.7000  -12.9784   20.9969 C   0  0  0  0  0  0
  -25.2552  -13.8134   20.5647 C   0  0  0  0  0  0
  -24.1817  -13.0418   20.9171 C   0  0  0  0  0  0
  -24.6384  -11.6888   20.8733 C   0  0  0  0  0  0
  -23.9057  -10.4283   21.0407 C   0  0  0  0  0  0
  -24.3611   -9.4197   21.9187 C   0  0  0  0  0  0
  -23.6290   -8.2239   22.0755 C   0  0  0  0  0  0
  -22.4269   -8.0284   21.3549 C   0  0  0  0  0  0
  -21.9906   -9.0253   20.4655 C   0  0  0  0  0  0
  -22.7239  -10.2126   20.3053 C   0  0  0  0  0  0
  -21.6855   -6.0729   22.5286 C   0  0  0  0  0  0
  -21.4016   -6.5630   23.8218 C   0  0  0  0  0  0
  -21.3648   -5.6783   24.9182 C   0  0  0  0  0  0
  -21.6044   -4.3047   24.7230 C   0  0  0  0  0  0
  -21.8817   -3.8142   23.4353 C   0  0  0  0  0  0
  -21.9195   -4.6963   22.3404 C   0  0  0  0  0  0
  -22.7847  -13.5225   21.1842 C   0  0  0  0  0  0
  -22.1665   -4.2147   21.0984 F   0  0  0  0  0  0
  -21.5619   -3.4532   25.7743 F   0  0  0  0  0  0
  -30.0400  -13.2585   20.4522 N   0  0  0  0  0  0
  -26.3011  -12.9324   20.3340 N   0  0  0  0  0  0
  -25.9308  -11.6484   20.5743 N   0  0  0  0  0  0
  -22.0484  -12.8219   22.0409 N   0  0  0  0  0  0
  -25.4213  -15.1841   20.3999 N   0  0  0  0  0  0
  -31.8413  -14.5930   20.0742 O   0  0  0  0  0  0
  -21.6634   -6.8878   21.4247 O   0  0  0  0  0  0
  -22.3528  -14.5529   20.6694 O   0  0  0  0  0  0
  -24.6101  -31.8717   23.2130 C   0  0  0  0  0  0
  -25.9016  -32.4837   23.8408 C   0  0  1  0  0  0
  -27.2272  -27.4691   20.0756 C   0  0  0  0  0  0
  -25.5886  -33.8636   24.2345 N   0  0  0  0  0  0
  -23.3930  -30.4984   21.5532 C   0  0  2  0  0  0
  -24.8331  -28.9664   20.1149 C   0  0  0  0  0  0
  -22.7367  -29.4686   22.4999 C   0  0  0  0  0  0
  -18.0260  -28.1364   22.8487 C   0  0  0  0  0  0
  -24.1484  -36.7324   23.2621 C   0  0  0  0  0  0
  -25.9178  -30.8454   21.3590 C   0  0  0  0  0  0
  -25.9910  -29.4808   20.7100 C   0  0  0  0  0  0
  -27.1860  -28.7345   20.6962 C   0  0  0  0  0  0
  -26.0492  -26.9579   19.4807 C   0  0  0  0  0  0
  -24.8540  -27.7003   19.5050 C   0  0  0  0  0  0
  -23.5963  -29.8323   20.1668 C   0  0  0  0  0  0
  -25.4087  -36.3122   24.0347 C   0  0  1  0  0  0
  -20.5843  -28.3647   23.1324 C   0  0  2  0  0  0
  -20.6744  -26.9392   22.5404 C   0  0  0  0  0  0
  -19.5728  -26.6385   21.5191 C   0  0  0  0  0  0
  -18.1906  -26.7913   22.1609 C   0  0  0  0  0  0
  -19.1508  -28.8816   23.2908 C   0  0  0  0  0  0
  -18.9448  -30.1418   23.8919 C   0  0  0  0  0  0
  -17.6452  -30.6579   24.0559 C   0  0  0  0  0  0
  -25.9032  -34.9492   23.5147 C   0  0  0  0  0  0
  -16.5342  -29.9086   23.6309 C   0  0  0  0  0  0
  -16.7249  -28.6497   23.0344 C   0  0  0  0  0  0
  -26.4450  -31.6594   25.0722 C   0  0  0  0  0  0
  -25.3738  -31.3694   26.1492 C   0  0  0  0  0  0
  -27.0230  -30.3033   24.6043 C   0  0  0  0  0  0
  -27.6056  -32.4277   25.7470 C   0  0  0  0  0  0
  -27.5611  -37.1756   24.8417 C   0  0  0  0  0  0
  -21.4101  -29.3039   22.3745 N   0  0  0  0  0  0
  -26.4249  -37.3831   23.9478 N   0  0  0  0  0  0
  -24.6586  -31.0857   22.1007 N   0  0  0  0  0  0
  -23.4173  -28.8212   23.3009 O   0  0  0  0  0  0
  -28.4269  -26.7982   20.0794 O   0  0  0  0  0  0
  -26.5595  -34.8947   22.4711 O   0  0  0  0  0  0
  -23.5309  -32.1452   23.7560 O   0  0  0  0  0  0
  -31.7520  -17.2361   21.3610 C   0  0  0  0  0  0
  -32.0593  -18.5974   21.1884 C   0  0  0  0  0  0
  -29.7067  -19.0844   20.8319 C   0  0  0  0  0  0
  -29.3901  -17.7193   20.9958 C   0  0  0  0  0  0
  -30.4230  -16.7755   21.2147 C   0  0  0  0  0  0
  -31.0498  -19.5284   20.8814 C   0  0  0  0  0  0
  -29.8670  -24.9152   19.7013 C   0  0  0  0  0  0
  -27.9407  -17.2851   20.8798 C   0  0  0  0  0  0
  -30.3856  -23.8914   18.6900 C   0  0  0  0  0  0
  -28.4986  -25.5355   19.4265 C   0  0  0  0  0  0
  -31.3057  -22.8201   19.3084 C   0  0  0  0  0  0
  -30.5223  -21.6927   19.9922 C   0  0  0  0  0  0
  -30.1090  -15.3886   21.2801 N   0  0  0  0  0  0
  -30.5313  -25.2349   20.6939 O   0  0  0  0  0  0
  -31.4468  -20.8239   20.6380 O   0  0  0  0  0  0
  -31.4604  -12.3509   19.1254 H   0  0  0  0  0  0
  -30.2848  -11.2668   19.8087 H   0  0  0  0  0  0
  -29.7324  -11.7959   17.4131 H   0  0  0  0  0  0
  -29.6754  -13.5003   17.7910 H   0  0  0  0  0  0
  -27.8186  -11.3154   18.8017 H   0  0  0  0  0  0
  -27.3672  -12.6575   17.7825 H   0  0  0  0  0  0
  -27.7105  -14.2553   19.5805 H   0  0  0  0  0  0
  -28.6611  -11.9443   21.3421 H   0  0  0  0  0  0
  -28.4582  -13.5835   21.8714 H   0  0  0  0  0  0
  -25.2766   -9.5675   22.4743 H   0  0  0  0  0  0
  -24.0011   -7.4624   22.7458 H   0  0  0  0  0  0
  -21.0843   -8.8779   19.8955 H   0  0  0  0  0  0
  -22.3719  -10.9658   19.6140 H   0  0  0  0  0  0
  -21.2009   -7.6132   23.9720 H   0  0  0  0  0  0
  -21.1466   -6.0512   25.9084 H   0  0  0  0  0  0
  -22.0604   -2.7608   23.2857 H   0  0  0  0  0  0
  -22.4072  -11.9864   22.4788 H   0  0  0  0  0  0
  -21.1115  -13.1276   22.2625 H   0  0  0  0  0  0
  -24.6540  -15.8399   20.4979 H   0  0  0  0  0  0
  -26.2685  -15.6156   20.0579 H   0  0  0  0  0  0
  -26.7088  -32.5562   23.1177 H   0  0  0  0  0  0
  -25.0035  -33.9800   25.0490 H   0  0  0  0  0  0
  -22.6798  -31.3151   21.4196 H   0  0  0  0  0  0
  -23.3797  -35.9594   23.3140 H   0  0  0  0  0  0
  -24.3643  -36.9077   22.2068 H   0  0  0  0  0  0
  -23.7153  -37.6453   23.6723 H   0  0  0  0  0  0
  -26.0235  -31.6088   20.5876 H   0  0  0  0  0  0
  -26.8104  -30.9036   21.9698 H   0  0  0  0  0  0
  -28.0814  -29.1312   21.1536 H   0  0  0  0  0  0
  -26.0284  -25.9954   18.9906 H   0  0  0  0  0  0
  -23.9601  -27.2965   19.0490 H   0  0  0  0  0  0
  -23.7043  -30.6078   19.4073 H   0  0  0  0  0  0
  -22.7181  -29.2530   19.8728 H   0  0  0  0  0  0
  -25.1228  -36.1960   25.0830 H   0  0  0  0  0  0
  -20.9936  -28.3207   24.1444 H   0  0  0  0  0  0
  -20.5621  -26.2264   23.3589 H   0  0  0  0  0  0
  -21.6625  -26.7429   22.1219 H   0  0  0  0  0  0
  -19.6894  -25.6297   21.1218 H   0  0  0  0  0  0
  -19.6659  -27.3192   20.6715 H   0  0  0  0  0  0
  -17.4174  -26.6645   21.4015 H   0  0  0  0  0  0
  -18.0319  -26.0049   22.9001 H   0  0  0  0  0  0
  -19.7929  -30.7209   24.2317 H   0  0  0  0  0  0
  -17.5024  -31.6262   24.5150 H   0  0  0  0  0  0
  -15.5344  -30.3006   23.7608 H   0  0  0  0  0  0
  -15.8644  -28.0814   22.7070 H   0  0  0  0  0  0
  -24.5902  -30.7038   25.7854 H   0  0  0  0  0  0
  -24.8938  -32.2844   26.4968 H   0  0  0  0  0  0
  -25.8119  -30.8856   27.0230 H   0  0  0  0  0  0
  -26.2722  -29.6844   24.1112 H   0  0  0  0  0  0
  -27.4016  -29.7223   25.4461 H   0  0  0  0  0  0
  -27.8566  -30.4343   23.9141 H   0  0  0  0  0  0
  -27.2719  -33.3593   26.2049 H   0  0  0  0  0  0
  -28.3863  -32.6786   25.0281 H   0  0  0  0  0  0
  -28.0712  -31.8382   26.5377 H   0  0  0  0  0  0
  -28.2441  -38.0233   24.7771 H   0  0  0  0  0  0
  -28.1285  -36.2803   24.5824 H   0  0  0  0  0  0
  -27.2409  -37.0913   25.8815 H   0  0  0  0  0  0
  -20.9245  -29.8796   21.7005 H   0  0  0  0  0  0
  -26.0124  -38.2862   24.1660 H   0  0  0  0  0  0
  -32.5562  -16.5452   21.5721 H   0  0  0  0  0  0
  -33.0869  -18.9245   21.2625 H   0  0  0  0  0  0
  -28.9020  -19.7813   20.6463 H   0  0  0  0  0  0
  -27.2687  -18.1414   20.8133 H   0  0  0  0  0  0
  -27.6373  -16.7000   21.7479 H   0  0  0  0  0  0
  -27.8032  -16.6853   19.9808 H   0  0  0  0  0  0
  -30.9313  -24.4437   17.9252 H   0  0  0  0  0  0
  -29.5422  -23.4206   18.1850 H   0  0  0  0  0  0
  -27.7352  -24.8582   19.8128 H   0  0  0  0  0  0
  -28.3460  -25.6515   18.3530 H   0  0  0  0  0  0
  -32.0037  -23.2725   20.0141 H   0  0  0  0  0  0
  -31.9252  -22.3904   18.5210 H   0  0  0  0  0  0
  -29.9534  -21.1681   19.2224 H   0  0  0  0  0  0
  -29.8169  -22.0868   20.7248 H   0  0  0  0  0  0
  -29.1861  -15.1470   21.6035 H   0  0  0  0  0  0
  1 25  1  0  0  0
  1 30  2  0  0  0
  1 83  1  0  0  0
  2  3  1  0  0  0
  2 25  1  0  0  0
  2 86  1  0  0  0
  2 87  1  0  0  0
  3  4  1  0  0  0
  3 88  1  0  0  0
  3 89  1  0  0  0
  4  5  1  0  0  0
  4 90  1  0  0  0
  4 91  1  0  0  0
  5  6  1  0  0  0
  5 26  1  0  0  0
  5 92  1  0  0  0
  6 25  1  0  0  0
  6 93  1  0  0  0
  6 94  1  0  0  0
  7  8  2  0  0  0
  7 26  1  0  0  0
  7 29  1  0  0  0
  8  9  1  0  0  0
  8 22  1  0  0  0
  9 10  1  0  0  0
  9 27  2  0  0  0
 10 11  2  0  0  0
 10 15  1  0  0  0
 11 12  1  0  0  0
 11 95  1  0  0  0
 12 13  2  0  0  0
 12 96  1  0  0  0
 13 14  1  0  0  0
 13 31  1  0  0  0
 14 15  2  0  0  0
 14 97  1  0  0  0
 15 98  1  0  0  0
 16 17  2  0  0  0
 16 21  1  0  0  0
 16 31  1  0  0  0
 17 18  1  0  0  0
 17 99  1  0  0  0
 18 19  2  0  0  0
 18100  1  0  0  0
 19 20  1  0  0  0
 19 24  1  0  0  0
 20 21  2  0  0  0
 20101  1  0  0  0
 21 23  1  0  0  0
 22 28  1  0  0  0
 22 32  2  0  0  0
 26 27  1  0  0  0
 28102  1  0  0  0
 28103  1  0  0  0
 29104  1  0  0  0
 29105  1  0  0  0
 33 34  1  0  0  0
 33 66  1  0  0  0
 33 70  2  0  0  0
 34 36  1  0  0  0
 34 59  1  0  0  0
 34106  1  0  0  0
 35 44  2  0  0  0
 35 45  1  0  0  0
 35 68  1  0  0  0
 36 56  1  0  0  0
 36107  1  0  0  0
 37 39  1  0  0  0
 37 47  1  0  0  0
 37 66  1  0  0  0
 37108  1  0  0  0
 38 43  2  0  0  0
 38 46  1  0  0  0
 38 47  1  0  0  0
 39 64  1  0  0  0
 39 67  2  0  0  0
 40 52  1  0  0  0
 40 53  2  0  0  0
 40 58  1  0  0  0
 41109  1  0  0  0
 41110  1  0  0  0
 41111  1  0  0  0
 41 48  1  0  0  0
 42 43  1  0  0  0
 42 66  1  0  0  0
 42112  1  0  0  0
 42113  1  0  0  0
 43 44  1  0  0  0
 44114  1  0  0  0
 45 46  2  0  0  0
 45115  1  0  0  0
 46116  1  0  0  0
 47117  1  0  0  0
 47118  1  0  0  0
 48 56  1  0  0  0
 48 65  1  0  0  0
 48119  1  0  0  0
 49 50  1  0  0  0
 49 53  1  0  0  0
 49 64  1  0  0  0
 49120  1  0  0  0
 50 51  1  0  0  0
 50121  1  0  0  0
 50122  1  0  0  0
 51 52  1  0  0  0
 51123  1  0  0  0
 51124  1  0  0  0
 52125  1  0  0  0
 52126  1  0  0  0
 53 54  1  0  0  0
 54 55  2  0  0  0
 54127  1  0  0  0
 55 57  1  0  0  0
 55128  1  0  0  0
 56 69  2  0  0  0
 57 58  2  0  0  0
 57129  1  0  0  0
 58130  1  0  0  0
 59 60  1  0  0  0
 59 61  1  0  0  0
 59 62  1  0  0  0
 60131  1  0  0  0
 60132  1  0  0  0
 60133  1  0  0  0
 61134  1  0  0  0
 61135  1  0  0  0
 61136  1  0  0  0
 62137  1  0  0  0
 62138  1  0  0  0
 62139  1  0  0  0
 63 65  1  0  0  0
 63140  1  0  0  0
 63141  1  0  0  0
 63142  1  0  0  0
 64143  1  0  0  0
 65144  1  0  0  0
 68 80  1  0  0  0
 71 72  2  0  0  0
 71 75  1  0  0  0
 71145  1  0  0  0
 72 76  1  0  0  0
 72146  1  0  0  0
 73 74  1  0  0  0
 73 76  2  0  0  0
 73147  1  0  0  0
 74 75  2  0  0  0
 74 78  1  0  0  0
 75 83  1  0  0  0
 76 85  1  0  0  0
 77 79  1  0  0  0
 77 80  1  0  0  0
 77 84  2  0  0  0
 78148  1  0  0  0
 78149  1  0  0  0
 78150  1  0  0  0
 79 81  1  0  0  0
 79151  1  0  0  0
 79152  1  0  0  0
 80153  1  0  0  0
 80154  1  0  0  0
 81 82  1  0  0  0
 81155  1  0  0  0
 81156  1  0  0  0
 82 85  1  0  0  0
 82157  1  0  0  0
 82158  1  0  0  0
 83159  1  0  0  0
M  ISO  4   1 100  68 101  80 101  83 100
M  END
> <chiral flag>
0

> <version>
0

> <s_m_source_file>
/data/baiqing/PycharmProjects/Reinvent-master-3.2/result/LINK_invent/BTK/process_docking_weight1_custom_product_contain_oxygen_bond_distance_aromatic_linkinvent_7_9_3/rearranged_h_0121.sdf

> <i_m_source_file_index>
59

> <r_mmod_Potential_Energy-OPLS-2005>
-100.796226501465

> <r_mmod_Stretch_Energy-OPLS-2005>
32.2186508178711

> <r_mmod_Bend_Energy-OPLS-2005>
96.839225769043

> <r_mmod_Torsional_Energy-OPLS-2005>
210.401184082031

> <r_mmod_Improper_Torsional_Energy-OPLS-2005>
3.63141846656799

> <r_mmod_Van_der_Waal_Energy-OPLS-2005>
165.964996337891

> <r_mmod_Electrostatic_Energy-OPLS-2005>
-382.944549560547

> <r_mmod_Solvation_Energy-OPLS-2005>
-236.900314331055

> <b_mmod_Minimization_Converged-OPLS-2005>
0

> <r_mmod_RMS_Derivative-OPLS-2005>
1.88091766834259

$$$$
59
                    3D
 Structure written by MMmdl.
152160  0  0  1  0            999 V2000
  -30.7151  -14.4482   20.6408 C   0  0  0  0  0  0
  -30.4209  -12.3138   19.4216 C   0  0  0  0  0  0
  -29.4930  -12.5289   18.2077 C   0  0  0  0  0  0
  -28.0143  -12.3782   18.6145 C   0  0  0  0  0  0
  -27.6630  -13.2046   19.8800 C   0  0  2  0  0  0
  -28.6978  -12.9554   20.9981 C   0  0  0  0  0  0
  -25.2584  -13.8159   20.5676 C   0  0  0  0  0  0
  -24.1832  -13.0440   20.9156 C   0  0  0  0  0  0
  -24.6391  -11.6906   20.8735 C   0  0  0  0  0  0
  -23.9067  -10.4296   21.0418 C   0  0  0  0  0  0
  -24.3627   -9.4209   21.9194 C   0  0  0  0  0  0
  -23.6303   -8.2241   22.0764 C   0  0  0  0  0  0
  -22.4283   -8.0286   21.3556 C   0  0  0  0  0  0
  -21.9915   -9.0258   20.4656 C   0  0  0  0  0  0
  -22.7241  -10.2135   20.3069 C   0  0  0  0  0  0
  -21.6851   -6.0741   22.5289 C   0  0  0  0  0  0
  -21.4006   -6.5645   23.8223 C   0  0  0  0  0  0
  -21.3662   -5.6800   24.9186 C   0  0  0  0  0  0
  -21.6048   -4.3061   24.7236 C   0  0  0  0  0  0
  -21.8817   -3.8153   23.4355 C   0  0  0  0  0  0
  -21.9186   -4.6970   22.3409 C   0  0  0  0  0  0
  -22.7854  -13.5235   21.1837 C   0  0  0  0  0  0
  -22.1655   -4.2156   21.0985 F   0  0  0  0  0  0
  -21.5637   -3.4545   25.7748 F   0  0  0  0  0  0
  -30.0357  -13.2774   20.4682 N   0  0  0  0  0  0
  -26.3023  -12.9325   20.3369 N   0  0  0  0  0  0
  -25.9313  -11.6483   20.5758 N   0  0  0  0  0  0
  -22.0506  -12.8239   22.0410 N   0  0  0  0  0  0
  -25.4332  -15.1881   20.4129 N   0  0  0  0  0  0
  -31.7790  -14.6759   20.0555 O   0  0  0  0  0  0
  -21.6642   -6.8886   21.4253 O   0  0  0  0  0  0
  -22.3533  -14.5539   20.6682 O   0  0  0  0  0  0
  -24.6161  -31.8680   23.2095 C   0  0  0  0  0  0
  -25.9060  -32.4816   23.8396 C   0  0  1  0  0  0
  -27.2303  -27.4204   20.0904 C   0  0  0  0  0  0
  -25.5914  -33.8615   24.2326 N   0  0  0  0  0  0
  -23.4033  -30.4920   21.5497 C   0  0  2  0  0  0
  -24.8466  -28.9555   20.1136 C   0  0  0  0  0  0
  -22.7410  -29.4671   22.4982 C   0  0  0  0  0  0
  -18.0274  -28.1384   22.8515 C   0  0  0  0  0  0
  -24.1484  -36.7308   23.2623 C   0  0  0  0  0  0
  -25.9331  -30.8248   21.3676 C   0  0  0  0  0  0
  -26.0054  -29.4576   20.7167 C   0  0  0  0  0  0
  -27.1946  -28.6925   20.7106 C   0  0  0  0  0  0
  -26.0500  -26.9382   19.4772 C   0  0  0  0  0  0
  -24.8637  -27.6945   19.4946 C   0  0  0  0  0  0
  -23.6107  -29.8246   20.1641 C   0  0  0  0  0  0
  -25.4097  -36.3102   24.0333 C   0  0  1  0  0  0
  -20.5862  -28.3683   23.1309 C   0  0  2  0  0  0
  -20.6772  -26.9426   22.5397 C   0  0  0  0  0  0
  -19.5730  -26.6393   21.5221 C   0  0  0  0  0  0
  -18.1919  -26.7923   22.1656 C   0  0  0  0  0  0
  -19.1519  -28.8847   23.2914 C   0  0  0  0  0  0
  -18.9448  -30.1452   23.8927 C   0  0  0  0  0  0
  -17.6450  -30.6597   24.0563 C   0  0  0  0  0  0
  -25.9041  -34.9472   23.5126 C   0  0  0  0  0  0
  -16.5343  -29.9099   23.6329 C   0  0  0  0  0  0
  -16.7259  -28.6505   23.0375 C   0  0  0  0  0  0
  -26.4474  -31.6596   25.0735 C   0  0  0  0  0  0
  -25.3758  -31.3768   26.1523 C   0  0  0  0  0  0
  -27.0244  -30.3002   24.6141 C   0  0  0  0  0  0
  -27.6114  -32.4267   25.7452 C   0  0  0  0  0  0
  -27.5597  -37.1769   24.8440 C   0  0  0  0  0  0
  -21.4134  -29.3054   22.3720 N   0  0  0  0  0  0
  -26.4265  -37.3807   23.9456 N   0  0  0  0  0  0
  -24.6692  -31.0763   22.1003 N   0  0  0  0  0  0
  -23.4177  -28.8216   23.3029 O   0  0  0  0  0  0
  -28.4118  -26.7013   20.1242 O   0  0  0  0  0  0
  -26.5605  -34.8924   22.4691 O   0  0  0  0  0  0
  -23.5356  -32.1449   23.7474 O   0  0  0  0  0  0
  -28.6514  -19.1660   23.5782 C   0  0  0  0  0  0
  -29.0185  -17.8221   23.2964 C   0  0  0  0  0  0
  -28.9471  -19.9026   22.4656 C   0  0  0  0  0  0
  -29.5228  -17.8100   22.0267 C   0  0  0  0  0  0
  -28.7825  -21.3086   22.2153 C   0  0  0  0  0  0
  -30.0594  -16.7467   21.2235 C   0  0  0  0  0  0
  -28.8082  -22.0328   21.0755 C   0  0  0  0  0  0
  -30.0964  -15.4286   21.5322 C   0  0  0  0  0  0
  -28.6528  -23.5092   21.1108 C   0  0  0  0  0  0
  -27.8880  -24.2030   19.9723 C   0  0  0  0  0  0
  -28.5470  -25.4796   19.3760 C   0  0  0  0  0  0
  -29.0859  -24.1919   22.0438 O   0  0  0  0  0  0
  -29.4533  -19.0765   21.4911 O   0  0  0  0  0  0
  -31.4653  -12.4129   19.1221 H   0  0  0  0  0  0
  -30.3217  -11.2952   19.7997 H   0  0  0  0  0  0
  -29.7355  -11.8242   17.4115 H   0  0  0  0  0  0
  -29.6575  -13.5255   17.7955 H   0  0  0  0  0  0
  -27.8263  -11.3197   18.7997 H   0  0  0  0  0  0
  -27.3633  -12.6602   17.7863 H   0  0  0  0  0  0
  -27.7184  -14.2580   19.6042 H   0  0  0  0  0  0
  -28.6725  -11.9083   21.3019 H   0  0  0  0  0  0
  -28.4240  -13.5102   21.8928 H   0  0  0  0  0  0
  -25.2781   -9.5671   22.4759 H   0  0  0  0  0  0
  -24.0019   -7.4629   22.7480 H   0  0  0  0  0  0
  -21.0842   -8.8776   19.8966 H   0  0  0  0  0  0
  -22.3713  -10.9673   19.6174 H   0  0  0  0  0  0
  -21.1993   -7.6154   23.9726 H   0  0  0  0  0  0
  -21.1489   -6.0533   25.9087 H   0  0  0  0  0  0
  -22.0590   -2.7618   23.2860 H   0  0  0  0  0  0
  -22.4118  -11.9895   22.4791 H   0  0  0  0  0  0
  -21.1131  -13.1276   22.2637 H   0  0  0  0  0  0
  -24.6753  -15.8510   20.5361 H   0  0  0  0  0  0
  -26.3049  -15.6279   20.1444 H   0  0  0  0  0  0
  -26.7129  -32.5516   23.1158 H   0  0  0  0  0  0
  -25.0065  -33.9778   25.0469 H   0  0  0  0  0  0
  -22.6933  -31.3099   21.4099 H   0  0  0  0  0  0
  -23.3791  -35.9585   23.3152 H   0  0  0  0  0  0
  -24.3620  -36.9073   22.2072 H   0  0  0  0  0  0
  -23.7158  -37.6434   23.6726 H   0  0  0  0  0  0
  -26.0490  -31.5879   20.5969 H   0  0  0  0  0  0
  -26.8206  -30.8780   21.9864 H   0  0  0  0  0  0
  -28.0882  -29.0726   21.1858 H   0  0  0  0  0  0
  -26.0175  -25.9776   18.9861 H   0  0  0  0  0  0
  -23.9720  -27.3017   19.0260 H   0  0  0  0  0  0
  -23.7197  -30.5982   19.4034 H   0  0  0  0  0  0
  -22.7338  -29.2455   19.8690 H   0  0  0  0  0  0
  -25.1255  -36.1947   25.0821 H   0  0  0  0  0  0
  -20.9963  -28.3249   24.1426 H   0  0  0  0  0  0
  -20.5724  -26.2293   23.3585 H   0  0  0  0  0  0
  -21.6636  -26.7501   22.1152 H   0  0  0  0  0  0
  -19.6894  -25.6311   21.1241 H   0  0  0  0  0  0
  -19.6634  -27.3219   20.6763 H   0  0  0  0  0  0
  -17.4172  -26.6657   21.4076 H   0  0  0  0  0  0
  -18.0347  -26.0069   22.9065 H   0  0  0  0  0  0
  -19.7920  -30.7265   24.2306 H   0  0  0  0  0  0
  -17.5004  -31.6283   24.5160 H   0  0  0  0  0  0
  -15.5344  -30.3016   23.7623 H   0  0  0  0  0  0
  -15.8660  -28.0820   22.7101 H   0  0  0  0  0  0
  -24.5731  -30.7379   25.7818 H   0  0  0  0  0  0
  -24.9225  -32.2987   26.5185 H   0  0  0  0  0  0
  -25.8074  -30.8665   27.0148 H   0  0  0  0  0  0
  -26.2744  -29.6779   24.1245 H   0  0  0  0  0  0
  -27.4007  -29.7252   25.4613 H   0  0  0  0  0  0
  -27.8612  -30.4244   23.9265 H   0  0  0  0  0  0
  -27.2850  -33.3661   26.1920 H   0  0  0  0  0  0
  -28.3976  -32.6648   25.0274 H   0  0  0  0  0  0
  -28.0692  -31.8423   26.5441 H   0  0  0  0  0  0
  -28.2505  -38.0177   24.7669 H   0  0  0  0  0  0
  -28.1204  -36.2727   24.6015 H   0  0  0  0  0  0
  -27.2354  -37.1124   25.8842 H   0  0  0  0  0  0
  -20.9293  -29.8777   21.6944 H   0  0  0  0  0  0
  -26.0142  -38.2853   24.1577 H   0  0  0  0  0  0
  -28.2247  -19.5515   24.4939 H   0  0  0  0  0  0
  -28.9378  -16.9666   23.9523 H   0  0  0  0  0  0
  -28.6216  -21.8687   23.1268 H   0  0  0  0  0  0
  -30.4841  -17.0622   20.2797 H   0  0  0  0  0  0
  -28.9465  -21.5530   20.1181 H   0  0  0  0  0  0
  -29.6815  -15.1053   22.4743 H   0  0  0  0  0  0
  -26.8764  -24.4109   20.3183 H   0  0  0  0  0  0
  -27.7854  -23.4718   19.1708 H   0  0  0  0  0  0
  -28.1859  -25.6362   18.3589 H   0  0  0  0  0  0
  -29.6155  -25.2933   19.2594 H   0  0  0  0  0  0
  1 25  1  0  0  0
  1 30  2  0  0  0
  1 78  1  0  0  0
  2  3  1  0  0  0
  2 25  1  0  0  0
  2 84  1  0  0  0
  2 85  1  0  0  0
  3  4  1  0  0  0
  3 86  1  0  0  0
  3 87  1  0  0  0
  4  5  1  0  0  0
  4 88  1  0  0  0
  4 89  1  0  0  0
  5  6  1  0  0  0
  5 26  1  0  0  0
  5 90  1  0  0  0
  6 25  1  0  0  0
  6 91  1  0  0  0
  6 92  1  0  0  0
  7  8  2  0  0  0
  7 26  1  0  0  0
  7 29  1  0  0  0
  8  9  1  0  0  0
  8 22  1  0  0  0
  9 10  1  0  0  0
  9 27  2  0  0  0
 10 11  2  0  0  0
 10 15  1  0  0  0
 11 12  1  0  0  0
 11 93  1  0  0  0
 12 13  2  0  0  0
 12 94  1  0  0  0
 13 14  1  0  0  0
 13 31  1  0  0  0
 14 15  2  0  0  0
 14 95  1  0  0  0
 15 96  1  0  0  0
 16 17  2  0  0  0
 16 21  1  0  0  0
 16 31  1  0  0  0
 17 18  1  0  0  0
 17 97  1  0  0  0
 18 19  2  0  0  0
 18 98  1  0  0  0
 19 20  1  0  0  0
 19 24  1  0  0  0
 20 21  2  0  0  0
 20 99  1  0  0  0
 21 23  1  0  0  0
 22 28  1  0  0  0
 22 32  2  0  0  0
 26 27  1  0  0  0
 28100  1  0  0  0
 28101  1  0  0  0
 29102  1  0  0  0
 29103  1  0  0  0
 33 34  1  0  0  0
 33 66  1  0  0  0
 33 70  2  0  0  0
 34 36  1  0  0  0
 34 59  1  0  0  0
 34104  1  0  0  0
 35 44  2  0  0  0
 35 45  1  0  0  0
 35 68  1  0  0  0
 36 56  1  0  0  0
 36105  1  0  0  0
 37 39  1  0  0  0
 37 47  1  0  0  0
 37 66  1  0  0  0
 37106  1  0  0  0
 38 43  2  0  0  0
 38 46  1  0  0  0
 38 47  1  0  0  0
 39 64  1  0  0  0
 39 67  2  0  0  0
 40 52  1  0  0  0
 40 53  2  0  0  0
 40 58  1  0  0  0
 41107  1  0  0  0
 41108  1  0  0  0
 41109  1  0  0  0
 41 48  1  0  0  0
 42 43  1  0  0  0
 42 66  1  0  0  0
 42110  1  0  0  0
 42111  1  0  0  0
 43 44  1  0  0  0
 44112  1  0  0  0
 45 46  2  0  0  0
 45113  1  0  0  0
 46114  1  0  0  0
 47115  1  0  0  0
 47116  1  0  0  0
 48 56  1  0  0  0
 48 65  1  0  0  0
 48117  1  0  0  0
 49 50  1  0  0  0
 49 53  1  0  0  0
 49 64  1  0  0  0
 49118  1  0  0  0
 50 51  1  0  0  0
 50119  1  0  0  0
 50120  1  0  0  0
 51 52  1  0  0  0
 51121  1  0  0  0
 51122  1  0  0  0
 52123  1  0  0  0
 52124  1  0  0  0
 53 54  1  0  0  0
 54 55  2  0  0  0
 54125  1  0  0  0
 55 57  1  0  0  0
 55126  1  0  0  0
 56 69  2  0  0  0
 57 58  2  0  0  0
 57127  1  0  0  0
 58128  1  0  0  0
 59 60  1  0  0  0
 59 61  1  0  0  0
 59 62  1  0  0  0
 60129  1  0  0  0
 60130  1  0  0  0
 60131  1  0  0  0
 61132  1  0  0  0
 61133  1  0  0  0
 61134  1  0  0  0
 62135  1  0  0  0
 62136  1  0  0  0
 62137  1  0  0  0
 63 65  1  0  0  0
 63138  1  0  0  0
 63139  1  0  0  0
 63140  1  0  0  0
 64141  1  0  0  0
 65142  1  0  0  0
 68 81  1  0  0  0
 71 72  1  0  0  0
 71 73  2  0  0  0
 71143  1  0  0  0
 72 74  2  0  0  0
 72144  1  0  0  0
 73 75  1  0  0  0
 73 83  1  0  0  0
 74 76  1  0  0  0
 74 83  1  0  0  0
 75 77  2  0  0  0
 75145  1  0  0  0
 76 78  2  0  0  0
 76146  1  0  0  0
 77 79  1  0  0  0
 77147  1  0  0  0
 78148  1  0  0  0
 79 80  1  0  0  0
 79 82  2  0  0  0
 80 81  1  0  0  0
 80149  1  0  0  0
 80150  1  0  0  0
 81151  1  0  0  0
 81152  1  0  0  0
M  ISO  4   1 100  68 101  78 100  81 101
M  END
> <chiral flag>
0

> <version>
0

> <s_m_source_file>
/data/baiqing/PycharmProjects/Reinvent-master-3.2/result/LINK_invent/BTK/process_docking_weight1_custom_product_contain_oxygen_bond_distance_aromatic_linkinvent_7_9_3/rearranged_h_0121.sdf

> <i_m_source_file_index>
60

> <r_mmod_Potential_Energy-OPLS-2005>
-132.088500976562

> <r_mmod_Stretch_Energy-OPLS-2005>
36.4007835388184

> <r_mmod_Bend_Energy-OPLS-2005>
105.501594543457

> <r_mmod_Torsional_Energy-OPLS-2005>
174.095794677734

> <r_mmod_Improper_Torsional_Energy-OPLS-2005>
2.05455470085144

> <r_mmod_Van_der_Waal_Energy-OPLS-2005>
132.782043457031

> <r_mmod_Electrostatic_Energy-OPLS-2005>
-375.347808837891

> <r_mmod_Solvation_Energy-OPLS-2005>
-219.366958618164

> <b_mmod_Minimization_Converged-OPLS-2005>
0

> <r_mmod_RMS_Derivative-OPLS-2005>
1.31855809688568

$$$$
60
                    3D
 Structure written by MMmdl.
159167  0  0  1  0            999 V2000
  -30.7359  -14.4184   20.4348 C   0  0  0  0  0  0
  -30.3992  -12.2441   19.4146 C   0  0  0  0  0  0
  -29.4805  -12.4736   18.1985 C   0  0  0  0  0  0
  -28.0018  -12.3499   18.6173 C   0  0  0  0  0  0
  -27.6585  -13.2007   19.8735 C   0  0  2  0  0  0
  -28.7122  -13.0152   20.9927 C   0  0  0  0  0  0
  -25.2597  -13.8142   20.5730 C   0  0  0  0  0  0
  -24.1830  -13.0422   20.9210 C   0  0  0  0  0  0
  -24.6378  -11.6894   20.8753 C   0  0  0  0  0  0
  -23.9049  -10.4285   21.0398 C   0  0  0  0  0  0
  -24.3600   -9.4208   21.9179 C   0  0  0  0  0  0
  -23.6299   -8.2238   22.0747 C   0  0  0  0  0  0
  -22.4278   -8.0255   21.3530 C   0  0  0  0  0  0
  -21.9912   -9.0222   20.4638 C   0  0  0  0  0  0
  -22.7223  -10.2123   20.3043 C   0  0  0  0  0  0
  -21.6859   -6.0727   22.5282 C   0  0  0  0  0  0
  -21.4012   -6.5643   23.8215 C   0  0  0  0  0  0
  -21.3651   -5.6802   24.9178 C   0  0  0  0  0  0
  -21.6048   -4.3075   24.7237 C   0  0  0  0  0  0
  -21.8828   -3.8135   23.4374 C   0  0  0  0  0  0
  -21.9190   -4.6945   22.3430 C   0  0  0  0  0  0
  -22.7862  -13.5232   21.1847 C   0  0  0  0  0  0
  -22.1663   -4.2122   21.1001 F   0  0  0  0  0  0
  -21.5637   -3.4575   25.7766 F   0  0  0  0  0  0
  -30.0440  -13.2536   20.4179 N   0  0  0  0  0  0
  -26.3025  -12.9296   20.3458 N   0  0  0  0  0  0
  -25.9304  -11.6459   20.5832 N   0  0  0  0  0  0
  -22.0519  -12.8193   22.0399 N   0  0  0  0  0  0
  -25.4308  -15.1832   20.4103 N   0  0  0  0  0  0
  -31.9453  -14.4937   20.2161 O   0  0  0  0  0  0
  -21.6631   -6.8860   21.4231 O   0  0  0  0  0  0
  -22.3558  -14.5539   20.6702 O   0  0  0  0  0  0
  -24.6172  -31.8660   23.2057 C   0  0  0  0  0  0
  -25.9057  -32.4800   23.8368 C   0  0  1  0  0  0
  -27.2406  -27.4511   20.0539 C   0  0  0  0  0  0
  -25.5895  -33.8595   24.2301 N   0  0  0  0  0  0
  -23.3998  -30.4875   21.5526 C   0  0  2  0  0  0
  -24.8399  -28.9471   20.1229 C   0  0  0  0  0  0
  -22.7386  -29.4667   22.5048 C   0  0  0  0  0  0
  -18.0265  -28.1390   22.8470 C   0  0  0  0  0  0
  -24.1479  -36.7328   23.2615 C   0  0  0  0  0  0
  -25.9249  -30.8352   21.3478 C   0  0  0  0  0  0
  -26.0014  -29.4653   20.7055 C   0  0  0  0  0  0
  -27.2018  -28.7209   20.6723 C   0  0  0  0  0  0
  -26.0502  -26.9372   19.4842 C   0  0  0  0  0  0
  -24.8557  -27.6797   19.5191 C   0  0  0  0  0  0
  -23.6014  -29.8088   20.1716 C   0  0  0  0  0  0
  -25.4090  -36.3094   24.0325 C   0  0  1  0  0  0
  -20.5845  -28.3666   23.1322 C   0  0  2  0  0  0
  -20.6752  -26.9411   22.5410 C   0  0  0  0  0  0
  -19.5746  -26.6419   21.5183 C   0  0  0  0  0  0
  -18.1914  -26.7946   22.1584 C   0  0  0  0  0  0
  -19.1511  -28.8844   23.2890 C   0  0  0  0  0  0
  -18.9443  -30.1454   23.8901 C   0  0  0  0  0  0
  -17.6447  -30.6583   24.0593 C   0  0  0  0  0  0
  -25.9038  -34.9466   23.5120 C   0  0  0  0  0  0
  -16.5343  -29.9092   23.6341 C   0  0  0  0  0  0
  -16.7260  -28.6526   23.0326 C   0  0  0  0  0  0
  -26.4464  -31.6543   25.0681 C   0  0  0  0  0  0
  -25.3736  -31.3630   26.1428 C   0  0  0  0  0  0
  -27.0257  -30.3006   24.5979 C   0  0  0  0  0  0
  -27.6078  -32.4195   25.7442 C   0  0  0  0  0  0
  -27.5593  -37.1778   24.8427 C   0  0  0  0  0  0
  -21.4122  -29.3040   22.3756 N   0  0  0  0  0  0
  -26.4260  -37.3810   23.9437 N   0  0  0  0  0  0
  -24.6670  -31.0755   22.0962 N   0  0  0  0  0  0
  -23.4151  -28.8202   23.3088 O   0  0  0  0  0  0
  -28.4489  -26.7829   20.0246 O   0  0  0  0  0  0
  -26.5619  -34.8923   22.4685 O   0  0  0  0  0  0
  -23.5376  -32.1402   23.7478 O   0  0  0  0  0  0
  -31.0728  -20.5058   19.4020 C   0  0  0  0  0  0
  -32.1121  -19.6420   19.0149 C   0  0  0  0  0  0
  -29.5713  -18.6057   19.6149 C   0  0  0  0  0  0
  -29.8003  -19.9941   19.7285 C   0  0  0  0  0  0
  -31.8894  -18.2547   18.9031 C   0  0  0  0  0  0
  -30.5974  -17.7358   19.1854 C   0  0  0  0  0  0
  -28.7128  -20.8988   20.1322 C   0  0  0  0  0  0
  -28.5401  -22.1467   19.6556 C   0  0  0  0  0  0
  -28.1304  -24.4289   20.5990 C   0  0  0  0  0  0
  -33.0429  -17.3684   18.4584 C   0  0  0  0  0  0
  -30.2510  -16.2711   18.9620 C   0  0  0  0  0  0
  -27.4822  -23.1211   20.1429 C   0  0  0  0  0  0
  -28.5054  -25.4448   19.5107 C   0  0  0  0  0  0
  -29.9712  -15.4830   20.1719 N   0  0  0  0  0  0
  -28.3471  -24.6479   21.7948 O   0  0  0  0  0  0
  -31.4450  -12.3022   19.1135 H   0  0  0  0  0  0
  -30.2569  -11.2383   19.8170 H   0  0  0  0  0  0
  -29.7033  -11.7519   17.4114 H   0  0  0  0  0  0
  -29.6659  -13.4581   17.7667 H   0  0  0  0  0  0
  -27.8107  -11.2972   18.8233 H   0  0  0  0  0  0
  -27.3474  -12.6206   17.7894 H   0  0  0  0  0  0
  -27.6885  -14.2405   19.5542 H   0  0  0  0  0  0
  -28.6669  -11.9957   21.3811 H   0  0  0  0  0  0
  -28.5200  -13.6764   21.8392 H   0  0  0  0  0  0
  -25.2755   -9.5715   22.4743 H   0  0  0  0  0  0
  -24.0007   -7.4642   22.7485 H   0  0  0  0  0  0
  -21.0853   -8.8743   19.8942 H   0  0  0  0  0  0
  -22.3667  -10.9655   19.6142 H   0  0  0  0  0  0
  -21.1964   -7.6121   23.9716 H   0  0  0  0  0  0
  -21.1478   -6.0532   25.9093 H   0  0  0  0  0  0
  -22.0581   -2.7587   23.2902 H   0  0  0  0  0  0
  -22.4162  -11.9847   22.4730 H   0  0  0  0  0  0
  -21.1098  -13.1145   22.2594 H   0  0  0  0  0  0
  -24.6604  -15.8340   20.5082 H   0  0  0  0  0  0
  -26.2779  -15.6261   20.0782 H   0  0  0  0  0  0
  -26.7124  -32.5513   23.1135 H   0  0  0  0  0  0
  -25.0006  -33.9742   25.0416 H   0  0  0  0  0  0
  -22.6898  -31.3044   21.4086 H   0  0  0  0  0  0
  -23.3743  -35.9655   23.3208 H   0  0  0  0  0  0
  -24.3610  -36.9024   22.2049 H   0  0  0  0  0  0
  -23.7217  -37.6502   23.6686 H   0  0  0  0  0  0
  -26.0081  -31.5881   20.5625 H   0  0  0  0  0  0
  -26.8274  -30.9144   21.9429 H   0  0  0  0  0  0
  -28.1078  -29.1208   21.1065 H   0  0  0  0  0  0
  -26.0089  -25.9742   18.9971 H   0  0  0  0  0  0
  -23.9588  -27.2711   19.0721 H   0  0  0  0  0  0
  -23.6959  -30.5724   19.3995 H   0  0  0  0  0  0
  -22.7283  -29.2173   19.8922 H   0  0  0  0  0  0
  -25.1246  -36.1945   25.0819 H   0  0  0  0  0  0
  -20.9921  -28.3236   24.1449 H   0  0  0  0  0  0
  -20.5631  -26.2277   23.3585 H   0  0  0  0  0  0
  -21.6632  -26.7447   22.1229 H   0  0  0  0  0  0
  -19.6918  -25.6335   21.1189 H   0  0  0  0  0  0
  -19.6703  -27.3255   20.6730 H   0  0  0  0  0  0
  -17.4187  -26.6695   21.3980 H   0  0  0  0  0  0
  -18.0324  -26.0073   22.8965 H   0  0  0  0  0  0
  -19.7926  -30.7281   24.2261 H   0  0  0  0  0  0
  -17.5008  -31.6253   24.5214 H   0  0  0  0  0  0
  -15.5351  -30.3007   23.7675 H   0  0  0  0  0  0
  -15.8648  -28.0887   22.7001 H   0  0  0  0  0  0
  -24.5960  -30.6913   25.7764 H   0  0  0  0  0  0
  -24.8860  -32.2764   26.4849 H   0  0  0  0  0  0
  -25.8115  -30.8835   27.0192 H   0  0  0  0  0  0
  -26.2764  -29.6780   24.1087 H   0  0  0  0  0  0
  -27.4111  -29.7219   25.4372 H   0  0  0  0  0  0
  -27.8547  -30.4333   23.9032 H   0  0  0  0  0  0
  -27.2774  -33.3503   26.2060 H   0  0  0  0  0  0
  -28.3900  -32.6706   25.0263 H   0  0  0  0  0  0
  -28.0716  -31.8246   26.5319 H   0  0  0  0  0  0
  -28.2499  -38.0180   24.7640 H   0  0  0  0  0  0
  -28.1201  -36.2736   24.6025 H   0  0  0  0  0  0
  -27.2354  -37.1151   25.8827 H   0  0  0  0  0  0
  -20.9299  -29.8765   21.6969 H   0  0  0  0  0  0
  -26.0134  -38.2853   24.1567 H   0  0  0  0  0  0
  -31.2691  -21.5673   19.4785 H   0  0  0  0  0  0
  -33.0869  -20.0575   18.7954 H   0  0  0  0  0  0
  -28.5874  -18.2031   19.8208 H   0  0  0  0  0  0
  -28.0413  -20.5285   20.8956 H   0  0  0  0  0  0
  -29.1898  -22.5101   18.8711 H   0  0  0  0  0  0
  -33.1419  -16.4929   19.0960 H   0  0  0  0  0  0
  -33.9918  -17.9037   18.5073 H   0  0  0  0  0  0
  -32.9069  -17.0352   17.4293 H   0  0  0  0  0  0
  -31.0041  -15.7938   18.3312 H   0  0  0  0  0  0
  -29.3544  -16.2316   18.3451 H   0  0  0  0  0  0
  -26.9251  -22.6895   20.9734 H   0  0  0  0  0  0
  -26.7703  -23.3317   19.3452 H   0  0  0  0  0  0
  -27.9071  -25.2954   18.6128 H   0  0  0  0  0  0
  -29.5331  -25.2403   19.2097 H   0  0  0  0  0  0
  -29.0021  -15.4072   20.4371 H   0  0  0  0  0  0
  1 25  1  0  0  0
  1 30  2  0  0  0
  1 84  1  0  0  0
  2  3  1  0  0  0
  2 25  1  0  0  0
  2 86  1  0  0  0
  2 87  1  0  0  0
  3  4  1  0  0  0
  3 88  1  0  0  0
  3 89  1  0  0  0
  4  5  1  0  0  0
  4 90  1  0  0  0
  4 91  1  0  0  0
  5  6  1  0  0  0
  5 26  1  0  0  0
  5 92  1  0  0  0
  6 25  1  0  0  0
  6 93  1  0  0  0
  6 94  1  0  0  0
  7  8  2  0  0  0
  7 26  1  0  0  0
  7 29  1  0  0  0
  8  9  1  0  0  0
  8 22  1  0  0  0
  9 10  1  0  0  0
  9 27  2  0  0  0
 10 11  2  0  0  0
 10 15  1  0  0  0
 11 12  1  0  0  0
 11 95  1  0  0  0
 12 13  2  0  0  0
 12 96  1  0  0  0
 13 14  1  0  0  0
 13 31  1  0  0  0
 14 15  2  0  0  0
 14 97  1  0  0  0
 15 98  1  0  0  0
 16 17  2  0  0  0
 16 21  1  0  0  0
 16 31  1  0  0  0
 17 18  1  0  0  0
 17 99  1  0  0  0
 18 19  2  0  0  0
 18100  1  0  0  0
 19 20  1  0  0  0
 19 24  1  0  0  0
 20 21  2  0  0  0
 20101  1  0  0  0
 21 23  1  0  0  0
 22 28  1  0  0  0
 22 32  2  0  0  0
 26 27  1  0  0  0
 28102  1  0  0  0
 28103  1  0  0  0
 29104  1  0  0  0
 29105  1  0  0  0
 33 34  1  0  0  0
 33 66  1  0  0  0
 33 70  2  0  0  0
 34 36  1  0  0  0
 34 59  1  0  0  0
 34106  1  0  0  0
 35 44  2  0  0  0
 35 45  1  0  0  0
 35 68  1  0  0  0
 36 56  1  0  0  0
 36107  1  0  0  0
 37 39  1  0  0  0
 37 47  1  0  0  0
 37 66  1  0  0  0
 37108  1  0  0  0
 38 43  2  0  0  0
 38 46  1  0  0  0
 38 47  1  0  0  0
 39 64  1  0  0  0
 39 67  2  0  0  0
 40 52  1  0  0  0
 40 53  2  0  0  0
 40 58  1  0  0  0
 41109  1  0  0  0
 41110  1  0  0  0
 41111  1  0  0  0
 41 48  1  0  0  0
 42 43  1  0  0  0
 42 66  1  0  0  0
 42112  1  0  0  0
 42113  1  0  0  0
 43 44  1  0  0  0
 44114  1  0  0  0
 45 46  2  0  0  0
 45115  1  0  0  0
 46116  1  0  0  0
 47117  1  0  0  0
 47118  1  0  0  0
 48 56  1  0  0  0
 48 65  1  0  0  0
 48119  1  0  0  0
 49 50  1  0  0  0
 49 53  1  0  0  0
 49 64  1  0  0  0
 49120  1  0  0  0
 50 51  1  0  0  0
 50121  1  0  0  0
 50122  1  0  0  0
 51 52  1  0  0  0
 51123  1  0  0  0
 51124  1  0  0  0
 52125  1  0  0  0
 52126  1  0  0  0
 53 54  1  0  0  0
 54 55  2  0  0  0
 54127  1  0  0  0
 55 57  1  0  0  0
 55128  1  0  0  0
 56 69  2  0  0  0
 57 58  2  0  0  0
 57129  1  0  0  0
 58130  1  0  0  0
 59 60  1  0  0  0
 59 61  1  0  0  0
 59 62  1  0  0  0
 60131  1  0  0  0
 60132  1  0  0  0
 60133  1  0  0  0
 61134  1  0  0  0
 61135  1  0  0  0
 61136  1  0  0  0
 62137  1  0  0  0
 62138  1  0  0  0
 62139  1  0  0  0
 63 65  1  0  0  0
 63140  1  0  0  0
 63141  1  0  0  0
 63142  1  0  0  0
 64143  1  0  0  0
 65144  1  0  0  0
 68 83  1  0  0  0
 71 72  2  0  0  0
 71 74  1  0  0  0
 71145  1  0  0  0
 72 75  1  0  0  0
 72146  1  0  0  0
 73 74  2  0  0  0
 73 76  1  0  0  0
 73147  1  0  0  0
 74 77  1  0  0  0
 75 76  2  0  0  0
 75 80  1  0  0  0
 76 81  1  0  0  0
 77 78  2  0  0  0
 77148  1  0  0  0
 78 82  1  0  0  0
 78149  1  0  0  0
 79 82  1  0  0  0
 79 83  1  0  0  0
 79 85  2  0  0  0
 80150  1  0  0  0
 80151  1  0  0  0
 80152  1  0  0  0
 81 84  1  0  0  0
 81153  1  0  0  0
 81154  1  0  0  0
 82155  1  0  0  0
 82156  1  0  0  0
 83157  1  0  0  0
 83158  1  0  0  0
 84159  1  0  0  0
M  ISO  4   1 100  68 101  83 101  84 100
M  END
> <chiral flag>
0

> <version>
0

> <s_m_source_file>
/data/baiqing/PycharmProjects/Reinvent-master-3.2/result/LINK_invent/BTK/process_docking_weight1_custom_product_contain_oxygen_bond_distance_aromatic_linkinvent_7_9_3/rearranged_h_0121.sdf

> <i_m_source_file_index>
61

> <r_mmod_Potential_Energy-OPLS-2005>
-39.4999580383301

> <r_mmod_Stretch_Energy-OPLS-2005>
33.1189727783203

> <r_mmod_Bend_Energy-OPLS-2005>
96.3569488525391

> <r_mmod_Torsional_Energy-OPLS-2005>
245.656692504883

> <r_mmod_Improper_Torsional_Energy-OPLS-2005>
20.1017208099365

> <r_mmod_Van_der_Waal_Energy-OPLS-2005>
154.320007324219

> <r_mmod_Electrostatic_Energy-OPLS-2005>
-376.29052734375

> <r_mmod_Solvation_Energy-OPLS-2005>
-236.102996826172

> <b_mmod_Minimization_Converged-OPLS-2005>
0

> <r_mmod_RMS_Derivative-OPLS-2005>
4.88594341278076

$$$$
61
                    3D
 Structure written by MMmdl.
163171  0  0  1  0            999 V2000
  -30.7003  -14.5031   20.5591 C   0  0  0  0  0  0
  -30.4194  -12.3234   19.4289 C   0  0  0  0  0  0
  -29.4933  -12.5043   18.2090 C   0  0  0  0  0  0
  -28.0154  -12.3622   18.6222 C   0  0  0  0  0  0
  -27.6567  -13.2123   19.8705 C   0  0  2  0  0  0
  -28.7002  -13.0209   20.9947 C   0  0  0  0  0  0
  -25.2552  -13.8154   20.5671 C   0  0  0  0  0  0
  -24.1825  -13.0427   20.9195 C   0  0  0  0  0  0
  -24.6393  -11.6901   20.8748 C   0  0  0  0  0  0
  -23.9062  -10.4286   21.0410 C   0  0  0  0  0  0
  -24.3614   -9.4202   21.9188 C   0  0  0  0  0  0
  -23.6288   -8.2239   22.0757 C   0  0  0  0  0  0
  -22.4272   -8.0278   21.3544 C   0  0  0  0  0  0
  -21.9907   -9.0253   20.4647 C   0  0  0  0  0  0
  -22.7236  -10.2132   20.3058 C   0  0  0  0  0  0
  -21.6852   -6.0734   22.5279 C   0  0  0  0  0  0
  -21.4013   -6.5639   23.8212 C   0  0  0  0  0  0
  -21.3659   -5.6792   24.9175 C   0  0  0  0  0  0
  -21.6044   -4.3055   24.7225 C   0  0  0  0  0  0
  -21.8820   -3.8146   23.4347 C   0  0  0  0  0  0
  -21.9192   -4.6963   22.3403 C   0  0  0  0  0  0
  -22.7848  -13.5225   21.1852 C   0  0  0  0  0  0
  -22.1661   -4.2149   21.0980 F   0  0  0  0  0  0
  -21.5629   -3.4538   25.7737 F   0  0  0  0  0  0
  -30.0262  -13.3254   20.4339 N   0  0  0  0  0  0
  -26.2998  -12.9345   20.3348 N   0  0  0  0  0  0
  -25.9321  -11.6501   20.5772 N   0  0  0  0  0  0
  -22.0490  -12.8219   22.0409 N   0  0  0  0  0  0
  -25.4225  -15.1861   20.4023 N   0  0  0  0  0  0
  -31.8405  -14.6514   20.1107 O   0  0  0  0  0  0
  -21.6637   -6.8876   21.4240 O   0  0  0  0  0  0
  -22.3535  -14.5534   20.6703 O   0  0  0  0  0  0
  -24.6168  -31.8662   23.2079 C   0  0  0  0  0  0
  -25.9053  -32.4812   23.8385 C   0  0  1  0  0  0
  -27.2315  -27.4150   20.1056 C   0  0  0  0  0  0
  -25.5902  -33.8611   24.2317 N   0  0  0  0  0  0
  -23.4062  -30.4886   21.5489 C   0  0  2  0  0  0
  -24.8538  -28.9516   20.1136 C   0  0  0  0  0  0
  -22.7423  -29.4651   22.4983 C   0  0  0  0  0  0
  -18.0273  -28.1379   22.8494 C   0  0  0  0  0  0
  -24.1487  -36.7312   23.2638 C   0  0  0  0  0  0
  -25.9364  -30.8272   21.3627 C   0  0  0  0  0  0
  -26.0156  -29.4603   20.7093 C   0  0  0  0  0  0
  -27.2114  -28.7013   20.6974 C   0  0  0  0  0  0
  -26.0560  -26.9266   19.4985 C   0  0  0  0  0  0
  -24.8698  -27.6854   19.5025 C   0  0  0  0  0  0
  -23.6155  -29.8193   20.1641 C   0  0  0  0  0  0
  -25.4107  -36.3105   24.0335 C   0  0  1  0  0  0
  -20.5865  -28.3670   23.1315 C   0  0  2  0  0  0
  -20.6762  -26.9404   22.5418 C   0  0  0  0  0  0
  -19.5741  -26.6385   21.5215 C   0  0  0  0  0  0
  -18.1919  -26.7925   22.1625 C   0  0  0  0  0  0
  -19.1523  -28.8841   23.2899 C   0  0  0  0  0  0
  -18.9450  -30.1448   23.8907 C   0  0  0  0  0  0
  -17.6453  -30.6586   24.0564 C   0  0  0  0  0  0
  -25.9038  -34.9471   23.5123 C   0  0  0  0  0  0
  -16.5344  -29.9087   23.6326 C   0  0  0  0  0  0
  -16.7262  -28.6503   23.0349 C   0  0  0  0  0  0
  -26.4475  -31.6596   25.0720 C   0  0  0  0  0  0
  -25.3739  -31.3701   26.1468 C   0  0  0  0  0  0
  -27.0310  -30.3038   24.6103 C   0  0  0  0  0  0
  -27.6048  -32.4317   25.7484 C   0  0  0  0  0  0
  -27.5582  -37.1805   24.8461 C   0  0  0  0  0  0
  -21.4148  -29.3036   22.3723 N   0  0  0  0  0  0
  -26.4290  -37.3793   23.9411 N   0  0  0  0  0  0
  -24.6715  -31.0751   22.0983 N   0  0  0  0  0  0
  -23.4184  -28.8195   23.3037 O   0  0  0  0  0  0
  -28.3706  -26.6336   20.1130 O   0  0  0  0  0  0
  -26.5604  -34.8926   22.4687 O   0  0  0  0  0  0
  -23.5356  -32.1418   23.7465 O   0  0  0  0  0  0
  -32.0999  -18.5482   21.8643 C   0  0  0  0  0  0
  -31.7075  -17.2232   21.6186 C   0  0  0  0  0  0
  -31.1912  -19.6138   21.7178 C   0  0  0  0  0  0
  -29.4669  -18.0035   21.0465 C   0  0  0  0  0  0
  -30.3893  -16.9207   21.2124 C   0  0  0  0  0  0
  -29.8674  -19.3609   21.2672 C   0  0  0  0  0  0
  -31.6630  -20.9972   22.1345 C   0  0  0  0  0  0
  -27.8998  -17.5297   19.1043 C   0  0  0  0  0  0
  -28.0309  -17.7153   20.6220 C   0  0  0  0  0  0
  -28.7802  -24.1285   20.0979 C   0  0  0  0  0  0
  -28.6409  -22.8201   20.9364 C   0  0  0  0  0  0
  -28.2492  -25.3893   20.8403 C   0  0  0  0  0  0
  -29.1757  -21.5068   20.2917 C   0  0  0  0  0  0
  -29.9812  -15.5470   21.0398 N   0  0  0  0  0  0
  -28.9261  -20.3786   21.1558 O   0  0  0  0  0  0
  -31.4639  -12.4176   19.1267 H   0  0  0  0  0  0
  -30.3195  -11.3186   19.8421 H   0  0  0  0  0  0
  -29.7368  -11.7722   17.4379 H   0  0  0  0  0  0
  -29.6579  -13.4863   17.7621 H   0  0  0  0  0  0
  -27.8305  -11.3074   18.8278 H   0  0  0  0  0  0
  -27.3643  -12.6267   17.7881 H   0  0  0  0  0  0
  -27.6914  -14.2561   19.5584 H   0  0  0  0  0  0
  -28.6833  -11.9929   21.3598 H   0  0  0  0  0  0
  -28.4622  -13.6425   21.8592 H   0  0  0  0  0  0
  -25.2759   -9.5679   22.4762 H   0  0  0  0  0  0
  -23.9998   -7.4630   22.7476 H   0  0  0  0  0  0
  -21.0840   -8.8772   19.8950 H   0  0  0  0  0  0
  -22.3696  -10.9673   19.6167 H   0  0  0  0  0  0
  -21.2007   -7.6149   23.9715 H   0  0  0  0  0  0
  -21.1480   -6.0524   25.9077 H   0  0  0  0  0  0
  -22.0600   -2.7608   23.2847 H   0  0  0  0  0  0
  -22.4104  -11.9875   22.4788 H   0  0  0  0  0  0
  -21.1111  -13.1251   22.2622 H   0  0  0  0  0  0
  -24.6454  -15.8314   20.4932 H   0  0  0  0  0  0
  -26.2529  -15.6161   20.0190 H   0  0  0  0  0  0
  -26.7127  -32.5523   23.1153 H   0  0  0  0  0  0
  -25.0059  -33.9772   25.0466 H   0  0  0  0  0  0
  -22.6955  -31.3057   21.4081 H   0  0  0  0  0  0
  -23.3747  -35.9646   23.3300 H   0  0  0  0  0  0
  -24.3581  -36.8932   22.2052 H   0  0  0  0  0  0
  -23.7241  -37.6516   23.6657 H   0  0  0  0  0  0
  -26.0500  -31.5928   20.5938 H   0  0  0  0  0  0
  -26.8234  -30.8813   21.9821 H   0  0  0  0  0  0
  -28.1086  -29.0878   21.1606 H   0  0  0  0  0  0
  -26.0570  -25.9526   19.0293 H   0  0  0  0  0  0
  -23.9775  -27.2887   19.0379 H   0  0  0  0  0  0
  -23.7231  -30.5931   19.4033 H   0  0  0  0  0  0
  -22.7393  -29.2384   19.8700 H   0  0  0  0  0  0
  -25.1282  -36.1965   25.0827 H   0  0  0  0  0  0
  -20.9955  -28.3235   24.1437 H   0  0  0  0  0  0
  -20.5672  -26.2276   23.3606 H   0  0  0  0  0  0
  -21.6632  -26.7448   22.1209 H   0  0  0  0  0  0
  -19.6904  -25.6300   21.1236 H   0  0  0  0  0  0
  -19.6679  -27.3200   20.6748 H   0  0  0  0  0  0
  -17.4192  -26.6682   21.4022 H   0  0  0  0  0  0
  -18.0312  -26.0062   22.9014 H   0  0  0  0  0  0
  -19.7927  -30.7260   24.2281 H   0  0  0  0  0  0
  -17.5009  -31.6268   24.5163 H   0  0  0  0  0  0
  -15.5346  -30.2993   23.7647 H   0  0  0  0  0  0
  -15.8662  -28.0828   22.7058 H   0  0  0  0  0  0
  -24.5906  -30.7057   25.7801 H   0  0  0  0  0  0
  -24.8939  -32.2856   26.4933 H   0  0  0  0  0  0
  -25.8093  -30.8854   27.0216 H   0  0  0  0  0  0
  -26.2856  -29.6796   24.1160 H   0  0  0  0  0  0
  -27.4083  -29.7278   25.4563 H   0  0  0  0  0  0
  -27.8688  -30.4358   23.9252 H   0  0  0  0  0  0
  -27.2668  -33.3611   26.2082 H   0  0  0  0  0  0
  -28.3847  -32.6889   25.0303 H   0  0  0  0  0  0
  -28.0730  -31.8430   26.5384 H   0  0  0  0  0  0
  -28.2590  -38.0112   24.7526 H   0  0  0  0  0  0
  -28.1088  -36.2645   24.6263 H   0  0  0  0  0  0
  -27.2304  -37.1425   25.8865 H   0  0  0  0  0  0
  -20.9313  -29.8764   21.6946 H   0  0  0  0  0  0
  -26.0178  -38.2869   24.1421 H   0  0  0  0  0  0
  -33.1078  -18.7381   22.2063 H   0  0  0  0  0  0
  -32.4334  -16.4395   21.7821 H   0  0  0  0  0  0
  -32.4482  -20.9276   22.8879 H   0  0  0  0  0  0
  -30.8522  -21.5741   22.5763 H   0  0  0  0  0  0
  -32.0710  -21.5452   21.2856 H   0  0  0  0  0  0
  -26.8640  -17.3425   18.8207 H   0  0  0  0  0  0
  -28.4994  -16.6905   18.7509 H   0  0  0  0  0  0
  -28.2294  -18.4228   18.5723 H   0  0  0  0  0  0
  -27.3713  -18.5199   20.9473 H   0  0  0  0  0  0
  -27.6684  -16.8308   21.1447 H   0  0  0  0  0  0
  -28.2431  -24.0131   19.1561 H   0  0  0  0  0  0
  -29.8279  -24.2816   19.8370 H   0  0  0  0  0  0
  -27.5874  -22.6758   21.1781 H   0  0  0  0  0  0
  -29.1420  -22.9690   21.8923 H   0  0  0  0  0  0
  -28.8116  -25.5112   21.7667 H   0  0  0  0  0  0
  -27.2205  -25.2026   21.1545 H   0  0  0  0  0  0
  -30.2234  -21.6081   20.0160 H   0  0  0  0  0  0
  -28.6457  -21.3243   19.3563 H   0  0  0  0  0  0
  -29.0133  -15.3408   21.2282 H   0  0  0  0  0  0
  1 25  1  0  0  0
  1 30  2  0  0  0
  1 84  1  0  0  0
  2  3  1  0  0  0
  2 25  1  0  0  0
  2 86  1  0  0  0
  2 87  1  0  0  0
  3  4  1  0  0  0
  3 88  1  0  0  0
  3 89  1  0  0  0
  4  5  1  0  0  0
  4 90  1  0  0  0
  4 91  1  0  0  0
  5  6  1  0  0  0
  5 26  1  0  0  0
  5 92  1  0  0  0
  6 25  1  0  0  0
  6 93  1  0  0  0
  6 94  1  0  0  0
  7  8  2  0  0  0
  7 26  1  0  0  0
  7 29  1  0  0  0
  8  9  1  0  0  0
  8 22  1  0  0  0
  9 10  1  0  0  0
  9 27  2  0  0  0
 10 11  2  0  0  0
 10 15  1  0  0  0
 11 12  1  0  0  0
 11 95  1  0  0  0
 12 13  2  0  0  0
 12 96  1  0  0  0
 13 14  1  0  0  0
 13 31  1  0  0  0
 14 15  2  0  0  0
 14 97  1  0  0  0
 15 98  1  0  0  0
 16 17  2  0  0  0
 16 21  1  0  0  0
 16 31  1  0  0  0
 17 18  1  0  0  0
 17 99  1  0  0  0
 18 19  2  0  0  0
 18100  1  0  0  0
 19 20  1  0  0  0
 19 24  1  0  0  0
 20 21  2  0  0  0
 20101  1  0  0  0
 21 23  1  0  0  0
 22 28  1  0  0  0
 22 32  2  0  0  0
 26 27  1  0  0  0
 28102  1  0  0  0
 28103  1  0  0  0
 29104  1  0  0  0
 29105  1  0  0  0
 33 34  1  0  0  0
 33 66  1  0  0  0
 33 70  2  0  0  0
 34 36  1  0  0  0
 34 59  1  0  0  0
 34106  1  0  0  0
 35 44  2  0  0  0
 35 45  1  0  0  0
 35 68  1  0  0  0
 36 56  1  0  0  0
 36107  1  0  0  0
 37 39  1  0  0  0
 37 47  1  0  0  0
 37 66  1  0  0  0
 37108  1  0  0  0
 38 43  2  0  0  0
 38 46  1  0  0  0
 38 47  1  0  0  0
 39 64  1  0  0  0
 39 67  2  0  0  0
 40 52  1  0  0  0
 40 53  2  0  0  0
 40 58  1  0  0  0
 41109  1  0  0  0
 41110  1  0  0  0
 41111  1  0  0  0
 41 48  1  0  0  0
 42 43  1  0  0  0
 42 66  1  0  0  0
 42112  1  0  0  0
 42113  1  0  0  0
 43 44  1  0  0  0
 44114  1  0  0  0
 45 46  2  0  0  0
 45115  1  0  0  0
 46116  1  0  0  0
 47117  1  0  0  0
 47118  1  0  0  0
 48 56  1  0  0  0
 48 65  1  0  0  0
 48119  1  0  0  0
 49 50  1  0  0  0
 49 53  1  0  0  0
 49 64  1  0  0  0
 49120  1  0  0  0
 50 51  1  0  0  0
 50121  1  0  0  0
 50122  1  0  0  0
 51 52  1  0  0  0
 51123  1  0  0  0
 51124  1  0  0  0
 52125  1  0  0  0
 52126  1  0  0  0
 53 54  1  0  0  0
 54 55  2  0  0  0
 54127  1  0  0  0
 55 57  1  0  0  0
 55128  1  0  0  0
 56 69  2  0  0  0
 57 58  2  0  0  0
 57129  1  0  0  0
 58130  1  0  0  0
 59 60  1  0  0  0
 59 61  1  0  0  0
 59 62  1  0  0  0
 60131  1  0  0  0
 60132  1  0  0  0
 60133  1  0  0  0
 61134  1  0  0  0
 61135  1  0  0  0
 61136  1  0  0  0
 62137  1  0  0  0
 62138  1  0  0  0
 62139  1  0  0  0
 63 65  1  0  0  0
 63140  1  0  0  0
 63141  1  0  0  0
 63142  1  0  0  0
 64143  1  0  0  0
 65144  1  0  0  0
 68 82  1  0  0  0
 71 72  2  0  0  0
 71 73  1  0  0  0
 71145  1  0  0  0
 72 75  1  0  0  0
 72146  1  0  0  0
 73 76  2  0  0  0
 73 77  1  0  0  0
 74 75  2  0  0  0
 74 76  1  0  0  0
 74 79  1  0  0  0
 75 84  1  0  0  0
 76 85  1  0  0  0
 77147  1  0  0  0
 77148  1  0  0  0
 77149  1  0  0  0
 78 79  1  0  0  0
 78150  1  0  0  0
 78151  1  0  0  0
 78152  1  0  0  0
 79153  1  0  0  0
 79154  1  0  0  0
 80 81  1  0  0  0
 80 82  1  0  0  0
 80155  1  0  0  0
 80156  1  0  0  0
 81 83  1  0  0  0
 81157  1  0  0  0
 81158  1  0  0  0
 82159  1  0  0  0
 82160  1  0  0  0
 83 85  1  0  0  0
 83161  1  0  0  0
 83162  1  0  0  0
 84163  1  0  0  0
M  ISO  4   1 100  68 101  82 101  84 100
M  END
> <chiral flag>
0

> <version>
0

> <s_m_source_file>
/data/baiqing/PycharmProjects/Reinvent-master-3.2/result/LINK_invent/BTK/process_docking_weight1_custom_product_contain_oxygen_bond_distance_aromatic_linkinvent_7_9_3/rearranged_h_0121.sdf

> <i_m_source_file_index>
62

> <r_mmod_Potential_Energy-OPLS-2005>
-12.5904607772827

> <r_mmod_Stretch_Energy-OPLS-2005>
46.7967529296875

> <r_mmod_Bend_Energy-OPLS-2005>
102.891021728516

> <r_mmod_Torsional_Energy-OPLS-2005>
257.806091308594

> <r_mmod_Improper_Torsional_Energy-OPLS-2005>
4.72487878799438

> <r_mmod_Van_der_Waal_Energy-OPLS-2005>
146.303497314453

> <r_mmod_Electrostatic_Energy-OPLS-2005>
-388.175262451172

> <r_mmod_Solvation_Energy-OPLS-2005>
-200.038360595703

> <b_mmod_Minimization_Converged-OPLS-2005>
0

> <r_mmod_RMS_Derivative-OPLS-2005>
0.288086414337158

$$$$
62
                    3D
 Structure written by MMmdl.
167176  0  0  1  0            999 V2000
  -30.7719  -14.3826   20.6768 C   0  0  0  0  0  0
  -30.4155  -12.2918   19.4067 C   0  0  0  0  0  0
  -29.4898  -12.5415   18.2000 C   0  0  0  0  0  0
  -28.0116  -12.3984   18.6083 C   0  0  0  0  0  0
  -27.6685  -13.2107   19.8848 C   0  0  2  0  0  0
  -28.7088  -12.9583   21.0007 C   0  0  0  0  0  0
  -25.2616  -13.8175   20.5694 C   0  0  0  0  0  0
  -24.1865  -13.0448   20.9178 C   0  0  0  0  0  0
  -24.6425  -11.6913   20.8733 C   0  0  0  0  0  0
  -23.9090  -10.4290   21.0383 C   0  0  0  0  0  0
  -24.3648   -9.4202   21.9153 C   0  0  0  0  0  0
  -23.6313   -8.2243   22.0731 C   0  0  0  0  0  0
  -22.4285   -8.0289   21.3547 C   0  0  0  0  0  0
  -21.9923   -9.0258   20.4653 C   0  0  0  0  0  0
  -22.7255  -10.2131   20.3047 C   0  0  0  0  0  0
  -21.6857   -6.0742   22.5280 C   0  0  0  0  0  0
  -21.4014   -6.5645   23.8214 C   0  0  0  0  0  0
  -21.3670   -5.6794   24.9177 C   0  0  0  0  0  0
  -21.6041   -4.3055   24.7227 C   0  0  0  0  0  0
  -21.8821   -3.8150   23.4347 C   0  0  0  0  0  0
  -21.9197   -4.6971   22.3404 C   0  0  0  0  0  0
  -22.7884  -13.5240   21.1837 C   0  0  0  0  0  0
  -22.1655   -4.2157   21.0982 F   0  0  0  0  0  0
  -21.5636   -3.4538   25.7738 F   0  0  0  0  0  0
  -30.0541  -13.2457   20.4676 N   0  0  0  0  0  0
  -26.3071  -12.9354   20.3417 N   0  0  0  0  0  0
  -25.9362  -11.6503   20.5787 N   0  0  0  0  0  0
  -22.0547  -12.8232   22.0413 N   0  0  0  0  0  0
  -25.4341  -15.1890   20.4070 N   0  0  0  0  0  0
  -31.7900  -14.6511   20.0311 O   0  0  0  0  0  0
  -21.6651   -6.8884   21.4241 O   0  0  0  0  0  0
  -22.3553  -14.5532   20.6670 O   0  0  0  0  0  0
  -24.6127  -31.8690   23.2147 C   0  0  0  0  0  0
  -25.9038  -32.4825   23.8403 C   0  0  1  0  0  0
  -27.2296  -27.4442   20.0781 C   0  0  0  0  0  0
  -25.5913  -33.8626   24.2336 N   0  0  0  0  0  0
  -23.3989  -30.4961   21.5540 C   0  0  2  0  0  0
  -24.8421  -28.9675   20.1125 C   0  0  0  0  0  0
  -22.7400  -29.4668   22.4995 C   0  0  0  0  0  0
  -18.0274  -28.1391   22.8476 C   0  0  0  0  0  0
  -24.1489  -36.7302   23.2636 C   0  0  0  0  0  0
  -25.9301  -30.8302   21.3755 C   0  0  0  0  0  0
  -26.0024  -29.4707   20.7126 C   0  0  0  0  0  0
  -27.1953  -28.7146   20.6974 C   0  0  0  0  0  0
  -26.0483  -26.9614   19.4627 C   0  0  0  0  0  0
  -24.8587  -27.7109   19.4885 C   0  0  0  0  0  0
  -23.6068  -29.8367   20.1651 C   0  0  0  0  0  0
  -25.4110  -36.3110   24.0340 C   0  0  1  0  0  0
  -20.5860  -28.3667   23.1333 C   0  0  2  0  0  0
  -20.6753  -26.9388   22.5478 C   0  0  0  0  0  0
  -19.5777  -26.6388   21.5225 C   0  0  0  0  0  0
  -18.1921  -26.7966   22.1550 C   0  0  0  0  0  0
  -19.1519  -28.8840   23.2915 C   0  0  0  0  0  0
  -18.9450  -30.1441   23.8939 C   0  0  0  0  0  0
  -17.6449  -30.6576   24.0591 C   0  0  0  0  0  0
  -25.9031  -34.9479   23.5127 C   0  0  0  0  0  0
  -16.5342  -29.9082   23.6343 C   0  0  0  0  0  0
  -16.7262  -28.6512   23.0337 C   0  0  0  0  0  0
  -26.4470  -31.6612   25.0730 C   0  0  0  0  0  0
  -25.3754  -31.3818   26.1519 C   0  0  0  0  0  0
  -27.0211  -30.2993   24.6168 C   0  0  0  0  0  0
  -27.6092  -32.4330   25.7407 C   0  0  0  0  0  0
  -27.5604  -37.1786   24.8454 C   0  0  0  0  0  0
  -21.4130  -29.3018   22.3721 N   0  0  0  0  0  0
  -26.4305  -37.3787   23.9411 N   0  0  0  0  0  0
  -24.6646  -31.0793   22.1052 N   0  0  0  0  0  0
  -23.4181  -28.8230   23.3046 O   0  0  0  0  0  0
  -28.4122  -26.7297   20.1008 O   0  0  0  0  0  0
  -26.5583  -34.8920   22.4684 O   0  0  0  0  0  0
  -23.5331  -32.1453   23.7551 O   0  0  0  0  0  0
  -31.5373  -17.3603   21.2493 C   0  0  0  0  0  0
  -30.8218  -16.4393   22.0841 C   0  0  0  0  0  0
  -31.9177  -18.4978   21.9211 C   0  0  0  0  0  0
  -30.6179  -16.8949   23.3610 C   0  0  0  0  0  0
  -29.5453  -24.5730   20.2671 C   0  0  0  0  0  0
  -29.4956  -23.5210   21.0922 C   0  0  0  0  0  0
  -30.9575  -24.9313   19.9068 C   0  0  0  0  0  0
  -31.7966  -23.9091   20.7046 C   0  0  0  0  0  0
  -29.9104  -16.2254   24.4940 C   0  0  0  0  0  0
  -28.3259  -22.8142   21.7565 C   0  0  0  0  0  0
  -32.7885  -19.6077   21.4063 C   0  0  0  0  0  0
  -28.3731  -25.3556   19.7042 C   0  0  0  0  0  0
  -32.3900  -21.0461   21.8027 C   0  0  0  0  0  0
  -31.0842  -21.5605   21.1595 C   0  0  0  0  0  0
  -30.3262  -15.1683   21.6725 N   0  0  0  0  0  0
  -30.8488  -23.0080   21.4229 N   0  3  2  0  0  0
  -31.3648  -18.4574   23.5798 S   0  0  0  0  0  0
  -31.4623  -12.3756   19.1089 H   0  0  0  0  0  0
  -30.2983  -11.2697   19.7715 H   0  0  0  0  0  0
  -29.7239  -11.8501   17.3891 H   0  0  0  0  0  0
  -29.6634  -13.5452   17.8082 H   0  0  0  0  0  0
  -27.8058  -11.3402   18.7705 H   0  0  0  0  0  0
  -27.3671  -12.7098   17.7845 H   0  0  0  0  0  0
  -27.7212  -14.2662   19.6159 H   0  0  0  0  0  0
  -28.6713  -11.9178   21.3249 H   0  0  0  0  0  0
  -28.4575  -13.5426   21.8852 H   0  0  0  0  0  0
  -25.2796   -9.5671   22.4719 H   0  0  0  0  0  0
  -24.0032   -7.4636   22.7443 H   0  0  0  0  0  0
  -21.0850   -8.8790   19.8963 H   0  0  0  0  0  0
  -22.3710  -10.9680   19.6171 H   0  0  0  0  0  0
  -21.1992   -7.6143   23.9721 H   0  0  0  0  0  0
  -21.1488   -6.0517   25.9080 H   0  0  0  0  0  0
  -22.0590   -2.7610   23.2845 H   0  0  0  0  0  0
  -22.4186  -11.9909   22.4813 H   0  0  0  0  0  0
  -21.1160  -13.1234   22.2626 H   0  0  0  0  0  0
  -24.6728  -15.8511   20.5119 H   0  0  0  0  0  0
  -26.2948  -15.6224   20.0944 H   0  0  0  0  0  0
  -26.7100  -32.5499   23.1149 H   0  0  0  0  0  0
  -25.0104  -33.9824   25.0507 H   0  0  0  0  0  0
  -22.6884  -31.3141   21.4183 H   0  0  0  0  0  0
  -23.3751  -35.9631   23.3311 H   0  0  0  0  0  0
  -24.3595  -36.8904   22.2049 H   0  0  0  0  0  0
  -23.7231  -37.6505   23.6640 H   0  0  0  0  0  0
  -26.0625  -31.6053   20.6196 H   0  0  0  0  0  0
  -26.8104  -30.8637   22.0058 H   0  0  0  0  0  0
  -28.0892  -29.1004   21.1675 H   0  0  0  0  0  0
  -26.0171  -26.0144   18.9440 H   0  0  0  0  0  0
  -23.9664  -27.3246   19.0149 H   0  0  0  0  0  0
  -23.7208  -30.6174   19.4117 H   0  0  0  0  0  0
  -22.7289  -29.2628   19.8634 H   0  0  0  0  0  0
  -25.1289  -36.1975   25.0835 H   0  0  0  0  0  0
  -20.9954  -28.3242   24.1453 H   0  0  0  0  0  0
  -20.5574  -26.2285   23.3677 H   0  0  0  0  0  0
  -21.6641  -26.7390   22.1329 H   0  0  0  0  0  0
  -19.6940  -25.6299   21.1251 H   0  0  0  0  0  0
  -19.6789  -27.3210   20.6775 H   0  0  0  0  0  0
  -17.4256  -26.6831   21.3870 H   0  0  0  0  0  0
  -18.0205  -26.0056   22.8861 H   0  0  0  0  0  0
  -19.7927  -30.7253   24.2322 H   0  0  0  0  0  0
  -17.5000  -31.6258   24.5193 H   0  0  0  0  0  0
  -15.5342  -30.2986   23.7659 H   0  0  0  0  0  0
  -15.8664  -28.0845   22.7017 H   0  0  0  0  0  0
  -24.6136  -30.6830   25.8045 H   0  0  0  0  0  0
  -24.8675  -32.2963   26.4597 H   0  0  0  0  0  0
  -25.8187  -30.9447   27.0478 H   0  0  0  0  0  0
  -26.2724  -29.6813   24.1199 H   0  0  0  0  0  0
  -27.3846  -29.7205   25.4667 H   0  0  0  0  0  0
  -27.8651  -30.4189   23.9377 H   0  0  0  0  0  0
  -27.2714  -33.3545   26.2155 H   0  0  0  0  0  0
  -28.3747  -32.7051   25.0127 H   0  0  0  0  0  0
  -28.0953  -31.8390   26.5154 H   0  0  0  0  0  0
  -28.2690  -38.0015   24.7406 H   0  0  0  0  0  0
  -28.1033  -36.2559   24.6339 H   0  0  0  0  0  0
  -27.2367  -37.1531   25.8877 H   0  0  0  0  0  0
  -20.9292  -29.8703   21.6907 H   0  0  0  0  0  0
  -26.0205  -38.2863   24.1435 H   0  0  0  0  0  0
  -31.7768  -17.1596   20.2138 H   0  0  0  0  0  0
  -31.1862  -25.9592   20.1911 H   0  0  0  0  0  0
  -31.1089  -24.8243   18.8324 H   0  0  0  0  0  0
  -32.4357  -24.4114   21.4310 H   0  0  0  0  0  0
  -32.4518  -23.3601   20.0260 H   0  0  0  0  0  0
  -28.8321  -16.2277   24.3336 H   0  0  0  0  0  0
  -30.1097  -16.7334   25.4381 H   0  0  0  0  0  0
  -30.2421  -15.1927   24.6012 H   0  0  0  0  0  0
  -27.5400  -23.5282   22.0023 H   0  0  0  0  0  0
  -28.6249  -22.3255   22.6846 H   0  0  0  0  0  0
  -27.9028  -22.0625   21.0899 H   0  0  0  0  0  0
  -32.8561  -19.5433   20.3191 H   0  0  0  0  0  0
  -33.8030  -19.4306   21.7668 H   0  0  0  0  0  0
  -27.4662  -24.8606   20.0512 H   0  0  0  0  0  0
  -28.3917  -25.2881   18.6153 H   0  0  0  0  0  0
  -33.2130  -21.6934   21.5014 H   0  0  0  0  0  0
  -32.3334  -21.1385   22.8884 H   0  0  0  0  0  0
  -30.2577  -20.9736   21.5586 H   0  0  0  0  0  0
  -31.0915  -21.3852   20.0827 H   0  0  0  0  0  0
  -29.5715  -14.7811   22.2174 H   0  0  0  0  0  0
  -31.0069  -23.1550   22.4098 H   0  0  0  0  0  0
  1 25  1  0  0  0
  1 30  2  0  0  0
  1 85  1  0  0  0
  2  3  1  0  0  0
  2 25  1  0  0  0
  2 88  1  0  0  0
  2 89  1  0  0  0
  3  4  1  0  0  0
  3 90  1  0  0  0
  3 91  1  0  0  0
  4  5  1  0  0  0
  4 92  1  0  0  0
  4 93  1  0  0  0
  5  6  1  0  0  0
  5 26  1  0  0  0
  5 94  1  0  0  0
  6 25  1  0  0  0
  6 95  1  0  0  0
  6 96  1  0  0  0
  7  8  2  0  0  0
  7 26  1  0  0  0
  7 29  1  0  0  0
  8  9  1  0  0  0
  8 22  1  0  0  0
  9 10  1  0  0  0
  9 27  2  0  0  0
 10 11  2  0  0  0
 10 15  1  0  0  0
 11 12  1  0  0  0
 11 97  1  0  0  0
 12 13  2  0  0  0
 12 98  1  0  0  0
 13 14  1  0  0  0
 13 31  1  0  0  0
 14 15  2  0  0  0
 14 99  1  0  0  0
 15100  1  0  0  0
 16 17  2  0  0  0
 16 21  1  0  0  0
 16 31  1  0  0  0
 17 18  1  0  0  0
 17101  1  0  0  0
 18 19  2  0  0  0
 18102  1  0  0  0
 19 20  1  0  0  0
 19 24  1  0  0  0
 20 21  2  0  0  0
 20103  1  0  0  0
 21 23  1  0  0  0
 22 28  1  0  0  0
 22 32  2  0  0  0
 26 27  1  0  0  0
 28104  1  0  0  0
 28105  1  0  0  0
 29106  1  0  0  0
 29107  1  0  0  0
 33 34  1  0  0  0
 33 66  1  0  0  0
 33 70  2  0  0  0
 34 36  1  0  0  0
 34 59  1  0  0  0
 34108  1  0  0  0
 35 44  2  0  0  0
 35 45  1  0  0  0
 35 68  1  0  0  0
 36 56  1  0  0  0
 36109  1  0  0  0
 37 39  1  0  0  0
 37 47  1  0  0  0
 37 66  1  0  0  0
 37110  1  0  0  0
 38 43  2  0  0  0
 38 46  1  0  0  0
 38 47  1  0  0  0
 39 64  1  0  0  0
 39 67  2  0  0  0
 40 52  1  0  0  0
 40 53  2  0  0  0
 40 58  1  0  0  0
 41111  1  0  0  0
 41112  1  0  0  0
 41113  1  0  0  0
 41 48  1  0  0  0
 42 43  1  0  0  0
 42 66  1  0  0  0
 42114  1  0  0  0
 42115  1  0  0  0
 43 44  1  0  0  0
 44116  1  0  0  0
 45 46  2  0  0  0
 45117  1  0  0  0
 46118  1  0  0  0
 47119  1  0  0  0
 47120  1  0  0  0
 48 56  1  0  0  0
 48 65  1  0  0  0
 48121  1  0  0  0
 49 50  1  0  0  0
 49 53  1  0  0  0
 49 64  1  0  0  0
 49122  1  0  0  0
 50 51  1  0  0  0
 50123  1  0  0  0
 50124  1  0  0  0
 51 52  1  0  0  0
 51125  1  0  0  0
 51126  1  0  0  0
 52127  1  0  0  0
 52128  1  0  0  0
 53 54  1  0  0  0
 54 55  2  0  0  0
 54129  1  0  0  0
 55 57  1  0  0  0
 55130  1  0  0  0
 56 69  2  0  0  0
 57 58  2  0  0  0
 57131  1  0  0  0
 58132  1  0  0  0
 59 60  1  0  0  0
 59 61  1  0  0  0
 59 62  1  0  0  0
 60133  1  0  0  0
 60134  1  0  0  0
 60135  1  0  0  0
 61136  1  0  0  0
 61137  1  0  0  0
 61138  1  0  0  0
 62139  1  0  0  0
 62140  1  0  0  0
 62141  1  0  0  0
 63 65  1  0  0  0
 63142  1  0  0  0
 63143  1  0  0  0
 63144  1  0  0  0
 64145  1  0  0  0
 65146  1  0  0  0
 68 82  1  0  0  0
 71 72  1  0  0  0
 71 73  2  0  0  0
 71147  1  0  0  0
 72 74  2  0  0  0
 72 85  1  0  0  0
 73 81  1  0  0  0
 73 87  1  0  0  0
 74 79  1  0  0  0
 74 87  1  0  0  0
 75 76  2  0  0  0
 75 77  1  0  0  0
 75 82  1  0  0  0
 76 80  1  0  0  0
 76 86  1  0  0  0
 77 78  1  0  0  0
 77148  1  0  0  0
 77149  1  0  0  0
 78 86  1  0  0  0
 78150  1  0  0  0
 78151  1  0  0  0
 79152  1  0  0  0
 79153  1  0  0  0
 79154  1  0  0  0
 80155  1  0  0  0
 80156  1  0  0  0
 80157  1  0  0  0
 81 83  1  0  0  0
 81158  1  0  0  0
 81159  1  0  0  0
 82160  1  0  0  0
 82161  1  0  0  0
 83 84  1  0  0  0
 83162  1  0  0  0
 83163  1  0  0  0
 84164  1  0  0  0
 84165  1  0  0  0
 84 86  1  0  0  0
 85166  1  0  0  0
 86167  1  0  0  0
M  CHG  1  86   1
M  ISO  4   1 100  68 101  82 101  85 100
M  END
> <chiral flag>
0

> <version>
0

> <s_m_source_file>
/data/baiqing/PycharmProjects/Reinvent-master-3.2/result/LINK_invent/BTK/process_docking_weight1_custom_product_contain_oxygen_bond_distance_aromatic_linkinvent_7_9_3/rearranged_h_0121.sdf

> <i_m_source_file_index>
63

> <r_mmod_Potential_Energy-OPLS-2005>
-175.905380249023

> <r_mmod_Stretch_Energy-OPLS-2005>
33.9790420532227

> <r_mmod_Bend_Energy-OPLS-2005>
147.886077880859

> <r_mmod_Torsional_Energy-OPLS-2005>
215.095550537109

> <r_mmod_Improper_Torsional_Energy-OPLS-2005>
2.20056676864624

> <r_mmod_Van_der_Waal_Energy-OPLS-2005>
132.755599975586

> <r_mmod_Electrostatic_Energy-OPLS-2005>
-295.523162841797

> <r_mmod_Solvation_Energy-OPLS-2005>
-421.536224365234

> <b_mmod_Minimization_Converged-OPLS-2005>
0

> <r_mmod_RMS_Derivative-OPLS-2005>
2.10290336608887

$$$$
63
                    3D
 Structure written by MMmdl.
156164  0  0  1  0            999 V2000
  -30.6364  -14.6757   20.4803 C   0  0  0  0  0  0
  -30.4391  -12.4146   19.4552 C   0  0  0  0  0  0
  -29.5058  -12.5083   18.2276 C   0  0  0  0  0  0
  -28.0303  -12.3412   18.6424 C   0  0  0  0  0  0
  -27.6464  -13.2199   19.8623 C   0  0  2  0  0  0
  -28.7009  -13.1093   20.9890 C   0  0  0  0  0  0
  -25.2405  -13.8039   20.5684 C   0  0  0  0  0  0
  -24.1741  -13.0299   20.9246 C   0  0  0  0  0  0
  -24.6386  -11.6814   20.8785 C   0  0  0  0  0  0
  -23.9067  -10.4211   21.0419 C   0  0  0  0  0  0
  -24.3611   -9.4136   21.9200 C   0  0  0  0  0  0
  -23.6274   -8.2187   22.0763 C   0  0  0  0  0  0
  -22.4260   -8.0245   21.3541 C   0  0  0  0  0  0
  -21.9904   -9.0220   20.4643 C   0  0  0  0  0  0
  -22.7244  -10.2085   20.3058 C   0  0  0  0  0  0
  -21.6832   -6.0722   22.5283 C   0  0  0  0  0  0
  -21.4000   -6.5632   23.8215 C   0  0  0  0  0  0
  -21.3657   -5.6788   24.9178 C   0  0  0  0  0  0
  -21.6048   -4.3052   24.7230 C   0  0  0  0  0  0
  -21.8821   -3.8138   23.4352 C   0  0  0  0  0  0
  -21.9183   -4.6952   22.3407 C   0  0  0  0  0  0
  -22.7769  -13.5111   21.1887 C   0  0  0  0  0  0
  -22.1654   -4.2139   21.0984 F   0  0  0  0  0  0
  -21.5632   -3.4536   25.7743 F   0  0  0  0  0  0
  -30.0136  -13.4525   20.4151 N   0  0  0  0  0  0
  -26.2934  -12.9317   20.3342 N   0  0  0  0  0  0
  -25.9329  -11.6463   20.5809 N   0  0  0  0  0  0
  -22.0423  -12.8118   22.0461 N   0  0  0  0  0  0
  -25.3763  -15.1723   20.4000 N   0  0  0  0  0  0
  -31.8141  -14.8137   20.1406 O   0  0  0  0  0  0
  -21.6608   -6.8859   21.4243 O   0  0  0  0  0  0
  -22.3468  -14.5428   20.6736 O   0  0  0  0  0  0
  -24.6269  -31.8590   23.2022 C   0  0  0  0  0  0
  -25.9118  -32.4773   23.8353 C   0  0  1  0  0  0
  -27.2355  -27.3167   20.1103 C   0  0  0  0  0  0
  -25.5934  -33.8574   24.2277 N   0  0  0  0  0  0
  -23.4216  -30.4824   21.5449 C   0  0  2  0  0  0
  -24.8707  -28.9367   20.1125 C   0  0  0  0  0  0
  -22.7481  -29.4620   22.4934 C   0  0  0  0  0  0
  -18.0290  -28.1385   22.8488 C   0  0  0  0  0  0
  -24.1491  -36.7286   23.2638 C   0  0  0  0  0  0
  -25.9641  -30.7877   21.3758 C   0  0  0  0  0  0
  -26.0405  -29.4155   20.7159 C   0  0  0  0  0  0
  -27.2245  -28.6173   20.7056 C   0  0  0  0  0  0
  -26.0381  -26.8942   19.4833 C   0  0  0  0  0  0
  -24.8714  -27.6808   19.4891 C   0  0  0  0  0  0
  -23.6379  -29.8164   20.1612 C   0  0  0  0  0  0
  -25.4117  -36.3077   24.0327 C   0  0  1  0  0  0
  -20.5890  -28.3691   23.1281 C   0  0  2  0  0  0
  -20.6773  -26.9412   22.5412 C   0  0  0  0  0  0
  -19.5749  -26.6383   21.5215 C   0  0  0  0  0  0
  -18.1930  -26.7928   22.1628 C   0  0  0  0  0  0
  -19.1544  -28.8856   23.2876 C   0  0  0  0  0  0
  -18.9467  -30.1459   23.8888 C   0  0  0  0  0  0
  -17.6464  -30.6585   24.0563 C   0  0  0  0  0  0
  -25.9055  -34.9448   23.5101 C   0  0  0  0  0  0
  -16.5354  -29.9082   23.6333 C   0  0  0  0  0  0
  -16.7276  -28.6502   23.0350 C   0  0  0  0  0  0
  -26.4504  -31.6581   25.0724 C   0  0  0  0  0  0
  -25.3741  -31.3725   26.1455 C   0  0  0  0  0  0
  -27.0344  -30.3001   24.6183 C   0  0  0  0  0  0
  -27.6056  -32.4320   25.7498 C   0  0  0  0  0  0
  -27.5580  -37.1802   24.8466 C   0  0  0  0  0  0
  -21.4193  -29.3044   22.3675 N   0  0  0  0  0  0
  -26.4292  -37.3775   23.9409 N   0  0  0  0  0  0
  -24.6896  -31.0592   22.0979 N   0  0  0  0  0  0
  -23.4196  -28.8157   23.3016 O   0  0  0  0  0  0
  -28.3562  -26.4653   20.1582 O   0  0  0  0  0  0
  -26.5618  -34.8914   22.4664 O   0  0  0  0  0  0
  -23.5430  -32.1393   23.7344 O   0  0  0  0  0  0
  -28.9661  -19.4271   19.9851 C   0  0  0  0  0  0
  -31.1030  -17.9466   21.0346 C   0  0  0  0  0  0
  -28.9247  -17.9990   20.0192 C   0  0  0  0  0  0
  -29.9842  -17.2082   20.5664 C   0  0  0  0  0  0
  -30.0608  -20.1652   20.4974 C   0  0  0  0  0  0
  -31.1369  -19.3768   21.0018 C   0  0  0  0  0  0
  -29.2694  -24.0006   20.3145 C   0  0  0  0  0  0
  -27.9173  -16.7058   18.0775 C   0  0  0  0  0  0
  -27.6887  -17.3277   19.4617 C   0  0  0  0  0  0
  -28.1216  -25.0154   19.9244 C   0  0  0  0  0  0
  -29.0196  -22.4424   20.1298 C   0  0  0  0  0  0
  -29.8217  -15.7515   20.7333 N   0  0  0  0  0  0
  -30.3483  -24.4165   20.7538 O   0  0  0  0  0  0
  -30.1383  -21.5788   20.5367 O   0  0  0  0  0  0
  -32.2308  -20.0075   21.4941 F   0  0  0  0  0  0
  -31.4784  -12.5402   19.1472 H   0  0  0  0  0  0
  -30.3781  -11.4268   19.9155 H   0  0  0  0  0  0
  -29.7731  -11.7487   17.4919 H   0  0  0  0  0  0
  -29.6404  -13.4725   17.7339 H   0  0  0  0  0  0
  -27.8739  -11.2891   18.8841 H   0  0  0  0  0  0
  -27.3734  -12.5587   17.7992 H   0  0  0  0  0  0
  -27.6469  -14.2479   19.5069 H   0  0  0  0  0  0
  -28.7225  -12.0974   21.3965 H   0  0  0  0  0  0
  -28.4457  -13.7624   21.8250 H   0  0  0  0  0  0
  -25.2757   -9.5604   22.4776 H   0  0  0  0  0  0
  -23.9972   -7.4574   22.7485 H   0  0  0  0  0  0
  -21.0836   -8.8751   19.8943 H   0  0  0  0  0  0
  -22.3724  -10.9633   19.6168 H   0  0  0  0  0  0
  -21.1995   -7.6142   23.9713 H   0  0  0  0  0  0
  -21.1479   -6.0521   25.9082 H   0  0  0  0  0  0
  -22.0606   -2.7601   23.2857 H   0  0  0  0  0  0
  -22.4050  -11.9786   22.4850 H   0  0  0  0  0  0
  -21.1054  -13.1151   22.2692 H   0  0  0  0  0  0
  -24.5754  -15.7893   20.4803 H   0  0  0  0  0  0
  -26.1714  -15.6088   19.9578 H   0  0  0  0  0  0
  -26.7182  -32.5446   23.1099 H   0  0  0  0  0  0
  -25.0102  -33.9720   25.0434 H   0  0  0  0  0  0
  -22.7156  -31.3030   21.4007 H   0  0  0  0  0  0
  -23.3756  -35.9619   23.3312 H   0  0  0  0  0  0
  -24.3575  -36.8892   22.2050 H   0  0  0  0  0  0
  -23.7249  -37.6490   23.6657 H   0  0  0  0  0  0
  -26.0984  -31.5528   20.6099 H   0  0  0  0  0  0
  -26.8431  -30.8338   22.0071 H   0  0  0  0  0  0
  -28.1213  -28.9811   21.1879 H   0  0  0  0  0  0
  -25.9698  -25.9386   18.9857 H   0  0  0  0  0  0
  -23.9751  -27.3076   19.0128 H   0  0  0  0  0  0
  -23.7576  -30.5924   19.4043 H   0  0  0  0  0  0
  -22.7583  -29.2455   19.8580 H   0  0  0  0  0  0
  -25.1299  -36.1925   25.0822 H   0  0  0  0  0  0
  -20.9986  -28.3268   24.1401 H   0  0  0  0  0  0
  -20.5680  -26.2299   23.3611 H   0  0  0  0  0  0
  -21.6640  -26.7438   22.1205 H   0  0  0  0  0  0
  -19.6908  -25.6297   21.1237 H   0  0  0  0  0  0
  -19.6681  -27.3196   20.6745 H   0  0  0  0  0  0
  -17.4201  -26.6687   21.4027 H   0  0  0  0  0  0
  -18.0320  -26.0066   22.9019 H   0  0  0  0  0  0
  -19.7941  -30.7282   24.2244 H   0  0  0  0  0  0
  -17.5019  -31.6262   24.5173 H   0  0  0  0  0  0
  -15.5355  -30.2980   23.7663 H   0  0  0  0  0  0
  -15.8677  -28.0820   22.7061 H   0  0  0  0  0  0
  -24.5899  -30.7092   25.7788 H   0  0  0  0  0  0
  -24.8958  -32.2899   26.4897 H   0  0  0  0  0  0
  -25.8074  -30.8887   27.0218 H   0  0  0  0  0  0
  -26.2916  -29.6749   24.1215 H   0  0  0  0  0  0
  -27.4042  -29.7260   25.4688 H   0  0  0  0  0  0
  -27.8789  -30.4276   23.9406 H   0  0  0  0  0  0
  -27.2659  -33.3622   26.2064 H   0  0  0  0  0  0
  -28.3876  -32.6875   25.0335 H   0  0  0  0  0  0
  -28.0714  -31.8453   26.5425 H   0  0  0  0  0  0
  -28.2600  -38.0096   24.7510 H   0  0  0  0  0  0
  -28.1073  -36.2627   24.6304 H   0  0  0  0  0  0
  -27.2295  -37.1458   25.8866 H   0  0  0  0  0  0
  -20.9373  -29.8769   21.6887 H   0  0  0  0  0  0
  -26.0172  -38.2848   24.1415 H   0  0  0  0  0  0
  -28.1247  -19.9581   19.5652 H   0  0  0  0  0  0
  -31.9423  -17.4227   21.4677 H   0  0  0  0  0  0
  -27.0103  -16.2194   17.7174 H   0  0  0  0  0  0
  -28.7089  -15.9566   18.0958 H   0  0  0  0  0  0
  -28.1970  -17.4649   17.3466 H   0  0  0  0  0  0
  -26.8617  -18.0372   19.4110 H   0  0  0  0  0  0
  -27.3957  -16.5774   20.1857 H   0  0  0  0  0  0
  -27.2344  -24.7088   20.4796 H   0  0  0  0  0  0
  -27.9031  -24.8638   18.8673 H   0  0  0  0  0  0
  -28.7899  -22.2549   19.0811 H   0  0  0  0  0  0
  -28.1347  -22.1684   20.7038 H   0  0  0  0  0  0
  -28.8723  -15.4617   20.9069 H   0  0  0  0  0  0
  1 25  1  0  0  0
  1 30  2  0  0  0
  1 82  1  0  0  0
  2  3  1  0  0  0
  2 25  1  0  0  0
  2 86  1  0  0  0
  2 87  1  0  0  0
  3  4  1  0  0  0
  3 88  1  0  0  0
  3 89  1  0  0  0
  4  5  1  0  0  0
  4 90  1  0  0  0
  4 91  1  0  0  0
  5  6  1  0  0  0
  5 26  1  0  0  0
  5 92  1  0  0  0
  6 25  1  0  0  0
  6 93  1  0  0  0
  6 94  1  0  0  0
  7  8  2  0  0  0
  7 26  1  0  0  0
  7 29  1  0  0  0
  8  9  1  0  0  0
  8 22  1  0  0  0
  9 10  1  0  0  0
  9 27  2  0  0  0
 10 11  2  0  0  0
 10 15  1  0  0  0
 11 12  1  0  0  0
 11 95  1  0  0  0
 12 13  2  0  0  0
 12 96  1  0  0  0
 13 14  1  0  0  0
 13 31  1  0  0  0
 14 15  2  0  0  0
 14 97  1  0  0  0
 15 98  1  0  0  0
 16 17  2  0  0  0
 16 21  1  0  0  0
 16 31  1  0  0  0
 17 18  1  0  0  0
 17 99  1  0  0  0
 18 19  2  0  0  0
 18100  1  0  0  0
 19 20  1  0  0  0
 19 24  1  0  0  0
 20 21  2  0  0  0
 20101  1  0  0  0
 21 23  1  0  0  0
 22 28  1  0  0  0
 22 32  2  0  0  0
 26 27  1  0  0  0
 28102  1  0  0  0
 28103  1  0  0  0
 29104  1  0  0  0
 29105  1  0  0  0
 33 34  1  0  0  0
 33 66  1  0  0  0
 33 70  2  0  0  0
 34 36  1  0  0  0
 34 59  1  0  0  0
 34106  1  0  0  0
 35 44  2  0  0  0
 35 45  1  0  0  0
 35 68  1  0  0  0
 36 56  1  0  0  0
 36107  1  0  0  0
 37 39  1  0  0  0
 37 47  1  0  0  0
 37 66  1  0  0  0
 37108  1  0  0  0
 38 43  2  0  0  0
 38 46  1  0  0  0
 38 47  1  0  0  0
 39 64  1  0  0  0
 39 67  2  0  0  0
 40 52  1  0  0  0
 40 53  2  0  0  0
 40 58  1  0  0  0
 41109  1  0  0  0
 41110  1  0  0  0
 41111  1  0  0  0
 41 48  1  0  0  0
 42 43  1  0  0  0
 42 66  1  0  0  0
 42112  1  0  0  0
 42113  1  0  0  0
 43 44  1  0  0  0
 44114  1  0  0  0
 45 46  2  0  0  0
 45115  1  0  0  0
 46116  1  0  0  0
 47117  1  0  0  0
 47118  1  0  0  0
 48 56  1  0  0  0
 48 65  1  0  0  0
 48119  1  0  0  0
 49 50  1  0  0  0
 49 53  1  0  0  0
 49 64  1  0  0  0
 49120  1  0  0  0
 50 51  1  0  0  0
 50121  1  0  0  0
 50122  1  0  0  0
 51 52  1  0  0  0
 51123  1  0  0  0
 51124  1  0  0  0
 52125  1  0  0  0
 52126  1  0  0  0
 53 54  1  0  0  0
 54 55  2  0  0  0
 54127  1  0  0  0
 55 57  1  0  0  0
 55128  1  0  0  0
 56 69  2  0  0  0
 57 58  2  0  0  0
 57129  1  0  0  0
 58130  1  0  0  0
 59 60  1  0  0  0
 59 61  1  0  0  0
 59 62  1  0  0  0
 60131  1  0  0  0
 60132  1  0  0  0
 60133  1  0  0  0
 61134  1  0  0  0
 61135  1  0  0  0
 61136  1  0  0  0
 62137  1  0  0  0
 62138  1  0  0  0
 62139  1  0  0  0
 63 65  1  0  0  0
 63140  1  0  0  0
 63141  1  0  0  0
 63142  1  0  0  0
 64143  1  0  0  0
 65144  1  0  0  0
 68 80  1  0  0  0
 71 73  2  0  0  0
 71 75  1  0  0  0
 71145  1  0  0  0
 72 74  2  0  0  0
 72 76  1  0  0  0
 72146  1  0  0  0
 73 74  1  0  0  0
 73 79  1  0  0  0
 74 82  1  0  0  0
 75 76  2  0  0  0
 75 84  1  0  0  0
 76 85  1  0  0  0
 77 80  1  0  0  0
 77 81  1  0  0  0
 77 83  2  0  0  0
 78 79  1  0  0  0
 78147  1  0  0  0
 78148  1  0  0  0
 78149  1  0  0  0
 79150  1  0  0  0
 79151  1  0  0  0
 80152  1  0  0  0
 80153  1  0  0  0
 81 84  1  0  0  0
 81154  1  0  0  0
 81155  1  0  0  0
 82156  1  0  0  0
M  ISO  4   1 100  68 101  80 101  82 100
M  END
> <chiral flag>
0

> <version>
0

> <s_m_source_file>
/data/baiqing/PycharmProjects/Reinvent-master-3.2/result/LINK_invent/BTK/process_docking_weight1_custom_product_contain_oxygen_bond_distance_aromatic_linkinvent_7_9_3/rearranged_h_0121.sdf

> <i_m_source_file_index>
64

> <r_mmod_Potential_Energy-OPLS-2005>
99.8281326293945

> <r_mmod_Stretch_Energy-OPLS-2005>
86.4644470214844

> <r_mmod_Bend_Energy-OPLS-2005>
140.399795532227

> <r_mmod_Torsional_Energy-OPLS-2005>
220.673477172852

> <r_mmod_Improper_Torsional_Energy-OPLS-2005>
6.1874361038208

> <r_mmod_Van_der_Waal_Energy-OPLS-2005>
139.04719543457

> <r_mmod_Electrostatic_Energy-OPLS-2005>
-300.47412109375

> <r_mmod_Solvation_Energy-OPLS-2005>
-248.723556518555

> <b_mmod_Minimization_Converged-OPLS-2005>
0

> <r_mmod_RMS_Derivative-OPLS-2005>
0.940319418907166

$$$$
64
                    3D
 Structure written by MMmdl.
162170  0  0  1  0            999 V2000
  -30.6940  -14.4358   20.5353 C   0  0  0  0  0  0
  -30.4277  -12.2714   19.4184 C   0  0  0  0  0  0
  -29.4988  -12.4909   18.2043 C   0  0  0  0  0  0
  -28.0145  -12.3543   18.6083 C   0  0  0  0  0  0
  -27.6610  -13.1869   19.8694 C   0  0  2  0  0  0
  -28.7034  -12.9450   20.9864 C   0  0  0  0  0  0
  -25.2606  -13.8106   20.5676 C   0  0  0  0  0  0
  -24.1842  -13.0412   20.9181 C   0  0  0  0  0  0
  -24.6371  -11.6871   20.8733 C   0  0  0  0  0  0
  -23.9045  -10.4278   21.0401 C   0  0  0  0  0  0
  -24.3612   -9.4198   21.9175 C   0  0  0  0  0  0
  -23.6300   -8.2227   22.0743 C   0  0  0  0  0  0
  -22.4273   -8.0262   21.3537 C   0  0  0  0  0  0
  -21.9903   -9.0234   20.4643 C   0  0  0  0  0  0
  -22.7224  -10.2121   20.3043 C   0  0  0  0  0  0
  -21.6840   -6.0734   22.5282 C   0  0  0  0  0  0
  -21.4013   -6.5642   23.8219 C   0  0  0  0  0  0
  -21.3655   -5.6793   24.9182 C   0  0  0  0  0  0
  -21.6049   -4.3057   24.7231 C   0  0  0  0  0  0
  -21.8819   -3.8144   23.4346 C   0  0  0  0  0  0
  -21.9201   -4.6968   22.3408 C   0  0  0  0  0  0
  -22.7876  -13.5239   21.1855 C   0  0  0  0  0  0
  -22.1657   -4.2152   21.0982 F   0  0  0  0  0  0
  -21.5643   -3.4538   25.7737 F   0  0  0  0  0  0
  -30.0380  -13.2486   20.4439 N   0  0  0  0  0  0
  -26.3017  -12.9238   20.3338 N   0  0  0  0  0  0
  -25.9288  -11.6423   20.5741 N   0  0  0  0  0  0
  -22.0509  -12.8230   22.0411 N   0  0  0  0  0  0
  -25.4316  -15.1822   20.4086 N   0  0  0  0  0  0
  -31.8643  -14.5717   20.1631 O   0  0  0  0  0  0
  -21.6633   -6.8858   21.4231 O   0  0  0  0  0  0
  -22.3559  -14.5542   20.6688 O   0  0  0  0  0  0
  -24.6090  -31.8713   23.2094 C   0  0  0  0  0  0
  -25.9003  -32.4839   23.8379 C   0  0  1  0  0  0
  -27.2439  -27.4932   20.0869 C   0  0  0  0  0  0
  -25.5869  -33.8621   24.2325 N   0  0  0  0  0  0
  -23.3948  -30.4941   21.5469 C   0  0  2  0  0  0
  -24.8439  -28.9594   20.1180 C   0  0  0  0  0  0
  -22.7393  -29.4684   22.4979 C   0  0  0  0  0  0
  -18.0282  -28.1392   22.8488 C   0  0  0  0  0  0
  -24.1494  -36.7297   23.2649 C   0  0  0  0  0  0
  -25.9167  -30.8574   21.3517 C   0  0  0  0  0  0
  -25.9982  -29.4927   20.7038 C   0  0  0  0  0  0
  -27.2042  -28.7683   20.6815 C   0  0  0  0  0  0
  -26.0755  -26.9482   19.5141 C   0  0  0  0  0  0
  -24.8726  -27.6824   19.5257 C   0  0  0  0  0  0
  -23.6017  -29.8188   20.1637 C   0  0  0  0  0  0
  -25.4112  -36.3105   24.0359 C   0  0  1  0  0  0
  -20.5874  -28.3657   23.1320 C   0  0  2  0  0  0
  -20.6776  -26.9396   22.5410 C   0  0  0  0  0  0
  -19.5753  -26.6386   21.5206 C   0  0  0  0  0  0
  -18.1930  -26.7946   22.1616 C   0  0  0  0  0  0
  -19.1537  -28.8836   23.2916 C   0  0  0  0  0  0
  -18.9471  -30.1446   23.8921 C   0  0  0  0  0  0
  -17.6476  -30.6589   24.0572 C   0  0  0  0  0  0
  -25.9028  -34.9470   23.5142 C   0  0  0  0  0  0
  -16.5360  -29.9103   23.6325 C   0  0  0  0  0  0
  -16.7280  -28.6526   23.0337 C   0  0  0  0  0  0
  -26.4442  -31.6615   25.0691 C   0  0  0  0  0  0
  -25.3710  -31.3757   26.1452 C   0  0  0  0  0  0
  -27.0269  -30.3068   24.6036 C   0  0  0  0  0  0
  -27.6047  -32.4317   25.7424 C   0  0  0  0  0  0
  -27.5595  -37.1798   24.8476 C   0  0  0  0  0  0
  -21.4127  -29.3033   22.3724 N   0  0  0  0  0  0
  -26.4297  -37.3781   23.9424 N   0  0  0  0  0  0
  -24.6576  -31.0869   22.0957 N   0  0  0  0  0  0
  -23.4198  -28.8239   23.3006 O   0  0  0  0  0  0
  -28.4335  -26.8223   20.0462 O   0  0  0  0  0  0
  -26.5584  -34.8925   22.4706 O   0  0  0  0  0  0
  -23.5301  -32.1429   23.7524 O   0  0  0  0  0  0
  -28.2650  -18.0575   20.1747 C   0  0  0  0  0  0
  -27.9616  -20.4020   20.7151 C   0  0  0  0  0  0
  -29.5135  -18.0510   20.8359 C   0  0  0  0  0  0
  -29.1808  -20.4039   21.4267 C   0  0  0  0  0  0
  -27.4882  -19.2280   20.1068 C   0  0  0  0  0  0
  -29.9575  -19.2206   21.5033 C   0  0  0  0  0  0
  -30.3343  -16.8336   20.7686 C   0  0  0  0  0  0
  -29.6453  -21.6546   22.0423 C   0  0  0  0  0  0
  -29.8427  -15.5828   20.8314 C   0  0  0  0  0  0
  -29.6688  -22.8377   21.4113 C   0  0  0  0  0  0
  -26.1666  -19.2347   19.3608 C   0  0  0  0  0  0
  -31.2775  -19.2326   22.2733 C   0  0  0  0  0  0
  -30.1022  -24.1264   22.0754 C   0  0  0  0  0  0
  -29.8990  -25.3681   21.1981 C   0  0  0  0  0  0
  -28.4474  -25.5913   20.7449 C   0  0  0  0  0  0
  -31.4718  -12.3677   19.1180 H   0  0  0  0  0  0
  -30.3244  -11.2570   19.8044 H   0  0  0  0  0  0
  -29.7368  -11.7762   17.4159 H   0  0  0  0  0  0
  -29.6733  -13.4822   17.7827 H   0  0  0  0  0  0
  -27.8173  -11.2975   18.7903 H   0  0  0  0  0  0
  -27.3699  -12.6392   17.7771 H   0  0  0  0  0  0
  -27.7018  -14.2329   19.5691 H   0  0  0  0  0  0
  -28.6723  -11.9005   21.3011 H   0  0  0  0  0  0
  -28.4792  -13.5173   21.8868 H   0  0  0  0  0  0
  -25.2764   -9.5682   22.4746 H   0  0  0  0  0  0
  -24.0028   -7.4606   22.7443 H   0  0  0  0  0  0
  -21.0842   -8.8737   19.8938 H   0  0  0  0  0  0
  -22.3674  -10.9658   19.6149 H   0  0  0  0  0  0
  -21.1973   -7.6141   23.9731 H   0  0  0  0  0  0
  -21.1489   -6.0512   25.9090 H   0  0  0  0  0  0
  -22.0600   -2.7603   23.2848 H   0  0  0  0  0  0
  -22.4119  -11.9926   22.4866 H   0  0  0  0  0  0
  -21.1106  -13.1230   22.2550 H   0  0  0  0  0  0
  -24.6671  -15.8352   20.5371 H   0  0  0  0  0  0
  -26.2897  -15.6291   20.1163 H   0  0  0  0  0  0
  -26.7088  -32.5557   23.1161 H   0  0  0  0  0  0
  -25.0022  -33.9778   25.0479 H   0  0  0  0  0  0
  -22.6812  -31.3088   21.4055 H   0  0  0  0  0  0
  -23.3751  -35.9632   23.3301 H   0  0  0  0  0  0
  -24.3604  -36.8903   22.2067 H   0  0  0  0  0  0
  -23.7246  -37.6507   23.6648 H   0  0  0  0  0  0
  -26.0191  -31.6238   20.5815 H   0  0  0  0  0  0
  -26.8095  -30.9138   21.9623 H   0  0  0  0  0  0
  -28.1035  -29.1835   21.1169 H   0  0  0  0  0  0
  -26.1003  -25.9721   19.0516 H   0  0  0  0  0  0
  -23.9837  -27.2628   19.0768 H   0  0  0  0  0  0
  -23.7067  -30.5886   19.3994 H   0  0  0  0  0  0
  -22.7294  -29.2323   19.8709 H   0  0  0  0  0  0
  -25.1290  -36.1960   25.0851 H   0  0  0  0  0  0
  -20.9980  -28.3217   24.1436 H   0  0  0  0  0  0
  -20.5661  -26.2266   23.3592 H   0  0  0  0  0  0
  -21.6654  -26.7433   22.1205 H   0  0  0  0  0  0
  -19.6901  -25.6294   21.1231 H   0  0  0  0  0  0
  -19.6712  -27.3210   20.6750 H   0  0  0  0  0  0
  -17.4204  -26.6707   21.4017 H   0  0  0  0  0  0
  -18.0327  -26.0088   22.9013 H   0  0  0  0  0  0
  -19.7950  -30.7260   24.2298 H   0  0  0  0  0  0
  -17.5037  -31.6274   24.5174 H   0  0  0  0  0  0
  -15.5370  -30.3022   23.7632 H   0  0  0  0  0  0
  -15.8683  -28.0861   22.7026 H   0  0  0  0  0  0
  -24.5827  -30.7177   25.7776 H   0  0  0  0  0  0
  -24.8963  -32.2948   26.4899 H   0  0  0  0  0  0
  -25.8026  -30.8889   27.0207 H   0  0  0  0  0  0
  -26.2798  -29.6810   24.1135 H   0  0  0  0  0  0
  -27.4140  -29.7317   25.4460 H   0  0  0  0  0  0
  -27.8576  -30.4423   23.9105 H   0  0  0  0  0  0
  -27.2701  -33.3625   26.2010 H   0  0  0  0  0  0
  -28.3821  -32.6861   25.0208 H   0  0  0  0  0  0
  -28.0741  -31.8429   26.5315 H   0  0  0  0  0  0
  -28.2605  -38.0099   24.7498 H   0  0  0  0  0  0
  -28.1090  -36.2622   24.6305 H   0  0  0  0  0  0
  -27.2316  -37.1455   25.8882 H   0  0  0  0  0  0
  -20.9256  -29.8734   21.6943 H   0  0  0  0  0  0
  -26.0187  -38.2862   24.1406 H   0  0  0  0  0  0
  -27.9212  -17.1686   19.6671 H   0  0  0  0  0  0
  -27.3732  -21.3063   20.6500 H   0  0  0  0  0  0
  -31.3888  -16.9863   20.5794 H   0  0  0  0  0  0
  -29.9551  -21.6061   23.0768 H   0  0  0  0  0  0
  -28.7958  -15.4726   21.0544 H   0  0  0  0  0  0
  -29.3730  -22.8900   20.3720 H   0  0  0  0  0  0
  -25.8185  -18.2227   19.1481 H   0  0  0  0  0  0
  -26.2673  -19.7639   18.4121 H   0  0  0  0  0  0
  -25.3946  -19.7330   19.9478 H   0  0  0  0  0  0
  -31.7019  -18.2433   22.4295 H   0  0  0  0  0  0
  -31.1383  -19.6525   23.2684 H   0  0  0  0  0  0
  -32.0166  -19.8366   21.7466 H   0  0  0  0  0  0
  -31.1583  -24.0385   22.3378 H   0  0  0  0  0  0
  -29.5540  -24.2368   23.0132 H   0  0  0  0  0  0
  -30.5519  -25.3151   20.3259 H   0  0  0  0  0  0
  -30.2241  -26.2417   21.7652 H   0  0  0  0  0  0
  -27.7840  -25.6147   21.6127 H   0  0  0  0  0  0
  -28.1039  -24.7972   20.0832 H   0  0  0  0  0  0
  1 25  1  0  0  0
  1 30  2  0  0  0
  1 79  1  0  0  0
  2  3  1  0  0  0
  2 25  1  0  0  0
  2 86  1  0  0  0
  2 87  1  0  0  0
  3  4  1  0  0  0
  3 88  1  0  0  0
  3 89  1  0  0  0
  4  5  1  0  0  0
  4 90  1  0  0  0
  4 91  1  0  0  0
  5  6  1  0  0  0
  5 26  1  0  0  0
  5 92  1  0  0  0
  6 25  1  0  0  0
  6 93  1  0  0  0
  6 94  1  0  0  0
  7  8  2  0  0  0
  7 26  1  0  0  0
  7 29  1  0  0  0
  8  9  1  0  0  0
  8 22  1  0  0  0
  9 10  1  0  0  0
  9 27  2  0  0  0
 10 11  2  0  0  0
 10 15  1  0  0  0
 11 12  1  0  0  0
 11 95  1  0  0  0
 12 13  2  0  0  0
 12 96  1  0  0  0
 13 14  1  0  0  0
 13 31  1  0  0  0
 14 15  2  0  0  0
 14 97  1  0  0  0
 15 98  1  0  0  0
 16 17  2  0  0  0
 16 21  1  0  0  0
 16 31  1  0  0  0
 17 18  1  0  0  0
 17 99  1  0  0  0
 18 19  2  0  0  0
 18100  1  0  0  0
 19 20  1  0  0  0
 19 24  1  0  0  0
 20 21  2  0  0  0
 20101  1  0  0  0
 21 23  1  0  0  0
 22 28  1  0  0  0
 22 32  2  0  0  0
 26 27  1  0  0  0
 28102  1  0  0  0
 28103  1  0  0  0
 29104  1  0  0  0
 29105  1  0  0  0
 33 34  1  0  0  0
 33 66  1  0  0  0
 33 70  2  0  0  0
 34 36  1  0  0  0
 34 59  1  0  0  0
 34106  1  0  0  0
 35 44  2  0  0  0
 35 45  1  0  0  0
 35 68  1  0  0  0
 36 56  1  0  0  0
 36107  1  0  0  0
 37 39  1  0  0  0
 37 47  1  0  0  0
 37 66  1  0  0  0
 37108  1  0  0  0
 38 43  2  0  0  0
 38 46  1  0  0  0
 38 47  1  0  0  0
 39 64  1  0  0  0
 39 67  2  0  0  0
 40 52  1  0  0  0
 40 53  2  0  0  0
 40 58  1  0  0  0
 41109  1  0  0  0
 41110  1  0  0  0
 41111  1  0  0  0
 41 48  1  0  0  0
 42 43  1  0  0  0
 42 66  1  0  0  0
 42112  1  0  0  0
 42113  1  0  0  0
 43 44  1  0  0  0
 44114  1  0  0  0
 45 46  2  0  0  0
 45115  1  0  0  0
 46116  1  0  0  0
 47117  1  0  0  0
 47118  1  0  0  0
 48 56  1  0  0  0
 48 65  1  0  0  0
 48119  1  0  0  0
 49 50  1  0  0  0
 49 53  1  0  0  0
 49 64  1  0  0  0
 49120  1  0  0  0
 50 51  1  0  0  0
 50121  1  0  0  0
 50122  1  0  0  0
 51 52  1  0  0  0
 51123  1  0  0  0
 51124  1  0  0  0
 52125  1  0  0  0
 52126  1  0  0  0
 53 54  1  0  0  0
 54 55  2  0  0  0
 54127  1  0  0  0
 55 57  1  0  0  0
 55128  1  0  0  0
 56 69  2  0  0  0
 57 58  2  0  0  0
 57129  1  0  0  0
 58130  1  0  0  0
 59 60  1  0  0  0
 59 61  1  0  0  0
 59 62  1  0  0  0
 60131  1  0  0  0
 60132  1  0  0  0
 60133  1  0  0  0
 61134  1  0  0  0
 61135  1  0  0  0
 61136  1  0  0  0
 62137  1  0  0  0
 62138  1  0  0  0
 62139  1  0  0  0
 63 65  1  0  0  0
 63140  1  0  0  0
 63141  1  0  0  0
 63142  1  0  0  0
 64143  1  0  0  0
 65144  1  0  0  0
 68 85  1  0  0  0
 71 73  2  0  0  0
 71 75  1  0  0  0
 71145  1  0  0  0
 72 74  1  0  0  0
 72 75  2  0  0  0
 72146  1  0  0  0
 73 76  1  0  0  0
 73 77  1  0  0  0
 74 76  2  0  0  0
 74 78  1  0  0  0
 75 81  1  0  0  0
 76 82  1  0  0  0
 77 79  2  0  0  0
 77147  1  0  0  0
 78 80  2  0  0  0
 78148  1  0  0  0
 79149  1  0  0  0
 80 83  1  0  0  0
 80150  1  0  0  0
 81151  1  0  0  0
 81152  1  0  0  0
 81153  1  0  0  0
 82154  1  0  0  0
 82155  1  0  0  0
 82156  1  0  0  0
 83 84  1  0  0  0
 83157  1  0  0  0
 83158  1  0  0  0
 84 85  1  0  0  0
 84159  1  0  0  0
 84160  1  0  0  0
 85161  1  0  0  0
 85162  1  0  0  0
M  ISO  4   1 100  68 101  79 100  85 101
M  END
> <chiral flag>
0

> <version>
0

> <s_m_source_file>
/data/baiqing/PycharmProjects/Reinvent-master-3.2/result/LINK_invent/BTK/process_docking_weight1_custom_product_contain_oxygen_bond_distance_aromatic_linkinvent_7_9_3/rearranged_h_0121.sdf

> <i_m_source_file_index>
65

> <r_mmod_Potential_Energy-OPLS-2005>
14.2064809799194

> <r_mmod_Stretch_Energy-OPLS-2005>
31.268669128418

> <r_mmod_Bend_Energy-OPLS-2005>
85.7132110595703

> <r_mmod_Torsional_Energy-OPLS-2005>
240.331954956055

> <r_mmod_Improper_Torsional_Energy-OPLS-2005>
7.59885692596436

> <r_mmod_Van_der_Waal_Energy-OPLS-2005>
162.934448242188

> <r_mmod_Electrostatic_Energy-OPLS-2005>
-342.450317382812

> <r_mmod_Solvation_Energy-OPLS-2005>
-184.389938354492

> <b_mmod_Minimization_Converged-OPLS-2005>
0

> <r_mmod_RMS_Derivative-OPLS-2005>
2.69322872161865

$$$$
65
                    3D
 Structure written by MMmdl.
155163  0  0  1  0            999 V2000
  -30.7363  -14.4774   20.6390 C   0  0  0  0  0  0
  -30.4206  -12.3366   19.4305 C   0  0  0  0  0  0
  -29.4955  -12.5359   18.2126 C   0  0  0  0  0  0
  -28.0174  -12.3800   18.6170 C   0  0  0  0  0  0
  -27.6622  -13.2089   19.8778 C   0  0  2  0  0  0
  -28.6978  -12.9772   20.9988 C   0  0  0  0  0  0
  -25.2590  -13.8158   20.5672 C   0  0  0  0  0  0
  -24.1835  -13.0434   20.9154 C   0  0  0  0  0  0
  -24.6387  -11.6904   20.8704 C   0  0  0  0  0  0
  -23.9051  -10.4296   21.0391 C   0  0  0  0  0  0
  -24.3612   -9.4217   21.9170 C   0  0  0  0  0  0
  -23.6290   -8.2251   22.0750 C   0  0  0  0  0  0
  -22.4270   -8.0283   21.3544 C   0  0  0  0  0  0
  -21.9901   -9.0253   20.4643 C   0  0  0  0  0  0
  -22.7223  -10.2136   20.3046 C   0  0  0  0  0  0
  -21.6852   -6.0730   22.5276 C   0  0  0  0  0  0
  -21.4012   -6.5638   23.8208 C   0  0  0  0  0  0
  -21.3664   -5.6793   24.9172 C   0  0  0  0  0  0
  -21.6048   -4.3055   24.7226 C   0  0  0  0  0  0
  -21.8819   -3.8145   23.4346 C   0  0  0  0  0  0
  -21.9194   -4.6958   22.3399 C   0  0  0  0  0  0
  -22.7861  -13.5233   21.1842 C   0  0  0  0  0  0
  -22.1662   -4.2143   21.0977 F   0  0  0  0  0  0
  -21.5638   -3.4542   25.7740 F   0  0  0  0  0  0
  -30.0368  -13.3086   20.4730 N   0  0  0  0  0  0
  -26.3023  -12.9333   20.3362 N   0  0  0  0  0  0
  -25.9314  -11.6488   20.5729 N   0  0  0  0  0  0
  -22.0518  -12.8218   22.0407 N   0  0  0  0  0  0
  -25.4314  -15.1875   20.4101 N   0  0  0  0  0  0
  -31.7839  -14.7096   20.0234 O   0  0  0  0  0  0
  -21.6641   -6.8875   21.4239 O   0  0  0  0  0  0
  -22.3541  -14.5544   20.6707 O   0  0  0  0  0  0
  -24.6193  -31.8678   23.2102 C   0  0  0  0  0  0
  -25.9077  -32.4819   23.8400 C   0  0  1  0  0  0
  -27.2268  -27.3917   20.0984 C   0  0  0  0  0  0
  -25.5915  -33.8618   24.2322 N   0  0  0  0  0  0
  -23.4087  -30.4928   21.5532 C   0  0  2  0  0  0
  -24.8549  -28.9643   20.1111 C   0  0  0  0  0  0
  -22.7453  -29.4664   22.4997 C   0  0  0  0  0  0
  -18.0280  -28.1378   22.8499 C   0  0  0  0  0  0
  -24.1487  -36.7315   23.2635 C   0  0  0  0  0  0
  -25.9438  -30.8188   21.3736 C   0  0  0  0  0  0
  -26.0201  -29.4540   20.7131 C   0  0  0  0  0  0
  -27.2099  -28.6785   20.7016 C   0  0  0  0  0  0
  -26.0370  -26.9439   19.4719 C   0  0  0  0  0  0
  -24.8606  -27.7113   19.4832 C   0  0  0  0  0  0
  -23.6190  -29.8345   20.1648 C   0  0  0  0  0  0
  -25.4108  -36.3109   24.0325 C   0  0  1  0  0  0
  -20.5876  -28.3685   23.1316 C   0  0  2  0  0  0
  -20.6780  -26.9419   22.5427 C   0  0  0  0  0  0
  -19.5751  -26.6387   21.5228 C   0  0  0  0  0  0
  -18.1922  -26.7926   22.1626 C   0  0  0  0  0  0
  -19.1529  -28.8847   23.2895 C   0  0  0  0  0  0
  -18.9460  -30.1444   23.8913 C   0  0  0  0  0  0
  -17.6465  -30.6590   24.0569 C   0  0  0  0  0  0
  -25.9050  -34.9478   23.5118 C   0  0  0  0  0  0
  -16.5356  -29.9092   23.6325 C   0  0  0  0  0  0
  -16.7271  -28.6503   23.0361 C   0  0  0  0  0  0
  -26.4477  -31.6607   25.0743 C   0  0  0  0  0  0
  -25.3725  -31.3712   26.1474 C   0  0  0  0  0  0
  -27.0300  -30.3041   24.6137 C   0  0  0  0  0  0
  -27.6049  -32.4341   25.7506 C   0  0  0  0  0  0
  -27.5587  -37.1803   24.8454 C   0  0  0  0  0  0
  -21.4181  -29.3043   22.3730 N   0  0  0  0  0  0
  -26.4292  -37.3803   23.9409 N   0  0  0  0  0  0
  -24.6754  -31.0749   22.1027 N   0  0  0  0  0  0
  -23.4215  -28.8212   23.3055 O   0  0  0  0  0  0
  -28.3639  -26.5873   20.1473 O   0  0  0  0  0  0
  -26.5629  -34.8932   22.4696 O   0  0  0  0  0  0
  -23.5378  -32.1465   23.7466 O   0  0  0  0  0  0
  -29.5825  -18.0520   21.8499 C   0  0  0  0  0  0
  -29.4597  -19.0923   20.8772 C   0  0  0  0  0  0
  -30.0059  -16.9072   21.2134 C   0  0  0  0  0  0
  -29.8554  -18.5169   19.6981 C   0  0  0  0  0  0
  -30.2216  -15.5083   21.6656 C   0  0  0  0  0  0
  -29.9196  -19.0029   18.2906 C   0  0  0  0  0  0
  -29.2500  -24.1600   20.4350 C   0  0  0  0  0  0
  -28.7273  -22.6827   20.4047 C   0  0  0  0  0  0
  -28.1251  -25.1583   20.0276 C   0  0  0  0  0  0
  -29.6919  -21.5253   20.8050 C   0  0  0  0  0  0
  -30.0212  -15.1950   22.8801 N   0  0  0  0  0  0
  -30.1889  -17.2004   19.8888 O   0  0  0  0  0  0
  -28.9126  -20.3482   21.0817 O   0  0  0  0  0  0
  -31.4653  -12.4336   19.1308 H   0  0  0  0  0  0
  -30.3241  -11.3213   19.8178 H   0  0  0  0  0  0
  -29.7451  -11.8203   17.4288 H   0  0  0  0  0  0
  -29.6555  -13.5272   17.7854 H   0  0  0  0  0  0
  -27.8314  -11.3220   18.8042 H   0  0  0  0  0  0
  -27.3674  -12.6613   17.7877 H   0  0  0  0  0  0
  -27.7111  -14.2601   19.5949 H   0  0  0  0  0  0
  -28.6812  -11.9339   21.3159 H   0  0  0  0  0  0
  -28.4102  -13.5398   21.8835 H   0  0  0  0  0  0
  -25.2758   -9.5704   22.4739 H   0  0  0  0  0  0
  -24.0007   -7.4647   22.7472 H   0  0  0  0  0  0
  -21.0829   -8.8765   19.8947 H   0  0  0  0  0  0
  -22.3670  -10.9676   19.6159 H   0  0  0  0  0  0
  -21.1997   -7.6147   23.9706 H   0  0  0  0  0  0
  -21.1491   -6.0528   25.9077 H   0  0  0  0  0  0
  -22.0595   -2.7608   23.2848 H   0  0  0  0  0  0
  -22.4154  -11.9875   22.4774 H   0  0  0  0  0  0
  -21.1143  -13.1247   22.2652 H   0  0  0  0  0  0
  -24.6661  -15.8446   20.5146 H   0  0  0  0  0  0
  -26.2924  -15.6277   20.1099 H   0  0  0  0  0  0
  -26.7152  -32.5517   23.1166 H   0  0  0  0  0  0
  -25.0044  -33.9773   25.0448 H   0  0  0  0  0  0
  -22.6981  -31.3105   21.4179 H   0  0  0  0  0  0
  -23.3756  -35.9643   23.3285 H   0  0  0  0  0  0
  -24.3575  -36.8941   22.2049 H   0  0  0  0  0  0
  -23.7226  -37.6501   23.6681 H   0  0  0  0  0  0
  -26.0660  -31.5868   20.6084 H   0  0  0  0  0  0
  -26.8275  -30.8662   21.9969 H   0  0  0  0  0  0
  -28.1040  -29.0492   21.1836 H   0  0  0  0  0  0
  -25.9814  -25.9924   18.9656 H   0  0  0  0  0  0
  -23.9688  -27.3324   19.0016 H   0  0  0  0  0  0
  -23.7320  -30.6163   19.4126 H   0  0  0  0  0  0
  -22.7403  -29.2592   19.8651 H   0  0  0  0  0  0
  -25.1276  -36.1970   25.0816 H   0  0  0  0  0  0
  -20.9938  -28.3267   24.1450 H   0  0  0  0  0  0
  -20.5717  -26.2293   23.3624 H   0  0  0  0  0  0
  -21.6646  -26.7492   22.1196 H   0  0  0  0  0  0
  -19.6931  -25.6300   21.1255 H   0  0  0  0  0  0
  -19.6680  -27.3204   20.6765 H   0  0  0  0  0  0
  -17.4201  -26.6685   21.4024 H   0  0  0  0  0  0
  -18.0301  -26.0056   22.9008 H   0  0  0  0  0  0
  -19.7939  -30.7235   24.2311 H   0  0  0  0  0  0
  -17.5031  -31.6279   24.5160 H   0  0  0  0  0  0
  -15.5357  -30.3008   23.7635 H   0  0  0  0  0  0
  -15.8670  -28.0829   22.7081 H   0  0  0  0  0  0
  -24.5947  -30.7002   25.7812 H   0  0  0  0  0  0
  -24.8861  -32.2855   26.4897 H   0  0  0  0  0  0
  -25.8070  -30.8929   27.0260 H   0  0  0  0  0  0
  -26.2849  -29.6811   24.1180 H   0  0  0  0  0  0
  -27.4024  -29.7271   25.4608 H   0  0  0  0  0  0
  -27.8717  -30.4324   23.9321 H   0  0  0  0  0  0
  -27.2673  -33.3650   26.2084 H   0  0  0  0  0  0
  -28.3864  -32.6882   25.0332 H   0  0  0  0  0  0
  -28.0722  -31.8467   26.5413 H   0  0  0  0  0  0
  -28.2582  -38.0132   24.7552 H   0  0  0  0  0  0
  -28.1102  -36.2654   24.6219 H   0  0  0  0  0  0
  -27.2310  -37.1377   25.8860 H   0  0  0  0  0  0
  -20.9371  -29.8758   21.6924 H   0  0  0  0  0  0
  -26.0170  -38.2870   24.1454 H   0  0  0  0  0  0
  -29.3342  -18.1167   22.8990 H   0  0  0  0  0  0
  -29.2443  -19.8457   18.1381 H   0  0  0  0  0  0
  -29.6333  -18.2160   17.5931 H   0  0  0  0  0  0
  -30.9273  -19.3312   18.0396 H   0  0  0  0  0  0
  -30.1041  -24.2714   19.7660 H   0  0  0  0  0  0
  -29.6059  -24.4037   21.4357 H   0  0  0  0  0  0
  -28.3366  -22.4663   19.4098 H   0  0  0  0  0  0
  -27.8638  -22.6292   21.0683 H   0  0  0  0  0  0
  -27.2571  -24.9085   20.6428 H   0  0  0  0  0  0
  -27.8603  -24.9374   18.9936 H   0  0  0  0  0  0
  -30.2307  -21.7877   21.7158 H   0  0  0  0  0  0
  -30.4361  -21.3505   20.0261 H   0  0  0  0  0  0
  -29.7069  -15.9970   23.4118 H   0  0  0  0  0  0
  1 25  1  0  0  0
  1 30  2  0  0  0
  1 75  1  0  0  0
  2  3  1  0  0  0
  2 25  1  0  0  0
  2 84  1  0  0  0
  2 85  1  0  0  0
  3  4  1  0  0  0
  3 86  1  0  0  0
  3 87  1  0  0  0
  4  5  1  0  0  0
  4 88  1  0  0  0
  4 89  1  0  0  0
  5  6  1  0  0  0
  5 26  1  0  0  0
  5 90  1  0  0  0
  6 25  1  0  0  0
  6 91  1  0  0  0
  6 92  1  0  0  0
  7  8  2  0  0  0
  7 26  1  0  0  0
  7 29  1  0  0  0
  8  9  1  0  0  0
  8 22  1  0  0  0
  9 10  1  0  0  0
  9 27  2  0  0  0
 10 11  2  0  0  0
 10 15  1  0  0  0
 11 12  1  0  0  0
 11 93  1  0  0  0
 12 13  2  0  0  0
 12 94  1  0  0  0
 13 14  1  0  0  0
 13 31  1  0  0  0
 14 15  2  0  0  0
 14 95  1  0  0  0
 15 96  1  0  0  0
 16 17  2  0  0  0
 16 21  1  0  0  0
 16 31  1  0  0  0
 17 18  1  0  0  0
 17 97  1  0  0  0
 18 19  2  0  0  0
 18 98  1  0  0  0
 19 20  1  0  0  0
 19 24  1  0  0  0
 20 21  2  0  0  0
 20 99  1  0  0  0
 21 23  1  0  0  0
 22 28  1  0  0  0
 22 32  2  0  0  0
 26 27  1  0  0  0
 28100  1  0  0  0
 28101  1  0  0  0
 29102  1  0  0  0
 29103  1  0  0  0
 33 34  1  0  0  0
 33 66  1  0  0  0
 33 70  2  0  0  0
 34 36  1  0  0  0
 34 59  1  0  0  0
 34104  1  0  0  0
 35 44  2  0  0  0
 35 45  1  0  0  0
 35 68  1  0  0  0
 36 56  1  0  0  0
 36105  1  0  0  0
 37 39  1  0  0  0
 37 47  1  0  0  0
 37 66  1  0  0  0
 37106  1  0  0  0
 38 43  2  0  0  0
 38 46  1  0  0  0
 38 47  1  0  0  0
 39 64  1  0  0  0
 39 67  2  0  0  0
 40 52  1  0  0  0
 40 53  2  0  0  0
 40 58  1  0  0  0
 41107  1  0  0  0
 41108  1  0  0  0
 41109  1  0  0  0
 41 48  1  0  0  0
 42 43  1  0  0  0
 42 66  1  0  0  0
 42110  1  0  0  0
 42111  1  0  0  0
 43 44  1  0  0  0
 44112  1  0  0  0
 45 46  2  0  0  0
 45113  1  0  0  0
 46114  1  0  0  0
 47115  1  0  0  0
 47116  1  0  0  0
 48 56  1  0  0  0
 48 65  1  0  0  0
 48117  1  0  0  0
 49 50  1  0  0  0
 49 53  1  0  0  0
 49 64  1  0  0  0
 49118  1  0  0  0
 50 51  1  0  0  0
 50119  1  0  0  0
 50120  1  0  0  0
 51 52  1  0  0  0
 51121  1  0  0  0
 51122  1  0  0  0
 52123  1  0  0  0
 52124  1  0  0  0
 53 54  1  0  0  0
 54 55  2  0  0  0
 54125  1  0  0  0
 55 57  1  0  0  0
 55126  1  0  0  0
 56 69  2  0  0  0
 57 58  2  0  0  0
 57127  1  0  0  0
 58128  1  0  0  0
 59 60  1  0  0  0
 59 61  1  0  0  0
 59 62  1  0  0  0
 60129  1  0  0  0
 60130  1  0  0  0
 60131  1  0  0  0
 61132  1  0  0  0
 61133  1  0  0  0
 61134  1  0  0  0
 62135  1  0  0  0
 62136  1  0  0  0
 62137  1  0  0  0
 63 65  1  0  0  0
 63138  1  0  0  0
 63139  1  0  0  0
 63140  1  0  0  0
 64141  1  0  0  0
 65142  1  0  0  0
 68 79  1  0  0  0
 71 72  1  0  0  0
 71 73  2  0  0  0
 71143  1  0  0  0
 72 74  2  0  0  0
 72 83  1  0  0  0
 73 75  1  0  0  0
 73 82  1  0  0  0
 74 76  1  0  0  0
 74 82  1  0  0  0
 75 81  2  0  0  0
 76144  1  0  0  0
 76145  1  0  0  0
 76146  1  0  0  0
 77 78  1  0  0  0
 77 79  1  0  0  0
 77147  1  0  0  0
 77148  1  0  0  0
 78 80  1  0  0  0
 78149  1  0  0  0
 78150  1  0  0  0
 79151  1  0  0  0
 79152  1  0  0  0
 80 83  1  0  0  0
 80153  1  0  0  0
 80154  1  0  0  0
 81155  1  0  0  0
M  ISO  4   1 100  68 101  75 100  79 101
M  END
> <chiral flag>
0

> <version>
0

> <s_m_source_file>
/data/baiqing/PycharmProjects/Reinvent-master-3.2/result/LINK_invent/BTK/process_docking_weight1_custom_product_contain_oxygen_bond_distance_aromatic_linkinvent_7_9_3/rearranged_h_0121.sdf

> <i_m_source_file_index>
66

> <r_mmod_Potential_Energy-OPLS-2005>
94.5690841674805

> <r_mmod_Stretch_Energy-OPLS-2005>
48.8150901794434

> <r_mmod_Bend_Energy-OPLS-2005>
117.193222045898

> <r_mmod_Torsional_Energy-OPLS-2005>
211.422988891602

> <r_mmod_Improper_Torsional_Energy-OPLS-2005>
2.90513110160828

> <r_mmod_Van_der_Waal_Energy-OPLS-2005>
133.219573974609

> <r_mmod_Electrostatic_Energy-OPLS-2005>
-236.396377563477

> <r_mmod_Solvation_Energy-OPLS-2005>
-200.29460144043

> <b_mmod_Minimization_Converged-OPLS-2005>
0

> <r_mmod_RMS_Derivative-OPLS-2005>
1.79171478748322

$$$$
66
                    3D
 Structure written by MMmdl.
172180  0  0  1  0            999 V2000
  -30.7876  -14.3855   20.5795 C   0  0  0  0  0  0
  -30.3882  -12.2496   19.4443 C   0  0  0  0  0  0
  -29.4948  -12.4962   18.2164 C   0  0  0  0  0  0
  -28.0097  -12.3839   18.6114 C   0  0  0  0  0  0
  -27.6603  -13.2194   19.8751 C   0  0  2  0  0  0
  -28.6958  -13.0053   21.0024 C   0  0  0  0  0  0
  -25.2570  -13.8201   20.5673 C   0  0  0  0  0  0
  -24.1831  -13.0455   20.9148 C   0  0  0  0  0  0
  -24.6403  -11.6921   20.8721 C   0  0  0  0  0  0
  -23.9074  -10.4295   21.0376 C   0  0  0  0  0  0
  -24.3630   -9.4223   21.9159 C   0  0  0  0  0  0
  -23.6312   -8.2257   22.0736 C   0  0  0  0  0  0
  -22.4297   -8.0277   21.3523 C   0  0  0  0  0  0
  -21.9915   -9.0250   20.4630 C   0  0  0  0  0  0
  -22.7242  -10.2134   20.3030 C   0  0  0  0  0  0
  -21.6853   -6.0723   22.5276 C   0  0  0  0  0  0
  -21.4028   -6.5626   23.8216 C   0  0  0  0  0  0
  -21.3674   -5.6783   24.9184 C   0  0  0  0  0  0
  -21.6055   -4.3043   24.7224 C   0  0  0  0  0  0
  -21.8832   -3.8128   23.4347 C   0  0  0  0  0  0
  -21.9202   -4.6949   22.3405 C   0  0  0  0  0  0
  -22.7856  -13.5237   21.1809 C   0  0  0  0  0  0
  -22.1652   -4.2131   21.0984 F   0  0  0  0  0  0
  -21.5636   -3.4524   25.7732 F   0  0  0  0  0  0
  -30.0385  -13.2578   20.4604 N   0  0  0  0  0  0
  -26.3020  -12.9398   20.3361 N   0  0  0  0  0  0
  -25.9341  -11.6537   20.5770 N   0  0  0  0  0  0
  -22.0499  -12.8244   22.0386 N   0  0  0  0  0  0
  -25.4294  -15.1921   20.4090 N   0  0  0  0  0  0
  -31.8994  -14.4616   20.0454 O   0  0  0  0  0  0
  -21.6661   -6.8876   21.4237 O   0  0  0  0  0  0
  -22.3531  -14.5526   20.6643 O   0  0  0  0  0  0
  -24.6069  -31.8722   23.2151 C   0  0  0  0  0  0
  -25.8972  -32.4852   23.8432 C   0  0  1  0  0  0
  -27.2548  -27.4958   20.0994 C   0  0  0  0  0  0
  -25.5816  -33.8650   24.2343 N   0  0  0  0  0  0
  -23.3922  -30.4929   21.5536 C   0  0  2  0  0  0
  -24.8465  -28.9676   20.1194 C   0  0  0  0  0  0
  -22.7404  -29.4649   22.5051 C   0  0  0  0  0  0
  -18.0263  -28.1361   22.8529 C   0  0  0  0  0  0
  -24.1485  -36.7326   23.2644 C   0  0  0  0  0  0
  -25.9155  -30.8616   21.3584 C   0  0  0  0  0  0
  -26.0006  -29.4995   20.7085 C   0  0  0  0  0  0
  -27.2056  -28.7745   20.7001 C   0  0  0  0  0  0
  -26.0788  -26.9584   19.5371 C   0  0  0  0  0  0
  -24.8767  -27.6931   19.5310 C   0  0  0  0  0  0
  -23.6005  -29.8198   20.1697 C   0  0  0  0  0  0
  -25.4105  -36.3131   24.0355 C   0  0  1  0  0  0
  -20.5871  -28.3609   23.1384 C   0  0  2  0  0  0
  -20.6762  -26.9360   22.5444 C   0  0  0  0  0  0
  -19.5715  -26.6379   21.5250 C   0  0  0  0  0  0
  -18.1900  -26.7925   22.1658 C   0  0  0  0  0  0
  -19.1514  -28.8813   23.2947 C   0  0  0  0  0  0
  -18.9441  -30.1462   23.8912 C   0  0  0  0  0  0
  -17.6431  -30.6585   24.0575 C   0  0  0  0  0  0
  -25.9012  -34.9491   23.5151 C   0  0  0  0  0  0
  -16.5333  -29.9092   23.6316 C   0  0  0  0  0  0
  -16.7246  -28.6504   23.0338 C   0  0  0  0  0  0
  -26.4419  -31.6626   25.0743 C   0  0  0  0  0  0
  -25.3669  -31.3739   26.1479 C   0  0  0  0  0  0
  -27.0229  -30.3075   24.6077 C   0  0  0  0  0  0
  -27.6020  -32.4318   25.7469 C   0  0  0  0  0  0
  -27.5591  -37.1811   24.8456 C   0  0  0  0  0  0
  -21.4138  -29.2981   22.3804 N   0  0  0  0  0  0
  -26.4301  -37.3810   23.9414 N   0  0  0  0  0  0
  -24.6553  -31.0880   22.1025 N   0  0  0  0  0  0
  -23.4233  -28.8208   23.3052 O   0  0  0  0  0  0
  -28.3742  -26.7003   20.0481 O   0  0  0  0  0  0
  -26.5607  -34.8938   22.4734 O   0  0  0  0  0  0
  -23.5275  -32.1463   23.7572 O   0  0  0  0  0  0
  -29.3645  -20.2269   20.5843 C   0  0  0  0  0  0
  -29.3238  -18.8220   20.6988 C   0  0  0  0  0  0
  -31.5525  -20.2395   21.6394 C   0  0  0  0  0  0
  -30.5259  -20.9301   20.9734 C   0  0  0  0  0  0
  -30.4347  -18.1179   21.2022 C   0  0  0  0  0  0
  -31.5320  -18.8353   21.7426 C   0  0  0  0  0  0
  -30.8342  -22.2913   20.5124 C   0  0  0  0  0  0
  -30.6481  -16.7380   20.7724 C   0  0  0  0  0  0
  -30.1954  -22.9620   19.5351 C   0  0  0  0  0  0
  -30.2280  -15.5515   21.2600 C   0  0  0  0  0  0
  -30.7471  -24.2079   19.0386 C   0  0  0  0  0  0
  -33.7733  -17.6318   21.3181 C   0  0  0  0  0  0
  -29.6186  -28.6936   17.9949 C   0  0  0  0  0  0
  -31.7726  -27.7591   18.7513 C   0  0  0  0  0  0
  -32.7523  -18.1425   22.3475 C   0  0  0  0  0  0
  -30.0347  -26.2156   17.7099 C   0  0  0  0  0  0
  -29.6841  -27.2670   20.0760 C   0  0  0  0  0  0
  -30.2616  -27.4535   18.6442 C   0  0  0  0  0  0
  -29.8410  -24.9236   18.3715 N   0  0  0  0  0  0
  -31.9211  -24.5596   19.1604 O   0  0  0  0  0  0
  -31.4416  -12.2640   19.1558 H   0  0  0  0  0  0
  -30.2101  -11.2487   19.8418 H   0  0  0  0  0  0
  -29.7348  -11.7795   17.4286 H   0  0  0  0  0  0
  -29.6929  -13.4886   17.8097 H   0  0  0  0  0  0
  -27.7946  -11.3288   18.7889 H   0  0  0  0  0  0
  -27.3780  -12.6834   17.7751 H   0  0  0  0  0  0
  -27.7066  -14.2701   19.5853 H   0  0  0  0  0  0
  -28.6458  -11.9787   21.3639 H   0  0  0  0  0  0
  -28.4688  -13.6270   21.8671 H   0  0  0  0  0  0
  -25.2774   -9.5716   22.4728 H   0  0  0  0  0  0
  -24.0019   -7.4666   22.7461 H   0  0  0  0  0  0
  -21.0832   -8.8788   19.8944 H   0  0  0  0  0  0
  -22.3698  -10.9674   19.6137 H   0  0  0  0  0  0
  -21.2017   -7.6135   23.9720 H   0  0  0  0  0  0
  -21.1482   -6.0501   25.9093 H   0  0  0  0  0  0
  -22.0592   -2.7574   23.2861 H   0  0  0  0  0  0
  -22.4103  -11.9932   22.4827 H   0  0  0  0  0  0
  -21.1106  -13.1265   22.2540 H   0  0  0  0  0  0
  -24.6715  -15.8539   20.5337 H   0  0  0  0  0  0
  -26.2989  -15.6283   20.1287 H   0  0  0  0  0  0
  -26.7053  -32.5618   23.1223 H   0  0  0  0  0  0
  -24.9850  -33.9815   25.0398 H   0  0  0  0  0  0
  -22.6715  -31.3026   21.4148 H   0  0  0  0  0  0
  -23.3745  -35.9652   23.3288 H   0  0  0  0  0  0
  -24.3574  -36.8942   22.2053 H   0  0  0  0  0  0
  -23.7228  -37.6536   23.6648 H   0  0  0  0  0  0
  -26.0195  -31.6341   20.5941 H   0  0  0  0  0  0
  -26.8060  -30.9213   21.9730 H   0  0  0  0  0  0
  -28.0681  -29.2144   21.1757 H   0  0  0  0  0  0
  -26.0970  -25.9697   19.1019 H   0  0  0  0  0  0
  -23.9884  -27.2668   19.0860 H   0  0  0  0  0  0
  -23.6949  -30.5893   19.4040 H   0  0  0  0  0  0
  -22.7324  -29.2241   19.8820 H   0  0  0  0  0  0
  -25.1290  -36.2000   25.0852 H   0  0  0  0  0  0
  -20.9949  -28.3149   24.1509 H   0  0  0  0  0  0
  -20.5680  -26.2214   23.3613 H   0  0  0  0  0  0
  -21.6630  -26.7419   22.1213 H   0  0  0  0  0  0
  -19.6858  -25.6306   21.1231 H   0  0  0  0  0  0
  -19.6663  -27.3240   20.6825 H   0  0  0  0  0  0
  -17.4199  -26.6721   21.4040 H   0  0  0  0  0  0
  -18.0255  -26.0064   22.9034 H   0  0  0  0  0  0
  -19.7908  -30.7297   24.2272 H   0  0  0  0  0  0
  -17.4966  -31.6247   24.5186 H   0  0  0  0  0  0
  -15.5332  -30.2974   23.7613 H   0  0  0  0  0  0
  -15.8659  -28.0815   22.7015 H   0  0  0  0  0  0
  -24.5814  -30.7133   25.7781 H   0  0  0  0  0  0
  -24.8919  -32.2933   26.4941 H   0  0  0  0  0  0
  -25.8016  -30.8870   27.0225 H   0  0  0  0  0  0
  -26.2795  -29.6874   24.1075 H   0  0  0  0  0  0
  -27.3950  -29.7259   25.4519 H   0  0  0  0  0  0
  -27.8635  -30.4383   23.9252 H   0  0  0  0  0  0
  -27.2650  -33.3581   26.2126 H   0  0  0  0  0  0
  -28.3782  -32.6942   25.0263 H   0  0  0  0  0  0
  -28.0746  -31.8405   26.5317 H   0  0  0  0  0  0
  -28.2610  -38.0106   24.7544 H   0  0  0  0  0  0
  -28.1110  -36.2668   24.6255 H   0  0  0  0  0  0
  -27.2329  -37.1411   25.8858 H   0  0  0  0  0  0
  -20.9309  -29.8663   21.6998 H   0  0  0  0  0  0
  -26.0199  -38.2899   24.1414 H   0  0  0  0  0  0
  -28.5482  -20.7314   20.0899 H   0  0  0  0  0  0
  -28.4920  -18.2851   20.2658 H   0  0  0  0  0  0
  -32.4351  -20.7744   21.9613 H   0  0  0  0  0  0
  -31.6962  -22.7537   20.9787 H   0  0  0  0  0  0
  -31.2786  -16.7285   19.8910 H   0  0  0  0  0  0
  -29.3042  -22.5555   19.0781 H   0  0  0  0  0  0
  -29.5679  -15.4798   22.1115 H   0  0  0  0  0  0
  -34.6865  -17.3047   21.8167 H   0  0  0  0  0  0
  -34.0503  -18.4076   20.6049 H   0  0  0  0  0  0
  -33.3979  -16.7791   20.7553 H   0  0  0  0  0  0
  -30.0912  -28.9307   17.0412 H   0  0  0  0  0  0
  -29.7205  -29.5719   18.6368 H   0  0  0  0  0  0
  -28.5535  -28.5515   17.8117 H   0  0  0  0  0  0
  -32.2447  -27.7945   17.7683 H   0  0  0  0  0  0
  -32.3105  -27.0181   19.3408 H   0  0  0  0  0  0
  -31.9481  -28.7251   19.2275 H   0  0  0  0  0  0
  -32.4228  -17.3265   22.9915 H   0  0  0  0  0  0
  -33.2598  -18.8450   23.0105 H   0  0  0  0  0  0
  -30.8300  -26.1233   16.9680 H   0  0  0  0  0  0
  -29.1270  -26.3637   17.1239 H   0  0  0  0  0  0
  -29.7676  -28.1865   20.6493 H   0  0  0  0  0  0
  -30.3067  -26.5604   20.6260 H   0  0  0  0  0  0
  -28.9028  -24.5469   18.3345 H   0  0  0  0  0  0
  1 25  1  0  0  0
  1 30  2  0  0  0
  1 80  1  0  0  0
  2  3  1  0  0  0
  2 25  1  0  0  0
  2 91  1  0  0  0
  2 92  1  0  0  0
  3  4  1  0  0  0
  3 93  1  0  0  0
  3 94  1  0  0  0
  4  5  1  0  0  0
  4 95  1  0  0  0
  4 96  1  0  0  0
  5  6  1  0  0  0
  5 26  1  0  0  0
  5 97  1  0  0  0
  6 25  1  0  0  0
  6 98  1  0  0  0
  6 99  1  0  0  0
  7  8  2  0  0  0
  7 26  1  0  0  0
  7 29  1  0  0  0
  8  9  1  0  0  0
  8 22  1  0  0  0
  9 10  1  0  0  0
  9 27  2  0  0  0
 10 11  2  0  0  0
 10 15  1  0  0  0
 11 12  1  0  0  0
 11100  1  0  0  0
 12 13  2  0  0  0
 12101  1  0  0  0
 13 14  1  0  0  0
 13 31  1  0  0  0
 14 15  2  0  0  0
 14102  1  0  0  0
 15103  1  0  0  0
 16 17  2  0  0  0
 16 21  1  0  0  0
 16 31  1  0  0  0
 17 18  1  0  0  0
 17104  1  0  0  0
 18 19  2  0  0  0
 18105  1  0  0  0
 19 20  1  0  0  0
 19 24  1  0  0  0
 20 21  2  0  0  0
 20106  1  0  0  0
 21 23  1  0  0  0
 22 28  1  0  0  0
 22 32  2  0  0  0
 26 27  1  0  0  0
 28107  1  0  0  0
 28108  1  0  0  0
 29109  1  0  0  0
 29110  1  0  0  0
 33 34  1  0  0  0
 33 66  1  0  0  0
 33 70  2  0  0  0
 34 36  1  0  0  0
 34 59  1  0  0  0
 34111  1  0  0  0
 35 44  2  0  0  0
 35 45  1  0  0  0
 35 68  1  0  0  0
 36 56  1  0  0  0
 36112  1  0  0  0
 37 39  1  0  0  0
 37 47  1  0  0  0
 37 66  1  0  0  0
 37113  1  0  0  0
 38 43  2  0  0  0
 38 46  1  0  0  0
 38 47  1  0  0  0
 39 64  1  0  0  0
 39 67  2  0  0  0
 40 52  1  0  0  0
 40 53  2  0  0  0
 40 58  1  0  0  0
 41114  1  0  0  0
 41115  1  0  0  0
 41116  1  0  0  0
 41 48  1  0  0  0
 42 43  1  0  0  0
 42 66  1  0  0  0
 42117  1  0  0  0
 42118  1  0  0  0
 43 44  1  0  0  0
 44119  1  0  0  0
 45 46  2  0  0  0
 45120  1  0  0  0
 46121  1  0  0  0
 47122  1  0  0  0
 47123  1  0  0  0
 48 56  1  0  0  0
 48 65  1  0  0  0
 48124  1  0  0  0
 49 50  1  0  0  0
 49 53  1  0  0  0
 49 64  1  0  0  0
 49125  1  0  0  0
 50 51  1  0  0  0
 50126  1  0  0  0
 50127  1  0  0  0
 51 52  1  0  0  0
 51128  1  0  0  0
 51129  1  0  0  0
 52130  1  0  0  0
 52131  1  0  0  0
 53 54  1  0  0  0
 54 55  2  0  0  0
 54132  1  0  0  0
 55 57  1  0  0  0
 55133  1  0  0  0
 56 69  2  0  0  0
 57 58  2  0  0  0
 57134  1  0  0  0
 58135  1  0  0  0
 59 60  1  0  0  0
 59 61  1  0  0  0
 59 62  1  0  0  0
 60136  1  0  0  0
 60137  1  0  0  0
 60138  1  0  0  0
 61139  1  0  0  0
 61140  1  0  0  0
 61141  1  0  0  0
 62142  1  0  0  0
 62143  1  0  0  0
 62144  1  0  0  0
 63 65  1  0  0  0
 63145  1  0  0  0
 63146  1  0  0  0
 63147  1  0  0  0
 64148  1  0  0  0
 65149  1  0  0  0
 68 87  1  0  0  0
 71 72  2  0  0  0
 71 74  1  0  0  0
 71150  1  0  0  0
 72 75  1  0  0  0
 72151  1  0  0  0
 73 74  2  0  0  0
 73 76  1  0  0  0
 73152  1  0  0  0
 74 77  1  0  0  0
 75 76  2  0  0  0
 75 78  1  0  0  0
 76 85  1  0  0  0
 77 79  2  0  0  0
 77153  1  0  0  0
 78 80  2  0  0  0
 78154  1  0  0  0
 79 81  1  0  0  0
 79155  1  0  0  0
 80156  1  0  0  0
 81 89  1  0  0  0
 81 90  2  0  0  0
 82 85  1  0  0  0
 82157  1  0  0  0
 82158  1  0  0  0
 82159  1  0  0  0
 83160  1  0  0  0
 83161  1  0  0  0
 83162  1  0  0  0
 83 88  1  0  0  0
 84 88  1  0  0  0
 84163  1  0  0  0
 84164  1  0  0  0
 84165  1  0  0  0
 85166  1  0  0  0
 85167  1  0  0  0
 86 88  1  0  0  0
 86 89  1  0  0  0
 86168  1  0  0  0
 86169  1  0  0  0
 87 88  1  0  0  0
 87170  1  0  0  0
 87171  1  0  0  0
 89172  1  0  0  0
M  ISO  4   1 100  68 101  80 100  87 101
M  END
> <chiral flag>
0

> <version>
0

> <s_m_source_file>
/data/baiqing/PycharmProjects/Reinvent-master-3.2/result/LINK_invent/BTK/process_docking_weight1_custom_product_contain_oxygen_bond_distance_aromatic_linkinvent_7_9_3/rearranged_h_0121.sdf

> <i_m_source_file_index>
67

> <r_mmod_Potential_Energy-OPLS-2005>
-10.234637260437

> <r_mmod_Stretch_Energy-OPLS-2005>
35.4615478515625

> <r_mmod_Bend_Energy-OPLS-2005>
136.308090209961

> <r_mmod_Torsional_Energy-OPLS-2005>
267.371215820312

> <r_mmod_Improper_Torsional_Energy-OPLS-2005>
9.63311195373535

> <r_mmod_Van_der_Waal_Energy-OPLS-2005>
171.377105712891

> <r_mmod_Electrostatic_Energy-OPLS-2005>
-436.478790283203

> <r_mmod_Solvation_Energy-OPLS-2005>
-207.353332519531

> <b_mmod_Minimization_Converged-OPLS-2005>
0

> <r_mmod_RMS_Derivative-OPLS-2005>
4.02880573272705

$$$$
67
                    3D
 Structure written by MMmdl.
159167  0  0  1  0            999 V2000
  -30.6626  -14.5352   20.5466 C   0  0  0  0  0  0
  -30.4368  -12.3402   19.4294 C   0  0  0  0  0  0
  -29.5033  -12.5179   18.2117 C   0  0  0  0  0  0
  -28.0207  -12.3715   18.6156 C   0  0  0  0  0  0
  -27.6634  -13.2068   19.8749 C   0  0  2  0  0  0
  -28.7058  -12.9703   20.9891 C   0  0  0  0  0  0
  -25.2593  -13.8155   20.5687 C   0  0  0  0  0  0
  -24.1847  -13.0448   20.9193 C   0  0  0  0  0  0
  -24.6397  -11.6901   20.8736 C   0  0  0  0  0  0
  -23.9057  -10.4302   21.0429 C   0  0  0  0  0  0
  -24.3614   -9.4215   21.9204 C   0  0  0  0  0  0
  -23.6298   -8.2244   22.0753 C   0  0  0  0  0  0
  -22.4283   -8.0280   21.3543 C   0  0  0  0  0  0
  -21.9914   -9.0262   20.4652 C   0  0  0  0  0  0
  -22.7233  -10.2149   20.3074 C   0  0  0  0  0  0
  -21.6839   -6.0749   22.5296 C   0  0  0  0  0  0
  -21.4007   -6.5650   23.8235 C   0  0  0  0  0  0
  -21.3656   -5.6788   24.9185 C   0  0  0  0  0  0
  -21.6038   -4.3050   24.7230 C   0  0  0  0  0  0
  -21.8811   -3.8160   23.4346 C   0  0  0  0  0  0
  -21.9189   -4.6983   22.3408 C   0  0  0  0  0  0
  -22.7854  -13.5259   21.1844 C   0  0  0  0  0  0
  -22.1657   -4.2177   21.0983 F   0  0  0  0  0  0
  -21.5632   -3.4532   25.7743 F   0  0  0  0  0  0
  -30.0294  -13.3256   20.4490 N   0  0  0  0  0  0
  -26.3034  -12.9318   20.3354 N   0  0  0  0  0  0
  -25.9328  -11.6477   20.5749 N   0  0  0  0  0  0
  -22.0462  -12.8297   22.0405 N   0  0  0  0  0  0
  -25.4336  -15.1873   20.4132 N   0  0  0  0  0  0
  -31.8008  -14.6938   20.0904 O   0  0  0  0  0  0
  -21.6617   -6.8897   21.4261 O   0  0  0  0  0  0
  -22.3554  -14.5571   20.6669 O   0  0  0  0  0  0
  -24.6124  -31.8692   23.2168 C   0  0  0  0  0  0
  -25.9020  -32.4836   23.8438 C   0  0  1  0  0  0
  -27.2173  -27.4181   20.0900 C   0  0  0  0  0  0
  -25.5879  -33.8635   24.2358 N   0  0  0  0  0  0
  -23.3991  -30.4999   21.5538 C   0  0  2  0  0  0
  -24.8461  -28.9805   20.1048 C   0  0  0  0  0  0
  -22.7409  -29.4652   22.4957 C   0  0  0  0  0  0
  -18.0262  -28.1347   22.8496 C   0  0  0  0  0  0
  -24.1477  -36.7339   23.2637 C   0  0  0  0  0  0
  -25.9314  -30.8316   21.3747 C   0  0  0  0  0  0
  -26.0043  -29.4641   20.7231 C   0  0  0  0  0  0
  -27.1884  -28.6851   20.7255 C   0  0  0  0  0  0
  -26.0471  -26.9912   19.4121 C   0  0  0  0  0  0
  -24.8650  -27.7461   19.4430 C   0  0  0  0  0  0
  -23.6103  -29.8502   20.1606 C   0  0  0  0  0  0
  -25.4091  -36.3125   24.0343 C   0  0  1  0  0  0
  -20.5859  -28.3628   23.1320 C   0  0  2  0  0  0
  -20.6732  -26.9358   22.5420 C   0  0  0  0  0  0
  -19.5719  -26.6366   21.5200 C   0  0  0  0  0  0
  -18.1902  -26.7894   22.1618 C   0  0  0  0  0  0
  -19.1513  -28.8804   23.2914 C   0  0  0  0  0  0
  -18.9439  -30.1407   23.8934 C   0  0  0  0  0  0
  -17.6442  -30.6561   24.0556 C   0  0  0  0  0  0
  -25.9016  -34.9489   23.5154 C   0  0  0  0  0  0
  -16.5334  -29.9072   23.6302 C   0  0  0  0  0  0
  -16.7255  -28.6478   23.0349 C   0  0  0  0  0  0
  -26.4467  -31.6600   25.0748 C   0  0  0  0  0  0
  -25.3752  -31.3710   26.1521 C   0  0  0  0  0  0
  -27.0287  -30.3043   24.6096 C   0  0  0  0  0  0
  -27.6059  -32.4303   25.7494 C   0  0  0  0  0  0
  -27.5581  -37.1817   24.8457 C   0  0  0  0  0  0
  -21.4129  -29.3019   22.3740 N   0  0  0  0  0  0
  -26.4281  -37.3804   23.9422 N   0  0  0  0  0  0
  -24.6649  -31.0822   22.1057 N   0  0  0  0  0  0
  -23.4211  -28.8148   23.2934 O   0  0  0  0  0  0
  -28.3678  -26.6449   20.1529 O   0  0  0  0  0  0
  -26.5572  -34.8926   22.4714 O   0  0  0  0  0  0
  -23.5314  -32.1432   23.7557 O   0  0  0  0  0  0
  -28.2843  -18.0640   22.1050 C   0  0  0  0  0  0
  -27.6366  -19.2101   22.6022 C   0  0  0  0  0  0
  -29.8044  -19.4859   20.8645 C   0  0  0  0  0  0
  -29.3903  -18.1728   21.2357 C   0  0  0  0  0  0
  -28.0675  -20.5060   22.2497 C   0  0  0  0  0  0
  -29.1592  -20.6570   21.3545 C   0  0  0  0  0  0
  -30.1213  -16.9551   20.7554 C   0  0  0  0  0  0
  -29.8683  -15.6566   21.0861 C   0  0  0  0  0  0
  -28.0471  -22.0380   24.2644 C   0  0  0  0  0  0
  -27.3826  -21.6862   22.9286 C   0  0  0  0  0  0
  -29.0576  -24.2740   20.6944 C   0  0  0  0  0  0
  -28.2846  -25.2486   19.7773 C   0  0  0  0  0  0
  -28.9340  -22.7931   20.2265 C   0  0  0  0  0  0
  -29.6916  -21.9025   21.0628 O   0  0  0  0  0  0
  -31.4785  -12.4581   19.1238 H   0  0  0  0  0  0
  -30.3634  -11.3279   19.8299 H   0  0  0  0  0  0
  -29.7506  -11.7914   17.4374 H   0  0  0  0  0  0
  -29.6652  -13.5027   17.7704 H   0  0  0  0  0  0
  -27.8314  -11.3132   18.8053 H   0  0  0  0  0  0
  -27.3736  -12.6503   17.7844 H   0  0  0  0  0  0
  -27.7128  -14.2575   19.5877 H   0  0  0  0  0  0
  -28.7082  -11.9180   21.2764 H   0  0  0  0  0  0
  -28.4546  -13.4999   21.9070 H   0  0  0  0  0  0
  -25.2773   -9.5665   22.4764 H   0  0  0  0  0  0
  -24.0003   -7.4626   22.7450 H   0  0  0  0  0  0
  -21.0845   -8.8786   19.8961 H   0  0  0  0  0  0
  -22.3711  -10.9687   19.6159 H   0  0  0  0  0  0
  -21.1989   -7.6156   23.9760 H   0  0  0  0  0  0
  -21.1481   -6.0507   25.9096 H   0  0  0  0  0  0
  -22.0595   -2.7630   23.2831 H   0  0  0  0  0  0
  -22.4049  -11.9968   22.4837 H   0  0  0  0  0  0
  -21.1075  -13.1341   22.2588 H   0  0  0  0  0  0
  -24.6675  -15.8406   20.5376 H   0  0  0  0  0  0
  -26.2916  -15.6338   20.1138 H   0  0  0  0  0  0
  -26.7088  -32.5568   23.1198 H   0  0  0  0  0  0
  -25.0031  -33.9801   25.0501 H   0  0  0  0  0  0
  -22.6844  -31.3156   21.4226 H   0  0  0  0  0  0
  -23.3725  -35.9687   23.3288 H   0  0  0  0  0  0
  -24.3577  -36.8965   22.2056 H   0  0  0  0  0  0
  -23.7239  -37.6548   23.6655 H   0  0  0  0  0  0
  -26.0416  -31.5965   20.6031 H   0  0  0  0  0  0
  -26.8205  -30.8898   21.9906 H   0  0  0  0  0  0
  -28.0728  -29.0478   21.2309 H   0  0  0  0  0  0
  -26.0126  -26.0905   18.8203 H   0  0  0  0  0  0
  -23.9869  -27.3945   18.9191 H   0  0  0  0  0  0
  -23.7243  -30.6343   19.4101 H   0  0  0  0  0  0
  -22.7315  -29.2785   19.8571 H   0  0  0  0  0  0
  -25.1259  -36.1998   25.0831 H   0  0  0  0  0  0
  -20.9956  -28.3169   24.1439 H   0  0  0  0  0  0
  -20.5570  -26.2232   23.3604 H   0  0  0  0  0  0
  -21.6608  -26.7354   22.1252 H   0  0  0  0  0  0
  -19.6864  -25.6289   21.1201 H   0  0  0  0  0  0
  -19.6651  -27.3194   20.6747 H   0  0  0  0  0  0
  -17.4165  -26.6651   21.4027 H   0  0  0  0  0  0
  -18.0299  -26.0026   22.9004 H   0  0  0  0  0  0
  -19.7923  -30.7196   24.2337 H   0  0  0  0  0  0
  -17.5006  -31.6247   24.5143 H   0  0  0  0  0  0
  -15.5337  -30.2988   23.7593 H   0  0  0  0  0  0
  -15.8653  -28.0800   22.7058 H   0  0  0  0  0  0
  -24.5918  -30.7040   25.7897 H   0  0  0  0  0  0
  -24.8944  -32.2871   26.4970 H   0  0  0  0  0  0
  -25.8135  -30.8907   27.0281 H   0  0  0  0  0  0
  -26.2822  -29.6815   24.1147 H   0  0  0  0  0  0
  -27.4072  -29.7267   25.4540 H   0  0  0  0  0  0
  -27.8658  -30.4374   23.9234 H   0  0  0  0  0  0
  -27.2695  -33.3590   26.2118 H   0  0  0  0  0  0
  -28.3850  -32.6875   25.0304 H   0  0  0  0  0  0
  -28.0748  -31.8389   26.5373 H   0  0  0  0  0  0
  -28.2596  -38.0113   24.7504 H   0  0  0  0  0  0
  -28.1070  -36.2651   24.6256 H   0  0  0  0  0  0
  -27.2314  -37.1454   25.8860 H   0  0  0  0  0  0
  -20.9243  -29.8856   21.7095 H   0  0  0  0  0  0
  -26.0173  -38.2882   24.1421 H   0  0  0  0  0  0
  -27.9217  -17.1013   22.4330 H   0  0  0  0  0  0
  -26.8187  -19.0861   23.2989 H   0  0  0  0  0  0
  -30.6566  -19.6048   20.2093 H   0  0  0  0  0  0
  -30.9315  -17.1538   20.0643 H   0  0  0  0  0  0
  -29.0670  -15.4576   21.7731 H   0  0  0  0  0  0
  -27.5036  -22.8318   24.7765 H   0  0  0  0  0  0
  -29.0738  -22.3739   24.1214 H   0  0  0  0  0  0
  -28.0673  -21.1713   24.9239 H   0  0  0  0  0  0
  -26.3360  -21.4353   23.1046 H   0  0  0  0  0  0
  -27.3568  -22.5652   22.2913 H   0  0  0  0  0  0
  -28.6601  -24.3590   21.7058 H   0  0  0  0  0  0
  -30.1062  -24.5626   20.7533 H   0  0  0  0  0  0
  -27.2707  -24.8595   19.8001 H   0  0  0  0  0  0
  -28.6402  -25.1575   18.7508 H   0  0  0  0  0  0
  -29.3199  -22.7037   19.2096 H   0  0  0  0  0  0
  -27.8837  -22.5042   20.1632 H   0  0  0  0  0  0
  1 25  1  0  0  0
  1 30  2  0  0  0
  1 78  1  0  0  0
  2  3  1  0  0  0
  2 25  1  0  0  0
  2 85  1  0  0  0
  2 86  1  0  0  0
  3  4  1  0  0  0
  3 87  1  0  0  0
  3 88  1  0  0  0
  4  5  1  0  0  0
  4 89  1  0  0  0
  4 90  1  0  0  0
  5  6  1  0  0  0
  5 26  1  0  0  0
  5 91  1  0  0  0
  6 25  1  0  0  0
  6 92  1  0  0  0
  6 93  1  0  0  0
  7  8  2  0  0  0
  7 26  1  0  0  0
  7 29  1  0  0  0
  8  9  1  0  0  0
  8 22  1  0  0  0
  9 10  1  0  0  0
  9 27  2  0  0  0
 10 11  2  0  0  0
 10 15  1  0  0  0
 11 12  1  0  0  0
 11 94  1  0  0  0
 12 13  2  0  0  0
 12 95  1  0  0  0
 13 14  1  0  0  0
 13 31  1  0  0  0
 14 15  2  0  0  0
 14 96  1  0  0  0
 15 97  1  0  0  0
 16 17  2  0  0  0
 16 21  1  0  0  0
 16 31  1  0  0  0
 17 18  1  0  0  0
 17 98  1  0  0  0
 18 19  2  0  0  0
 18 99  1  0  0  0
 19 20  1  0  0  0
 19 24  1  0  0  0
 20 21  2  0  0  0
 20100  1  0  0  0
 21 23  1  0  0  0
 22 28  1  0  0  0
 22 32  2  0  0  0
 26 27  1  0  0  0
 28101  1  0  0  0
 28102  1  0  0  0
 29103  1  0  0  0
 29104  1  0  0  0
 33 34  1  0  0  0
 33 66  1  0  0  0
 33 70  2  0  0  0
 34 36  1  0  0  0
 34 59  1  0  0  0
 34105  1  0  0  0
 35 44  2  0  0  0
 35 45  1  0  0  0
 35 68  1  0  0  0
 36 56  1  0  0  0
 36106  1  0  0  0
 37 39  1  0  0  0
 37 47  1  0  0  0
 37 66  1  0  0  0
 37107  1  0  0  0
 38 43  2  0  0  0
 38 46  1  0  0  0
 38 47  1  0  0  0
 39 64  1  0  0  0
 39 67  2  0  0  0
 40 52  1  0  0  0
 40 53  2  0  0  0
 40 58  1  0  0  0
 41108  1  0  0  0
 41109  1  0  0  0
 41110  1  0  0  0
 41 48  1  0  0  0
 42 43  1  0  0  0
 42 66  1  0  0  0
 42111  1  0  0  0
 42112  1  0  0  0
 43 44  1  0  0  0
 44113  1  0  0  0
 45 46  2  0  0  0
 45114  1  0  0  0
 46115  1  0  0  0
 47116  1  0  0  0
 47117  1  0  0  0
 48 56  1  0  0  0
 48 65  1  0  0  0
 48118  1  0  0  0
 49 50  1  0  0  0
 49 53  1  0  0  0
 49 64  1  0  0  0
 49119  1  0  0  0
 50 51  1  0  0  0
 50120  1  0  0  0
 50121  1  0  0  0
 51 52  1  0  0  0
 51122  1  0  0  0
 51123  1  0  0  0
 52124  1  0  0  0
 52125  1  0  0  0
 53 54  1  0  0  0
 54 55  2  0  0  0
 54126  1  0  0  0
 55 57  1  0  0  0
 55127  1  0  0  0
 56 69  2  0  0  0
 57 58  2  0  0  0
 57128  1  0  0  0
 58129  1  0  0  0
 59 60  1  0  0  0
 59 61  1  0  0  0
 59 62  1  0  0  0
 60130  1  0  0  0
 60131  1  0  0  0
 60132  1  0  0  0
 61133  1  0  0  0
 61134  1  0  0  0
 61135  1  0  0  0
 62136  1  0  0  0
 62137  1  0  0  0
 62138  1  0  0  0
 63 65  1  0  0  0
 63139  1  0  0  0
 63140  1  0  0  0
 63141  1  0  0  0
 64142  1  0  0  0
 65143  1  0  0  0
 68 82  1  0  0  0
 71 72  2  0  0  0
 71 74  1  0  0  0
 71144  1  0  0  0
 72 75  1  0  0  0
 72145  1  0  0  0
 73 74  2  0  0  0
 73 76  1  0  0  0
 73146  1  0  0  0
 74 77  1  0  0  0
 75 76  2  0  0  0
 75 80  1  0  0  0
 76 84  1  0  0  0
 77 78  2  0  0  0
 77147  1  0  0  0
 78148  1  0  0  0
 79 80  1  0  0  0
 79149  1  0  0  0
 79150  1  0  0  0
 79151  1  0  0  0
 80152  1  0  0  0
 80153  1  0  0  0
 81 82  1  0  0  0
 81 83  1  0  0  0
 81154  1  0  0  0
 81155  1  0  0  0
 82156  1  0  0  0
 82157  1  0  0  0
 83 84  1  0  0  0
 83158  1  0  0  0
 83159  1  0  0  0
M  ISO  4   1 100  68 101  78 100  82 101
M  END
> <chiral flag>
0

> <version>
0

> <s_m_source_file>
/data/baiqing/PycharmProjects/Reinvent-master-3.2/result/LINK_invent/BTK/process_docking_weight1_custom_product_contain_oxygen_bond_distance_aromatic_linkinvent_7_9_3/rearranged_h_0121.sdf

> <i_m_source_file_index>
68

> <r_mmod_Potential_Energy-OPLS-2005>
6.20721673965454

> <r_mmod_Stretch_Energy-OPLS-2005>
46.7975425720215

> <r_mmod_Bend_Energy-OPLS-2005>
108.849113464355

> <r_mmod_Torsional_Energy-OPLS-2005>
205.693862915039

> <r_mmod_Improper_Torsional_Energy-OPLS-2005>
3.86012697219849

> <r_mmod_Van_der_Waal_Energy-OPLS-2005>
161.726821899414

> <r_mmod_Electrostatic_Energy-OPLS-2005>
-347.646026611328

> <r_mmod_Solvation_Energy-OPLS-2005>
-194.41748046875

> <b_mmod_Minimization_Converged-OPLS-2005>
0

> <r_mmod_RMS_Derivative-OPLS-2005>
3.53627276420593

$$$$
68
                    3D
 Structure written by MMmdl.
160168  0  0  1  0            999 V2000
  -30.7303  -14.4540   20.6163 C   0  0  0  0  0  0
  -30.4193  -12.3174   19.4106 C   0  0  0  0  0  0
  -29.4865  -12.5110   18.1994 C   0  0  0  0  0  0
  -28.0110  -12.3651   18.6180 C   0  0  0  0  0  0
  -27.6602  -13.2074   19.8734 C   0  0  2  0  0  0
  -28.7028  -12.9907   20.9920 C   0  0  0  0  0  0
  -25.2588  -13.8168   20.5683 C   0  0  0  0  0  0
  -24.1834  -13.0445   20.9171 C   0  0  0  0  0  0
  -24.6388  -11.6913   20.8737 C   0  0  0  0  0  0
  -23.9056  -10.4300   21.0409 C   0  0  0  0  0  0
  -24.3611   -9.4215   21.9186 C   0  0  0  0  0  0
  -23.6291   -8.2246   22.0755 C   0  0  0  0  0  0
  -22.4272   -8.0284   21.3543 C   0  0  0  0  0  0
  -21.9907   -9.0256   20.4645 C   0  0  0  0  0  0
  -22.7232  -10.2138   20.3056 C   0  0  0  0  0  0
  -21.6851   -6.0740   22.5282 C   0  0  0  0  0  0
  -21.4012   -6.5642   23.8216 C   0  0  0  0  0  0
  -21.3657   -5.6794   24.9177 C   0  0  0  0  0  0
  -21.6042   -4.3058   24.7225 C   0  0  0  0  0  0
  -21.8819   -3.8151   23.4346 C   0  0  0  0  0  0
  -21.9191   -4.6970   22.3403 C   0  0  0  0  0  0
  -22.7859  -13.5243   21.1844 C   0  0  0  0  0  0
  -22.1661   -4.2155   21.0980 F   0  0  0  0  0  0
  -21.5628   -3.4541   25.7738 F   0  0  0  0  0  0
  -30.0331  -13.2984   20.4372 N   0  0  0  0  0  0
  -26.3019  -12.9335   20.3371 N   0  0  0  0  0  0
  -25.9312  -11.6494   20.5767 N   0  0  0  0  0  0
  -22.0502  -12.8231   22.0401 N   0  0  0  0  0  0
  -25.4330  -15.1884   20.4108 N   0  0  0  0  0  0
  -31.8298  -14.6586   20.0951 O   0  0  0  0  0  0
  -21.6638   -6.8881   21.4243 O   0  0  0  0  0  0
  -22.3548  -14.5555   20.6706 O   0  0  0  0  0  0
  -24.6180  -31.8674   23.2100 C   0  0  0  0  0  0
  -25.9066  -32.4817   23.8397 C   0  0  1  0  0  0
  -27.2255  -27.4104   20.0865 C   0  0  0  0  0  0
  -25.5910  -33.8615   24.2323 N   0  0  0  0  0  0
  -23.4051  -30.4944   21.5525 C   0  0  2  0  0  0
  -24.8479  -28.9643   20.1135 C   0  0  0  0  0  0
  -22.7420  -29.4669   22.4988 C   0  0  0  0  0  0
  -18.0274  -28.1376   22.8487 C   0  0  0  0  0  0
  -24.1484  -36.7306   23.2636 C   0  0  0  0  0  0
  -25.9394  -30.8250   21.3679 C   0  0  0  0  0  0
  -26.0140  -29.4606   20.7092 C   0  0  0  0  0  0
  -27.2054  -28.6929   20.6914 C   0  0  0  0  0  0
  -26.0335  -26.9438   19.4781 C   0  0  0  0  0  0
  -24.8543  -27.7059   19.4955 C   0  0  0  0  0  0
  -23.6118  -29.8325   20.1664 C   0  0  0  0  0  0
  -25.4108  -36.3106   24.0333 C   0  0  1  0  0  0
  -20.5867  -28.3667   23.1309 C   0  0  2  0  0  0
  -20.6769  -26.9401   22.5411 C   0  0  0  0  0  0
  -19.5750  -26.6382   21.5206 C   0  0  0  0  0  0
  -18.1924  -26.7922   22.1614 C   0  0  0  0  0  0
  -19.1524  -28.8838   23.2893 C   0  0  0  0  0  0
  -18.9456  -30.1443   23.8904 C   0  0  0  0  0  0
  -17.6461  -30.6583   24.0567 C   0  0  0  0  0  0
  -25.9039  -34.9472   23.5124 C   0  0  0  0  0  0
  -16.5351  -29.9083   23.6332 C   0  0  0  0  0  0
  -16.7265  -28.6500   23.0351 C   0  0  0  0  0  0
  -26.4479  -31.6602   25.0735 C   0  0  0  0  0  0
  -25.3736  -31.3719   26.1479 C   0  0  0  0  0  0
  -27.0311  -30.3040   24.6124 C   0  0  0  0  0  0
  -27.6060  -32.4324   25.7493 C   0  0  0  0  0  0
  -27.5582  -37.1805   24.8463 C   0  0  0  0  0  0
  -21.4145  -29.3042   22.3723 N   0  0  0  0  0  0
  -26.4291  -37.3793   23.9409 N   0  0  0  0  0  0
  -24.6727  -31.0763   22.1014 N   0  0  0  0  0  0
  -23.4188  -28.8199   23.3025 O   0  0  0  0  0  0
  -28.3783  -26.6373   20.1104 O   0  0  0  0  0  0
  -26.5597  -34.8923   22.4685 O   0  0  0  0  0  0
  -23.5368  -32.1437   23.7481 O   0  0  0  0  0  0
  -29.1693  -20.0172   21.1735 C   0  0  0  0  0  0
  -31.5044  -18.5860   20.6140 C   0  0  0  0  0  0
  -29.2747  -18.6627   21.6005 C   0  0  0  0  0  0
  -30.4815  -17.9495   21.3495 C   0  0  0  0  0  0
  -31.3854  -19.9287   20.1944 C   0  0  0  0  0  0
  -30.2296  -20.6791   20.5027 C   0  0  0  0  0  0
  -27.0268  -18.6061   22.7589 C   0  0  0  0  0  0
  -28.1642  -18.0223   22.3417 C   0  0  0  0  0  0
  -29.3871  -24.3402   20.2520 C   0  0  0  0  0  0
  -32.5290  -20.5787   19.4367 C   0  0  0  0  0  0
  -30.7909  -16.5684   21.9610 C   0  0  0  0  0  0
  -28.1789  -25.2211   19.8819 C   0  0  0  0  0  0
  -29.0943  -22.8389   20.4882 C   0  0  0  0  0  0
  -30.1357  -15.3873   21.3789 N   0  0  0  0  0  0
  -30.5278  -24.8087   20.3561 O   0  0  0  0  0  0
  -30.2216  -22.0205   20.1419 O   0  0  0  0  0  0
  -31.4618  -12.4196   19.1042 H   0  0  0  0  0  0
  -30.3259  -11.3057   19.8083 H   0  0  0  0  0  0
  -29.7264  -11.7870   17.4195 H   0  0  0  0  0  0
  -29.6484  -13.4975   17.7623 H   0  0  0  0  0  0
  -27.8266  -11.3088   18.8187 H   0  0  0  0  0  0
  -27.3555  -12.6342   17.7890 H   0  0  0  0  0  0
  -27.7045  -14.2553   19.5760 H   0  0  0  0  0  0
  -28.6823  -11.9547   21.3334 H   0  0  0  0  0  0
  -28.4542  -13.5864   21.8709 H   0  0  0  0  0  0
  -25.2757   -9.5692   22.4759 H   0  0  0  0  0  0
  -24.0006   -7.4638   22.7473 H   0  0  0  0  0  0
  -21.0840   -8.8771   19.8947 H   0  0  0  0  0  0
  -22.3695  -10.9675   19.6163 H   0  0  0  0  0  0
  -21.2004   -7.6151   23.9720 H   0  0  0  0  0  0
  -21.1478   -6.0525   25.9080 H   0  0  0  0  0  0
  -22.0598   -2.7614   23.2846 H   0  0  0  0  0  0
  -22.4110  -11.9875   22.4762 H   0  0  0  0  0  0
  -21.1126  -13.1266   22.2626 H   0  0  0  0  0  0
  -24.6726  -15.8490   20.5289 H   0  0  0  0  0  0
  -26.2955  -15.6283   20.1148 H   0  0  0  0  0  0
  -26.7137  -32.5514   23.1157 H   0  0  0  0  0  0
  -25.0086  -33.9780   25.0485 H   0  0  0  0  0  0
  -22.6947  -31.3122   21.4158 H   0  0  0  0  0  0
  -23.3746  -35.9639   23.3308 H   0  0  0  0  0  0
  -24.3577  -36.8911   22.2049 H   0  0  0  0  0  0
  -23.7239  -37.6512   23.6649 H   0  0  0  0  0  0
  -26.0576  -31.5933   20.6028 H   0  0  0  0  0  0
  -26.8253  -30.8729   21.9893 H   0  0  0  0  0  0
  -28.1038  -29.0723   21.1581 H   0  0  0  0  0  0
  -25.9795  -25.9879   18.9788 H   0  0  0  0  0  0
  -23.9583  -27.3198   19.0293 H   0  0  0  0  0  0
  -23.7176  -30.6085   19.4079 H   0  0  0  0  0  0
  -22.7343  -29.2536   19.8713 H   0  0  0  0  0  0
  -25.1282  -36.1969   25.0825 H   0  0  0  0  0  0
  -20.9959  -28.3232   24.1429 H   0  0  0  0  0  0
  -20.5679  -26.2266   23.3592 H   0  0  0  0  0  0
  -21.6642  -26.7445   22.1200 H   0  0  0  0  0  0
  -19.6914  -25.6294   21.1228 H   0  0  0  0  0  0
  -19.6696  -27.3200   20.6742 H   0  0  0  0  0  0
  -17.4196  -26.6670   21.4015 H   0  0  0  0  0  0
  -18.0325  -26.0052   22.8999 H   0  0  0  0  0  0
  -19.7936  -30.7254   24.2271 H   0  0  0  0  0  0
  -17.5018  -31.6267   24.5161 H   0  0  0  0  0  0
  -15.5354  -30.2993   23.7654 H   0  0  0  0  0  0
  -15.8658  -28.0828   22.7067 H   0  0  0  0  0  0
  -24.5903  -30.7074   25.7812 H   0  0  0  0  0  0
  -24.8937  -32.2880   26.4936 H   0  0  0  0  0  0
  -25.8077  -30.8875   27.0236 H   0  0  0  0  0  0
  -26.2863  -29.6799   24.1171 H   0  0  0  0  0  0
  -27.4072  -29.7277   25.4588 H   0  0  0  0  0  0
  -27.8697  -30.4354   23.9282 H   0  0  0  0  0  0
  -27.2695  -33.3629   26.2077 H   0  0  0  0  0  0
  -28.3865  -32.6876   25.0312 H   0  0  0  0  0  0
  -28.0727  -31.8438   26.5400 H   0  0  0  0  0  0
  -28.2600  -38.0103   24.7524 H   0  0  0  0  0  0
  -28.1082  -36.2639   24.6278 H   0  0  0  0  0  0
  -27.2301  -37.1445   25.8865 H   0  0  0  0  0  0
  -20.9303  -29.8759   21.6941 H   0  0  0  0  0  0
  -26.0179  -38.2867   24.1422 H   0  0  0  0  0  0
  -28.2644  -20.5636   21.3842 H   0  0  0  0  0  0
  -32.4197  -18.0478   20.4086 H   0  0  0  0  0  0
  -26.2827  -18.0265   23.2872 H   0  0  0  0  0  0
  -26.8003  -19.6484   22.5962 H   0  0  0  0  0  0
  -28.2677  -16.9719   22.5654 H   0  0  0  0  0  0
  -33.3134  -19.8604   19.1963 H   0  0  0  0  0  0
  -32.9709  -21.3785   20.0311 H   0  0  0  0  0  0
  -32.1700  -21.0080   18.5006 H   0  0  0  0  0  0
  -30.5251  -16.6024   23.0181 H   0  0  0  0  0  0
  -31.8728  -16.4206   21.9694 H   0  0  0  0  0  0
  -27.3260  -24.8654   20.4617 H   0  0  0  0  0  0
  -27.9576  -25.0502   18.8282 H   0  0  0  0  0  0
  -28.2277  -22.5395   19.8979 H   0  0  0  0  0  0
  -28.8436  -22.7096   21.5413 H   0  0  0  0  0  0
  -29.2197  -15.1536   21.7293 H   0  0  0  0  0  0
  1 25  1  0  0  0
  1 30  2  0  0  0
  1 84  1  0  0  0
  2  3  1  0  0  0
  2 25  1  0  0  0
  2 87  1  0  0  0
  2 88  1  0  0  0
  3  4  1  0  0  0
  3 89  1  0  0  0
  3 90  1  0  0  0
  4  5  1  0  0  0
  4 91  1  0  0  0
  4 92  1  0  0  0
  5  6  1  0  0  0
  5 26  1  0  0  0
  5 93  1  0  0  0
  6 25  1  0  0  0
  6 94  1  0  0  0
  6 95  1  0  0  0
  7  8  2  0  0  0
  7 26  1  0  0  0
  7 29  1  0  0  0
  8  9  1  0  0  0
  8 22  1  0  0  0
  9 10  1  0  0  0
  9 27  2  0  0  0
 10 11  2  0  0  0
 10 15  1  0  0  0
 11 12  1  0  0  0
 11 96  1  0  0  0
 12 13  2  0  0  0
 12 97  1  0  0  0
 13 14  1  0  0  0
 13 31  1  0  0  0
 14 15  2  0  0  0
 14 98  1  0  0  0
 15 99  1  0  0  0
 16 17  2  0  0  0
 16 21  1  0  0  0
 16 31  1  0  0  0
 17 18  1  0  0  0
 17100  1  0  0  0
 18 19  2  0  0  0
 18101  1  0  0  0
 19 20  1  0  0  0
 19 24  1  0  0  0
 20 21  2  0  0  0
 20102  1  0  0  0
 21 23  1  0  0  0
 22 28  1  0  0  0
 22 32  2  0  0  0
 26 27  1  0  0  0
 28103  1  0  0  0
 28104  1  0  0  0
 29105  1  0  0  0
 29106  1  0  0  0
 33 34  1  0  0  0
 33 66  1  0  0  0
 33 70  2  0  0  0
 34 36  1  0  0  0
 34 59  1  0  0  0
 34107  1  0  0  0
 35 44  2  0  0  0
 35 45  1  0  0  0
 35 68  1  0  0  0
 36 56  1  0  0  0
 36108  1  0  0  0
 37 39  1  0  0  0
 37 47  1  0  0  0
 37 66  1  0  0  0
 37109  1  0  0  0
 38 43  2  0  0  0
 38 46  1  0  0  0
 38 47  1  0  0  0
 39 64  1  0  0  0
 39 67  2  0  0  0
 40 52  1  0  0  0
 40 53  2  0  0  0
 40 58  1  0  0  0
 41110  1  0  0  0
 41111  1  0  0  0
 41112  1  0  0  0
 41 48  1  0  0  0
 42 43  1  0  0  0
 42 66  1  0  0  0
 42113  1  0  0  0
 42114  1  0  0  0
 43 44  1  0  0  0
 44115  1  0  0  0
 45 46  2  0  0  0
 45116  1  0  0  0
 46117  1  0  0  0
 47118  1  0  0  0
 47119  1  0  0  0
 48 56  1  0  0  0
 48 65  1  0  0  0
 48120  1  0  0  0
 49 50  1  0  0  0
 49 53  1  0  0  0
 49 64  1  0  0  0
 49121  1  0  0  0
 50 51  1  0  0  0
 50122  1  0  0  0
 50123  1  0  0  0
 51 52  1  0  0  0
 51124  1  0  0  0
 51125  1  0  0  0
 52126  1  0  0  0
 52127  1  0  0  0
 53 54  1  0  0  0
 54 55  2  0  0  0
 54128  1  0  0  0
 55 57  1  0  0  0
 55129  1  0  0  0
 56 69  2  0  0  0
 57 58  2  0  0  0
 57130  1  0  0  0
 58131  1  0  0  0
 59 60  1  0  0  0
 59 61  1  0  0  0
 59 62  1  0  0  0
 60132  1  0  0  0
 60133  1  0  0  0
 60134  1  0  0  0
 61135  1  0  0  0
 61136  1  0  0  0
 61137  1  0  0  0
 62138  1  0  0  0
 62139  1  0  0  0
 62140  1  0  0  0
 63 65  1  0  0  0
 63141  1  0  0  0
 63142  1  0  0  0
 63143  1  0  0  0
 64144  1  0  0  0
 65145  1  0  0  0
 68 82  1  0  0  0
 71 73  2  0  0  0
 71 76  1  0  0  0
 71146  1  0  0  0
 72 74  2  0  0  0
 72 75  1  0  0  0
 72147  1  0  0  0
 73 74  1  0  0  0
 73 78  1  0  0  0
 74 81  1  0  0  0
 75 76  2  0  0  0
 75 80  1  0  0  0
 76 86  1  0  0  0
 77 78  2  0  0  0
 77148  1  0  0  0
 77149  1  0  0  0
 78150  1  0  0  0
 79 82  1  0  0  0
 79 83  1  0  0  0
 79 85  2  0  0  0
 80151  1  0  0  0
 80152  1  0  0  0
 80153  1  0  0  0
 81 84  1  0  0  0
 81154  1  0  0  0
 81155  1  0  0  0
 82156  1  0  0  0
 82157  1  0  0  0
 83 86  1  0  0  0
 83158  1  0  0  0
 83159  1  0  0  0
 84160  1  0  0  0
M  ISO  4   1 100  68 101  82 101  84 100
M  END
> <chiral flag>
0

> <version>
0

> <s_m_source_file>
/data/baiqing/PycharmProjects/Reinvent-master-3.2/result/LINK_invent/BTK/process_docking_weight1_custom_product_contain_oxygen_bond_distance_aromatic_linkinvent_7_9_3/rearranged_h_0121.sdf

> <i_m_source_file_index>
69

> <r_mmod_Potential_Energy-OPLS-2005>
-85.5797882080078

> <r_mmod_Stretch_Energy-OPLS-2005>
43.1600608825684

> <r_mmod_Bend_Energy-OPLS-2005>
106.466857910156

> <r_mmod_Torsional_Energy-OPLS-2005>
201.224639892578

> <r_mmod_Improper_Torsional_Energy-OPLS-2005>
2.60129237174988

> <r_mmod_Van_der_Waal_Energy-OPLS-2005>
162.52912902832

> <r_mmod_Electrostatic_Energy-OPLS-2005>
-372.211517333984

> <r_mmod_Solvation_Energy-OPLS-2005>
-243.289840698242

> <b_mmod_Minimization_Converged-OPLS-2005>
0

> <r_mmod_RMS_Derivative-OPLS-2005>
0.787819623947144

$$$$
69
                    3D
 Structure written by MMmdl.
157165  0  0  1  0            999 V2000
  -30.7203  -14.5197   20.5854 C   0  0  0  0  0  0
  -30.4212  -12.3423   19.4422 C   0  0  0  0  0  0
  -29.4976  -12.5096   18.2184 C   0  0  0  0  0  0
  -28.0218  -12.3524   18.6306 C   0  0  0  0  0  0
  -27.6553  -13.2161   19.8673 C   0  0  2  0  0  0
  -28.6986  -13.0521   20.9969 C   0  0  0  0  0  0
  -25.2565  -13.8184   20.5704 C   0  0  0  0  0  0
  -24.1825  -13.0440   20.9201 C   0  0  0  0  0  0
  -24.6381  -11.6915   20.8722 C   0  0  0  0  0  0
  -23.9052  -10.4292   21.0399 C   0  0  0  0  0  0
  -24.3610   -9.4222   21.9185 C   0  0  0  0  0  0
  -23.6291   -8.2250   22.0758 C   0  0  0  0  0  0
  -22.4275   -8.0276   21.3546 C   0  0  0  0  0  0
  -21.9911   -9.0246   20.4644 C   0  0  0  0  0  0
  -22.7229  -10.2130   20.3054 C   0  0  0  0  0  0
  -21.6849   -6.0738   22.5282 C   0  0  0  0  0  0
  -21.4018   -6.5647   23.8216 C   0  0  0  0  0  0
  -21.3659   -5.6801   24.9179 C   0  0  0  0  0  0
  -21.6048   -4.3065   24.7230 C   0  0  0  0  0  0
  -21.8813   -3.8152   23.4351 C   0  0  0  0  0  0
  -21.9195   -4.6967   22.3405 C   0  0  0  0  0  0
  -22.7849  -13.5248   21.1867 C   0  0  0  0  0  0
  -22.1661   -4.2155   21.0977 F   0  0  0  0  0  0
  -21.5626   -3.4542   25.7741 F   0  0  0  0  0  0
  -30.0256  -13.3545   20.4360 N   0  0  0  0  0  0
  -26.2984  -12.9353   20.3333 N   0  0  0  0  0  0
  -25.9315  -11.6507   20.5775 N   0  0  0  0  0  0
  -22.0467  -12.8205   22.0393 N   0  0  0  0  0  0
  -25.4265  -15.1894   20.4127 N   0  0  0  0  0  0
  -31.8597  -14.6620   20.1331 O   0  0  0  0  0  0
  -21.6641   -6.8872   21.4242 O   0  0  0  0  0  0
  -22.3523  -14.5542   20.6717 O   0  0  0  0  0  0
  -24.6155  -31.8711   23.2122 C   0  0  0  0  0  0
  -25.9077  -32.4821   23.8380 C   0  0  1  0  0  0
  -27.2119  -27.4347   20.1072 C   0  0  0  0  0  0
  -25.5947  -33.8598   24.2330 N   0  0  0  0  0  0
  -23.4016  -30.4977   21.5539 C   0  0  2  0  0  0
  -24.8431  -28.9755   20.1062 C   0  0  0  0  0  0
  -22.7430  -29.4656   22.4988 C   0  0  0  0  0  0
  -18.0289  -28.1374   22.8494 C   0  0  0  0  0  0
  -24.1508  -36.7307   23.2634 C   0  0  0  0  0  0
  -25.9290  -30.8387   21.3644 C   0  0  0  0  0  0
  -26.0031  -29.4740   20.7139 C   0  0  0  0  0  0
  -27.1895  -28.7049   20.7239 C   0  0  0  0  0  0
  -26.0465  -26.9676   19.4615 C   0  0  0  0  0  0
  -24.8580  -27.7185   19.4789 C   0  0  0  0  0  0
  -23.6063  -29.8434   20.1620 C   0  0  0  0  0  0
  -25.4124  -36.3077   24.0332 C   0  0  1  0  0  0
  -20.5894  -28.3642   23.1342 C   0  0  2  0  0  0
  -20.6788  -26.9372   22.5455 C   0  0  0  0  0  0
  -19.5750  -26.6366   21.5264 C   0  0  0  0  0  0
  -18.1913  -26.7927   22.1641 C   0  0  0  0  0  0
  -19.1543  -28.8826   23.2906 C   0  0  0  0  0  0
  -18.9462  -30.1441   23.8885 C   0  0  0  0  0  0
  -17.6445  -30.6558   24.0579 C   0  0  0  0  0  0
  -25.9055  -34.9456   23.5117 C   0  0  0  0  0  0
  -16.5340  -29.9045   23.6332 C   0  0  0  0  0  0
  -16.7278  -28.6492   23.0309 C   0  0  0  0  0  0
  -26.4517  -31.6574   25.0689 C   0  0  0  0  0  0
  -25.3817  -31.3649   26.1455 C   0  0  0  0  0  0
  -27.0326  -30.3012   24.6027 C   0  0  0  0  0  0
  -27.6089  -32.4302   25.7458 C   0  0  0  0  0  0
  -27.5594  -37.1795   24.8460 C   0  0  0  0  0  0
  -21.4171  -29.2999   22.3732 N   0  0  0  0  0  0
  -26.4298  -37.3777   23.9412 N   0  0  0  0  0  0
  -24.6668  -31.0833   22.1021 N   0  0  0  0  0  0
  -23.4210  -28.8212   23.3026 O   0  0  0  0  0  0
  -28.3262  -26.6252   20.1723 O   0  0  0  0  0  0
  -26.5586  -34.8926   22.4657 O   0  0  0  0  0  0
  -23.5366  -32.1478   23.7542 O   0  0  0  0  0  0
  -29.7066  -18.0388   21.2612 C   0  0  0  0  0  0
  -31.8098  -17.0702   21.9917 C   0  0  0  0  0  0
  -30.1439  -19.3371   21.6452 C   0  0  0  0  0  0
  -31.4438  -19.4847   22.2002 C   0  0  0  0  0  0
  -30.5287  -16.8880   21.4228 C   0  0  0  0  0  0
  -32.2629  -18.3485   22.3683 C   0  0  0  0  0  0
  -29.2181  -20.4953   21.5431 C   0  0  0  0  0  0
  -29.4737  -21.7095   21.0052 C   0  0  0  0  0  0
  -31.9524  -20.8386   22.6871 C   0  0  0  0  0  0
  -28.5019  -22.8813   21.0842 C   0  0  0  0  0  0
  -29.0412  -24.2481   20.5816 C   0  0  0  0  0  0
  -28.0696  -25.4067   20.9008 C   0  0  0  0  0  0
  -30.0335  -15.5723   21.0952 N   0  0  0  0  0  0
  -33.4898  -18.4723   22.9315 F   0  0  0  0  0  0
  -31.4668  -12.4344   19.1409 H   0  0  0  0  0  0
  -30.3203  -11.3423   19.8658 H   0  0  0  0  0  0
  -29.7516  -11.7814   17.4472 H   0  0  0  0  0  0
  -29.6506  -13.4937   17.7736 H   0  0  0  0  0  0
  -27.8514  -11.2986   18.8533 H   0  0  0  0  0  0
  -27.3675  -12.5950   17.7923 H   0  0  0  0  0  0
  -27.6815  -14.2547   19.5374 H   0  0  0  0  0  0
  -28.6842  -12.0340   21.3871 H   0  0  0  0  0  0
  -28.4521  -13.6931   21.8440 H   0  0  0  0  0  0
  -25.2748   -9.5712   22.4775 H   0  0  0  0  0  0
  -24.0003   -7.4650   22.7478 H   0  0  0  0  0  0
  -21.0852   -8.8764   19.8938 H   0  0  0  0  0  0
  -22.3686  -10.9675   19.6168 H   0  0  0  0  0  0
  -21.2009   -7.6156   23.9725 H   0  0  0  0  0  0
  -21.1489   -6.0527   25.9083 H   0  0  0  0  0  0
  -22.0588   -2.7615   23.2848 H   0  0  0  0  0  0
  -22.4064  -11.9859   22.4771 H   0  0  0  0  0  0
  -21.1090  -13.1239   22.2593 H   0  0  0  0  0  0
  -24.6594  -15.8451   20.5213 H   0  0  0  0  0  0
  -26.2788  -15.6301   20.0888 H   0  0  0  0  0  0
  -26.7159  -32.5572   23.1159 H   0  0  0  0  0  0
  -25.0154  -33.9757   25.0519 H   0  0  0  0  0  0
  -22.6870  -31.3130   21.4229 H   0  0  0  0  0  0
  -23.3751  -35.9658   23.3271 H   0  0  0  0  0  0
  -24.3608  -36.8949   22.2055 H   0  0  0  0  0  0
  -23.7284  -37.6518   23.6668 H   0  0  0  0  0  0
  -26.0408  -31.6015   20.5914 H   0  0  0  0  0  0
  -26.8172  -30.8897   21.9822 H   0  0  0  0  0  0
  -28.0701  -29.0638   21.2359 H   0  0  0  0  0  0
  -26.0472  -26.0100   18.9638 H   0  0  0  0  0  0
  -23.9691  -27.3272   19.0039 H   0  0  0  0  0  0
  -23.7039  -30.6237   19.4034 H   0  0  0  0  0  0
  -22.7294  -29.2592   19.8761 H   0  0  0  0  0  0
  -25.1293  -36.1924   25.0824 H   0  0  0  0  0  0
  -21.0005  -28.3198   24.1467 H   0  0  0  0  0  0
  -20.5801  -26.2204   23.3626 H   0  0  0  0  0  0
  -21.6631  -26.7476   22.1173 H   0  0  0  0  0  0
  -19.6922  -25.6306   21.1197 H   0  0  0  0  0  0
  -19.6695  -27.3252   20.6850 H   0  0  0  0  0  0
  -17.4231  -26.6745   21.3978 H   0  0  0  0  0  0
  -18.0239  -26.0069   22.9026 H   0  0  0  0  0  0
  -19.7930  -30.7272   24.2245 H   0  0  0  0  0  0
  -17.4987  -31.6248   24.5155 H   0  0  0  0  0  0
  -15.5328  -30.2917   23.7658 H   0  0  0  0  0  0
  -15.8709  -28.0820   22.6961 H   0  0  0  0  0  0
  -24.6026  -30.6925   25.7810 H   0  0  0  0  0  0
  -24.8963  -32.2793   26.4881 H   0  0  0  0  0  0
  -25.8211  -30.8868   27.0212 H   0  0  0  0  0  0
  -26.2796  -29.6746   24.1198 H   0  0  0  0  0  0
  -27.4227  -29.7240   25.4416 H   0  0  0  0  0  0
  -27.8593  -30.4285   23.9027 H   0  0  0  0  0  0
  -27.2672  -33.3601   26.2017 H   0  0  0  0  0  0
  -28.3910  -32.6862   25.0300 H   0  0  0  0  0  0
  -28.0748  -31.8448   26.5411 H   0  0  0  0  0  0
  -28.2575  -38.0124   24.7521 H   0  0  0  0  0  0
  -28.1107  -36.2637   24.6225 H   0  0  0  0  0  0
  -27.2303  -37.1398   25.8862 H   0  0  0  0  0  0
  -20.9324  -29.8672   21.6921 H   0  0  0  0  0  0
  -26.0163  -38.2844   24.1421 H   0  0  0  0  0  0
  -28.7176  -17.9336   20.8394 H   0  0  0  0  0  0
  -32.4545  -16.2262   22.1813 H   0  0  0  0  0  0
  -28.2539  -20.3521   22.0149 H   0  0  0  0  0  0
  -30.4109  -21.8909   20.4964 H   0  0  0  0  0  0
  -31.2059  -21.3246   23.3174 H   0  0  0  0  0  0
  -32.1814  -21.4973   21.8491 H   0  0  0  0  0  0
  -32.8623  -20.7521   23.2801 H   0  0  0  0  0  0
  -28.1970  -22.9821   22.1271 H   0  0  0  0  0  0
  -27.6036  -22.6122   20.5287 H   0  0  0  0  0  0
  -29.1842  -24.1874   19.5042 H   0  0  0  0  0  0
  -30.0148  -24.4665   21.0208 H   0  0  0  0  0  0
  -28.1138  -25.6404   21.9650 H   0  0  0  0  0  0
  -27.0559  -25.0358   20.7383 H   0  0  0  0  0  0
  -29.0465  -15.4194   21.2350 H   0  0  0  0  0  0
  1 25  1  0  0  0
  1 30  2  0  0  0
  1 83  1  0  0  0
  2  3  1  0  0  0
  2 25  1  0  0  0
  2 85  1  0  0  0
  2 86  1  0  0  0
  3  4  1  0  0  0
  3 87  1  0  0  0
  3 88  1  0  0  0
  4  5  1  0  0  0
  4 89  1  0  0  0
  4 90  1  0  0  0
  5  6  1  0  0  0
  5 26  1  0  0  0
  5 91  1  0  0  0
  6 25  1  0  0  0
  6 92  1  0  0  0
  6 93  1  0  0  0
  7  8  2  0  0  0
  7 26  1  0  0  0
  7 29  1  0  0  0
  8  9  1  0  0  0
  8 22  1  0  0  0
  9 10  1  0  0  0
  9 27  2  0  0  0
 10 11  2  0  0  0
 10 15  1  0  0  0
 11 12  1  0  0  0
 11 94  1  0  0  0
 12 13  2  0  0  0
 12 95  1  0  0  0
 13 14  1  0  0  0
 13 31  1  0  0  0
 14 15  2  0  0  0
 14 96  1  0  0  0
 15 97  1  0  0  0
 16 17  2  0  0  0
 16 21  1  0  0  0
 16 31  1  0  0  0
 17 18  1  0  0  0
 17 98  1  0  0  0
 18 19  2  0  0  0
 18 99  1  0  0  0
 19 20  1  0  0  0
 19 24  1  0  0  0
 20 21  2  0  0  0
 20100  1  0  0  0
 21 23  1  0  0  0
 22 28  1  0  0  0
 22 32  2  0  0  0
 26 27  1  0  0  0
 28101  1  0  0  0
 28102  1  0  0  0
 29103  1  0  0  0
 29104  1  0  0  0
 33 34  1  0  0  0
 33 66  1  0  0  0
 33 70  2  0  0  0
 34 36  1  0  0  0
 34 59  1  0  0  0
 34105  1  0  0  0
 35 44  2  0  0  0
 35 45  1  0  0  0
 35 68  1  0  0  0
 36 56  1  0  0  0
 36106  1  0  0  0
 37 39  1  0  0  0
 37 47  1  0  0  0
 37 66  1  0  0  0
 37107  1  0  0  0
 38 43  2  0  0  0
 38 46  1  0  0  0
 38 47  1  0  0  0
 39 64  1  0  0  0
 39 67  2  0  0  0
 40 52  1  0  0  0
 40 53  2  0  0  0
 40 58  1  0  0  0
 41108  1  0  0  0
 41109  1  0  0  0
 41110  1  0  0  0
 41 48  1  0  0  0
 42 43  1  0  0  0
 42 66  1  0  0  0
 42111  1  0  0  0
 42112  1  0  0  0
 43 44  1  0  0  0
 44113  1  0  0  0
 45 46  2  0  0  0
 45114  1  0  0  0
 46115  1  0  0  0
 47116  1  0  0  0
 47117  1  0  0  0
 48 56  1  0  0  0
 48 65  1  0  0  0
 48118  1  0  0  0
 49 50  1  0  0  0
 49 53  1  0  0  0
 49 64  1  0  0  0
 49119  1  0  0  0
 50 51  1  0  0  0
 50120  1  0  0  0
 50121  1  0  0  0
 51 52  1  0  0  0
 51122  1  0  0  0
 51123  1  0  0  0
 52124  1  0  0  0
 52125  1  0  0  0
 53 54  1  0  0  0
 54 55  2  0  0  0
 54126  1  0  0  0
 55 57  1  0  0  0
 55127  1  0  0  0
 56 69  2  0  0  0
 57 58  2  0  0  0
 57128  1  0  0  0
 58129  1  0  0  0
 59 60  1  0  0  0
 59 61  1  0  0  0
 59 62  1  0  0  0
 60130  1  0  0  0
 60131  1  0  0  0
 60132  1  0  0  0
 61133  1  0  0  0
 61134  1  0  0  0
 61135  1  0  0  0
 62136  1  0  0  0
 62137  1  0  0  0
 62138  1  0  0  0
 63 65  1  0  0  0
 63139  1  0  0  0
 63140  1  0  0  0
 63141  1  0  0  0
 64142  1  0  0  0
 65143  1  0  0  0
 68 82  1  0  0  0
 71 73  2  0  0  0
 71 75  1  0  0  0
 71144  1  0  0  0
 72 75  2  0  0  0
 72 76  1  0  0  0
 72145  1  0  0  0
 73 74  1  0  0  0
 73 77  1  0  0  0
 74 76  2  0  0  0
 74 79  1  0  0  0
 75 83  1  0  0  0
 76 84  1  0  0  0
 77 78  2  0  0  0
 77146  1  0  0  0
 78 80  1  0  0  0
 78147  1  0  0  0
 79148  1  0  0  0
 79149  1  0  0  0
 79150  1  0  0  0
 80 81  1  0  0  0
 80151  1  0  0  0
 80152  1  0  0  0
 81 82  1  0  0  0
 81153  1  0  0  0
 81154  1  0  0  0
 82155  1  0  0  0
 82156  1  0  0  0
 83157  1  0  0  0
M  ISO  4   1 100  68 101  82 101  83 100
M  END
> <chiral flag>
0

> <version>
0

> <s_m_source_file>
/data/baiqing/PycharmProjects/Reinvent-master-3.2/result/LINK_invent/BTK/process_docking_weight1_custom_product_contain_oxygen_bond_distance_aromatic_linkinvent_7_9_3/rearranged_h_0121.sdf

> <i_m_source_file_index>
70

> <r_mmod_Potential_Energy-OPLS-2005>
32.2518043518066

> <r_mmod_Stretch_Energy-OPLS-2005>
40.7216033935547

> <r_mmod_Bend_Energy-OPLS-2005>
92.7231903076172

> <r_mmod_Torsional_Energy-OPLS-2005>
262.706451416016

> <r_mmod_Improper_Torsional_Energy-OPLS-2005>
4.60279655456543

> <r_mmod_Van_der_Waal_Energy-OPLS-2005>
158.584945678711

> <r_mmod_Electrostatic_Energy-OPLS-2005>
-349.518890380859

> <r_mmod_Solvation_Energy-OPLS-2005>
-198.955291748047

> <b_mmod_Minimization_Converged-OPLS-2005>
0

> <r_mmod_RMS_Derivative-OPLS-2005>
4.28042507171631

$$$$
70
                    3D
 Structure written by MMmdl.
158166  0  0  1  0            999 V2000
  -30.6686  -14.7600   20.3537 C   0  0  0  0  0  0
  -30.4206  -12.4498   19.4777 C   0  0  0  0  0  0
  -29.5182  -12.5178   18.2292 C   0  0  0  0  0  0
  -28.0427  -12.3363   18.6398 C   0  0  0  0  0  0
  -27.6351  -13.2545   19.8234 C   0  0  2  0  0  0
  -28.6834  -13.2560   20.9569 C   0  0  0  0  0  0
  -25.2438  -13.8200   20.5656 C   0  0  0  0  0  0
  -24.1760  -13.0413   20.9191 C   0  0  0  0  0  0
  -24.6390  -11.6908   20.8705 C   0  0  0  0  0  0
  -23.9072  -10.4257   21.0338 C   0  0  0  0  0  0
  -24.3637   -9.4171   21.9129 C   0  0  0  0  0  0
  -23.6287   -8.2233   22.0759 C   0  0  0  0  0  0
  -22.4251   -8.0269   21.3578 C   0  0  0  0  0  0
  -21.9875   -9.0217   20.4676 C   0  0  0  0  0  0
  -22.7233  -10.2079   20.3017 C   0  0  0  0  0  0
  -21.6830   -6.0709   22.5243 C   0  0  0  0  0  0
  -21.4035   -6.5617   23.8198 C   0  0  0  0  0  0
  -21.3685   -5.6771   24.9167 C   0  0  0  0  0  0
  -21.6029   -4.3032   24.7187 C   0  0  0  0  0  0
  -21.8817   -3.8141   23.4326 C   0  0  0  0  0  0
  -21.9166   -4.6943   22.3387 C   0  0  0  0  0  0
  -22.7758  -13.5154   21.1828 C   0  0  0  0  0  0
  -22.1638   -4.2142   21.0953 F   0  0  0  0  0  0
  -21.5639   -3.4516   25.7739 F   0  0  0  0  0  0
  -29.9872  -13.5599   20.3528 N   0  0  0  0  0  0
  -26.2912  -12.9495   20.3179 N   0  0  0  0  0  0
  -25.9354  -11.6592   20.5666 N   0  0  0  0  0  0
  -22.0405  -12.8219   22.0432 N   0  0  0  0  0  0
  -25.4012  -15.1920   20.4113 N   0  0  0  0  0  0
  -31.8915  -14.7303   20.2910 O   0  0  0  0  0  0
  -21.6634   -6.8870   21.4239 O   0  0  0  0  0  0
  -22.3401  -14.5417   20.6642 O   0  0  0  0  0  0
  -24.6318  -31.8536   23.1926 C   0  0  0  0  0  0
  -25.9174  -32.4719   23.8246 C   0  0  1  0  0  0
  -27.2328  -27.2802   20.0958 C   0  0  0  0  0  0
  -25.5976  -33.8510   24.2198 N   0  0  0  0  0  0
  -23.4212  -30.4751   21.5404 C   0  0  2  0  0  0
  -24.8644  -28.9042   20.1186 C   0  0  0  0  0  0
  -22.7451  -29.4625   22.4947 C   0  0  0  0  0  0
  -18.0292  -28.1385   22.8486 C   0  0  0  0  0  0
  -24.1488  -36.7254   23.2633 C   0  0  0  0  0  0
  -25.9643  -30.7716   21.3618 C   0  0  0  0  0  0
  -26.0385  -29.3905   20.7095 C   0  0  0  0  0  0
  -27.2246  -28.5954   20.6783 C   0  0  0  0  0  0
  -26.0287  -26.8311   19.5263 C   0  0  0  0  0  0
  -24.8606  -27.6292   19.5251 C   0  0  0  0  0  0
  -23.6315  -29.7911   20.1616 C   0  0  0  0  0  0
  -25.4113  -36.3027   24.0304 C   0  0  1  0  0  0
  -20.5884  -28.3700   23.1292 C   0  0  2  0  0  0
  -20.6791  -26.9414   22.5441 C   0  0  0  0  0  0
  -19.5780  -26.6393   21.5221 C   0  0  0  0  0  0
  -18.1942  -26.7934   22.1605 C   0  0  0  0  0  0
  -19.1538  -28.8843   23.2892 C   0  0  0  0  0  0
  -18.9466  -30.1453   23.8908 C   0  0  0  0  0  0
  -17.6465  -30.6586   24.0568 C   0  0  0  0  0  0
  -25.9057  -34.9414   23.5043 C   0  0  0  0  0  0
  -16.5362  -29.9088   23.6324 C   0  0  0  0  0  0
  -16.7279  -28.6509   23.0333 C   0  0  0  0  0  0
  -26.4542  -31.6544   25.0648 C   0  0  0  0  0  0
  -25.3782  -31.3715   26.1392 C   0  0  0  0  0  0
  -27.0388  -30.2950   24.6148 C   0  0  0  0  0  0
  -27.6052  -32.4297   25.7474 C   0  0  0  0  0  0
  -27.5554  -37.1788   24.8451 C   0  0  0  0  0  0
  -21.4172  -29.3068   22.3683 N   0  0  0  0  0  0
  -26.4270  -37.3735   23.9399 N   0  0  0  0  0  0
  -24.6918  -31.0510   22.0892 N   0  0  0  0  0  0
  -23.4151  -28.8180   23.3047 O   0  0  0  0  0  0
  -28.3872  -26.4823   19.9908 O   0  0  0  0  0  0
  -26.5637  -34.8898   22.4613 O   0  0  0  0  0  0
  -23.5493  -32.1373   23.7267 O   0  0  0  0  0  0
  -31.1224  -20.0650   19.1028 C   0  0  0  0  0  0
  -31.9434  -18.9720   18.7849 C   0  0  0  0  0  0
  -29.5009  -18.5043   19.9930 C   0  0  0  0  0  0
  -29.8306  -19.8788   19.6284 C   0  0  0  0  0  0
  -31.5450  -17.6346   19.0055 C   0  0  0  0  0  0
  -30.3572  -17.3391   19.7543 C   0  0  0  0  0  0
  -27.8387  -23.7581   16.8532 C   0  0  0  0  0  0
  -28.9076  -21.1253   19.6680 C   0  0  0  0  0  0
  -28.5760  -24.1438   17.9160 C   0  0  0  0  0  0
  -29.2220  -22.4768   19.6121 C   0  0  0  0  0  0
  -32.4162  -16.6047   18.2909 C   0  0  0  0  0  0
  -28.4336  -25.0333   20.3743 C   0  0  0  0  0  0
  -28.3051  -23.7588   19.3719 C   0  0  1  0  0  0
  -29.9564  -15.9516   20.1833 N   0  0  0  0  0  0
  -31.4751  -12.5229   19.2066 H   0  0  0  0  0  0
  -30.3093  -11.4933   19.9901 H   0  0  0  0  0  0
  -29.8182  -11.7639   17.5022 H   0  0  0  0  0  0
  -29.6475  -13.4830   17.7337 H   0  0  0  0  0  0
  -27.9139  -11.2907   18.9241 H   0  0  0  0  0  0
  -27.3887  -12.5063   17.7852 H   0  0  0  0  0  0
  -27.6145  -14.2652   19.4107 H   0  0  0  0  0  0
  -28.7071  -12.2965   21.4764 H   0  0  0  0  0  0
  -28.4340  -14.0142   21.7023 H   0  0  0  0  0  0
  -25.2778   -9.5641   22.4667 H   0  0  0  0  0  0
  -23.9985   -7.4617   22.7459 H   0  0  0  0  0  0
  -21.0818   -8.8721   19.8968 H   0  0  0  0  0  0
  -22.3679  -10.9610   19.6102 H   0  0  0  0  0  0
  -21.2099   -7.6131   23.9706 H   0  0  0  0  0  0
  -21.1512   -6.0515   25.9075 H   0  0  0  0  0  0
  -22.0588   -2.7599   23.2789 H   0  0  0  0  0  0
  -22.4009  -11.9970   22.4979 H   0  0  0  0  0  0
  -21.1014  -13.1224   22.2573 H   0  0  0  0  0  0
  -24.6236  -15.8350   20.5215 H   0  0  0  0  0  0
  -26.2518  -15.6499   20.1097 H   0  0  0  0  0  0
  -26.7228  -32.5333   23.0950 H   0  0  0  0  0  0
  -25.0120  -33.9621   25.0351 H   0  0  0  0  0  0
  -22.7196  -31.2992   21.3922 H   0  0  0  0  0  0
  -23.3728  -35.9605   23.3303 H   0  0  0  0  0  0
  -24.3574  -36.8881   22.2042 H   0  0  0  0  0  0
  -23.7274  -37.6460   23.6683 H   0  0  0  0  0  0
  -26.0962  -31.5300   20.5880 H   0  0  0  0  0  0
  -26.8420  -30.8213   21.9922 H   0  0  0  0  0  0
  -28.1342  -28.9854   21.1114 H   0  0  0  0  0  0
  -25.9957  -25.8524   19.0685 H   0  0  0  0  0  0
  -23.9580  -27.2437   19.0739 H   0  0  0  0  0  0
  -23.7397  -30.5585   19.3951 H   0  0  0  0  0  0
  -22.7484  -29.2189   19.8712 H   0  0  0  0  0  0
  -25.1300  -36.1827   25.0792 H   0  0  0  0  0  0
  -20.9981  -28.3303   24.1407 H   0  0  0  0  0  0
  -20.5679  -26.2304   23.3649 H   0  0  0  0  0  0
  -21.6668  -26.7458   22.1251 H   0  0  0  0  0  0
  -19.6955  -25.6302   21.1265 H   0  0  0  0  0  0
  -19.6727  -27.3189   20.6733 H   0  0  0  0  0  0
  -17.4233  -26.6685   21.3992 H   0  0  0  0  0  0
  -18.0327  -26.0073   22.8986 H   0  0  0  0  0  0
  -19.7925  -30.7272   24.2261 H   0  0  0  0  0  0
  -17.5015  -31.6256   24.5186 H   0  0  0  0  0  0
  -15.5357  -30.2989   23.7644 H   0  0  0  0  0  0
  -15.8682  -28.0840   22.7026 H   0  0  0  0  0  0
  -24.5937  -30.7080   25.7751 H   0  0  0  0  0  0
  -24.9021  -32.2910   26.4797 H   0  0  0  0  0  0
  -25.8124  -30.8917   27.0168 H   0  0  0  0  0  0
  -26.2972  -29.6675   24.1199 H   0  0  0  0  0  0
  -27.4090  -29.7225   25.4657 H   0  0  0  0  0  0
  -27.8830  -30.4177   23.9357 H   0  0  0  0  0  0
  -27.2595  -33.3566   26.2038 H   0  0  0  0  0  0
  -28.3897  -32.6895   25.0368 H   0  0  0  0  0  0
  -28.0689  -31.8450   26.5420 H   0  0  0  0  0  0
  -28.2578  -38.0078   24.7466 H   0  0  0  0  0  0
  -28.1049  -36.2603   24.6308 H   0  0  0  0  0  0
  -27.2285  -37.1466   25.8862 H   0  0  0  0  0  0
  -20.9331  -29.8763   21.6874 H   0  0  0  0  0  0
  -26.0122  -38.2794   24.1418 H   0  0  0  0  0  0
  -31.4696  -21.0464   18.8153 H   0  0  0  0  0  0
  -32.8771  -19.1838   18.2779 H   0  0  0  0  0  0
  -28.5310  -18.3308   20.4293 H   0  0  0  0  0  0
  -28.1112  -24.0461   15.8430 H   0  0  0  0  0  0
  -26.9557  -23.1402   16.9530 H   0  0  0  0  0  0
  -27.8533  -20.8881   19.6354 H   0  0  0  0  0  0
  -29.4500  -24.7551   17.7351 H   0  0  0  0  0  0
  -30.2676  -22.7404   19.6613 H   0  0  0  0  0  0
  -32.8007  -17.0133   17.3552 H   0  0  0  0  0  0
  -31.8496  -15.7234   17.9938 H   0  0  0  0  0  0
  -33.2789  -16.3239   18.9000 H   0  0  0  0  0  0
  -29.4246  -24.9467   20.8210 H   0  0  0  0  0  0
  -27.7573  -24.8840   21.2171 H   0  0  0  0  0  0
  -27.2655  -23.4304   19.4196 H   0  0  0  0  0  0
  -28.9703  -15.8488   20.3690 H   0  0  0  0  0  0
  1 25  1  0  0  0
  1 30  2  0  0  0
  1 84  1  0  0  0
  2  3  1  0  0  0
  2 25  1  0  0  0
  2 85  1  0  0  0
  2 86  1  0  0  0
  3  4  1  0  0  0
  3 87  1  0  0  0
  3 88  1  0  0  0
  4  5  1  0  0  0
  4 89  1  0  0  0
  4 90  1  0  0  0
  5  6  1  0  0  0
  5 26  1  0  0  0
  5 91  1  0  0  0
  6 25  1  0  0  0
  6 92  1  0  0  0
  6 93  1  0  0  0
  7  8  2  0  0  0
  7 26  1  0  0  0
  7 29  1  0  0  0
  8  9  1  0  0  0
  8 22  1  0  0  0
  9 10  1  0  0  0
  9 27  2  0  0  0
 10 11  2  0  0  0
 10 15  1  0  0  0
 11 12  1  0  0  0
 11 94  1  0  0  0
 12 13  2  0  0  0
 12 95  1  0  0  0
 13 14  1  0  0  0
 13 31  1  0  0  0
 14 15  2  0  0  0
 14 96  1  0  0  0
 15 97  1  0  0  0
 16 17  2  0  0  0
 16 21  1  0  0  0
 16 31  1  0  0  0
 17 18  1  0  0  0
 17 98  1  0  0  0
 18 19  2  0  0  0
 18 99  1  0  0  0
 19 20  1  0  0  0
 19 24  1  0  0  0
 20 21  2  0  0  0
 20100  1  0  0  0
 21 23  1  0  0  0
 22 28  1  0  0  0
 22 32  2  0  0  0
 26 27  1  0  0  0
 28101  1  0  0  0
 28102  1  0  0  0
 29103  1  0  0  0
 29104  1  0  0  0
 33 34  1  0  0  0
 33 66  1  0  0  0
 33 70  2  0  0  0
 34 36  1  0  0  0
 34 59  1  0  0  0
 34105  1  0  0  0
 35 44  2  0  0  0
 35 45  1  0  0  0
 35 68  1  0  0  0
 36 56  1  0  0  0
 36106  1  0  0  0
 37 39  1  0  0  0
 37 47  1  0  0  0
 37 66  1  0  0  0
 37107  1  0  0  0
 38 43  2  0  0  0
 38 46  1  0  0  0
 38 47  1  0  0  0
 39 64  1  0  0  0
 39 67  2  0  0  0
 40 52  1  0  0  0
 40 53  2  0  0  0
 40 58  1  0  0  0
 41108  1  0  0  0
 41109  1  0  0  0
 41110  1  0  0  0
 41 48  1  0  0  0
 42 43  1  0  0  0
 42 66  1  0  0  0
 42111  1  0  0  0
 42112  1  0  0  0
 43 44  1  0  0  0
 44113  1  0  0  0
 45 46  2  0  0  0
 45114  1  0  0  0
 46115  1  0  0  0
 47116  1  0  0  0
 47117  1  0  0  0
 48 56  1  0  0  0
 48 65  1  0  0  0
 48118  1  0  0  0
 49 50  1  0  0  0
 49 53  1  0  0  0
 49 64  1  0  0  0
 49119  1  0  0  0
 50 51  1  0  0  0
 50120  1  0  0  0
 50121  1  0  0  0
 51 52  1  0  0  0
 51122  1  0  0  0
 51123  1  0  0  0
 52124  1  0  0  0
 52125  1  0  0  0
 53 54  1  0  0  0
 54 55  2  0  0  0
 54126  1  0  0  0
 55 57  1  0  0  0
 55127  1  0  0  0
 56 69  2  0  0  0
 57 58  2  0  0  0
 57128  1  0  0  0
 58129  1  0  0  0
 59 60  1  0  0  0
 59 61  1  0  0  0
 59 62  1  0  0  0
 60130  1  0  0  0
 60131  1  0  0  0
 60132  1  0  0  0
 61133  1  0  0  0
 61134  1  0  0  0
 61135  1  0  0  0
 62136  1  0  0  0
 62137  1  0  0  0
 62138  1  0  0  0
 63 65  1  0  0  0
 63139  1  0  0  0
 63140  1  0  0  0
 63141  1  0  0  0
 64142  1  0  0  0
 65143  1  0  0  0
 68 82  1  0  0  0
 71 72  2  0  0  0
 71 74  1  0  0  0
 71144  1  0  0  0
 72 75  1  0  0  0
 72145  1  0  0  0
 73 74  2  0  0  0
 73 76  1  0  0  0
 73146  1  0  0  0
 74 78  1  0  0  0
 75 76  2  0  0  0
 75 81  1  0  0  0
 76 84  1  0  0  0
 77 79  2  0  0  0
 77147  1  0  0  0
 77148  1  0  0  0
 78 80  2  0  0  0
 78149  1  0  0  0
 79 83  1  0  0  0
 79150  1  0  0  0
 80 83  1  0  0  0
 80151  1  0  0  0
 81152  1  0  0  0
 81153  1  0  0  0
 81154  1  0  0  0
 82155  1  0  0  0
 82156  1  0  0  0
 82 83  1  0  0  0
 83157  1  0  0  0
 84158  1  0  0  0
M  ISO  4   1 100  68 101  82 101  84 100
M  END
> <chiral flag>
0

> <version>
0

> <s_m_source_file>
/data/baiqing/PycharmProjects/Reinvent-master-3.2/result/LINK_invent/BTK/process_docking_weight1_custom_product_contain_oxygen_bond_distance_aromatic_linkinvent_7_9_3/rearranged_h_0121.sdf

> <i_m_source_file_index>
71

> <r_mmod_Potential_Energy-OPLS-2005>
258.222503662109

> <r_mmod_Stretch_Energy-OPLS-2005>
133.300399780273

> <r_mmod_Bend_Energy-OPLS-2005>
189.554412841797

> <r_mmod_Torsional_Energy-OPLS-2005>
263.5517578125

> <r_mmod_Improper_Torsional_Energy-OPLS-2005>
8.48986434936523

> <r_mmod_Van_der_Waal_Energy-OPLS-2005>
137.385940551758

> <r_mmod_Electrostatic_Energy-OPLS-2005>
-364.890380859375

> <r_mmod_Solvation_Energy-OPLS-2005>
-200.570175170898

> <b_mmod_Minimization_Converged-OPLS-2005>
0

> <r_mmod_RMS_Derivative-OPLS-2005>
6.42553472518921

$$$$
71
                    3D
 Structure written by MMmdl.
151159  0  0  1  0            999 V2000
  -30.5201  -14.8914   20.4491 C   0  0  0  0  0  0
  -30.4598  -12.5495   19.4923 C   0  0  0  0  0  0
  -29.5288  -12.5280   18.2551 C   0  0  0  0  0  0
  -28.0591  -12.3176   18.6698 C   0  0  0  0  0  0
  -27.6420  -13.2322   19.8495 C   0  0  2  0  0  0
  -28.6865  -13.2012   20.9890 C   0  0  0  0  0  0
  -25.2514  -13.8179   20.5682 C   0  0  0  0  0  0
  -24.1811  -13.0443   20.9234 C   0  0  0  0  0  0
  -24.6403  -11.6915   20.8759 C   0  0  0  0  0  0
  -23.9063  -10.4307   21.0420 C   0  0  0  0  0  0
  -24.3608   -9.4217   21.9188 C   0  0  0  0  0  0
  -23.6279   -8.2248   22.0769 C   0  0  0  0  0  0
  -22.4265   -8.0280   21.3553 C   0  0  0  0  0  0
  -21.9895   -9.0265   20.4667 C   0  0  0  0  0  0
  -22.7232  -10.2143   20.3072 C   0  0  0  0  0  0
  -21.6848   -6.0724   22.5276 C   0  0  0  0  0  0
  -21.4017   -6.5630   23.8205 C   0  0  0  0  0  0
  -21.3665   -5.6785   24.9171 C   0  0  0  0  0  0
  -21.6031   -4.3047   24.7218 C   0  0  0  0  0  0
  -21.8824   -3.8143   23.4337 C   0  0  0  0  0  0
  -21.9196   -4.6957   22.3394 C   0  0  0  0  0  0
  -22.7824  -13.5241   21.1853 C   0  0  0  0  0  0
  -22.1662   -4.2144   21.0972 F   0  0  0  0  0  0
  -21.5626   -3.4536   25.7736 F   0  0  0  0  0  0
  -29.9744  -13.6131   20.4112 N   0  0  0  0  0  0
  -26.2940  -12.9377   20.3260 N   0  0  0  0  0  0
  -25.9336  -11.6522   20.5737 N   0  0  0  0  0  0
  -22.0447  -12.8270   22.0421 N   0  0  0  0  0  0
  -25.4213  -15.1889   20.4012 N   0  0  0  0  0  0
  -31.7033  -15.0413   20.1287 O   0  0  0  0  0  0
  -21.6635   -6.8868   21.4241 O   0  0  0  0  0  0
  -22.3532  -14.5543   20.6686 O   0  0  0  0  0  0
  -24.6414  -31.8472   23.1928 C   0  0  0  0  0  0
  -25.9195  -32.4715   23.8306 C   0  0  1  0  0  0
  -27.2172  -27.1629   20.1526 C   0  0  0  0  0  0
  -25.5952  -33.8521   24.2226 N   0  0  0  0  0  0
  -23.4436  -30.4696   21.5367 C   0  0  2  0  0  0
  -24.8951  -28.9034   20.1118 C   0  0  0  0  0  0
  -22.7561  -29.4567   22.4870 C   0  0  0  0  0  0
  -18.0301  -28.1390   22.8484 C   0  0  0  0  0  0
  -24.1495  -36.7272   23.2639 C   0  0  0  0  0  0
  -26.0001  -30.7301   21.3902 C   0  0  0  0  0  0
  -26.0709  -29.3432   20.7325 C   0  0  0  0  0  0
  -27.2340  -28.4871   20.7406 C   0  0  0  0  0  0
  -26.0202  -26.8314   19.4767 C   0  0  0  0  0  0
  -24.8816  -27.6607   19.4675 C   0  0  0  0  0  0
  -23.6702  -29.8014   20.1563 C   0  0  0  0  0  0
  -25.4118  -36.3051   24.0323 C   0  0  1  0  0  0
  -20.5922  -28.3716   23.1238 C   0  0  2  0  0  0
  -20.6791  -26.9424   22.5398 C   0  0  0  0  0  0
  -19.5757  -26.6382   21.5214 C   0  0  0  0  0  0
  -18.1940  -26.7929   22.1633 C   0  0  0  0  0  0
  -19.1560  -28.8867   23.2854 C   0  0  0  0  0  0
  -18.9477  -30.1466   23.8877 C   0  0  0  0  0  0
  -17.6472  -30.6591   24.0552 C   0  0  0  0  0  0
  -25.9059  -34.9419   23.5071 C   0  0  0  0  0  0
  -16.5362  -29.9080   23.6338 C   0  0  0  0  0  0
  -16.7286  -28.6500   23.0357 C   0  0  0  0  0  0
  -26.4512  -31.6568   25.0731 C   0  0  0  0  0  0
  -25.3709  -31.3767   26.1442 C   0  0  0  0  0  0
  -27.0350  -30.2956   24.6299 C   0  0  0  0  0  0
  -27.6061  -32.4318   25.7504 C   0  0  0  0  0  0
  -27.5580  -37.1789   24.8463 C   0  0  0  0  0  0
  -21.4259  -29.3047   22.3625 N   0  0  0  0  0  0
  -26.4293  -37.3754   23.9405 N   0  0  0  0  0  0
  -24.7141  -31.0352   22.0954 N   0  0  0  0  0  0
  -23.4207  -28.8094   23.3001 O   0  0  0  0  0  0
  -28.2668  -26.1778   20.2080 O   0  0  0  0  0  0
  -26.5646  -34.8907   22.4658 O   0  0  0  0  0  0
  -23.5539  -32.1331   23.7147 O   0  0  0  0  0  0
  -30.5334  -18.5112   20.5185 C   0  0  0  0  0  0
  -28.2305  -18.0539   20.5121 C   0  0  0  0  0  0
  -28.9077  -20.5178   20.4456 C   0  0  0  0  0  0
  -30.2422  -19.9518   20.4670 C   0  0  0  0  0  0
  -29.5328  -17.4770   20.5544 C   0  0  0  0  0  0
  -27.9265  -19.4597   20.4505 C   0  0  0  0  0  0
  -28.4105  -22.0467   20.4327 C   0  0  0  0  0  0
  -28.8533  -23.3862   20.3892 C   0  0  0  0  0  0
  -31.4179  -20.9078   20.4540 C   0  0  0  0  0  0
  -27.8798  -24.6990   20.4416 C   0  0  0  0  0  0
  -29.6352  -15.9602   20.6938 N   0  0  0  0  0  0
  -26.2369  -19.8350   20.3869 Cl  0  0  0  0  0  0
  -31.4906  -12.7270   19.1798 H   0  0  0  0  0  0
  -30.4628  -11.5821   19.9962 H   0  0  0  0  0  0
  -29.8396  -11.7437   17.5636 H   0  0  0  0  0  0
  -29.6240  -13.4687   17.7105 H   0  0  0  0  0  0
  -27.9458  -11.2730   18.9612 H   0  0  0  0  0  0
  -27.3988  -12.4687   17.8163 H   0  0  0  0  0  0
  -27.6249  -14.2448   19.4454 H   0  0  0  0  0  0
  -28.7572  -12.2048   21.4278 H   0  0  0  0  0  0
  -28.3898  -13.8672   21.8026 H   0  0  0  0  0  0
  -25.2744   -9.5685   22.4774 H   0  0  0  0  0  0
  -23.9987   -7.4633   22.7485 H   0  0  0  0  0  0
  -21.0821   -8.8787   19.8965 H   0  0  0  0  0  0
  -22.3680  -10.9691   19.6187 H   0  0  0  0  0  0
  -21.2017   -7.6146   23.9705 H   0  0  0  0  0  0
  -21.1476   -6.0520   25.9068 H   0  0  0  0  0  0
  -22.0598   -2.7616   23.2841 H   0  0  0  0  0  0
  -22.4029  -11.9945   22.4848 H   0  0  0  0  0  0
  -21.1067  -13.1346   22.2593 H   0  0  0  0  0  0
  -24.6416  -15.8316   20.4777 H   0  0  0  0  0  0
  -26.2266  -15.5950   19.9433 H   0  0  0  0  0  0
  -26.7265  -32.5330   23.1045 H   0  0  0  0  0  0
  -25.0072  -33.9640   25.0354 H   0  0  0  0  0  0
  -22.7445  -31.2947   21.3852 H   0  0  0  0  0  0
  -23.3757  -35.9603   23.3287 H   0  0  0  0  0  0
  -24.3587  -36.8913   22.2056 H   0  0  0  0  0  0
  -23.7246  -37.6467   23.6674 H   0  0  0  0  0  0
  -26.1522  -31.4827   20.6148 H   0  0  0  0  0  0
  -26.8723  -30.7801   22.0309 H   0  0  0  0  0  0
  -28.1278  -28.8169   21.2503 H   0  0  0  0  0  0
  -25.9269  -25.9015   18.9411 H   0  0  0  0  0  0
  -23.9877  -27.3245   18.9583 H   0  0  0  0  0  0
  -23.8035  -30.5750   19.4010 H   0  0  0  0  0  0
  -22.7869  -29.2428   19.8463 H   0  0  0  0  0  0
  -25.1300  -36.1889   25.0814 H   0  0  0  0  0  0
  -21.0007  -28.3302   24.1360 H   0  0  0  0  0  0
  -20.5697  -26.2328   23.3610 H   0  0  0  0  0  0
  -21.6654  -26.7436   22.1188 H   0  0  0  0  0  0
  -19.6915  -25.6286   21.1259 H   0  0  0  0  0  0
  -19.6687  -27.3178   20.6730 H   0  0  0  0  0  0
  -17.4207  -26.6674   21.4039 H   0  0  0  0  0  0
  -18.0343  -26.0074   22.9034 H   0  0  0  0  0  0
  -19.7947  -30.7299   24.2237 H   0  0  0  0  0  0
  -17.5016  -31.6267   24.5157 H   0  0  0  0  0  0
  -15.5357  -30.2971   23.7656 H   0  0  0  0  0  0
  -15.8696  -28.0801   22.7089 H   0  0  0  0  0  0
  -24.5859  -30.7147   25.7770 H   0  0  0  0  0  0
  -24.8928  -32.2955   26.4850 H   0  0  0  0  0  0
  -25.7990  -30.8943   27.0236 H   0  0  0  0  0  0
  -26.2947  -29.6706   24.1294 H   0  0  0  0  0  0
  -27.3937  -29.7238   25.4866 H   0  0  0  0  0  0
  -27.8876  -30.4180   23.9619 H   0  0  0  0  0  0
  -27.2670  -33.3635   26.2045 H   0  0  0  0  0  0
  -28.3881  -32.6852   25.0336 H   0  0  0  0  0  0
  -28.0715  -31.8469   26.5447 H   0  0  0  0  0  0
  -28.2591  -38.0092   24.7510 H   0  0  0  0  0  0
  -28.1084  -36.2623   24.6284 H   0  0  0  0  0  0
  -27.2303  -37.1433   25.8869 H   0  0  0  0  0  0
  -20.9469  -29.8775   21.6830 H   0  0  0  0  0  0
  -26.0167  -38.2830   24.1395 H   0  0  0  0  0  0
  -31.5673  -18.1988   20.5573 H   0  0  0  0  0  0
  -27.3839  -17.3861   20.5287 H   0  0  0  0  0  0
  -27.3367  -22.0841   20.5005 H   0  0  0  0  0  0
  -29.9121  -23.5869   20.3381 H   0  0  0  0  0  0
  -32.3550  -20.3896   20.2462 H   0  0  0  0  0  0
  -31.5105  -21.4021   21.4210 H   0  0  0  0  0  0
  -31.2871  -21.6707   19.6869 H   0  0  0  0  0  0
  -27.4402  -24.6798   21.4409 H   0  0  0  0  0  0
  -27.0624  -24.4223   19.7818 H   0  0  0  0  0  0
  -28.7469  -15.5588   20.9482 H   0  0  0  0  0  0
  1 25  1  0  0  0
  1 30  2  0  0  0
  1 81  1  0  0  0
  2  3  1  0  0  0
  2 25  1  0  0  0
  2 83  1  0  0  0
  2 84  1  0  0  0
  3  4  1  0  0  0
  3 85  1  0  0  0
  3 86  1  0  0  0
  4  5  1  0  0  0
  4 87  1  0  0  0
  4 88  1  0  0  0
  5  6  1  0  0  0
  5 26  1  0  0  0
  5 89  1  0  0  0
  6 25  1  0  0  0
  6 90  1  0  0  0
  6 91  1  0  0  0
  7  8  2  0  0  0
  7 26  1  0  0  0
  7 29  1  0  0  0
  8  9  1  0  0  0
  8 22  1  0  0  0
  9 10  1  0  0  0
  9 27  2  0  0  0
 10 11  2  0  0  0
 10 15  1  0  0  0
 11 12  1  0  0  0
 11 92  1  0  0  0
 12 13  2  0  0  0
 12 93  1  0  0  0
 13 14  1  0  0  0
 13 31  1  0  0  0
 14 15  2  0  0  0
 14 94  1  0  0  0
 15 95  1  0  0  0
 16 17  2  0  0  0
 16 21  1  0  0  0
 16 31  1  0  0  0
 17 18  1  0  0  0
 17 96  1  0  0  0
 18 19  2  0  0  0
 18 97  1  0  0  0
 19 20  1  0  0  0
 19 24  1  0  0  0
 20 21  2  0  0  0
 20 98  1  0  0  0
 21 23  1  0  0  0
 22 28  1  0  0  0
 22 32  2  0  0  0
 26 27  1  0  0  0
 28 99  1  0  0  0
 28100  1  0  0  0
 29101  1  0  0  0
 29102  1  0  0  0
 33 34  1  0  0  0
 33 66  1  0  0  0
 33 70  2  0  0  0
 34 36  1  0  0  0
 34 59  1  0  0  0
 34103  1  0  0  0
 35 44  2  0  0  0
 35 45  1  0  0  0
 35 68  1  0  0  0
 36 56  1  0  0  0
 36104  1  0  0  0
 37 39  1  0  0  0
 37 47  1  0  0  0
 37 66  1  0  0  0
 37105  1  0  0  0
 38 43  2  0  0  0
 38 46  1  0  0  0
 38 47  1  0  0  0
 39 64  1  0  0  0
 39 67  2  0  0  0
 40 52  1  0  0  0
 40 53  2  0  0  0
 40 58  1  0  0  0
 41106  1  0  0  0
 41107  1  0  0  0
 41108  1  0  0  0
 41 48  1  0  0  0
 42 43  1  0  0  0
 42 66  1  0  0  0
 42109  1  0  0  0
 42110  1  0  0  0
 43 44  1  0  0  0
 44111  1  0  0  0
 45 46  2  0  0  0
 45112  1  0  0  0
 46113  1  0  0  0
 47114  1  0  0  0
 47115  1  0  0  0
 48 56  1  0  0  0
 48 65  1  0  0  0
 48116  1  0  0  0
 49 50  1  0  0  0
 49 53  1  0  0  0
 49 64  1  0  0  0
 49117  1  0  0  0
 50 51  1  0  0  0
 50118  1  0  0  0
 50119  1  0  0  0
 51 52  1  0  0  0
 51120  1  0  0  0
 51121  1  0  0  0
 52122  1  0  0  0
 52123  1  0  0  0
 53 54  1  0  0  0
 54 55  2  0  0  0
 54124  1  0  0  0
 55 57  1  0  0  0
 55125  1  0  0  0
 56 69  2  0  0  0
 57 58  2  0  0  0
 57126  1  0  0  0
 58127  1  0  0  0
 59 60  1  0  0  0
 59 61  1  0  0  0
 59 62  1  0  0  0
 60128  1  0  0  0
 60129  1  0  0  0
 60130  1  0  0  0
 61131  1  0  0  0
 61132  1  0  0  0
 61133  1  0  0  0
 62134  1  0  0  0
 62135  1  0  0  0
 62136  1  0  0  0
 63 65  1  0  0  0
 63137  1  0  0  0
 63138  1  0  0  0
 63139  1  0  0  0
 64140  1  0  0  0
 65141  1  0  0  0
 68 80  1  0  0  0
 71 74  2  0  0  0
 71 75  1  0  0  0
 71142  1  0  0  0
 72 75  2  0  0  0
 72 76  1  0  0  0
 72143  1  0  0  0
 73 74  1  0  0  0
 73 76  2  0  0  0
 73 77  1  0  0  0
 74 79  1  0  0  0
 75 81  1  0  0  0
 76 82  1  0  0  0
 77 78  2  0  0  0
 77144  1  0  0  0
 78 80  1  0  0  0
 78145  1  0  0  0
 79146  1  0  0  0
 79147  1  0  0  0
 79148  1  0  0  0
 80149  1  0  0  0
 80150  1  0  0  0
 81151  1  0  0  0
M  ISO  4   1 100  68 101  80 101  81 100
M  END
> <chiral flag>
0

> <version>
0

> <s_m_source_file>
/data/baiqing/PycharmProjects/Reinvent-master-3.2/result/LINK_invent/BTK/process_docking_weight1_custom_product_contain_oxygen_bond_distance_aromatic_linkinvent_7_9_3/rearranged_h_0121.sdf

> <i_m_source_file_index>
72

> <r_mmod_Potential_Energy-OPLS-2005>
464.424713134766

> <r_mmod_Stretch_Energy-OPLS-2005>
204.335861206055

> <r_mmod_Bend_Energy-OPLS-2005>
268.906036376953

> <r_mmod_Torsional_Energy-OPLS-2005>
228.453186035156

> <r_mmod_Improper_Torsional_Energy-OPLS-2005>
4.86850690841675

> <r_mmod_Van_der_Waal_Energy-OPLS-2005>
138.256454467773

> <r_mmod_Electrostatic_Energy-OPLS-2005>
-340.732574462891

> <r_mmod_Solvation_Energy-OPLS-2005>
-203.930603027344

> <b_mmod_Minimization_Converged-OPLS-2005>
0

> <r_mmod_RMS_Derivative-OPLS-2005>
3.0548107624054

$$$$
72
                    3D
 Structure written by MMmdl.
164173  0  0  1  0            999 V2000
  -30.6056  -14.7014   20.4750 C   0  0  0  0  0  0
  -30.4382  -12.4277   19.4584 C   0  0  0  0  0  0
  -29.5084  -12.5170   18.2265 C   0  0  0  0  0  0
  -28.0305  -12.3471   18.6366 C   0  0  0  0  0  0
  -27.6450  -13.2211   19.8589 C   0  0  2  0  0  0
  -28.6956  -13.1119   20.9882 C   0  0  0  0  0  0
  -25.2438  -13.8121   20.5705 C   0  0  0  0  0  0
  -24.1761  -13.0365   20.9238 C   0  0  0  0  0  0
  -24.6386  -11.6868   20.8763 C   0  0  0  0  0  0
  -23.9068  -10.4257   21.0413 C   0  0  0  0  0  0
  -24.3620   -9.4176   21.9198 C   0  0  0  0  0  0
  -23.6289   -8.2217   22.0759 C   0  0  0  0  0  0
  -22.4275   -8.0260   21.3539 C   0  0  0  0  0  0
  -21.9905   -9.0232   20.4643 C   0  0  0  0  0  0
  -22.7238  -10.2110   20.3055 C   0  0  0  0  0  0
  -21.6849   -6.0721   22.5268 C   0  0  0  0  0  0
  -21.4008   -6.5623   23.8198 C   0  0  0  0  0  0
  -21.3653   -5.6780   24.9159 C   0  0  0  0  0  0
  -21.6048   -4.3043   24.7216 C   0  0  0  0  0  0
  -21.8824   -3.8125   23.4340 C   0  0  0  0  0  0
  -21.9189   -4.6948   22.3395 C   0  0  0  0  0  0
  -22.7784  -13.5153   21.1902 C   0  0  0  0  0  0
  -22.1655   -4.2126   21.0975 F   0  0  0  0  0  0
  -21.5639   -3.4536   25.7738 F   0  0  0  0  0  0
  -30.0038  -13.4661   20.4149 N   0  0  0  0  0  0
  -26.2928  -12.9362   20.3309 N   0  0  0  0  0  0
  -25.9316  -11.6504   20.5773 N   0  0  0  0  0  0
  -22.0432  -12.8147   22.0461 N   0  0  0  0  0  0
  -25.3921  -15.1836   20.4138 N   0  0  0  0  0  0
  -31.7861  -14.8499   20.1510 O   0  0  0  0  0  0
  -21.6637   -6.8859   21.4231 O   0  0  0  0  0  0
  -22.3472  -14.5462   20.6745 O   0  0  0  0  0  0
  -24.6257  -31.8576   23.2024 C   0  0  0  0  0  0
  -25.9095  -32.4771   23.8363 C   0  0  1  0  0  0
  -27.2313  -27.3091   20.1301 C   0  0  0  0  0  0
  -25.5908  -33.8568   24.2288 N   0  0  0  0  0  0
  -23.4224  -30.4802   21.5440 C   0  0  2  0  0  0
  -24.8718  -28.9316   20.1133 C   0  0  0  0  0  0
  -22.7484  -29.4601   22.4914 C   0  0  0  0  0  0
  -18.0294  -28.1389   22.8480 C   0  0  0  0  0  0
  -24.1481  -36.7288   23.2645 C   0  0  0  0  0  0
  -25.9629  -30.7859   21.3761 C   0  0  0  0  0  0
  -26.0389  -29.4104   20.7232 C   0  0  0  0  0  0
  -27.2204  -28.6090   20.7243 C   0  0  0  0  0  0
  -26.0449  -26.8852   19.4894 C   0  0  0  0  0  0
  -24.8762  -27.6749   19.4871 C   0  0  0  0  0  0
  -23.6409  -29.8157   20.1591 C   0  0  0  0  0  0
  -25.4107  -36.3080   24.0334 C   0  0  1  0  0  0
  -20.5901  -28.3688   23.1281 C   0  0  2  0  0  0
  -20.6785  -26.9405   22.5414 C   0  0  0  0  0  0
  -19.5766  -26.6390   21.5210 C   0  0  0  0  0  0
  -18.1948  -26.7926   22.1627 C   0  0  0  0  0  0
  -19.1553  -28.8852   23.2881 C   0  0  0  0  0  0
  -18.9468  -30.1454   23.8909 C   0  0  0  0  0  0
  -17.6463  -30.6572   24.0580 C   0  0  0  0  0  0
  -25.9037  -34.9442   23.5117 C   0  0  0  0  0  0
  -16.5355  -29.9082   23.6326 C   0  0  0  0  0  0
  -16.7284  -28.6509   23.0332 C   0  0  0  0  0  0
  -26.4483  -31.6575   25.0724 C   0  0  0  0  0  0
  -25.3723  -31.3721   26.1455 C   0  0  0  0  0  0
  -27.0319  -30.3000   24.6172 C   0  0  0  0  0  0
  -27.6051  -32.4302   25.7484 C   0  0  0  0  0  0
  -27.5563  -37.1824   24.8469 C   0  0  0  0  0  0
  -21.4198  -29.3021   22.3647 N   0  0  0  0  0  0
  -26.4294  -37.3762   23.9385 N   0  0  0  0  0  0
  -24.6891  -31.0576   22.0987 N   0  0  0  0  0  0
  -23.4190  -28.8151   23.3014 O   0  0  0  0  0  0
  -28.3550  -26.4647   20.1469 O   0  0  0  0  0  0
  -26.5614  -34.8906   22.4686 O   0  0  0  0  0  0
  -23.5418  -32.1374   23.7349 O   0  0  0  0  0  0
  -30.9210  -19.4123   21.2277 C   0  0  0  0  0  0
  -30.9286  -17.9814   21.1900 C   0  0  0  0  0  0
  -28.8653  -19.4641   20.0354 C   0  0  0  0  0  0
  -28.8673  -18.0326   19.9782 C   0  0  0  0  0  0
  -29.8691  -20.2348   20.6924 C   0  0  0  0  0  0
  -29.8854  -17.2335   20.5900 C   0  0  0  0  0  0
  -29.1859  -24.1113   20.1763 C   0  0  0  0  0  0
  -28.8705  -22.6341   20.3653 C   0  0  0  0  0  0
  -32.0795  -22.7265   20.4073 C   0  0  0  0  0  0
  -28.2084  -25.0691   20.3565 C   0  0  0  0  0  0
  -30.5386  -24.6005   19.6310 C   0  0  0  0  0  0
  -31.5927  -23.5518   19.2214 C   0  0  0  0  0  0
  -31.0323  -22.3642   21.4523 C   0  0  0  0  0  0
  -28.1197  -17.1043   17.7397 C   0  0  0  0  0  0
  -27.7394  -17.3782   19.2015 C   0  0  0  0  0  0
  -29.8719  -21.7420   20.7820 N   0  0  0  0  0  0
  -29.7578  -15.7656   20.6924 N   0  0  0  0  0  0
  -27.7228  -22.2283   20.1652 O   0  0  0  0  0  0
  -33.2547  -22.3682   20.5076 O   0  0  0  0  0  0
  -31.4786  -12.5589   19.1583 H   0  0  0  0  0  0
  -30.3793  -11.4403   19.9203 H   0  0  0  0  0  0
  -29.7788  -11.7576   17.4919 H   0  0  0  0  0  0
  -29.6408  -13.4809   17.7325 H   0  0  0  0  0  0
  -27.8702  -11.2946   18.8698 H   0  0  0  0  0  0
  -27.3788  -12.5761   17.7926 H   0  0  0  0  0  0
  -27.6467  -14.2467   19.4979 H   0  0  0  0  0  0
  -28.7212  -12.0993   21.3941 H   0  0  0  0  0  0
  -28.4400  -13.7639   21.8249 H   0  0  0  0  0  0
  -25.2780   -9.5645   22.4757 H   0  0  0  0  0  0
  -23.9995   -7.4619   22.7489 H   0  0  0  0  0  0
  -21.0824   -8.8752   19.8964 H   0  0  0  0  0  0
  -22.3716  -10.9646   19.6146 H   0  0  0  0  0  0
  -21.1997   -7.6140   23.9692 H   0  0  0  0  0  0
  -21.1468   -6.0515   25.9059 H   0  0  0  0  0  0
  -22.0615   -2.7589   23.2855 H   0  0  0  0  0  0
  -22.4066  -11.9826   22.4860 H   0  0  0  0  0  0
  -21.1044  -13.1158   22.2656 H   0  0  0  0  0  0
  -24.6052  -15.8166   20.5037 H   0  0  0  0  0  0
  -26.2086  -15.6227   20.0145 H   0  0  0  0  0  0
  -26.7161  -32.5453   23.1114 H   0  0  0  0  0  0
  -25.0012  -33.9707   25.0407 H   0  0  0  0  0  0
  -22.7182  -31.3020   21.4013 H   0  0  0  0  0  0
  -23.3707  -35.9665   23.3377 H   0  0  0  0  0  0
  -24.3548  -36.8820   22.2040 H   0  0  0  0  0  0
  -23.7277  -37.6536   23.6605 H   0  0  0  0  0  0
  -26.0920  -31.5475   20.6057 H   0  0  0  0  0  0
  -26.8450  -30.8410   22.0029 H   0  0  0  0  0  0
  -28.1187  -28.9702   21.2067 H   0  0  0  0  0  0
  -26.0119  -25.9252   18.9950 H   0  0  0  0  0  0
  -23.9834  -27.3075   19.0003 H   0  0  0  0  0  0
  -23.7655  -30.5958   19.4071 H   0  0  0  0  0  0
  -22.7602  -29.2505   19.8493 H   0  0  0  0  0  0
  -25.1290  -36.1956   25.0832 H   0  0  0  0  0  0
  -21.0008  -28.3272   24.1398 H   0  0  0  0  0  0
  -20.5689  -26.2287   23.3611 H   0  0  0  0  0  0
  -21.6652  -26.7425   22.1213 H   0  0  0  0  0  0
  -19.6931  -25.6311   21.1209 H   0  0  0  0  0  0
  -19.6712  -27.3229   20.6766 H   0  0  0  0  0  0
  -17.4214  -26.6664   21.4037 H   0  0  0  0  0  0
  -18.0362  -26.0072   22.9032 H   0  0  0  0  0  0
  -19.7939  -30.7272   24.2286 H   0  0  0  0  0  0
  -17.5005  -31.6241   24.5208 H   0  0  0  0  0  0
  -15.5353  -30.2984   23.7635 H   0  0  0  0  0  0
  -15.8689  -28.0831   22.7025 H   0  0  0  0  0  0
  -24.5874  -30.7102   25.7771 H   0  0  0  0  0  0
  -24.8952  -32.2901   26.4902 H   0  0  0  0  0  0
  -25.8040  -30.8859   27.0213 H   0  0  0  0  0  0
  -26.2896  -29.6759   24.1182 H   0  0  0  0  0  0
  -27.3999  -29.7239   25.4670 H   0  0  0  0  0  0
  -27.8771  -30.4279   23.9407 H   0  0  0  0  0  0
  -27.2673  -33.3599   26.2073 H   0  0  0  0  0  0
  -28.3855  -32.6862   25.0304 H   0  0  0  0  0  0
  -28.0726  -31.8416   26.5386 H   0  0  0  0  0  0
  -28.2641  -38.0057   24.7402 H   0  0  0  0  0  0
  -28.0992  -36.2580   24.6434 H   0  0  0  0  0  0
  -27.2261  -37.1639   25.8871 H   0  0  0  0  0  0
  -20.9384  -29.8693   21.6814 H   0  0  0  0  0  0
  -26.0176  -38.2851   24.1331 H   0  0  0  0  0  0
  -31.7865  -19.8441   21.7031 H   0  0  0  0  0  0
  -31.7496  -17.4572   21.6600 H   0  0  0  0  0  0
  -28.0494  -19.9650   19.5389 H   0  0  0  0  0  0
  -27.2159  -24.8102   20.7010 H   0  0  0  0  0  0
  -30.9705  -25.2694   20.3774 H   0  0  0  0  0  0
  -30.3384  -25.2293   18.7624 H   0  0  0  0  0  0
  -31.1954  -22.8839   18.4568 H   0  0  0  0  0  0
  -32.4535  -24.0533   18.7797 H   0  0  0  0  0  0
  -30.7547  -23.2638   22.0039 H   0  0  0  0  0  0
  -31.4615  -21.7558   22.2420 H   0  0  0  0  0  0
  -27.2895  -16.6505   17.1964 H   0  0  0  0  0  0
  -28.9712  -16.4264   17.6727 H   0  0  0  0  0  0
  -28.3828  -18.0268   17.2212 H   0  0  0  0  0  0
  -26.8445  -18.0023   19.2445 H   0  0  0  0  0  0
  -27.4759  -16.4533   19.6942 H   0  0  0  0  0  0
  -28.8113  -15.4517   20.8343 H   0  0  0  0  0  0
  1 25  1  0  0  0
  1 30  2  0  0  0
  1 87  1  0  0  0
  2  3  1  0  0  0
  2 25  1  0  0  0
  2 90  1  0  0  0
  2 91  1  0  0  0
  3  4  1  0  0  0
  3 92  1  0  0  0
  3 93  1  0  0  0
  4  5  1  0  0  0
  4 94  1  0  0  0
  4 95  1  0  0  0
  5  6  1  0  0  0
  5 26  1  0  0  0
  5 96  1  0  0  0
  6 25  1  0  0  0
  6 97  1  0  0  0
  6 98  1  0  0  0
  7  8  2  0  0  0
  7 26  1  0  0  0
  7 29  1  0  0  0
  8  9  1  0  0  0
  8 22  1  0  0  0
  9 10  1  0  0  0
  9 27  2  0  0  0
 10 11  2  0  0  0
 10 15  1  0  0  0
 11 12  1  0  0  0
 11 99  1  0  0  0
 12 13  2  0  0  0
 12100  1  0  0  0
 13 14  1  0  0  0
 13 31  1  0  0  0
 14 15  2  0  0  0
 14101  1  0  0  0
 15102  1  0  0  0
 16 17  2  0  0  0
 16 21  1  0  0  0
 16 31  1  0  0  0
 17 18  1  0  0  0
 17103  1  0  0  0
 18 19  2  0  0  0
 18104  1  0  0  0
 19 20  1  0  0  0
 19 24  1  0  0  0
 20 21  2  0  0  0
 20105  1  0  0  0
 21 23  1  0  0  0
 22 28  1  0  0  0
 22 32  2  0  0  0
 26 27  1  0  0  0
 28106  1  0  0  0
 28107  1  0  0  0
 29108  1  0  0  0
 29109  1  0  0  0
 33 34  1  0  0  0
 33 66  1  0  0  0
 33 70  2  0  0  0
 34 36  1  0  0  0
 34 59  1  0  0  0
 34110  1  0  0  0
 35 44  2  0  0  0
 35 45  1  0  0  0
 35 68  1  0  0  0
 36 56  1  0  0  0
 36111  1  0  0  0
 37 39  1  0  0  0
 37 47  1  0  0  0
 37 66  1  0  0  0
 37112  1  0  0  0
 38 43  2  0  0  0
 38 46  1  0  0  0
 38 47  1  0  0  0
 39 64  1  0  0  0
 39 67  2  0  0  0
 40 52  1  0  0  0
 40 53  2  0  0  0
 40 58  1  0  0  0
 41113  1  0  0  0
 41114  1  0  0  0
 41115  1  0  0  0
 41 48  1  0  0  0
 42 43  1  0  0  0
 42 66  1  0  0  0
 42116  1  0  0  0
 42117  1  0  0  0
 43 44  1  0  0  0
 44118  1  0  0  0
 45 46  2  0  0  0
 45119  1  0  0  0
 46120  1  0  0  0
 47121  1  0  0  0
 47122  1  0  0  0
 48 56  1  0  0  0
 48 65  1  0  0  0
 48123  1  0  0  0
 49 50  1  0  0  0
 49 53  1  0  0  0
 49 64  1  0  0  0
 49124  1  0  0  0
 50 51  1  0  0  0
 50125  1  0  0  0
 50126  1  0  0  0
 51 52  1  0  0  0
 51127  1  0  0  0
 51128  1  0  0  0
 52129  1  0  0  0
 52130  1  0  0  0
 53 54  1  0  0  0
 54 55  2  0  0  0
 54131  1  0  0  0
 55 57  1  0  0  0
 55132  1  0  0  0
 56 69  2  0  0  0
 57 58  2  0  0  0
 57133  1  0  0  0
 58134  1  0  0  0
 59 60  1  0  0  0
 59 61  1  0  0  0
 59 62  1  0  0  0
 60135  1  0  0  0
 60136  1  0  0  0
 60137  1  0  0  0
 61138  1  0  0  0
 61139  1  0  0  0
 61140  1  0  0  0
 62141  1  0  0  0
 62142  1  0  0  0
 62143  1  0  0  0
 63 65  1  0  0  0
 63144  1  0  0  0
 63145  1  0  0  0
 63146  1  0  0  0
 64147  1  0  0  0
 65148  1  0  0  0
 68 80  1  0  0  0
 71 72  2  0  0  0
 71 75  1  0  0  0
 71149  1  0  0  0
 72 76  1  0  0  0
 72150  1  0  0  0
 73 74  1  0  0  0
 73 75  2  0  0  0
 73151  1  0  0  0
 74 76  2  0  0  0
 74 85  1  0  0  0
 75 86  1  0  0  0
 76 87  1  0  0  0
 77 78  1  0  0  0
 77 80  2  0  0  0
 77 81  1  0  0  0
 78 86  1  0  0  0
 78 88  2  0  0  0
 79 82  1  0  0  0
 79 83  1  0  0  0
 79 89  2  0  0  0
 80152  1  0  0  0
 81 82  1  0  0  0
 81153  1  0  0  0
 81154  1  0  0  0
 82155  1  0  0  0
 82156  1  0  0  0
 83 86  1  0  0  0
 83157  1  0  0  0
 83158  1  0  0  0
 84 85  1  0  0  0
 84159  1  0  0  0
 84160  1  0  0  0
 84161  1  0  0  0
 85162  1  0  0  0
 85163  1  0  0  0
 87164  1  0  0  0
M  ISO  4   1 100  68 101  80 101  87 100
M  END
> <chiral flag>
0

> <version>
0

> <s_m_source_file>
/data/baiqing/PycharmProjects/Reinvent-master-3.2/result/LINK_invent/BTK/process_docking_weight1_custom_product_contain_oxygen_bond_distance_aromatic_linkinvent_7_9_3/rearranged_h_0121.sdf

> <i_m_source_file_index>
73

> <r_mmod_Potential_Energy-OPLS-2005>
175.987701416016

> <r_mmod_Stretch_Energy-OPLS-2005>
111.291030883789

> <r_mmod_Bend_Energy-OPLS-2005>
162.642776489258

> <r_mmod_Torsional_Energy-OPLS-2005>
284.897705078125

> <r_mmod_Improper_Torsional_Energy-OPLS-2005>
6.27499723434448

> <r_mmod_Van_der_Waal_Energy-OPLS-2005>
168.190277099609

> <r_mmod_Electrostatic_Energy-OPLS-2005>
-394.502838134766

> <r_mmod_Solvation_Energy-OPLS-2005>
-224.559127807617

> <b_mmod_Minimization_Converged-OPLS-2005>
0

> <r_mmod_RMS_Derivative-OPLS-2005>
2.07798361778259

$$$$
73
                    3D
 Structure written by MMmdl.
158166  0  0  1  0            999 V2000
  -30.7320  -14.4171   20.5142 C   0  0  0  0  0  0
  -30.4088  -12.2497   19.4330 C   0  0  0  0  0  0
  -29.4930  -12.4648   18.2091 C   0  0  0  0  0  0
  -28.0093  -12.3508   18.6133 C   0  0  0  0  0  0
  -27.6541  -13.2003   19.8626 C   0  0  2  0  0  0
  -28.6972  -13.0168   20.9891 C   0  0  0  0  0  0
  -25.2581  -13.8149   20.5680 C   0  0  0  0  0  0
  -24.1830  -13.0447   20.9176 C   0  0  0  0  0  0
  -24.6366  -11.6906   20.8734 C   0  0  0  0  0  0
  -23.9046  -10.4299   21.0398 C   0  0  0  0  0  0
  -24.3599   -9.4217   21.9181 C   0  0  0  0  0  0
  -23.6279   -8.2251   22.0741 C   0  0  0  0  0  0
  -22.4259   -8.0293   21.3536 C   0  0  0  0  0  0
  -21.9893   -9.0276   20.4641 C   0  0  0  0  0  0
  -22.7224  -10.2149   20.3045 C   0  0  0  0  0  0
  -21.6852   -6.0733   22.5277 C   0  0  0  0  0  0
  -21.4021   -6.5637   23.8212 C   0  0  0  0  0  0
  -21.3652   -5.6791   24.9179 C   0  0  0  0  0  0
  -21.6037   -4.3052   24.7229 C   0  0  0  0  0  0
  -21.8821   -3.8147   23.4351 C   0  0  0  0  0  0
  -21.9184   -4.6957   22.3401 C   0  0  0  0  0  0
  -22.7861  -13.5254   21.1846 C   0  0  0  0  0  0
  -22.1648   -4.2142   21.0979 F   0  0  0  0  0  0
  -21.5622   -3.4529   25.7736 F   0  0  0  0  0  0
  -30.0392  -13.2537   20.4381 N   0  0  0  0  0  0
  -26.2988  -12.9289   20.3323 N   0  0  0  0  0  0
  -25.9290  -11.6463   20.5762 N   0  0  0  0  0  0
  -22.0514  -12.8255   22.0401 N   0  0  0  0  0  0
  -25.4347  -15.1866   20.4130 N   0  0  0  0  0  0
  -31.9148  -14.5224   20.1858 O   0  0  0  0  0  0
  -21.6629   -6.8880   21.4232 O   0  0  0  0  0  0
  -22.3544  -14.5551   20.6687 O   0  0  0  0  0  0
  -24.6085  -31.8718   23.2161 C   0  0  0  0  0  0
  -25.9004  -32.4842   23.8426 C   0  0  1  0  0  0
  -27.2406  -27.4924   20.0758 C   0  0  0  0  0  0
  -25.5886  -33.8640   24.2362 N   0  0  0  0  0  0
  -23.3923  -30.4964   21.5565 C   0  0  2  0  0  0
  -24.8360  -28.9652   20.1215 C   0  0  0  0  0  0
  -22.7368  -29.4678   22.5046 C   0  0  0  0  0  0
  -18.0253  -28.1356   22.8501 C   0  0  0  0  0  0
  -24.1485  -36.7324   23.2638 C   0  0  0  0  0  0
  -25.9151  -30.8499   21.3639 C   0  0  0  0  0  0
  -25.9906  -29.4854   20.7189 C   0  0  0  0  0  0
  -27.1898  -28.7477   20.7102 C   0  0  0  0  0  0
  -26.0644  -26.9677   19.4888 C   0  0  0  0  0  0
  -24.8629  -27.6982   19.5143 C   0  0  0  0  0  0
  -23.5963  -29.8259   20.1713 C   0  0  0  0  0  0
  -25.4098  -36.3125   24.0353 C   0  0  1  0  0  0
  -20.5839  -28.3630   23.1347 C   0  0  2  0  0  0
  -20.6741  -26.9376   22.5422 C   0  0  0  0  0  0
  -19.5724  -26.6376   21.5209 C   0  0  0  0  0  0
  -18.1901  -26.7908   22.1619 C   0  0  0  0  0  0
  -19.1500  -28.8810   23.2923 C   0  0  0  0  0  0
  -18.9434  -30.1424   23.8920 C   0  0  0  0  0  0
  -17.6439  -30.6570   24.0562 C   0  0  0  0  0  0
  -25.9018  -34.9490   23.5151 C   0  0  0  0  0  0
  -16.5329  -29.9073   23.6327 C   0  0  0  0  0  0
  -16.7244  -28.6485   23.0358 C   0  0  0  0  0  0
  -26.4447  -31.6606   25.0731 C   0  0  0  0  0  0
  -25.3747  -31.3690   26.1505 C   0  0  0  0  0  0
  -27.0272  -30.3058   24.6073 C   0  0  0  0  0  0
  -27.6050  -32.4308   25.7474 C   0  0  0  0  0  0
  -27.5585  -37.1801   24.8454 C   0  0  0  0  0  0
  -21.4106  -29.3017   22.3775 N   0  0  0  0  0  0
  -26.4282  -37.3808   23.9425 N   0  0  0  0  0  0
  -24.6564  -31.0874   22.1037 N   0  0  0  0  0  0
  -23.4167  -28.8226   23.3069 O   0  0  0  0  0  0
  -28.4479  -26.8388   20.0451 O   0  0  0  0  0  0
  -26.5580  -34.8931   22.4711 O   0  0  0  0  0  0
  -23.5294  -32.1455   23.7589 O   0  0  0  0  0  0
  -28.9700  -18.4800   20.1204 C   0  0  0  0  0  0
  -28.5199  -19.7579   19.7499 C   0  0  0  0  0  0
  -28.1832  -17.6034   17.9860 C   0  0  0  0  0  0
  -28.8596  -17.4144   19.2078 C   0  0  0  0  0  0
  -27.9283  -19.9722   18.4858 C   0  0  0  0  0  0
  -27.7201  -18.8802   17.6139 C   0  0  0  0  0  0
  -29.5180  -16.1354   19.4473 C   0  0  0  0  0  0
  -27.6582  -21.3409   18.0482 C   0  0  0  0  0  0
  -29.9163  -15.6071   20.6208 C   0  0  0  0  0  0
  -28.5766  -22.3085   18.1861 C   0  0  0  0  0  0
  -28.4372  -24.6157   19.0828 C   0  0  0  0  0  0
  -27.0916  -19.0777   16.2441 C   0  0  0  0  0  0
  -28.3778  -23.7580   17.8233 C   0  0  0  0  0  0
  -28.7352  -26.0954   18.8660 C   0  0  0  0  0  0
  -28.2440  -24.1471   20.2122 O   0  0  0  0  0  0
  -31.4575  -12.3112   19.1389 H   0  0  0  0  0  0
  -30.2746  -11.2477   19.8430 H   0  0  0  0  0  0
  -29.7213  -11.7297   17.4367 H   0  0  0  0  0  0
  -29.6864  -13.4395   17.7605 H   0  0  0  0  0  0
  -27.8068  -11.2978   18.8109 H   0  0  0  0  0  0
  -27.3679  -12.6275   17.7760 H   0  0  0  0  0  0
  -27.6754  -14.2388   19.5407 H   0  0  0  0  0  0
  -28.6489  -12.0057   21.3947 H   0  0  0  0  0  0
  -28.4847  -13.6852   21.8255 H   0  0  0  0  0  0
  -25.2750   -9.5699   22.4751 H   0  0  0  0  0  0
  -23.9990   -7.4636   22.7443 H   0  0  0  0  0  0
  -21.0821   -8.8797   19.8956 H   0  0  0  0  0  0
  -22.3681  -10.9677   19.6137 H   0  0  0  0  0  0
  -21.2030   -7.6152   23.9721 H   0  0  0  0  0  0
  -21.1459   -6.0526   25.9077 H   0  0  0  0  0  0
  -22.0610   -2.7603   23.2861 H   0  0  0  0  0  0
  -22.4131  -11.9908   22.4771 H   0  0  0  0  0  0
  -21.1133  -13.1275   22.2615 H   0  0  0  0  0  0
  -24.6830  -15.8538   20.5491 H   0  0  0  0  0  0
  -26.3076  -15.6193   20.1379 H   0  0  0  0  0  0
  -26.7078  -32.5567   23.1201 H   0  0  0  0  0  0
  -25.0062  -33.9811   25.0521 H   0  0  0  0  0  0
  -22.6787  -31.3113   21.4191 H   0  0  0  0  0  0
  -23.3744  -35.9654   23.3293 H   0  0  0  0  0  0
  -24.3597  -36.8934   22.2054 H   0  0  0  0  0  0
  -23.7218  -37.6528   23.6644 H   0  0  0  0  0  0
  -26.0217  -31.6145   20.5935 H   0  0  0  0  0  0
  -26.8068  -30.9052   21.9766 H   0  0  0  0  0  0
  -28.0847  -29.1528   21.1618 H   0  0  0  0  0  0
  -26.0553  -26.0014   19.0083 H   0  0  0  0  0  0
  -23.9732  -27.2851   19.0595 H   0  0  0  0  0  0
  -23.6983  -30.5973   19.4070 H   0  0  0  0  0  0
  -22.7224  -29.2399   19.8813 H   0  0  0  0  0  0
  -25.1262  -36.2003   25.0842 H   0  0  0  0  0  0
  -20.9919  -28.3170   24.1473 H   0  0  0  0  0  0
  -20.5631  -26.2235   23.3598 H   0  0  0  0  0  0
  -21.6619  -26.7426   22.1224 H   0  0  0  0  0  0
  -19.6889  -25.6295   21.1222 H   0  0  0  0  0  0
  -19.6669  -27.3204   20.6755 H   0  0  0  0  0  0
  -17.4180  -26.6672   21.4014 H   0  0  0  0  0  0
  -18.0292  -26.0032   22.8992 H   0  0  0  0  0  0
  -19.7911  -30.7229   24.2301 H   0  0  0  0  0  0
  -17.4995  -31.6260   24.5143 H   0  0  0  0  0  0
  -15.5331  -30.2980   23.7638 H   0  0  0  0  0  0
  -15.8642  -28.0808   22.7070 H   0  0  0  0  0  0
  -24.5922  -30.7022   25.7859 H   0  0  0  0  0  0
  -24.8931  -32.2835   26.4982 H   0  0  0  0  0  0
  -25.8133  -30.8856   27.0243 H   0  0  0  0  0  0
  -26.2795  -29.6823   24.1153 H   0  0  0  0  0  0
  -27.4083  -29.7286   25.4505 H   0  0  0  0  0  0
  -27.8613  -30.4392   23.9180 H   0  0  0  0  0  0
  -27.2690  -33.3595   26.2096 H   0  0  0  0  0  0
  -28.3825  -32.6880   25.0272 H   0  0  0  0  0  0
  -28.0750  -31.8401   26.5345 H   0  0  0  0  0  0
  -28.2582  -38.0123   24.7563 H   0  0  0  0  0  0
  -28.1107  -36.2665   24.6196 H   0  0  0  0  0  0
  -27.2330  -37.1346   25.8861 H   0  0  0  0  0  0
  -20.9244  -29.8750   21.7023 H   0  0  0  0  0  0
  -26.0180  -38.2887   24.1451 H   0  0  0  0  0  0
  -29.4796  -18.3533   21.0648 H   0  0  0  0  0  0
  -28.6791  -20.5866   20.4261 H   0  0  0  0  0  0
  -28.0812  -16.7766   17.2961 H   0  0  0  0  0  0
  -29.7603  -15.5981   18.5396 H   0  0  0  0  0  0
  -26.6847  -21.5557   17.6276 H   0  0  0  0  0  0
  -29.6978  -16.0575   21.5776 H   0  0  0  0  0  0
  -29.5441  -22.0673   18.6043 H   0  0  0  0  0  0
  -27.0570  -18.1452   15.6804 H   0  0  0  0  0  0
  -27.6681  -19.7960   15.6610 H   0  0  0  0  0  0
  -26.0722  -19.4523   16.3393 H   0  0  0  0  0  0
  -27.4131  -23.9018   17.3371 H   0  0  0  0  0  0
  -29.1534  -24.0739   17.1256 H   0  0  0  0  0  0
  -28.1824  -26.4694   18.0040 H   0  0  0  0  0  0
  -29.7933  -26.2049   18.6313 H   0  0  0  0  0  0
  1 25  1  0  0  0
  1 30  2  0  0  0
  1 79  1  0  0  0
  2  3  1  0  0  0
  2 25  1  0  0  0
  2 86  1  0  0  0
  2 87  1  0  0  0
  3  4  1  0  0  0
  3 88  1  0  0  0
  3 89  1  0  0  0
  4  5  1  0  0  0
  4 90  1  0  0  0
  4 91  1  0  0  0
  5  6  1  0  0  0
  5 26  1  0  0  0
  5 92  1  0  0  0
  6 25  1  0  0  0
  6 93  1  0  0  0
  6 94  1  0  0  0
  7  8  2  0  0  0
  7 26  1  0  0  0
  7 29  1  0  0  0
  8  9  1  0  0  0
  8 22  1  0  0  0
  9 10  1  0  0  0
  9 27  2  0  0  0
 10 11  2  0  0  0
 10 15  1  0  0  0
 11 12  1  0  0  0
 11 95  1  0  0  0
 12 13  2  0  0  0
 12 96  1  0  0  0
 13 14  1  0  0  0
 13 31  1  0  0  0
 14 15  2  0  0  0
 14 97  1  0  0  0
 15 98  1  0  0  0
 16 17  2  0  0  0
 16 21  1  0  0  0
 16 31  1  0  0  0
 17 18  1  0  0  0
 17 99  1  0  0  0
 18 19  2  0  0  0
 18100  1  0  0  0
 19 20  1  0  0  0
 19 24  1  0  0  0
 20 21  2  0  0  0
 20101  1  0  0  0
 21 23  1  0  0  0
 22 28  1  0  0  0
 22 32  2  0  0  0
 26 27  1  0  0  0
 28102  1  0  0  0
 28103  1  0  0  0
 29104  1  0  0  0
 29105  1  0  0  0
 33 34  1  0  0  0
 33 66  1  0  0  0
 33 70  2  0  0  0
 34 36  1  0  0  0
 34 59  1  0  0  0
 34106  1  0  0  0
 35 44  2  0  0  0
 35 45  1  0  0  0
 35 68  1  0  0  0
 36 56  1  0  0  0
 36107  1  0  0  0
 37 39  1  0  0  0
 37 47  1  0  0  0
 37 66  1  0  0  0
 37108  1  0  0  0
 38 43  2  0  0  0
 38 46  1  0  0  0
 38 47  1  0  0  0
 39 64  1  0  0  0
 39 67  2  0  0  0
 40 52  1  0  0  0
 40 53  2  0  0  0
 40 58  1  0  0  0
 41109  1  0  0  0
 41110  1  0  0  0
 41111  1  0  0  0
 41 48  1  0  0  0
 42 43  1  0  0  0
 42 66  1  0  0  0
 42112  1  0  0  0
 42113  1  0  0  0
 43 44  1  0  0  0
 44114  1  0  0  0
 45 46  2  0  0  0
 45115  1  0  0  0
 46116  1  0  0  0
 47117  1  0  0  0
 47118  1  0  0  0
 48 56  1  0  0  0
 48 65  1  0  0  0
 48119  1  0  0  0
 49 50  1  0  0  0
 49 53  1  0  0  0
 49 64  1  0  0  0
 49120  1  0  0  0
 50 51  1  0  0  0
 50121  1  0  0  0
 50122  1  0  0  0
 51 52  1  0  0  0
 51123  1  0  0  0
 51124  1  0  0  0
 52125  1  0  0  0
 52126  1  0  0  0
 53 54  1  0  0  0
 54 55  2  0  0  0
 54127  1  0  0  0
 55 57  1  0  0  0
 55128  1  0  0  0
 56 69  2  0  0  0
 57 58  2  0  0  0
 57129  1  0  0  0
 58130  1  0  0  0
 59 60  1  0  0  0
 59 61  1  0  0  0
 59 62  1  0  0  0
 60131  1  0  0  0
 60132  1  0  0  0
 60133  1  0  0  0
 61134  1  0  0  0
 61135  1  0  0  0
 61136  1  0  0  0
 62137  1  0  0  0
 62138  1  0  0  0
 62139  1  0  0  0
 63 65  1  0  0  0
 63140  1  0  0  0
 63141  1  0  0  0
 63142  1  0  0  0
 64143  1  0  0  0
 65144  1  0  0  0
 68 84  1  0  0  0
 71 72  2  0  0  0
 71 74  1  0  0  0
 71145  1  0  0  0
 72 75  1  0  0  0
 72146  1  0  0  0
 73 74  2  0  0  0
 73 76  1  0  0  0
 73147  1  0  0  0
 74 77  1  0  0  0
 75 76  2  0  0  0
 75 78  1  0  0  0
 76 82  1  0  0  0
 77 79  2  0  0  0
 77148  1  0  0  0
 78 80  2  0  0  0
 78149  1  0  0  0
 79150  1  0  0  0
 80 83  1  0  0  0
 80151  1  0  0  0
 81 83  1  0  0  0
 81 84  1  0  0  0
 81 85  2  0  0  0
 82152  1  0  0  0
 82153  1  0  0  0
 82154  1  0  0  0
 83155  1  0  0  0
 83156  1  0  0  0
 84157  1  0  0  0
 84158  1  0  0  0
M  ISO  4   1 100  68 101  79 100  84 101
M  END
> <chiral flag>
0

> <version>
0

> <s_m_source_file>
/data/baiqing/PycharmProjects/Reinvent-master-3.2/result/LINK_invent/BTK/process_docking_weight1_custom_product_contain_oxygen_bond_distance_aromatic_linkinvent_7_9_3/rearranged_h_0121.sdf

> <i_m_source_file_index>
74

> <r_mmod_Potential_Energy-OPLS-2005>
20.9591159820557

> <r_mmod_Stretch_Energy-OPLS-2005>
29.0653438568115

> <r_mmod_Bend_Energy-OPLS-2005>
90.7803955078125

> <r_mmod_Torsional_Energy-OPLS-2005>
238.876312255859

> <r_mmod_Improper_Torsional_Energy-OPLS-2005>
11.5510244369507

> <r_mmod_Van_der_Waal_Energy-OPLS-2005>
160.304321289062

> <r_mmod_Electrostatic_Energy-OPLS-2005>
-315.289642333984

> <r_mmod_Solvation_Energy-OPLS-2005>
-211.472396850586

> <b_mmod_Minimization_Converged-OPLS-2005>
0

> <r_mmod_RMS_Derivative-OPLS-2005>
1.91610729694366

$$$$
74
                    3D
 Structure written by MMmdl.
166174  0  0  1  0            999 V2000
  -30.6835  -14.4395   20.6324 C   0  0  0  0  0  0
  -30.4365  -12.3092   19.4013 C   0  0  0  0  0  0
  -29.4956  -12.5283   18.1977 C   0  0  0  0  0  0
  -28.0154  -12.3869   18.6096 C   0  0  0  0  0  0
  -27.6707  -13.1981   19.8865 C   0  0  2  0  0  0
  -28.7094  -12.9148   20.9932 C   0  0  0  0  0  0
  -25.2641  -13.8145   20.5688 C   0  0  0  0  0  0
  -24.1869  -13.0442   20.9168 C   0  0  0  0  0  0
  -24.6404  -11.6901   20.8721 C   0  0  0  0  0  0
  -23.9058  -10.4292   21.0398 C   0  0  0  0  0  0
  -24.3608   -9.4211   21.9180 C   0  0  0  0  0  0
  -23.6288   -8.2245   22.0752 C   0  0  0  0  0  0
  -22.4273   -8.0279   21.3540 C   0  0  0  0  0  0
  -21.9903   -9.0254   20.4644 C   0  0  0  0  0  0
  -22.7231  -10.2135   20.3051 C   0  0  0  0  0  0
  -21.6850   -6.0733   22.5279 C   0  0  0  0  0  0
  -21.4014   -6.5636   23.8211 C   0  0  0  0  0  0
  -21.3661   -5.6791   24.9171 C   0  0  0  0  0  0
  -21.6041   -4.3053   24.7223 C   0  0  0  0  0  0
  -21.8823   -3.8147   23.4345 C   0  0  0  0  0  0
  -21.9195   -4.6962   22.3402 C   0  0  0  0  0  0
  -22.7893  -13.5250   21.1837 C   0  0  0  0  0  0
  -22.1663   -4.2146   21.0979 F   0  0  0  0  0  0
  -21.5629   -3.4538   25.7736 F   0  0  0  0  0  0
  -30.0467  -13.2488   20.4631 N   0  0  0  0  0  0
  -26.3071  -12.9296   20.3405 N   0  0  0  0  0  0
  -25.9328  -11.6460   20.5760 N   0  0  0  0  0  0
  -22.0523  -12.8240   22.0386 N   0  0  0  0  0  0
  -25.4401  -15.1855   20.4103 N   0  0  0  0  0  0
  -31.7450  -14.7273   20.0682 O   0  0  0  0  0  0
  -21.6639   -6.8876   21.4240 O   0  0  0  0  0  0
  -22.3577  -14.5560   20.6693 O   0  0  0  0  0  0
  -24.6133  -31.8676   23.2096 C   0  0  0  0  0  0
  -25.9024  -32.4825   23.8392 C   0  0  1  0  0  0
  -27.2387  -27.4391   20.1058 C   0  0  0  0  0  0
  -25.5882  -33.8615   24.2329 N   0  0  0  0  0  0
  -23.4038  -30.4894   21.5475 C   0  0  2  0  0  0
  -24.8535  -28.9526   20.1174 C   0  0  0  0  0  0
  -22.7406  -29.4660   22.4975 C   0  0  0  0  0  0
  -18.0276  -28.1398   22.8501 C   0  0  0  0  0  0
  -24.1480  -36.7313   23.2639 C   0  0  0  0  0  0
  -25.9304  -30.8361   21.3610 C   0  0  0  0  0  0
  -26.0111  -29.4679   20.7147 C   0  0  0  0  0  0
  -27.2101  -28.7192   20.7064 C   0  0  0  0  0  0
  -26.0705  -26.9361   19.5003 C   0  0  0  0  0  0
  -24.8764  -27.6847   19.5077 C   0  0  0  0  0  0
  -23.6135  -29.8175   20.1631 C   0  0  0  0  0  0
  -25.4101  -36.3105   24.0338 C   0  0  1  0  0  0
  -20.5868  -28.3675   23.1325 C   0  0  2  0  0  0
  -20.6764  -26.9408   22.5427 C   0  0  0  0  0  0
  -19.5742  -26.6404   21.5223 C   0  0  0  0  0  0
  -18.1920  -26.7941   22.1631 C   0  0  0  0  0  0
  -19.1530  -28.8851   23.2917 C   0  0  0  0  0  0
  -18.9460  -30.1461   23.8921 C   0  0  0  0  0  0
  -17.6464  -30.6599   24.0580 C   0  0  0  0  0  0
  -25.9032  -34.9473   23.5137 C   0  0  0  0  0  0
  -16.5352  -29.9107   23.6333 C   0  0  0  0  0  0
  -16.7269  -28.6526   23.0350 C   0  0  0  0  0  0
  -26.4458  -31.6597   25.0712 C   0  0  0  0  0  0
  -25.3732  -31.3715   26.1470 C   0  0  0  0  0  0
  -27.0288  -30.3040   24.6068 C   0  0  0  0  0  0
  -27.6035  -32.4319   25.7471 C   0  0  0  0  0  0
  -27.5581  -37.1807   24.8463 C   0  0  0  0  0  0
  -21.4134  -29.3039   22.3721 N   0  0  0  0  0  0
  -26.4286  -37.3794   23.9419 N   0  0  0  0  0  0
  -24.6673  -31.0788   22.0985 N   0  0  0  0  0  0
  -23.4172  -28.8214   23.3028 O   0  0  0  0  0  0
  -28.3914  -26.6819   20.0693 O   0  0  0  0  0  0
  -26.5601  -34.8923   22.4702 O   0  0  0  0  0  0
  -23.5328  -32.1424   23.7491 O   0  0  0  0  0  0
  -30.4116  -17.5438   20.4867 C   0  0  0  0  0  0
  -30.2673  -18.9496   20.5834 C   0  0  0  0  0  0
  -29.3793  -18.6889   22.8246 C   0  0  0  0  0  0
  -29.4920  -17.2859   22.7301 C   0  0  0  0  0  0
  -30.0261  -16.6963   21.5568 C   0  0  0  0  0  0
  -29.7488  -19.5357   21.7626 C   0  0  0  0  0  0
  -27.5378  -16.0272   23.7528 C   0  0  0  0  0  0
  -29.9772  -26.2651   21.7548 C   0  0  0  0  0  0
  -27.5736  -25.7023   22.2427 C   0  0  0  0  0  0
  -29.0075  -16.4440   23.9049 C   0  0  0  0  0  0
  -29.1819  -23.1827   21.4917 C   0  0  0  0  0  0
  -28.8705  -24.3374   20.4975 C   0  0  0  0  0  0
  -29.5148  -21.8010   20.8797 C   0  0  0  0  0  0
  -28.6649  -25.7481   21.1416 C   0  0  0  0  0  0
  -30.0549  -15.2711   21.4810 N   0  0  0  0  0  0
  -29.5832  -20.8898   21.9775 O   0  0  0  0  0  0
  -31.4770  -12.4389   19.0969 H   0  0  0  0  0  0
  -30.3599  -11.2842   19.7655 H   0  0  0  0  0  0
  -29.7308  -11.8195   17.4023 H   0  0  0  0  0  0
  -29.6635  -13.5220   17.7784 H   0  0  0  0  0  0
  -27.8163  -11.3279   18.7786 H   0  0  0  0  0  0
  -27.3663  -12.6896   17.7871 H   0  0  0  0  0  0
  -27.7336  -14.2557   19.6286 H   0  0  0  0  0  0
  -28.6864  -11.8580   21.2634 H   0  0  0  0  0  0
  -28.4533  -13.4396   21.9133 H   0  0  0  0  0  0
  -25.2757   -9.5686   22.4749 H   0  0  0  0  0  0
  -23.9999   -7.4635   22.7469 H   0  0  0  0  0  0
  -21.0831   -8.8772   19.8945 H   0  0  0  0  0  0
  -22.3692  -10.9671   19.6153 H   0  0  0  0  0  0
  -21.2005   -7.6144   23.9711 H   0  0  0  0  0  0
  -21.1477   -6.0519   25.9073 H   0  0  0  0  0  0
  -22.0601   -2.7608   23.2846 H   0  0  0  0  0  0
  -22.4132  -11.9894   22.4763 H   0  0  0  0  0  0
  -21.1141  -13.1266   22.2586 H   0  0  0  0  0  0
  -24.6836  -15.8494   20.5319 H   0  0  0  0  0  0
  -26.3063  -15.6207   20.1181 H   0  0  0  0  0  0
  -26.7089  -32.5549   23.1163 H   0  0  0  0  0  0
  -25.0005  -33.9775   25.0453 H   0  0  0  0  0  0
  -22.6935  -31.3066   21.4063 H   0  0  0  0  0  0
  -23.3735  -35.9654   23.3306 H   0  0  0  0  0  0
  -24.3581  -36.8921   22.2055 H   0  0  0  0  0  0
  -23.7234  -37.6517   23.6649 H   0  0  0  0  0  0
  -26.0400  -31.5985   20.5885 H   0  0  0  0  0  0
  -26.8196  -30.8948   21.9774 H   0  0  0  0  0  0
  -28.1053  -29.1139   21.1661 H   0  0  0  0  0  0
  -26.0856  -25.9631   19.0297 H   0  0  0  0  0  0
  -23.9870  -27.2832   19.0432 H   0  0  0  0  0  0
  -23.7233  -30.5899   19.4008 H   0  0  0  0  0  0
  -22.7393  -29.2341   19.8678 H   0  0  0  0  0  0
  -25.1281  -36.1964   25.0828 H   0  0  0  0  0  0
  -20.9987  -28.3242   24.1440 H   0  0  0  0  0  0
  -20.5673  -26.2281   23.3616 H   0  0  0  0  0  0
  -21.6636  -26.7460   22.1221 H   0  0  0  0  0  0
  -19.6900  -25.6323   21.1239 H   0  0  0  0  0  0
  -19.6684  -27.3226   20.6762 H   0  0  0  0  0  0
  -17.4197  -26.6711   21.4017 H   0  0  0  0  0  0
  -18.0319  -26.0082   22.9032 H   0  0  0  0  0  0
  -19.7936  -30.7283   24.2288 H   0  0  0  0  0  0
  -17.5017  -31.6277   24.5199 H   0  0  0  0  0  0
  -15.5354  -30.3029   23.7637 H   0  0  0  0  0  0
  -15.8670  -28.0863   22.7046 H   0  0  0  0  0  0
  -24.5873  -30.7094   25.7814 H   0  0  0  0  0  0
  -24.8964  -32.2881   26.4949 H   0  0  0  0  0  0
  -25.8093  -30.8855   27.0205 H   0  0  0  0  0  0
  -26.2826  -29.6809   24.1118 H   0  0  0  0  0  0
  -27.4062  -29.7264   25.4516 H   0  0  0  0  0  0
  -27.8657  -30.4374   23.9211 H   0  0  0  0  0  0
  -27.2646  -33.3607   26.2079 H   0  0  0  0  0  0
  -28.3828  -32.6900   25.0289 H   0  0  0  0  0  0
  -28.0712  -31.8419   26.5367 H   0  0  0  0  0  0
  -28.2603  -38.0103   24.7535 H   0  0  0  0  0  0
  -28.1077  -36.2644   24.6263 H   0  0  0  0  0  0
  -27.2314  -37.1432   25.8868 H   0  0  0  0  0  0
  -20.9294  -29.8763   21.6946 H   0  0  0  0  0  0
  -26.0171  -38.2865   24.1426 H   0  0  0  0  0  0
  -30.7978  -17.1270   19.5676 H   0  0  0  0  0  0
  -30.5650  -19.5624   19.7451 H   0  0  0  0  0  0
  -28.9769  -19.1294   23.7261 H   0  0  0  0  0  0
  -27.2070  -15.4483   24.6150 H   0  0  0  0  0  0
  -27.3786  -15.4169   22.8638 H   0  0  0  0  0  0
  -26.8888  -16.8997   23.6732 H   0  0  0  0  0  0
  -30.7894  -26.2406   21.0277 H   0  0  0  0  0  0
  -30.2868  -25.6726   22.6153 H   0  0  0  0  0  0
  -29.8719  -27.2955   22.0976 H   0  0  0  0  0  0
  -27.8706  -25.0636   23.0744 H   0  0  0  0  0  0
  -26.6285  -25.3185   21.8580 H   0  0  0  0  0  0
  -27.3872  -26.6851   22.6755 H   0  0  0  0  0  0
  -29.1249  -17.0169   24.8255 H   0  0  0  0  0  0
  -29.6404  -15.5651   24.0329 H   0  0  0  0  0  0
  -28.3239  -23.0504   22.1506 H   0  0  0  0  0  0
  -30.0138  -23.4658   22.1354 H   0  0  0  0  0  0
  -27.9767  -24.0725   19.9316 H   0  0  0  0  0  0
  -29.6742  -24.3957   19.7614 H   0  0  0  0  0  0
  -30.4621  -21.8377   20.3406 H   0  0  0  0  0  0
  -28.7367  -21.4883   20.1827 H   0  0  0  0  0  0
  -29.3555  -14.8095   22.0409 H   0  0  0  0  0  0
  1 25  1  0  0  0
  1 30  2  0  0  0
  1 85  1  0  0  0
  2  3  1  0  0  0
  2 25  1  0  0  0
  2 87  1  0  0  0
  2 88  1  0  0  0
  3  4  1  0  0  0
  3 89  1  0  0  0
  3 90  1  0  0  0
  4  5  1  0  0  0
  4 91  1  0  0  0
  4 92  1  0  0  0
  5  6  1  0  0  0
  5 26  1  0  0  0
  5 93  1  0  0  0
  6 25  1  0  0  0
  6 94  1  0  0  0
  6 95  1  0  0  0
  7  8  2  0  0  0
  7 26  1  0  0  0
  7 29  1  0  0  0
  8  9  1  0  0  0
  8 22  1  0  0  0
  9 10  1  0  0  0
  9 27  2  0  0  0
 10 11  2  0  0  0
 10 15  1  0  0  0
 11 12  1  0  0  0
 11 96  1  0  0  0
 12 13  2  0  0  0
 12 97  1  0  0  0
 13 14  1  0  0  0
 13 31  1  0  0  0
 14 15  2  0  0  0
 14 98  1  0  0  0
 15 99  1  0  0  0
 16 17  2  0  0  0
 16 21  1  0  0  0
 16 31  1  0  0  0
 17 18  1  0  0  0
 17100  1  0  0  0
 18 19  2  0  0  0
 18101  1  0  0  0
 19 20  1  0  0  0
 19 24  1  0  0  0
 20 21  2  0  0  0
 20102  1  0  0  0
 21 23  1  0  0  0
 22 28  1  0  0  0
 22 32  2  0  0  0
 26 27  1  0  0  0
 28103  1  0  0  0
 28104  1  0  0  0
 29105  1  0  0  0
 29106  1  0  0  0
 33 34  1  0  0  0
 33 66  1  0  0  0
 33 70  2  0  0  0
 34 36  1  0  0  0
 34 59  1  0  0  0
 34107  1  0  0  0
 35 44  2  0  0  0
 35 45  1  0  0  0
 35 68  1  0  0  0
 36 56  1  0  0  0
 36108  1  0  0  0
 37 39  1  0  0  0
 37 47  1  0  0  0
 37 66  1  0  0  0
 37109  1  0  0  0
 38 43  2  0  0  0
 38 46  1  0  0  0
 38 47  1  0  0  0
 39 64  1  0  0  0
 39 67  2  0  0  0
 40 52  1  0  0  0
 40 53  2  0  0  0
 40 58  1  0  0  0
 41110  1  0  0  0
 41111  1  0  0  0
 41112  1  0  0  0
 41 48  1  0  0  0
 42 43  1  0  0  0
 42 66  1  0  0  0
 42113  1  0  0  0
 42114  1  0  0  0
 43 44  1  0  0  0
 44115  1  0  0  0
 45 46  2  0  0  0
 45116  1  0  0  0
 46117  1  0  0  0
 47118  1  0  0  0
 47119  1  0  0  0
 48 56  1  0  0  0
 48 65  1  0  0  0
 48120  1  0  0  0
 49 50  1  0  0  0
 49 53  1  0  0  0
 49 64  1  0  0  0
 49121  1  0  0  0
 50 51  1  0  0  0
 50122  1  0  0  0
 50123  1  0  0  0
 51 52  1  0  0  0
 51124  1  0  0  0
 51125  1  0  0  0
 52126  1  0  0  0
 52127  1  0  0  0
 53 54  1  0  0  0
 54 55  2  0  0  0
 54128  1  0  0  0
 55 57  1  0  0  0
 55129  1  0  0  0
 56 69  2  0  0  0
 57 58  2  0  0  0
 57130  1  0  0  0
 58131  1  0  0  0
 59 60  1  0  0  0
 59 61  1  0  0  0
 59 62  1  0  0  0
 60132  1  0  0  0
 60133  1  0  0  0
 60134  1  0  0  0
 61135  1  0  0  0
 61136  1  0  0  0
 61137  1  0  0  0
 62138  1  0  0  0
 62139  1  0  0  0
 62140  1  0  0  0
 63 65  1  0  0  0
 63141  1  0  0  0
 63142  1  0  0  0
 63143  1  0  0  0
 64144  1  0  0  0
 65145  1  0  0  0
 68 84  1  0  0  0
 71 72  2  0  0  0
 71 75  1  0  0  0
 71146  1  0  0  0
 72 76  1  0  0  0
 72147  1  0  0  0
 73 74  1  0  0  0
 73 76  2  0  0  0
 73148  1  0  0  0
 74 75  2  0  0  0
 74 80  1  0  0  0
 75 85  1  0  0  0
 76 86  1  0  0  0
 77 80  1  0  0  0
 77149  1  0  0  0
 77150  1  0  0  0
 77151  1  0  0  0
 78152  1  0  0  0
 78153  1  0  0  0
 78154  1  0  0  0
 78 84  1  0  0  0
 79 84  1  0  0  0
 79155  1  0  0  0
 79156  1  0  0  0
 79157  1  0  0  0
 80158  1  0  0  0
 80159  1  0  0  0
 81 82  1  0  0  0
 81 83  1  0  0  0
 81160  1  0  0  0
 81161  1  0  0  0
 82 84  1  0  0  0
 82162  1  0  0  0
 82163  1  0  0  0
 83 86  1  0  0  0
 83164  1  0  0  0
 83165  1  0  0  0
 85166  1  0  0  0
M  ISO  4   1 100  68 101  84 101  85 100
M  END
> <chiral flag>
0

> <version>
0

> <s_m_source_file>
/data/baiqing/PycharmProjects/Reinvent-master-3.2/result/LINK_invent/BTK/process_docking_weight1_custom_product_contain_oxygen_bond_distance_aromatic_linkinvent_7_9_3/rearranged_h_0121.sdf

> <i_m_source_file_index>
75

> <r_mmod_Potential_Energy-OPLS-2005>
-63.6847686767578

> <r_mmod_Stretch_Energy-OPLS-2005>
39.8905067443848

> <r_mmod_Bend_Energy-OPLS-2005>
119.897430419922

> <r_mmod_Torsional_Energy-OPLS-2005>
246.686660766602

> <r_mmod_Improper_Torsional_Energy-OPLS-2005>
2.67726230621338

> <r_mmod_Van_der_Waal_Energy-OPLS-2005>
148.865875244141

> <r_mmod_Electrostatic_Energy-OPLS-2005>
-434.868591308594

> <r_mmod_Solvation_Energy-OPLS-2005>
-196.748306274414

> <b_mmod_Minimization_Converged-OPLS-2005>
0

> <r_mmod_RMS_Derivative-OPLS-2005>
1.44884669780731

$$$$
75
                    3D
 Structure written by MMmdl.
165173  0  0  1  0            999 V2000
  -30.6715  -14.4996   20.6060 C   0  0  0  0  0  0
  -30.4350  -12.3346   19.4139 C   0  0  0  0  0  0
  -29.4987  -12.5273   18.2033 C   0  0  0  0  0  0
  -28.0204  -12.3673   18.6136 C   0  0  0  0  0  0
  -27.6650  -13.1987   19.8758 C   0  0  2  0  0  0
  -28.7092  -12.9648   20.9915 C   0  0  0  0  0  0
  -25.2623  -13.8132   20.5645 C   0  0  0  0  0  0
  -24.1865  -13.0422   20.9144 C   0  0  0  0  0  0
  -24.6407  -11.6883   20.8708 C   0  0  0  0  0  0
  -23.9056  -10.4279   21.0380 C   0  0  0  0  0  0
  -24.3624   -9.4201   21.9148 C   0  0  0  0  0  0
  -23.6304   -8.2239   22.0737 C   0  0  0  0  0  0
  -22.4268   -8.0283   21.3547 C   0  0  0  0  0  0
  -21.9898   -9.0238   20.4630 C   0  0  0  0  0  0
  -22.7229  -10.2118   20.3024 C   0  0  0  0  0  0
  -21.6859   -6.0728   22.5297 C   0  0  0  0  0  0
  -21.4016   -6.5627   23.8233 C   0  0  0  0  0  0
  -21.3651   -5.6773   24.9189 C   0  0  0  0  0  0
  -21.6041   -4.3040   24.7233 C   0  0  0  0  0  0
  -21.8818   -3.8135   23.4359 C   0  0  0  0  0  0
  -21.9194   -4.6953   22.3415 C   0  0  0  0  0  0
  -22.7889  -13.5217   21.1838 C   0  0  0  0  0  0
  -22.1655   -4.2147   21.0986 F   0  0  0  0  0  0
  -21.5634   -3.4523   25.7735 F   0  0  0  0  0  0
  -30.0329  -13.3035   20.4461 N   0  0  0  0  0  0
  -26.3052  -12.9290   20.3356 N   0  0  0  0  0  0
  -25.9335  -11.6458   20.5752 N   0  0  0  0  0  0
  -22.0535  -12.8206   22.0412 N   0  0  0  0  0  0
  -25.4353  -15.1848   20.4051 N   0  0  0  0  0  0
  -31.7779  -14.7092   20.0967 O   0  0  0  0  0  0
  -21.6650   -6.8868   21.4250 O   0  0  0  0  0  0
  -22.3552  -14.5504   20.6672 O   0  0  0  0  0  0
  -24.6149  -31.8684   23.2112 C   0  0  0  0  0  0
  -25.9021  -32.4842   23.8430 C   0  0  1  0  0  0
  -27.2404  -27.4453   20.0891 C   0  0  0  0  0  0
  -25.5879  -33.8643   24.2358 N   0  0  0  0  0  0
  -23.4065  -30.4909   21.5520 C   0  0  2  0  0  0
  -24.8589  -28.9662   20.1104 C   0  0  0  0  0  0
  -22.7424  -29.4647   22.4985 C   0  0  0  0  0  0
  -18.0269  -28.1366   22.8500 C   0  0  0  0  0  0
  -24.1487  -36.7316   23.2645 C   0  0  0  0  0  0
  -25.9368  -30.8402   21.3634 C   0  0  0  0  0  0
  -26.0231  -29.4798   20.7000 C   0  0  0  0  0  0
  -27.2251  -28.7294   20.6844 C   0  0  0  0  0  0
  -26.0607  -26.9444   19.5084 C   0  0  0  0  0  0
  -24.8732  -27.6973   19.5074 C   0  0  0  0  0  0
  -23.6176  -29.8271   20.1655 C   0  0  0  0  0  0
  -25.4106  -36.3132   24.0353 C   0  0  1  0  0  0
  -20.5868  -28.3661   23.1314 C   0  0  2  0  0  0
  -20.6760  -26.9395   22.5420 C   0  0  0  0  0  0
  -19.5744  -26.6382   21.5211 C   0  0  0  0  0  0
  -18.1914  -26.7919   22.1615 C   0  0  0  0  0  0
  -19.1521  -28.8829   23.2909 C   0  0  0  0  0  0
  -18.9443  -30.1433   23.8924 C   0  0  0  0  0  0
  -17.6442  -30.6582   24.0556 C   0  0  0  0  0  0
  -25.9028  -34.9494   23.5149 C   0  0  0  0  0  0
  -16.5336  -29.9079   23.6322 C   0  0  0  0  0  0
  -16.7253  -28.6487   23.0363 C   0  0  0  0  0  0
  -26.4451  -31.6619   25.0750 C   0  0  0  0  0  0
  -25.3722  -31.3704   26.1498 C   0  0  0  0  0  0
  -27.0273  -30.3068   24.6107 C   0  0  0  0  0  0
  -27.6048  -32.4340   25.7474 C   0  0  0  0  0  0
  -27.5589  -37.1811   24.8467 C   0  0  0  0  0  0
  -21.4153  -29.3024   22.3718 N   0  0  0  0  0  0
  -26.4300  -37.3811   23.9420 N   0  0  0  0  0  0
  -24.6711  -31.0788   22.1013 N   0  0  0  0  0  0
  -23.4184  -28.8184   23.3033 O   0  0  0  0  0  0
  -28.3057  -26.5794   20.1517 O   0  0  0  0  0  0
  -26.5590  -34.8931   22.4713 O   0  0  0  0  0  0
  -23.5338  -32.1416   23.7508 O   0  0  0  0  0  0
  -29.8960  -20.1626   21.6172 C   0  0  0  0  0  0
  -30.1740  -21.2885   19.0695 C   0  0  0  0  0  0
  -30.1002  -21.5564   21.4788 C   0  0  0  0  0  0
  -29.9763  -19.8895   19.1997 C   0  0  0  0  0  0
  -29.8213  -19.3099   20.4910 C   0  0  0  0  0  0
  -30.2197  -22.1415   20.1998 C   0  0  0  0  0  0
  -31.3349  -25.8257   18.1938 C   0  0  0  0  0  0
  -30.3463  -17.0776   21.0009 C   0  0  0  0  0  0
  -30.2288  -25.6730   18.9427 C   0  0  0  0  0  0
  -30.1526  -22.4414   22.7110 C   0  0  0  0  0  0
  -28.7601  -19.3569   17.0154 C   0  0  0  0  0  0
  -29.9548  -19.0460   17.9291 C   0  0  0  0  0  0
  -29.9622  -15.6387   21.3970 C   0  0  0  0  0  0
  -29.5316  -26.9121   19.5296 C   0  0  0  0  0  0
  -29.6537  -24.2638   19.1771 C   0  0  0  0  0  0
  -29.4722  -17.9588   20.6798 N   0  0  0  0  0  0
  -30.4351  -23.5091   20.1148 O   0  0  0  0  0  0
  -31.4748  -12.4556   19.1110 H   0  0  0  0  0  0
  -30.3532  -11.3174   19.7994 H   0  0  0  0  0  0
  -29.7462  -11.8163   17.4132 H   0  0  0  0  0  0
  -29.6553  -13.5207   17.7804 H   0  0  0  0  0  0
  -27.8401  -11.3075   18.8014 H   0  0  0  0  0  0
  -27.3658  -12.6415   17.7855 H   0  0  0  0  0  0
  -27.7121  -14.2489   19.5907 H   0  0  0  0  0  0
  -28.6998  -11.9170   21.2944 H   0  0  0  0  0  0
  -28.4621  -13.5197   21.8973 H   0  0  0  0  0  0
  -25.2784   -9.5699   22.4703 H   0  0  0  0  0  0
  -24.0037   -7.4630   22.7449 H   0  0  0  0  0  0
  -21.0833   -8.8733   19.8938 H   0  0  0  0  0  0
  -22.3672  -10.9641   19.6129 H   0  0  0  0  0  0
  -21.2001   -7.6132   23.9740 H   0  0  0  0  0  0
  -21.1464   -6.0497   25.9092 H   0  0  0  0  0  0
  -22.0593   -2.7601   23.2862 H   0  0  0  0  0  0
  -22.4144  -11.9891   22.4845 H   0  0  0  0  0  0
  -21.1141  -13.1209   22.2577 H   0  0  0  0  0  0
  -24.6697  -15.8412   20.5190 H   0  0  0  0  0  0
  -26.2939  -15.6295   20.1055 H   0  0  0  0  0  0
  -26.7096  -32.5552   23.1210 H   0  0  0  0  0  0
  -25.0060  -33.9826   25.0517 H   0  0  0  0  0  0
  -22.6960  -31.3074   21.4124 H   0  0  0  0  0  0
  -23.3767  -35.9629   23.3300 H   0  0  0  0  0  0
  -24.3588  -36.8925   22.2060 H   0  0  0  0  0  0
  -23.7196  -37.6510   23.6643 H   0  0  0  0  0  0
  -26.0480  -31.6157   20.6036 H   0  0  0  0  0  0
  -26.8238  -30.8932   21.9828 H   0  0  0  0  0  0
  -28.1170  -29.1145   21.1594 H   0  0  0  0  0  0
  -26.0597  -25.9560   19.0721 H   0  0  0  0  0  0
  -23.9768  -27.2906   19.0597 H   0  0  0  0  0  0
  -23.7225  -30.6049   19.4087 H   0  0  0  0  0  0
  -22.7441  -29.2450   19.8681 H   0  0  0  0  0  0
  -25.1274  -36.2024   25.0850 H   0  0  0  0  0  0
  -20.9954  -28.3217   24.1439 H   0  0  0  0  0  0
  -20.5657  -26.2265   23.3607 H   0  0  0  0  0  0
  -21.6628  -26.7431   22.1213 H   0  0  0  0  0  0
  -19.6903  -25.6295   21.1239 H   0  0  0  0  0  0
  -19.6687  -27.3195   20.6746 H   0  0  0  0  0  0
  -17.4195  -26.6688   21.4006 H   0  0  0  0  0  0
  -18.0299  -26.0041   22.8990 H   0  0  0  0  0  0
  -19.7917  -30.7238   24.2315 H   0  0  0  0  0  0
  -17.4994  -31.6270   24.5139 H   0  0  0  0  0  0
  -15.5336  -30.2987   23.7618 H   0  0  0  0  0  0
  -15.8655  -28.0792   22.7091 H   0  0  0  0  0  0
  -24.5922  -30.7019   25.7823 H   0  0  0  0  0  0
  -24.8882  -32.2851   26.4950 H   0  0  0  0  0  0
  -25.8094  -30.8882   27.0254 H   0  0  0  0  0  0
  -26.2809  -29.6844   24.1161 H   0  0  0  0  0  0
  -27.4045  -29.7287   25.4551 H   0  0  0  0  0  0
  -27.8647  -30.4396   23.9249 H   0  0  0  0  0  0
  -27.2693  -33.3635   26.2087 H   0  0  0  0  0  0
  -28.3815  -32.6915   25.0257 H   0  0  0  0  0  0
  -28.0770  -31.8454   26.5347 H   0  0  0  0  0  0
  -28.2614  -38.0105   24.7534 H   0  0  0  0  0  0
  -28.1081  -36.2642   24.6271 H   0  0  0  0  0  0
  -27.2319  -37.1439   25.8875 H   0  0  0  0  0  0
  -20.9300  -29.8758   21.6954 H   0  0  0  0  0  0
  -26.0200  -38.2892   24.1439 H   0  0  0  0  0  0
  -29.7698  -19.7445   22.6060 H   0  0  0  0  0  0
  -30.3106  -21.6988   18.0804 H   0  0  0  0  0  0
  -31.7534  -26.8042   18.0019 H   0  0  0  0  0  0
  -31.8372  -24.9742   17.7595 H   0  0  0  0  0  0
  -31.4148  -17.3070   21.0630 H   0  0  0  0  0  0
  -30.0705  -21.8615   23.6307 H   0  0  0  0  0  0
  -29.3367  -23.1651   22.6895 H   0  0  0  0  0  0
  -31.0898  -22.9974   22.7433 H   0  0  0  0  0  0
  -28.7940  -18.7365   16.1188 H   0  0  0  0  0  0
  -28.7569  -20.3976   16.6900 H   0  0  0  0  0  0
  -27.8133  -19.1595   17.5186 H   0  0  0  0  0  0
  -29.9633  -17.9806   18.1591 H   0  0  0  0  0  0
  -30.8836  -19.2336   17.3885 H   0  0  0  0  0  0
  -28.8821  -15.5650   21.2857 H   0  0  0  0  0  0
  -30.1782  -15.5020   22.4560 H   0  0  0  0  0  0
  -29.3799  -27.6508   18.7404 H   0  0  0  0  0  0
  -30.1876  -27.3693   20.2721 H   0  0  0  0  0  0
  -29.6240  -23.7660   18.2082 H   0  0  0  0  0  0
  -28.6191  -24.3010   19.5188 H   0  0  0  0  0  0
  1 25  1  0  0  0
  1 30  2  0  0  0
  1 83  1  0  0  0
  2  3  1  0  0  0
  2 25  1  0  0  0
  2 88  1  0  0  0
  2 89  1  0  0  0
  3  4  1  0  0  0
  3 90  1  0  0  0
  3 91  1  0  0  0
  4  5  1  0  0  0
  4 92  1  0  0  0
  4 93  1  0  0  0
  5  6  1  0  0  0
  5 26  1  0  0  0
  5 94  1  0  0  0
  6 25  1  0  0  0
  6 95  1  0  0  0
  6 96  1  0  0  0
  7  8  2  0  0  0
  7 26  1  0  0  0
  7 29  1  0  0  0
  8  9  1  0  0  0
  8 22  1  0  0  0
  9 10  1  0  0  0
  9 27  2  0  0  0
 10 11  2  0  0  0
 10 15  1  0  0  0
 11 12  1  0  0  0
 11 97  1  0  0  0
 12 13  2  0  0  0
 12 98  1  0  0  0
 13 14  1  0  0  0
 13 31  1  0  0  0
 14 15  2  0  0  0
 14 99  1  0  0  0
 15100  1  0  0  0
 16 17  2  0  0  0
 16 21  1  0  0  0
 16 31  1  0  0  0
 17 18  1  0  0  0
 17101  1  0  0  0
 18 19  2  0  0  0
 18102  1  0  0  0
 19 20  1  0  0  0
 19 24  1  0  0  0
 20 21  2  0  0  0
 20103  1  0  0  0
 21 23  1  0  0  0
 22 28  1  0  0  0
 22 32  2  0  0  0
 26 27  1  0  0  0
 28104  1  0  0  0
 28105  1  0  0  0
 29106  1  0  0  0
 29107  1  0  0  0
 33 34  1  0  0  0
 33 66  1  0  0  0
 33 70  2  0  0  0
 34 36  1  0  0  0
 34 59  1  0  0  0
 34108  1  0  0  0
 35 44  2  0  0  0
 35 45  1  0  0  0
 35 68  1  0  0  0
 36 56  1  0  0  0
 36109  1  0  0  0
 37 39  1  0  0  0
 37 47  1  0  0  0
 37 66  1  0  0  0
 37110  1  0  0  0
 38 43  2  0  0  0
 38 46  1  0  0  0
 38 47  1  0  0  0
 39 64  1  0  0  0
 39 67  2  0  0  0
 40 52  1  0  0  0
 40 53  2  0  0  0
 40 58  1  0  0  0
 41111  1  0  0  0
 41112  1  0  0  0
 41113  1  0  0  0
 41 48  1  0  0  0
 42 43  1  0  0  0
 42 66  1  0  0  0
 42114  1  0  0  0
 42115  1  0  0  0
 43 44  1  0  0  0
 44116  1  0  0  0
 45 46  2  0  0  0
 45117  1  0  0  0
 46118  1  0  0  0
 47119  1  0  0  0
 47120  1  0  0  0
 48 56  1  0  0  0
 48 65  1  0  0  0
 48121  1  0  0  0
 49 50  1  0  0  0
 49 53  1  0  0  0
 49 64  1  0  0  0
 49122  1  0  0  0
 50 51  1  0  0  0
 50123  1  0  0  0
 50124  1  0  0  0
 51 52  1  0  0  0
 51125  1  0  0  0
 51126  1  0  0  0
 52127  1  0  0  0
 52128  1  0  0  0
 53 54  1  0  0  0
 54 55  2  0  0  0
 54129  1  0  0  0
 55 57  1  0  0  0
 55130  1  0  0  0
 56 69  2  0  0  0
 57 58  2  0  0  0
 57131  1  0  0  0
 58132  1  0  0  0
 59 60  1  0  0  0
 59 61  1  0  0  0
 59 62  1  0  0  0
 60133  1  0  0  0
 60134  1  0  0  0
 60135  1  0  0  0
 61136  1  0  0  0
 61137  1  0  0  0
 61138  1  0  0  0
 62139  1  0  0  0
 62140  1  0  0  0
 62141  1  0  0  0
 63 65  1  0  0  0
 63142  1  0  0  0
 63143  1  0  0  0
 63144  1  0  0  0
 64145  1  0  0  0
 65146  1  0  0  0
 68 84  1  0  0  0
 71 73  2  0  0  0
 71 75  1  0  0  0
 71147  1  0  0  0
 72 74  1  0  0  0
 72 76  2  0  0  0
 72148  1  0  0  0
 73 76  1  0  0  0
 73 80  1  0  0  0
 74 75  2  0  0  0
 74 82  1  0  0  0
 75 86  1  0  0  0
 76 87  1  0  0  0
 77 79  2  0  0  0
 77149  1  0  0  0
 77150  1  0  0  0
 78 83  1  0  0  0
 78 86  2  0  0  0
 78151  1  0  0  0
 79 84  1  0  0  0
 79 85  1  0  0  0
 80152  1  0  0  0
 80153  1  0  0  0
 80154  1  0  0  0
 81 82  1  0  0  0
 81155  1  0  0  0
 81156  1  0  0  0
 81157  1  0  0  0
 82158  1  0  0  0
 82159  1  0  0  0
 83160  1  0  0  0
 83161  1  0  0  0
 84162  1  0  0  0
 84163  1  0  0  0
 85 87  1  0  0  0
 85164  1  0  0  0
 85165  1  0  0  0
M  ISO  4   1 100  68 101  83 100  84 101
M  END
> <chiral flag>
0

> <version>
0

> <s_m_source_file>
/data/baiqing/PycharmProjects/Reinvent-master-3.2/result/LINK_invent/BTK/process_docking_weight1_custom_product_contain_oxygen_bond_distance_aromatic_linkinvent_7_9_3/rearranged_h_0121.sdf

> <i_m_source_file_index>
76

> <r_mmod_Potential_Energy-OPLS-2005>
-14.3197040557861

> <r_mmod_Stretch_Energy-OPLS-2005>
42.9301681518555

> <r_mmod_Bend_Energy-OPLS-2005>
113.83617401123

> <r_mmod_Torsional_Energy-OPLS-2005>
234.38508605957

> <r_mmod_Improper_Torsional_Energy-OPLS-2005>
3.26917505264282

> <r_mmod_Van_der_Waal_Energy-OPLS-2005>
147.828491210938

> <r_mmod_Electrostatic_Energy-OPLS-2005>
-377.186431884766

> <r_mmod_Solvation_Energy-OPLS-2005>
-197.005401611328

> <b_mmod_Minimization_Converged-OPLS-2005>
0

> <r_mmod_RMS_Derivative-OPLS-2005>
2.38399243354797

$$$$
76
                    3D
 Structure written by MMmdl.
164173  0  0  1  0            999 V2000
  -30.7055  -14.4736   20.4838 C   0  0  0  0  0  0
  -30.4131  -12.2782   19.4470 C   0  0  0  0  0  0
  -29.4982  -12.4715   18.2187 C   0  0  0  0  0  0
  -28.0159  -12.3488   18.6232 C   0  0  0  0  0  0
  -27.6567  -13.2062   19.8670 C   0  0  2  0  0  0
  -28.6998  -13.0355   20.9986 C   0  0  0  0  0  0
  -25.2572  -13.8164   20.5678 C   0  0  0  0  0  0
  -24.1831  -13.0435   20.9173 C   0  0  0  0  0  0
  -24.6375  -11.6901   20.8737 C   0  0  0  0  0  0
  -23.9042  -10.4292   21.0404 C   0  0  0  0  0  0
  -24.3602   -9.4209   21.9182 C   0  0  0  0  0  0
  -23.6280   -8.2244   22.0747 C   0  0  0  0  0  0
  -22.4265   -8.0277   21.3538 C   0  0  0  0  0  0
  -21.9895   -9.0249   20.4647 C   0  0  0  0  0  0
  -22.7212  -10.2132   20.3050 C   0  0  0  0  0  0
  -21.6853   -6.0724   22.5278 C   0  0  0  0  0  0
  -21.4012   -6.5634   23.8208 C   0  0  0  0  0  0
  -21.3662   -5.6791   24.9175 C   0  0  0  0  0  0
  -21.6040   -4.3051   24.7225 C   0  0  0  0  0  0
  -21.8822   -3.8138   23.4349 C   0  0  0  0  0  0
  -21.9189   -4.6952   22.3400 C   0  0  0  0  0  0
  -22.7861  -13.5240   21.1836 C   0  0  0  0  0  0
  -22.1654   -4.2140   21.0976 F   0  0  0  0  0  0
  -21.5637   -3.4534   25.7734 F   0  0  0  0  0  0
  -30.0331  -13.2954   20.4375 N   0  0  0  0  0  0
  -26.2995  -12.9325   20.3334 N   0  0  0  0  0  0
  -25.9300  -11.6489   20.5769 N   0  0  0  0  0  0
  -22.0504  -12.8241   22.0401 N   0  0  0  0  0  0
  -25.4323  -15.1880   20.4084 N   0  0  0  0  0  0
  -31.8845  -14.5834   20.1427 O   0  0  0  0  0  0
  -21.6630   -6.8870   21.4240 O   0  0  0  0  0  0
  -22.3553  -14.5543   20.6677 O   0  0  0  0  0  0
  -24.6147  -31.8676   23.2093 C   0  0  0  0  0  0
  -25.9046  -32.4819   23.8383 C   0  0  1  0  0  0
  -27.2346  -27.4334   20.0933 C   0  0  0  0  0  0
  -25.5909  -33.8620   24.2316 N   0  0  0  0  0  0
  -23.4029  -30.4919   21.5496 C   0  0  2  0  0  0
  -24.8480  -28.9586   20.1132 C   0  0  0  0  0  0
  -22.7411  -29.4663   22.4982 C   0  0  0  0  0  0
  -18.0277  -28.1394   22.8491 C   0  0  0  0  0  0
  -24.1485  -36.7299   23.2630 C   0  0  0  0  0  0
  -25.9311  -30.8335   21.3619 C   0  0  0  0  0  0
  -26.0075  -29.4683   20.7086 C   0  0  0  0  0  0
  -27.2023  -28.7135   20.6940 C   0  0  0  0  0  0
  -26.0519  -26.9380   19.4940 C   0  0  0  0  0  0
  -24.8654  -27.6936   19.5024 C   0  0  0  0  0  0
  -23.6100  -29.8250   20.1637 C   0  0  0  0  0  0
  -25.4102  -36.3106   24.0336 C   0  0  1  0  0  0
  -20.5866  -28.3677   23.1326 C   0  0  2  0  0  0
  -20.6773  -26.9414   22.5427 C   0  0  0  0  0  0
  -19.5754  -26.6400   21.5222 C   0  0  0  0  0  0
  -18.1929  -26.7942   22.1623 C   0  0  0  0  0  0
  -19.1525  -28.8852   23.2908 C   0  0  0  0  0  0
  -18.9452  -30.1457   23.8919 C   0  0  0  0  0  0
  -17.6454  -30.6596   24.0576 C   0  0  0  0  0  0
  -25.9039  -34.9477   23.5121 C   0  0  0  0  0  0
  -16.5346  -29.9103   23.6333 C   0  0  0  0  0  0
  -16.7265  -28.6524   23.0344 C   0  0  0  0  0  0
  -26.4479  -31.6601   25.0712 C   0  0  0  0  0  0
  -25.3743  -31.3717   26.1457 C   0  0  0  0  0  0
  -27.0307  -30.3047   24.6081 C   0  0  0  0  0  0
  -27.6062  -32.4317   25.7466 C   0  0  0  0  0  0
  -27.5597  -37.1770   24.8440 C   0  0  0  0  0  0
  -21.4137  -29.3036   22.3720 N   0  0  0  0  0  0
  -26.4275  -37.3807   23.9443 N   0  0  0  0  0  0
  -24.6678  -31.0783   22.0988 N   0  0  0  0  0  0
  -23.4186  -28.8196   23.3016 O   0  0  0  0  0  0
  -28.4150  -26.7163   20.1106 O   0  0  0  0  0  0
  -26.5592  -34.8934   22.4679 O   0  0  0  0  0  0
  -23.5341  -32.1423   23.7494 O   0  0  0  0  0  0
  -30.4738  -20.1993   21.3239 C   0  0  0  0  0  0
  -30.7170  -18.8411   21.0294 C   0  0  0  0  0  0
  -28.5984  -18.7287   19.8403 C   0  0  0  0  0  0
  -29.3119  -20.8484   20.8468 C   0  0  0  0  0  0
  -29.7984  -18.1094   20.2511 C   0  0  0  0  0  0
  -28.3480  -20.0906   20.1283 C   0  0  0  0  0  0
  -29.1461  -22.3322   21.0809 C   0  0  0  0  0  0
  -30.8539  -24.0002   18.2412 C   0  0  0  0  0  0
  -30.8235  -25.0775   19.3167 C   0  0  0  0  0  0
  -30.4341  -22.7297   18.9792 C   0  0  0  0  0  0
  -29.7033  -24.6399   20.2707 C   0  0  1  0  0  0
  -27.0612  -20.7230   19.6176 C   0  0  0  0  0  0
  -30.1754  -16.7342   19.7118 C   0  0  0  0  0  0
  -28.3464  -25.2961   19.9163 C   0  0  0  0  0  0
  -29.6677  -23.1695   20.1503 N   0  0  0  0  0  0
  -29.9255  -15.5666   20.5714 N   0  0  0  0  0  0
  -28.5646  -22.7274   22.0953 O   0  0  0  0  0  0
  -31.4626  -12.3453   19.1531 H   0  0  0  0  0  0
  -30.2862  -11.2816   19.8714 H   0  0  0  0  0  0
  -29.7375  -11.7331   17.4528 H   0  0  0  0  0  0
  -29.6803  -13.4489   17.7700 H   0  0  0  0  0  0
  -27.8162  -11.2972   18.8285 H   0  0  0  0  0  0
  -27.3730  -12.6195   17.7846 H   0  0  0  0  0  0
  -27.6838  -14.2444   19.5375 H   0  0  0  0  0  0
  -28.6655  -12.0240   21.4060 H   0  0  0  0  0  0
  -28.4826  -13.7040   21.8333 H   0  0  0  0  0  0
  -25.2747   -9.5672   22.4757 H   0  0  0  0  0  0
  -23.9983   -7.4630   22.7458 H   0  0  0  0  0  0
  -21.0823   -8.8742   19.8964 H   0  0  0  0  0  0
  -22.3648  -10.9660   19.6155 H   0  0  0  0  0  0
  -21.2004   -7.6143   23.9698 H   0  0  0  0  0  0
  -21.1486   -6.0529   25.9075 H   0  0  0  0  0  0
  -22.0603   -2.7601   23.2845 H   0  0  0  0  0  0
  -22.4110  -11.9902   22.4799 H   0  0  0  0  0  0
  -21.1130  -13.1287   22.2610 H   0  0  0  0  0  0
  -24.6717  -15.8484   20.5255 H   0  0  0  0  0  0
  -26.2864  -15.6252   20.0876 H   0  0  0  0  0  0
  -26.7117  -32.5529   23.1143 H   0  0  0  0  0  0
  -25.0088  -33.9777   25.0483 H   0  0  0  0  0  0
  -22.6922  -31.3087   21.4108 H   0  0  0  0  0  0
  -23.3772  -35.9602   23.3247 H   0  0  0  0  0  0
  -24.3600  -36.8955   22.2055 H   0  0  0  0  0  0
  -23.7195  -37.6475   23.6668 H   0  0  0  0  0  0
  -26.0445  -31.6004   20.5941 H   0  0  0  0  0  0
  -26.8199  -30.8856   21.9793 H   0  0  0  0  0  0
  -28.0977  -29.1035   21.1572 H   0  0  0  0  0  0
  -26.0259  -25.9731   19.0099 H   0  0  0  0  0  0
  -23.9742  -27.2972   19.0356 H   0  0  0  0  0  0
  -23.7162  -30.6001   19.4031 H   0  0  0  0  0  0
  -22.7348  -29.2432   19.8691 H   0  0  0  0  0  0
  -25.1271  -36.1950   25.0825 H   0  0  0  0  0  0
  -20.9967  -28.3245   24.1442 H   0  0  0  0  0  0
  -20.5697  -26.2275   23.3605 H   0  0  0  0  0  0
  -21.6639  -26.7470   22.1201 H   0  0  0  0  0  0
  -19.6916  -25.6319   21.1235 H   0  0  0  0  0  0
  -19.6708  -27.3228   20.6769 H   0  0  0  0  0  0
  -17.4202  -26.6698   21.4019 H   0  0  0  0  0  0
  -18.0321  -26.0091   22.9023 H   0  0  0  0  0  0
  -19.7928  -30.7271   24.2294 H   0  0  0  0  0  0
  -17.5012  -31.6275   24.5176 H   0  0  0  0  0  0
  -15.5351  -30.3009   23.7657 H   0  0  0  0  0  0
  -15.8661  -28.0859   22.7037 H   0  0  0  0  0  0
  -24.5918  -30.7063   25.7790 H   0  0  0  0  0  0
  -24.8933  -32.2876   26.4897 H   0  0  0  0  0  0
  -25.8091  -30.8889   27.0212 H   0  0  0  0  0  0
  -26.2847  -29.6810   24.1139 H   0  0  0  0  0  0
  -27.4091  -29.7287   25.4532 H   0  0  0  0  0  0
  -27.8676  -30.4380   23.9220 H   0  0  0  0  0  0
  -27.2694  -33.3605   26.2081 H   0  0  0  0  0  0
  -28.3850  -32.6888   25.0275 H   0  0  0  0  0  0
  -28.0753  -31.8412   26.5344 H   0  0  0  0  0  0
  -28.2522  -38.0161   24.7646 H   0  0  0  0  0  0
  -28.1184  -36.2706   24.6058 H   0  0  0  0  0  0
  -27.2341  -37.1161   25.8839 H   0  0  0  0  0  0
  -20.9292  -29.8749   21.6937 H   0  0  0  0  0  0
  -26.0151  -38.2854   24.1560 H   0  0  0  0  0  0
  -31.2106  -20.7599   21.8840 H   0  0  0  0  0  0
  -31.6427  -18.3802   21.3483 H   0  0  0  0  0  0
  -27.8907  -18.1691   19.2441 H   0  0  0  0  0  0
  -31.8294  -23.9073   17.7630 H   0  0  0  0  0  0
  -30.1268  -24.2332   17.4615 H   0  0  0  0  0  0
  -30.6838  -26.0782   18.9055 H   0  0  0  0  0  0
  -31.7734  -25.0783   19.8536 H   0  0  0  0  0  0
  -31.3177  -22.1791   19.3072 H   0  0  0  0  0  0
  -29.8494  -22.0710   18.3358 H   0  0  0  0  0  0
  -29.9686  -24.9181   21.2929 H   0  0  0  0  0  0
  -26.4042  -19.9791   19.1644 H   0  0  0  0  0  0
  -27.2756  -21.4828   18.8645 H   0  0  0  0  0  0
  -26.5107  -21.1929   20.4341 H   0  0  0  0  0  0
  -31.2228  -16.7997   19.4084 H   0  0  0  0  0  0
  -29.6317  -16.5705   18.7795 H   0  0  0  0  0  0
  -27.5630  -24.8758   20.5496 H   0  0  0  0  0  0
  -28.0876  -25.0700   18.8802 H   0  0  0  0  0  0
  -28.9733  -15.4165   20.8650 H   0  0  0  0  0  0
  1 25  1  0  0  0
  1 30  2  0  0  0
  1 86  1  0  0  0
  2  3  1  0  0  0
  2 25  1  0  0  0
  2 88  1  0  0  0
  2 89  1  0  0  0
  3  4  1  0  0  0
  3 90  1  0  0  0
  3 91  1  0  0  0
  4  5  1  0  0  0
  4 92  1  0  0  0
  4 93  1  0  0  0
  5  6  1  0  0  0
  5 26  1  0  0  0
  5 94  1  0  0  0
  6 25  1  0  0  0
  6 95  1  0  0  0
  6 96  1  0  0  0
  7  8  2  0  0  0
  7 26  1  0  0  0
  7 29  1  0  0  0
  8  9  1  0  0  0
  8 22  1  0  0  0
  9 10  1  0  0  0
  9 27  2  0  0  0
 10 11  2  0  0  0
 10 15  1  0  0  0
 11 12  1  0  0  0
 11 97  1  0  0  0
 12 13  2  0  0  0
 12 98  1  0  0  0
 13 14  1  0  0  0
 13 31  1  0  0  0
 14 15  2  0  0  0
 14 99  1  0  0  0
 15100  1  0  0  0
 16 17  2  0  0  0
 16 21  1  0  0  0
 16 31  1  0  0  0
 17 18  1  0  0  0
 17101  1  0  0  0
 18 19  2  0  0  0
 18102  1  0  0  0
 19 20  1  0  0  0
 19 24  1  0  0  0
 20 21  2  0  0  0
 20103  1  0  0  0
 21 23  1  0  0  0
 22 28  1  0  0  0
 22 32  2  0  0  0
 26 27  1  0  0  0
 28104  1  0  0  0
 28105  1  0  0  0
 29106  1  0  0  0
 29107  1  0  0  0
 33 34  1  0  0  0
 33 66  1  0  0  0
 33 70  2  0  0  0
 34 36  1  0  0  0
 34 59  1  0  0  0
 34108  1  0  0  0
 35 44  2  0  0  0
 35 45  1  0  0  0
 35 68  1  0  0  0
 36 56  1  0  0  0
 36109  1  0  0  0
 37 39  1  0  0  0
 37 47  1  0  0  0
 37 66  1  0  0  0
 37110  1  0  0  0
 38 43  2  0  0  0
 38 46  1  0  0  0
 38 47  1  0  0  0
 39 64  1  0  0  0
 39 67  2  0  0  0
 40 52  1  0  0  0
 40 53  2  0  0  0
 40 58  1  0  0  0
 41111  1  0  0  0
 41112  1  0  0  0
 41113  1  0  0  0
 41 48  1  0  0  0
 42 43  1  0  0  0
 42 66  1  0  0  0
 42114  1  0  0  0
 42115  1  0  0  0
 43 44  1  0  0  0
 44116  1  0  0  0
 45 46  2  0  0  0
 45117  1  0  0  0
 46118  1  0  0  0
 47119  1  0  0  0
 47120  1  0  0  0
 48 56  1  0  0  0
 48 65  1  0  0  0
 48121  1  0  0  0
 49 50  1  0  0  0
 49 53  1  0  0  0
 49 64  1  0  0  0
 49122  1  0  0  0
 50 51  1  0  0  0
 50123  1  0  0  0
 50124  1  0  0  0
 51 52  1  0  0  0
 51125  1  0  0  0
 51126  1  0  0  0
 52127  1  0  0  0
 52128  1  0  0  0
 53 54  1  0  0  0
 54 55  2  0  0  0
 54129  1  0  0  0
 55 57  1  0  0  0
 55130  1  0  0  0
 56 69  2  0  0  0
 57 58  2  0  0  0
 57131  1  0  0  0
 58132  1  0  0  0
 59 60  1  0  0  0
 59 61  1  0  0  0
 59 62  1  0  0  0
 60133  1  0  0  0
 60134  1  0  0  0
 60135  1  0  0  0
 61136  1  0  0  0
 61137  1  0  0  0
 61138  1  0  0  0
 62139  1  0  0  0
 62140  1  0  0  0
 62141  1  0  0  0
 63 65  1  0  0  0
 63142  1  0  0  0
 63143  1  0  0  0
 63144  1  0  0  0
 64145  1  0  0  0
 65146  1  0  0  0
 68 84  1  0  0  0
 71 72  2  0  0  0
 71 74  1  0  0  0
 71147  1  0  0  0
 72 75  1  0  0  0
 72148  1  0  0  0
 73 75  2  0  0  0
 73 76  1  0  0  0
 73149  1  0  0  0
 74 76  2  0  0  0
 74 77  1  0  0  0
 75 83  1  0  0  0
 76 82  1  0  0  0
 77 85  1  0  0  0
 77 87  2  0  0  0
 78 79  1  0  0  0
 78 80  1  0  0  0
 78150  1  0  0  0
 78151  1  0  0  0
 79 81  1  0  0  0
 79152  1  0  0  0
 79153  1  0  0  0
 80 85  1  0  0  0
 80154  1  0  0  0
 80155  1  0  0  0
 81 84  1  0  0  0
 81 85  1  0  0  0
 81156  1  0  0  0
 82157  1  0  0  0
 82158  1  0  0  0
 82159  1  0  0  0
 83 86  1  0  0  0
 83160  1  0  0  0
 83161  1  0  0  0
 84162  1  0  0  0
 84163  1  0  0  0
 86164  1  0  0  0
M  ISO  4   1 100  68 101  84 101  86 100
M  END
> <chiral flag>
0

> <version>
0

> <s_m_source_file>
/data/baiqing/PycharmProjects/Reinvent-master-3.2/result/LINK_invent/BTK/process_docking_weight1_custom_product_contain_oxygen_bond_distance_aromatic_linkinvent_7_9_3/rearranged_h_0121.sdf

> <i_m_source_file_index>
77

> <r_mmod_Potential_Energy-OPLS-2005>
89.9987487792969

> <r_mmod_Stretch_Energy-OPLS-2005>
37.5407524108887

> <r_mmod_Bend_Energy-OPLS-2005>
112.235038757324

> <r_mmod_Torsional_Energy-OPLS-2005>
342.295684814453

> <r_mmod_Improper_Torsional_Energy-OPLS-2005>
12.4130229949951

> <r_mmod_Van_der_Waal_Energy-OPLS-2005>
150.589096069336

> <r_mmod_Electrostatic_Energy-OPLS-2005>
-360.144775390625

> <r_mmod_Solvation_Energy-OPLS-2005>
-223.382843017578

> <b_mmod_Minimization_Converged-OPLS-2005>
0

> <r_mmod_RMS_Derivative-OPLS-2005>
1.62335109710693

$$$$
77
                    3D
 Structure written by MMmdl.
160168  0  0  1  0            999 V2000
  -30.7397  -14.5515   20.4927 C   0  0  0  0  0  0
  -30.4178  -12.3380   19.4394 C   0  0  0  0  0  0
  -29.4958  -12.4619   18.2117 C   0  0  0  0  0  0
  -28.0204  -12.3006   18.6290 C   0  0  0  0  0  0
  -27.6384  -13.1831   19.8456 C   0  0  2  0  0  0
  -28.6958  -13.1203   20.9725 C   0  0  0  0  0  0
  -25.2589  -13.8035   20.5726 C   0  0  0  0  0  0
  -24.1837  -13.0347   20.9268 C   0  0  0  0  0  0
  -24.6370  -11.6816   20.8834 C   0  0  0  0  0  0
  -23.9027  -10.4244   21.0466 C   0  0  0  0  0  0
  -24.3587   -9.4163   21.9233 C   0  0  0  0  0  0
  -23.6265   -8.2197   22.0775 C   0  0  0  0  0  0
  -22.4249   -8.0261   21.3558 C   0  0  0  0  0  0
  -21.9905   -9.0235   20.4650 C   0  0  0  0  0  0
  -22.7229  -10.2110   20.3082 C   0  0  0  0  0  0
  -21.6829   -6.0716   22.5275 C   0  0  0  0  0  0
  -21.4001   -6.5625   23.8212 C   0  0  0  0  0  0
  -21.3676   -5.6788   24.9189 C   0  0  0  0  0  0
  -21.6045   -4.3050   24.7236 C   0  0  0  0  0  0
  -21.8813   -3.8134   23.4363 C   0  0  0  0  0  0
  -21.9179   -4.6942   22.3416 C   0  0  0  0  0  0
  -22.7881  -13.5191   21.1872 C   0  0  0  0  0  0
  -22.1659   -4.2137   21.0996 F   0  0  0  0  0  0
  -21.5634   -3.4539   25.7760 F   0  0  0  0  0  0
  -30.0244  -13.3864   20.3978 N   0  0  0  0  0  0
  -26.2948  -12.9126   20.3328 N   0  0  0  0  0  0
  -25.9277  -11.6324   20.5836 N   0  0  0  0  0  0
  -22.0477  -12.8235   22.0416 N   0  0  0  0  0  0
  -25.4286  -15.1749   20.4090 N   0  0  0  0  0  0
  -31.9437  -14.5929   20.2334 O   0  0  0  0  0  0
  -21.6615   -6.8864   21.4244 O   0  0  0  0  0  0
  -22.3625  -14.5512   20.6706 O   0  0  0  0  0  0
  -24.6142  -31.8699   23.2095 C   0  0  0  0  0  0
  -25.9043  -32.4829   23.8366 C   0  0  1  0  0  0
  -27.2185  -27.4275   20.0917 C   0  0  0  0  0  0
  -25.5902  -33.8633   24.2304 N   0  0  0  0  0  0
  -23.4003  -30.4929   21.5525 C   0  0  2  0  0  0
  -24.8424  -28.9657   20.1071 C   0  0  0  0  0  0
  -22.7390  -29.4645   22.4986 C   0  0  0  0  0  0
  -18.0216  -28.1329   22.8456 C   0  0  0  0  0  0
  -24.1497  -36.7314   23.2642 C   0  0  0  0  0  0
  -25.9290  -30.8358   21.3583 C   0  0  0  0  0  0
  -26.0053  -29.4718   20.7019 C   0  0  0  0  0  0
  -27.1989  -28.7103   20.6870 C   0  0  0  0  0  0
  -26.0351  -26.9464   19.4827 C   0  0  0  0  0  0
  -24.8551  -27.7081   19.4872 C   0  0  0  0  0  0
  -23.6046  -29.8315   20.1640 C   0  0  0  0  0  0
  -25.4120  -36.3111   24.0334 C   0  0  1  0  0  0
  -20.5830  -28.3615   23.1254 C   0  0  2  0  0  0
  -20.6728  -26.9358   22.5332 C   0  0  0  0  0  0
  -19.5677  -26.6326   21.5147 C   0  0  0  0  0  0
  -18.1876  -26.7868   22.1591 C   0  0  0  0  0  0
  -19.1483  -28.8769   23.2853 C   0  0  0  0  0  0
  -18.9421  -30.1391   23.8879 C   0  0  0  0  0  0
  -17.6415  -30.6534   24.0524 C   0  0  0  0  0  0
  -25.9045  -34.9481   23.5113 C   0  0  0  0  0  0
  -16.5308  -29.9026   23.6286 C   0  0  0  0  0  0
  -16.7216  -28.6450   23.0302 C   0  0  0  0  0  0
  -26.4478  -31.6597   25.0681 C   0  0  0  0  0  0
  -25.3713  -31.3686   26.1388 C   0  0  0  0  0  0
  -27.0303  -30.3056   24.6014 C   0  0  0  0  0  0
  -27.6058  -32.4283   25.7467 C   0  0  0  0  0  0
  -27.5577  -37.1819   24.8466 C   0  0  0  0  0  0
  -21.4120  -29.3012   22.3694 N   0  0  0  0  0  0
  -26.4296  -37.3793   23.9403 N   0  0  0  0  0  0
  -24.6677  -31.0786   22.0996 N   0  0  0  0  0  0
  -23.4180  -28.8174   23.3024 O   0  0  0  0  0  0
  -28.3711  -26.6647   20.1378 O   0  0  0  0  0  0
  -26.5606  -34.8934   22.4672 O   0  0  0  0  0  0
  -23.5330  -32.1424   23.7514 O   0  0  0  0  0  0
  -31.5503  -17.2352   21.8066 C   0  0  0  0  0  0
  -31.1198  -19.5281   22.4960 C   0  0  0  0  0  0
  -30.2575  -17.1045   21.2362 C   0  0  0  0  0  0
  -29.3435  -18.2165   21.4232 C   0  0  0  0  0  0
  -29.8271  -19.4668   21.9343 C   0  0  0  0  0  0
  -31.9580  -18.4051   22.4697 C   0  0  0  0  0  0
  -29.9509  -15.8845   20.3607 C   0  0  0  0  0  0
  -29.0658  -24.3034   20.8628 C   0  0  0  0  0  0
  -26.9751  -19.2178   20.6863 C   0  0  0  0  0  0
  -27.8130  -18.0414   21.2229 C   0  0  0  0  0  0
  -28.7124  -22.7953   20.8640 C   0  0  0  0  0  0
  -28.1907  -25.2400   19.9935 C   0  0  0  0  0  0
  -29.5806  -21.9112   21.8039 C   0  0  0  0  0  0
  -29.1636  -16.0157   19.3819 N   0  0  0  0  0  0
  -30.0044  -24.7438   21.5379 O   0  0  0  0  0  0
  -29.0105  -20.5892   21.9184 O   0  0  0  0  0  0
  -33.1785  -18.4627   23.0519 F   0  0  0  0  0  0
  -31.4619  -12.4072   19.1279 H   0  0  0  0  0  0
  -30.3057  -11.3548   19.8995 H   0  0  0  0  0  0
  -29.7560  -11.7054   17.4706 H   0  0  0  0  0  0
  -29.6450  -13.4278   17.7255 H   0  0  0  0  0  0
  -27.8602  -11.2485   18.8668 H   0  0  0  0  0  0
  -27.3662  -12.5240   17.7846 H   0  0  0  0  0  0
  -27.5969  -14.1898   19.4528 H   0  0  0  0  0  0
  -28.6884  -12.1464   21.4669 H   0  0  0  0  0  0
  -28.4616  -13.8589   21.7390 H   0  0  0  0  0  0
  -25.2729   -9.5643   22.4809 H   0  0  0  0  0  0
  -23.9940   -7.4599   22.7515 H   0  0  0  0  0  0
  -21.0829   -8.8778   19.8973 H   0  0  0  0  0  0
  -22.3707  -10.9654   19.6191 H   0  0  0  0  0  0
  -21.1994   -7.6133   23.9709 H   0  0  0  0  0  0
  -21.1510   -6.0537   25.9096 H   0  0  0  0  0  0
  -22.0573   -2.7588   23.2875 H   0  0  0  0  0  0
  -22.4016  -11.9905   22.4894 H   0  0  0  0  0  0
  -21.1093  -13.1350   22.2473 H   0  0  0  0  0  0
  -24.6508  -15.8149   20.5208 H   0  0  0  0  0  0
  -26.2657  -15.6113   20.0437 H   0  0  0  0  0  0
  -26.7096  -32.5541   23.1106 H   0  0  0  0  0  0
  -25.0054  -33.9786   25.0455 H   0  0  0  0  0  0
  -22.6880  -31.3101   21.4173 H   0  0  0  0  0  0
  -23.3755  -35.9646   23.3321 H   0  0  0  0  0  0
  -24.3592  -36.8915   22.2049 H   0  0  0  0  0  0
  -23.7246  -37.6529   23.6648 H   0  0  0  0  0  0
  -26.0284  -31.6052   20.5906 H   0  0  0  0  0  0
  -26.8212  -30.8939   21.9704 H   0  0  0  0  0  0
  -28.0954  -29.0953   21.1482 H   0  0  0  0  0  0
  -26.0007  -25.9849   18.9921 H   0  0  0  0  0  0
  -23.9620  -27.3212   19.0119 H   0  0  0  0  0  0
  -23.7079  -30.6068   19.4048 H   0  0  0  0  0  0
  -22.7293  -29.2495   19.8702 H   0  0  0  0  0  0
  -25.1300  -36.1978   25.0825 H   0  0  0  0  0  0
  -20.9896  -28.3159   24.1374 H   0  0  0  0  0  0
  -20.5622  -26.2201   23.3496 H   0  0  0  0  0  0
  -21.6573  -26.7416   22.1084 H   0  0  0  0  0  0
  -19.6775  -25.6248   21.1169 H   0  0  0  0  0  0
  -19.6586  -27.3112   20.6650 H   0  0  0  0  0  0
  -17.4096  -26.6552   21.4063 H   0  0  0  0  0  0
  -18.0380  -26.0035   22.9018 H   0  0  0  0  0  0
  -19.7905  -30.7148   24.2278 H   0  0  0  0  0  0
  -17.4989  -31.6216   24.5090 H   0  0  0  0  0  0
  -15.5312  -30.2921   23.7608 H   0  0  0  0  0  0
  -15.8629  -28.0789   22.6978 H   0  0  0  0  0  0
  -24.5903  -30.7038   25.7669 H   0  0  0  0  0  0
  -24.8873  -32.2837   26.4823 H   0  0  0  0  0  0
  -25.8022  -30.8830   27.0147 H   0  0  0  0  0  0
  -26.2833  -29.6840   24.1049 H   0  0  0  0  0  0
  -27.4091  -29.7265   25.4445 H   0  0  0  0  0  0
  -27.8657  -30.4421   23.9133 H   0  0  0  0  0  0
  -27.2709  -33.3585   26.2076 H   0  0  0  0  0  0
  -28.3884  -32.6831   25.0302 H   0  0  0  0  0  0
  -28.0698  -31.8351   26.5359 H   0  0  0  0  0  0
  -28.2612  -38.0105   24.7507 H   0  0  0  0  0  0
  -28.1061  -36.2634   24.6311 H   0  0  0  0  0  0
  -27.2288  -37.1481   25.8870 H   0  0  0  0  0  0
  -20.9275  -29.8711   21.6901 H   0  0  0  0  0  0
  -26.0193  -38.2871   24.1413 H   0  0  0  0  0  0
  -32.2810  -16.4449   21.7391 H   0  0  0  0  0  0
  -31.4765  -20.4269   22.9775 H   0  0  0  0  0  0
  -26.7496  -19.9461   21.4641 H   0  0  0  0  0  0
  -26.0135  -18.8432   20.3307 H   0  0  0  0  0  0
  -27.4529  -19.7341   19.8545 H   0  0  0  0  0  0
  -27.4165  -17.7631   22.2019 H   0  0  0  0  0  0
  -27.5396  -17.1967   20.6110 H   0  0  0  0  0  0
  -28.7881  -22.4131   19.8463 H   0  0  0  0  0  0
  -27.6616  -22.6986   21.1394 H   0  0  0  0  0  0
  -29.1579  -25.2773   19.4924 H   0  0  0  0  0  0
  -27.7453  -25.2728   20.9895 H   0  0  0  0  0  0
  -29.6103  -22.3510   22.8015 H   0  0  0  0  0  0
  -30.6033  -21.8984   21.4237 H   0  0  0  0  0  0
  -28.7812  -16.9510   19.3709 H   0  0  0  0  0  0
  1 25  1  0  0  0
  1 30  2  0  0  0
  1 77  1  0  0  0
  2  3  1  0  0  0
  2 25  1  0  0  0
  2 88  1  0  0  0
  2 89  1  0  0  0
  3  4  1  0  0  0
  3 90  1  0  0  0
  3 91  1  0  0  0
  4  5  1  0  0  0
  4 92  1  0  0  0
  4 93  1  0  0  0
  5  6  1  0  0  0
  5 26  1  0  0  0
  5 94  1  0  0  0
  6 25  1  0  0  0
  6 95  1  0  0  0
  6 96  1  0  0  0
  7  8  2  0  0  0
  7 26  1  0  0  0
  7 29  1  0  0  0
  8  9  1  0  0  0
  8 22  1  0  0  0
  9 10  1  0  0  0
  9 27  2  0  0  0
 10 11  2  0  0  0
 10 15  1  0  0  0
 11 12  1  0  0  0
 11 97  1  0  0  0
 12 13  2  0  0  0
 12 98  1  0  0  0
 13 14  1  0  0  0
 13 31  1  0  0  0
 14 15  2  0  0  0
 14 99  1  0  0  0
 15100  1  0  0  0
 16 17  2  0  0  0
 16 21  1  0  0  0
 16 31  1  0  0  0
 17 18  1  0  0  0
 17101  1  0  0  0
 18 19  2  0  0  0
 18102  1  0  0  0
 19 20  1  0  0  0
 19 24  1  0  0  0
 20 21  2  0  0  0
 20103  1  0  0  0
 21 23  1  0  0  0
 22 28  1  0  0  0
 22 32  2  0  0  0
 26 27  1  0  0  0
 28104  1  0  0  0
 28105  1  0  0  0
 29106  1  0  0  0
 29107  1  0  0  0
 33 34  1  0  0  0
 33 66  1  0  0  0
 33 70  2  0  0  0
 34 36  1  0  0  0
 34 59  1  0  0  0
 34108  1  0  0  0
 35 44  2  0  0  0
 35 45  1  0  0  0
 35 68  1  0  0  0
 36 56  1  0  0  0
 36109  1  0  0  0
 37 39  1  0  0  0
 37 47  1  0  0  0
 37 66  1  0  0  0
 37110  1  0  0  0
 38 43  2  0  0  0
 38 46  1  0  0  0
 38 47  1  0  0  0
 39 64  1  0  0  0
 39 67  2  0  0  0
 40 52  1  0  0  0
 40 53  2  0  0  0
 40 58  1  0  0  0
 41111  1  0  0  0
 41112  1  0  0  0
 41113  1  0  0  0
 41 48  1  0  0  0
 42 43  1  0  0  0
 42 66  1  0  0  0
 42114  1  0  0  0
 42115  1  0  0  0
 43 44  1  0  0  0
 44116  1  0  0  0
 45 46  2  0  0  0
 45117  1  0  0  0
 46118  1  0  0  0
 47119  1  0  0  0
 47120  1  0  0  0
 48 56  1  0  0  0
 48 65  1  0  0  0
 48121  1  0  0  0
 49 50  1  0  0  0
 49 53  1  0  0  0
 49 64  1  0  0  0
 49122  1  0  0  0
 50 51  1  0  0  0
 50123  1  0  0  0
 50124  1  0  0  0
 51 52  1  0  0  0
 51125  1  0  0  0
 51126  1  0  0  0
 52127  1  0  0  0
 52128  1  0  0  0
 53 54  1  0  0  0
 54 55  2  0  0  0
 54129  1  0  0  0
 55 57  1  0  0  0
 55130  1  0  0  0
 56 69  2  0  0  0
 57 58  2  0  0  0
 57131  1  0  0  0
 58132  1  0  0  0
 59 60  1  0  0  0
 59 61  1  0  0  0
 59 62  1  0  0  0
 60133  1  0  0  0
 60134  1  0  0  0
 60135  1  0  0  0
 61136  1  0  0  0
 61137  1  0  0  0
 61138  1  0  0  0
 62139  1  0  0  0
 62140  1  0  0  0
 62141  1  0  0  0
 63 65  1  0  0  0
 63142  1  0  0  0
 63143  1  0  0  0
 63144  1  0  0  0
 64145  1  0  0  0
 65146  1  0  0  0
 68 82  1  0  0  0
 71 73  2  0  0  0
 71 76  1  0  0  0
 71147  1  0  0  0
 72 75  1  0  0  0
 72 76  2  0  0  0
 72148  1  0  0  0
 73 74  1  0  0  0
 73 77  1  0  0  0
 74 75  2  0  0  0
 74 80  1  0  0  0
 75 86  1  0  0  0
 76 87  1  0  0  0
 77 84  2  0  0  0
 78 81  1  0  0  0
 78 82  1  0  0  0
 78 85  2  0  0  0
 79 80  1  0  0  0
 79149  1  0  0  0
 79150  1  0  0  0
 79151  1  0  0  0
 80152  1  0  0  0
 80153  1  0  0  0
 81 83  1  0  0  0
 81154  1  0  0  0
 81155  1  0  0  0
 82156  1  0  0  0
 82157  1  0  0  0
 83 86  1  0  0  0
 83158  1  0  0  0
 83159  1  0  0  0
 84160  1  0  0  0
M  ISO  4   1 100  68 101  77 100  82 101
M  END
> <chiral flag>
0

> <version>
0

> <s_m_source_file>
/data/baiqing/PycharmProjects/Reinvent-master-3.2/result/LINK_invent/BTK/process_docking_weight1_custom_product_contain_oxygen_bond_distance_aromatic_linkinvent_7_9_3/rearranged_h_0121.sdf

> <i_m_source_file_index>
78

> <r_mmod_Potential_Energy-OPLS-2005>
417.797485351562

> <r_mmod_Stretch_Energy-OPLS-2005>
60.2221641540527

> <r_mmod_Bend_Energy-OPLS-2005>
332.454620361328

> <r_mmod_Torsional_Energy-OPLS-2005>
257.251007080078

> <r_mmod_Improper_Torsional_Energy-OPLS-2005>
19.0283279418945

> <r_mmod_Van_der_Waal_Energy-OPLS-2005>
180.047714233398

> <r_mmod_Electrostatic_Energy-OPLS-2005>
-255.746780395508

> <r_mmod_Solvation_Energy-OPLS-2005>
-207.859008789062

> <b_mmod_Minimization_Converged-OPLS-2005>
0

> <r_mmod_RMS_Derivative-OPLS-2005>
5.33624315261841

$$$$
78
                    3D
 Structure written by MMmdl.
166174  0  0  1  0            999 V2000
  -30.6511  -14.5146   20.4784 C   0  0  0  0  0  0
  -30.4208  -12.3119   19.4312 C   0  0  0  0  0  0
  -29.4928  -12.4731   18.2073 C   0  0  0  0  0  0
  -28.0125  -12.3366   18.6203 C   0  0  0  0  0  0
  -27.6473  -13.2023   19.8565 C   0  0  2  0  0  0
  -28.6913  -13.0118   20.9788 C   0  0  0  0  0  0
  -25.2543  -13.8171   20.5708 C   0  0  0  0  0  0
  -24.1783  -13.0429   20.9175 C   0  0  0  0  0  0
  -24.6337  -11.6904   20.8719 C   0  0  0  0  0  0
  -23.9008  -10.4294   21.0397 C   0  0  0  0  0  0
  -24.3575   -9.4213   21.9177 C   0  0  0  0  0  0
  -23.6265   -8.2242   22.0746 C   0  0  0  0  0  0
  -22.4248   -8.0261   21.3542 C   0  0  0  0  0  0
  -21.9869   -9.0225   20.4642 C   0  0  0  0  0  0
  -22.7183  -10.2120   20.3046 C   0  0  0  0  0  0
  -21.6843   -6.0703   22.5274 C   0  0  0  0  0  0
  -21.4017   -6.5621   23.8199 C   0  0  0  0  0  0
  -21.3657   -5.6779   24.9161 C   0  0  0  0  0  0
  -21.6033   -4.3037   24.7220 C   0  0  0  0  0  0
  -21.8829   -3.8130   23.4344 C   0  0  0  0  0  0
  -21.9198   -4.6938   22.3394 C   0  0  0  0  0  0
  -22.7807  -13.5218   21.1839 C   0  0  0  0  0  0
  -22.1661   -4.2117   21.0968 F   0  0  0  0  0  0
  -21.5621   -3.4520   25.7732 F   0  0  0  0  0  0
  -30.0099  -13.3209   20.4177 N   0  0  0  0  0  0
  -26.2938  -12.9325   20.3287 N   0  0  0  0  0  0
  -25.9260  -11.6490   20.5741 N   0  0  0  0  0  0
  -22.0464  -12.8221   22.0433 N   0  0  0  0  0  0
  -25.4272  -15.1894   20.4201 N   0  0  0  0  0  0
  -31.8551  -14.6330   20.2457 O   0  0  0  0  0  0
  -21.6632   -6.8843   21.4238 O   0  0  0  0  0  0
  -22.3482  -14.5501   20.6663 O   0  0  0  0  0  0
  -24.6090  -31.8677   23.2118 C   0  0  0  0  0  0
  -25.8995  -32.4849   23.8400 C   0  0  1  0  0  0
  -27.2216  -27.4312   20.1188 C   0  0  0  0  0  0
  -25.5864  -33.8644   24.2331 N   0  0  0  0  0  0
  -23.4002  -30.4894   21.5497 C   0  0  2  0  0  0
  -24.8512  -28.9621   20.1058 C   0  0  0  0  0  0
  -22.7399  -29.4626   22.4964 C   0  0  0  0  0  0
  -18.0287  -28.1338   22.8463 C   0  0  0  0  0  0
  -24.1477  -36.7326   23.2644 C   0  0  0  0  0  0
  -25.9270  -30.8377   21.3622 C   0  0  0  0  0  0
  -26.0071  -29.4708   20.7132 C   0  0  0  0  0  0
  -27.2004  -28.7114   20.7192 C   0  0  0  0  0  0
  -26.0589  -26.9424   19.4907 C   0  0  0  0  0  0
  -24.8724  -27.6997   19.4867 C   0  0  0  0  0  0
  -23.6101  -29.8244   20.1621 C   0  0  0  0  0  0
  -25.4112  -36.3138   24.0340 C   0  0  1  0  0  0
  -20.5849  -28.3632   23.1306 C   0  0  2  0  0  0
  -20.6764  -26.9363   22.5414 C   0  0  0  0  0  0
  -19.5795  -26.6326   21.5158 C   0  0  0  0  0  0
  -18.1967  -26.7891   22.1560 C   0  0  0  0  0  0
  -19.1522  -28.8816   23.2875 C   0  0  0  0  0  0
  -18.9474  -30.1421   23.8881 C   0  0  0  0  0  0
  -17.6479  -30.6560   24.0552 C   0  0  0  0  0  0
  -25.9026  -34.9497   23.5147 C   0  0  0  0  0  0
  -16.5370  -29.9056   23.6337 C   0  0  0  0  0  0
  -16.7278  -28.6470   23.0337 C   0  0  0  0  0  0
  -26.4432  -31.6611   25.0717 C   0  0  0  0  0  0
  -25.3705  -31.3700   26.1470 C   0  0  0  0  0  0
  -27.0268  -30.3069   24.6062 C   0  0  0  0  0  0
  -27.6003  -32.4329   25.7485 C   0  0  0  0  0  0
  -27.5581  -37.1833   24.8474 C   0  0  0  0  0  0
  -21.4121  -29.3018   22.3727 N   0  0  0  0  0  0
  -26.4304  -37.3819   23.9407 N   0  0  0  0  0  0
  -24.6637  -31.0793   22.1005 N   0  0  0  0  0  0
  -23.4166  -28.8121   23.2981 O   0  0  0  0  0  0
  -28.3369  -26.6308   20.1867 O   0  0  0  0  0  0
  -26.5584  -34.8942   22.4708 O   0  0  0  0  0  0
  -23.5304  -32.1378   23.7550 O   0  0  0  0  0  0
  -27.8847  -17.0814   22.9692 C   0  0  0  0  0  0
  -28.7716  -16.2301   22.2883 C   0  0  0  0  0  0
  -27.6839  -18.5184   20.9952 C   0  0  0  0  0  0
  -27.3161  -18.2021   22.3275 C   0  0  0  0  0  0
  -28.5127  -17.6050   20.2757 C   0  0  0  0  0  0
  -29.0606  -16.4550   20.9246 C   0  0  0  0  0  0
  -27.0829  -19.6922   20.3156 C   0  0  0  0  0  0
  -27.4427  -20.9942   20.3963 C   0  0  0  0  0  0
  -26.2837  -19.0292   23.0822 C   0  0  0  0  0  0
  -30.0922  -18.6561   18.5592 C   0  0  0  0  0  0
  -28.7996  -17.8611   18.7878 C   0  0  0  0  0  0
  -28.5665  -21.6041   21.2214 C   0  0  0  0  0  0
  -28.2824  -23.0476   21.7293 C   0  0  0  0  0  0
  -28.3412  -24.1619   20.6443 C   0  0  0  0  0  0
  -28.2329  -25.6065   21.2002 C   0  0  0  0  0  0
  -29.8797  -15.5721   20.1540 N   0  0  0  0  0  0
  -31.4651  -12.4158   19.1271 H   0  0  0  0  0  0
  -30.3314  -11.3107   19.8547 H   0  0  0  0  0  0
  -29.7394  -11.7268   17.4494 H   0  0  0  0  0  0
  -29.6576  -13.4457   17.7405 H   0  0  0  0  0  0
  -27.8312  -11.2857   18.8467 H   0  0  0  0  0  0
  -27.3607  -12.5826   17.7809 H   0  0  0  0  0  0
  -27.6726  -14.2408   19.5313 H   0  0  0  0  0  0
  -28.6851  -11.9833   21.3396 H   0  0  0  0  0  0
  -28.4552  -13.6247   21.8423 H   0  0  0  0  0  0
  -25.2723   -9.5681   22.4742 H   0  0  0  0  0  0
  -23.9961   -7.4632   22.7461 H   0  0  0  0  0  0
  -21.0799   -8.8734   19.8950 H   0  0  0  0  0  0
  -22.3633  -10.9642   19.6142 H   0  0  0  0  0  0
  -21.2029   -7.6135   23.9686 H   0  0  0  0  0  0
  -21.1458   -6.0511   25.9049 H   0  0  0  0  0  0
  -22.0620   -2.7591   23.2853 H   0  0  0  0  0  0
  -22.4083  -11.9909   22.4874 H   0  0  0  0  0  0
  -21.1047  -13.1209   22.2563 H   0  0  0  0  0  0
  -24.6779  -15.8488   20.5904 H   0  0  0  0  0  0
  -26.3126  -15.6403   20.2273 H   0  0  0  0  0  0
  -26.7059  -32.5562   23.1166 H   0  0  0  0  0  0
  -25.0055  -33.9817   25.0497 H   0  0  0  0  0  0
  -22.6856  -31.3033   21.4150 H   0  0  0  0  0  0
  -23.3739  -35.9658   23.3344 H   0  0  0  0  0  0
  -24.3562  -36.8904   22.2050 H   0  0  0  0  0  0
  -23.7220  -37.6541   23.6633 H   0  0  0  0  0  0
  -26.0284  -31.6015   20.5888 H   0  0  0  0  0  0
  -26.8179  -30.8996   21.9754 H   0  0  0  0  0  0
  -28.0882  -29.0873   21.2088 H   0  0  0  0  0  0
  -26.0672  -25.9667   19.0247 H   0  0  0  0  0  0
  -23.9861  -27.3104   19.0062 H   0  0  0  0  0  0
  -23.7097  -30.6011   19.4054 H   0  0  0  0  0  0
  -22.7344  -29.2412   19.8721 H   0  0  0  0  0  0
  -25.1287  -36.2020   25.0832 H   0  0  0  0  0  0
  -20.9896  -28.3176   24.1451 H   0  0  0  0  0  0
  -20.5627  -26.2204   23.3577 H   0  0  0  0  0  0
  -21.6659  -26.7441   22.1253 H   0  0  0  0  0  0
  -19.6976  -25.6213   21.1256 H   0  0  0  0  0  0
  -19.6779  -27.3086   20.6649 H   0  0  0  0  0  0
  -17.4267  -26.6664   21.3937 H   0  0  0  0  0  0
  -18.0336  -26.0023   22.8923 H   0  0  0  0  0  0
  -19.7958  -30.7247   24.2192 H   0  0  0  0  0  0
  -17.5078  -31.6260   24.5122 H   0  0  0  0  0  0
  -15.5372  -30.2971   23.7698 H   0  0  0  0  0  0
  -15.8664  -28.0794   22.7050 H   0  0  0  0  0  0
  -24.5871  -30.7066   25.7804 H   0  0  0  0  0  0
  -24.8896  -32.2845   26.4948 H   0  0  0  0  0  0
  -25.8050  -30.8842   27.0207 H   0  0  0  0  0  0
  -26.2812  -29.6855   24.1102 H   0  0  0  0  0  0
  -27.4041  -29.7295   25.4504 H   0  0  0  0  0  0
  -27.8631  -30.4426   23.9204 H   0  0  0  0  0  0
  -27.2608  -33.3614   26.2088 H   0  0  0  0  0  0
  -28.3787  -32.6908   25.0294 H   0  0  0  0  0  0
  -28.0673  -31.8428   26.5378 H   0  0  0  0  0  0
  -28.2628  -38.0102   24.7513 H   0  0  0  0  0  0
  -28.1038  -36.2641   24.6311 H   0  0  0  0  0  0
  -27.2300  -37.1508   25.8876 H   0  0  0  0  0  0
  -20.9241  -29.8844   21.7042 H   0  0  0  0  0  0
  -26.0197  -38.2904   24.1381 H   0  0  0  0  0  0
  -27.6254  -16.8582   23.9960 H   0  0  0  0  0  0
  -29.1963  -15.3932   22.8246 H   0  0  0  0  0  0
  -26.2464  -19.4565   19.6699 H   0  0  0  0  0  0
  -26.8805  -21.6989   19.7971 H   0  0  0  0  0  0
  -26.7152  -19.9637   23.4375 H   0  0  0  0  0  0
  -25.9071  -18.4857   23.9513 H   0  0  0  0  0  0
  -25.4230  -19.2593   22.4514 H   0  0  0  0  0  0
  -30.2288  -18.8790   17.4993 H   0  0  0  0  0  0
  -30.9682  -18.0999   18.8984 H   0  0  0  0  0  0
  -30.0717  -19.6059   19.0973 H   0  0  0  0  0  0
  -27.9716  -18.3921   18.3166 H   0  0  0  0  0  0
  -28.8419  -16.9193   18.2389 H   0  0  0  0  0  0
  -29.4815  -21.6014   20.6281 H   0  0  0  0  0  0
  -28.7567  -20.9430   22.0670 H   0  0  0  0  0  0
  -29.0243  -23.2810   22.4975 H   0  0  0  0  0  0
  -27.3220  -23.0743   22.2479 H   0  0  0  0  0  0
  -29.2779  -24.0755   20.0935 H   0  0  0  0  0  0
  -27.5426  -23.9955   19.9216 H   0  0  0  0  0  0
  -29.0296  -25.7804   21.9260 H   0  0  0  0  0  0
  -27.3059  -25.6965   21.7737 H   0  0  0  0  0  0
  -30.2881  -16.0544   19.3682 H   0  0  0  0  0  0
  1 25  1  0  0  0
  1 30  2  0  0  0
  1 86  1  0  0  0
  2  3  1  0  0  0
  2 25  1  0  0  0
  2 87  1  0  0  0
  2 88  1  0  0  0
  3  4  1  0  0  0
  3 89  1  0  0  0
  3 90  1  0  0  0
  4  5  1  0  0  0
  4 91  1  0  0  0
  4 92  1  0  0  0
  5  6  1  0  0  0
  5 26  1  0  0  0
  5 93  1  0  0  0
  6 25  1  0  0  0
  6 94  1  0  0  0
  6 95  1  0  0  0
  7  8  2  0  0  0
  7 26  1  0  0  0
  7 29  1  0  0  0
  8  9  1  0  0  0
  8 22  1  0  0  0
  9 10  1  0  0  0
  9 27  2  0  0  0
 10 11  2  0  0  0
 10 15  1  0  0  0
 11 12  1  0  0  0
 11 96  1  0  0  0
 12 13  2  0  0  0
 12 97  1  0  0  0
 13 14  1  0  0  0
 13 31  1  0  0  0
 14 15  2  0  0  0
 14 98  1  0  0  0
 15 99  1  0  0  0
 16 17  2  0  0  0
 16 21  1  0  0  0
 16 31  1  0  0  0
 17 18  1  0  0  0
 17100  1  0  0  0
 18 19  2  0  0  0
 18101  1  0  0  0
 19 20  1  0  0  0
 19 24  1  0  0  0
 20 21  2  0  0  0
 20102  1  0  0  0
 21 23  1  0  0  0
 22 28  1  0  0  0
 22 32  2  0  0  0
 26 27  1  0  0  0
 28103  1  0  0  0
 28104  1  0  0  0
 29105  1  0  0  0
 29106  1  0  0  0
 33 34  1  0  0  0
 33 66  1  0  0  0
 33 70  2  0  0  0
 34 36  1  0  0  0
 34 59  1  0  0  0
 34107  1  0  0  0
 35 44  2  0  0  0
 35 45  1  0  0  0
 35 68  1  0  0  0
 36 56  1  0  0  0
 36108  1  0  0  0
 37 39  1  0  0  0
 37 47  1  0  0  0
 37 66  1  0  0  0
 37109  1  0  0  0
 38 43  2  0  0  0
 38 46  1  0  0  0
 38 47  1  0  0  0
 39 64  1  0  0  0
 39 67  2  0  0  0
 40 52  1  0  0  0
 40 53  2  0  0  0
 40 58  1  0  0  0
 41110  1  0  0  0
 41111  1  0  0  0
 41112  1  0  0  0
 41 48  1  0  0  0
 42 43  1  0  0  0
 42 66  1  0  0  0
 42113  1  0  0  0
 42114  1  0  0  0
 43 44  1  0  0  0
 44115  1  0  0  0
 45 46  2  0  0  0
 45116  1  0  0  0
 46117  1  0  0  0
 47118  1  0  0  0
 47119  1  0  0  0
 48 56  1  0  0  0
 48 65  1  0  0  0
 48120  1  0  0  0
 49 50  1  0  0  0
 49 53  1  0  0  0
 49 64  1  0  0  0
 49121  1  0  0  0
 50 51  1  0  0  0
 50122  1  0  0  0
 50123  1  0  0  0
 51 52  1  0  0  0
 51124  1  0  0  0
 51125  1  0  0  0
 52126  1  0  0  0
 52127  1  0  0  0
 53 54  1  0  0  0
 54 55  2  0  0  0
 54128  1  0  0  0
 55 57  1  0  0  0
 55129  1  0  0  0
 56 69  2  0  0  0
 57 58  2  0  0  0
 57130  1  0  0  0
 58131  1  0  0  0
 59 60  1  0  0  0
 59 61  1  0  0  0
 59 62  1  0  0  0
 60132  1  0  0  0
 60133  1  0  0  0
 60134  1  0  0  0
 61135  1  0  0  0
 61136  1  0  0  0
 61137  1  0  0  0
 62138  1  0  0  0
 62139  1  0  0  0
 62140  1  0  0  0
 63 65  1  0  0  0
 63141  1  0  0  0
 63142  1  0  0  0
 63143  1  0  0  0
 64144  1  0  0  0
 65145  1  0  0  0
 68 85  1  0  0  0
 71 72  2  0  0  0
 71 74  1  0  0  0
 71146  1  0  0  0
 72 76  1  0  0  0
 72147  1  0  0  0
 73 74  2  0  0  0
 73 75  1  0  0  0
 73 77  1  0  0  0
 74 79  1  0  0  0
 75 76  2  0  0  0
 75 81  1  0  0  0
 76 86  1  0  0  0
 77 78  2  0  0  0
 77148  1  0  0  0
 78 82  1  0  0  0
 78149  1  0  0  0
 79150  1  0  0  0
 79151  1  0  0  0
 79152  1  0  0  0
 80 81  1  0  0  0
 80153  1  0  0  0
 80154  1  0  0  0
 80155  1  0  0  0
 81156  1  0  0  0
 81157  1  0  0  0
 82 83  1  0  0  0
 82158  1  0  0  0
 82159  1  0  0  0
 83 84  1  0  0  0
 83160  1  0  0  0
 83161  1  0  0  0
 84 85  1  0  0  0
 84162  1  0  0  0
 84163  1  0  0  0
 85164  1  0  0  0
 85165  1  0  0  0
 86166  1  0  0  0
M  ISO  4   1 100  68 101  85 101  86 100
M  END
> <chiral flag>
0

> <version>
0

> <s_m_source_file>
/data/baiqing/PycharmProjects/Reinvent-master-3.2/result/LINK_invent/BTK/process_docking_weight1_custom_product_contain_oxygen_bond_distance_aromatic_linkinvent_7_9_3/rearranged_h_0121.sdf

> <i_m_source_file_index>
79

> <r_mmod_Potential_Energy-OPLS-2005>
90.8541107177734

> <r_mmod_Stretch_Energy-OPLS-2005>
40.6737861633301

> <r_mmod_Bend_Energy-OPLS-2005>
113.620994567871

> <r_mmod_Torsional_Energy-OPLS-2005>
320.850341796875

> <r_mmod_Improper_Torsional_Energy-OPLS-2005>
25.7517929077148

> <r_mmod_Van_der_Waal_Energy-OPLS-2005>
134.672454833984

> <r_mmod_Electrostatic_Energy-OPLS-2005>
-391.935607910156

> <r_mmod_Solvation_Energy-OPLS-2005>
-179.231262207031

> <b_mmod_Minimization_Converged-OPLS-2005>
0

> <r_mmod_RMS_Derivative-OPLS-2005>
4.48410224914551

$$$$
79
                    3D
 Structure written by MMmdl.
153161  0  0  1  0            999 V2000
  -30.6317  -14.6114   20.6154 C   0  0  0  0  0  0
  -30.4380  -12.4263   19.4439 C   0  0  0  0  0  0
  -29.5041  -12.5462   18.2214 C   0  0  0  0  0  0
  -28.0239  -12.3788   18.6154 C   0  0  0  0  0  0
  -27.6483  -13.2213   19.8614 C   0  0  2  0  0  0
  -28.6770  -13.0276   20.9954 C   0  0  0  0  0  0
  -25.2535  -13.8202   20.5675 C   0  0  0  0  0  0
  -24.1794  -13.0452   20.9133 C   0  0  0  0  0  0
  -24.6343  -11.6935   20.8653 C   0  0  0  0  0  0
  -23.9023  -10.4333   21.0327 C   0  0  0  0  0  0
  -24.3594   -9.4245   21.9091 C   0  0  0  0  0  0
  -23.6339   -8.2246   22.0674 C   0  0  0  0  0  0
  -22.4300   -8.0265   21.3505 C   0  0  0  0  0  0
  -21.9922   -9.0222   20.4591 C   0  0  0  0  0  0
  -22.7180  -10.2127   20.2997 C   0  0  0  0  0  0
  -21.6859   -6.0753   22.5267 C   0  0  0  0  0  0
  -21.4035   -6.5626   23.8220 C   0  0  0  0  0  0
  -21.3687   -5.6767   24.9183 C   0  0  0  0  0  0
  -21.6058   -4.3037   24.7214 C   0  0  0  0  0  0
  -21.8821   -3.8149   23.4330 C   0  0  0  0  0  0
  -21.9202   -4.6985   22.3391 C   0  0  0  0  0  0
  -22.7795  -13.5261   21.1796 C   0  0  0  0  0  0
  -22.1661   -4.2168   21.0960 F   0  0  0  0  0  0
  -21.5630   -3.4493   25.7726 F   0  0  0  0  0  0
  -29.9987  -13.4022   20.4654 N   0  0  0  0  0  0
  -26.2930  -12.9399   20.3219 N   0  0  0  0  0  0
  -25.9252  -11.6560   20.5600 N   0  0  0  0  0  0
  -22.0456  -12.8316   22.0421 N   0  0  0  0  0  0
  -25.4258  -15.1911   20.4208 N   0  0  0  0  0  0
  -31.7266  -14.8073   20.0745 O   0  0  0  0  0  0
  -21.6671   -6.8845   21.4215 O   0  0  0  0  0  0
  -22.3478  -14.5571   20.6602 O   0  0  0  0  0  0
  -24.6231  -31.8639   23.2031 C   0  0  0  0  0  0
  -25.9105  -32.4764   23.8375 C   0  0  1  0  0  0
  -27.2123  -27.3653   20.1197 C   0  0  0  0  0  0
  -25.5924  -33.8551   24.2303 N   0  0  0  0  0  0
  -23.4086  -30.4987   21.5385 C   0  0  2  0  0  0
  -24.8564  -28.9626   20.0991 C   0  0  0  0  0  0
  -22.7396  -29.4699   22.4821 C   0  0  0  0  0  0
  -18.0288  -28.1361   22.8453 C   0  0  0  0  0  0
  -24.1486  -36.7331   23.2626 C   0  0  0  0  0  0
  -25.9455  -30.8174   21.3632 C   0  0  0  0  0  0
  -26.0210  -29.4502   20.7034 C   0  0  0  0  0  0
  -27.2036  -28.6607   20.7069 C   0  0  0  0  0  0
  -26.0339  -26.9278   19.4739 C   0  0  0  0  0  0
  -24.8623  -27.7062   19.4748 C   0  0  0  0  0  0
  -23.6231  -29.8398   20.1498 C   0  0  0  0  0  0
  -25.4076  -36.3049   24.0337 C   0  0  1  0  0  0
  -20.5877  -28.3685   23.1218 C   0  0  2  0  0  0
  -20.6755  -26.9395   22.5342 C   0  0  0  0  0  0
  -19.5754  -26.6356   21.5127 C   0  0  0  0  0  0
  -18.1946  -26.7914   22.1569 C   0  0  0  0  0  0
  -19.1536  -28.8818   23.2873 C   0  0  0  0  0  0
  -18.9470  -30.1406   23.8906 C   0  0  0  0  0  0
  -17.6480  -30.6559   24.0538 C   0  0  0  0  0  0
  -25.9019  -34.9438   23.5109 C   0  0  0  0  0  0
  -16.5366  -29.9060   23.6291 C   0  0  0  0  0  0
  -16.7280  -28.6478   23.0310 C   0  0  0  0  0  0
  -26.4535  -31.6555   25.0733 C   0  0  0  0  0  0
  -25.3823  -31.3679   26.1508 C   0  0  0  0  0  0
  -27.0351  -30.2967   24.6142 C   0  0  0  0  0  0
  -27.6078  -32.4275   25.7533 C   0  0  0  0  0  0
  -27.5574  -37.1778   24.8425 C   0  0  0  0  0  0
  -21.4113  -29.3095   22.3598 N   0  0  0  0  0  0
  -26.4230  -37.3764   23.9452 N   0  0  0  0  0  0
  -24.6772  -31.0739   22.0928 N   0  0  0  0  0  0
  -23.4168  -28.8197   23.2841 O   0  0  0  0  0  0
  -28.3333  -26.5428   20.2041 O   0  0  0  0  0  0
  -26.5543  -34.8913   22.4635 O   0  0  0  0  0  0
  -23.5423  -32.1359   23.7422 O   0  0  0  0  0  0
  -28.8112  -19.7351   23.3176 C   0  0  0  0  0  0
  -29.0193  -18.3312   23.1337 C   0  0  0  0  0  0
  -29.1481  -20.3933   22.1702 C   0  0  0  0  0  0
  -29.5096  -18.1811   21.8557 C   0  0  0  0  0  0
  -29.1477  -21.8433   21.9149 C   0  0  0  0  0  0
  -29.9999  -17.0047   21.1185 C   0  0  0  0  0  0
  -29.9564  -15.6684   21.4186 C   0  0  0  0  0  0
  -29.0330  -22.6759   20.8427 C   0  0  0  0  0  0
  -28.7881  -17.2738   24.1818 C   0  0  0  0  0  0
  -29.1830  -24.2315   20.8970 C   0  0  0  0  0  0
  -28.1258  -25.0945   20.1295 C   0  0  0  0  0  0
  -29.5432  -19.4398   21.2444 O   0  0  0  0  0  0
  -31.4667  -12.6029   19.1272 H   0  0  0  0  0  0
  -30.4305  -11.4129   19.8491 H   0  0  0  0  0  0
  -29.7811  -11.8033   17.4728 H   0  0  0  0  0  0
  -29.6328  -13.5236   17.7490 H   0  0  0  0  0  0
  -27.8473  -11.3202   18.8087 H   0  0  0  0  0  0
  -27.3875  -12.6446   17.7690 H   0  0  0  0  0  0
  -27.6899  -14.2676   19.5496 H   0  0  0  0  0  0
  -28.6889  -11.9898   21.3386 H   0  0  0  0  0  0
  -28.3834  -13.6036   21.8716 H   0  0  0  0  0  0
  -25.2729   -9.5813   22.4621 H   0  0  0  0  0  0
  -24.0079   -7.4708   22.7420 H   0  0  0  0  0  0
  -21.0823   -8.8717   19.8957 H   0  0  0  0  0  0
  -22.3559  -10.9648   19.6118 H   0  0  0  0  0  0
  -21.2016   -7.6136   23.9738 H   0  0  0  0  0  0
  -21.1482   -6.0479   25.9078 H   0  0  0  0  0  0
  -22.0575   -2.7611   23.2801 H   0  0  0  0  0  0
  -22.4129  -12.0135   22.5039 H   0  0  0  0  0  0
  -21.1001  -13.1252   22.2462 H   0  0  0  0  0  0
  -24.6646  -15.8502   20.5499 H   0  0  0  0  0  0
  -26.2909  -15.6297   20.1343 H   0  0  0  0  0  0
  -26.7164  -32.5494   23.1153 H   0  0  0  0  0  0
  -25.0126  -33.9648   25.0474 H   0  0  0  0  0  0
  -22.7066  -31.3223   21.3981 H   0  0  0  0  0  0
  -23.3719  -35.9682   23.3188 H   0  0  0  0  0  0
  -24.3638  -36.9040   22.2060 H   0  0  0  0  0  0
  -23.7270  -37.6518   23.6718 H   0  0  0  0  0  0
  -26.0605  -31.5915   20.6019 H   0  0  0  0  0  0
  -26.8309  -30.8701   21.9819 H   0  0  0  0  0  0
  -28.0936  -29.0249   21.1989 H   0  0  0  0  0  0
  -25.9932  -25.9734   18.9688 H   0  0  0  0  0  0
  -23.9743  -27.3305   18.9885 H   0  0  0  0  0  0
  -23.7302  -30.6199   19.3936 H   0  0  0  0  0  0
  -22.7467  -29.2675   19.8452 H   0  0  0  0  0  0
  -25.1242  -36.1877   25.0824 H   0  0  0  0  0  0
  -21.0051  -28.3292   24.1306 H   0  0  0  0  0  0
  -20.5529  -26.2319   23.3553 H   0  0  0  0  0  0
  -21.6653  -26.7332   22.1234 H   0  0  0  0  0  0
  -19.6902  -25.6246   21.1188 H   0  0  0  0  0  0
  -19.6709  -27.3119   20.6626 H   0  0  0  0  0  0
  -17.4180  -26.6584   21.4009 H   0  0  0  0  0  0
  -18.0432  -26.0052   22.8979 H   0  0  0  0  0  0
  -19.7951  -30.7182   24.2314 H   0  0  0  0  0  0
  -17.5042  -31.6249   24.5131 H   0  0  0  0  0  0
  -15.5369  -30.2974   23.7586 H   0  0  0  0  0  0
  -15.8685  -28.0798   22.7016 H   0  0  0  0  0  0
  -24.5997  -30.6997   25.7938 H   0  0  0  0  0  0
  -24.9028  -32.2825   26.4993 H   0  0  0  0  0  0
  -25.8237  -30.8883   27.0250 H   0  0  0  0  0  0
  -26.2882  -29.6715   24.1228 H   0  0  0  0  0  0
  -27.4110  -29.7258   25.4653 H   0  0  0  0  0  0
  -27.8763  -30.4250   23.9312 H   0  0  0  0  0  0
  -27.2673  -33.3560   26.2142 H   0  0  0  0  0  0
  -28.3936  -32.6830   25.0411 H   0  0  0  0  0  0
  -28.0716  -31.8368   26.5446 H   0  0  0  0  0  0
  -28.2463  -38.0192   24.7566 H   0  0  0  0  0  0
  -28.1181  -36.2712   24.6081 H   0  0  0  0  0  0
  -27.2332  -37.1252   25.8830 H   0  0  0  0  0  0
  -20.9171  -29.8979   21.7015 H   0  0  0  0  0  0
  -26.0100  -38.2815   24.1508 H   0  0  0  0  0  0
  -28.4766  -20.2126   24.2312 H   0  0  0  0  0  0
  -29.3169  -22.3793   22.8375 H   0  0  0  0  0  0
  -30.5029  -17.2689   20.1978 H   0  0  0  0  0  0
  -29.4408  -15.3733   22.3174 H   0  0  0  0  0  0
  -28.8515  -22.2438   19.8681 H   0  0  0  0  0  0
  -28.7401  -17.7060   25.1835 H   0  0  0  0  0  0
  -29.6069  -16.5546   24.1862 H   0  0  0  0  0  0
  -27.8519  -16.7473   23.9884 H   0  0  0  0  0  0
  -30.1644  -24.4807   20.4880 H   0  0  0  0  0  0
  -29.1989  -24.5513   21.9429 H   0  0  0  0  0  0
  -27.1463  -24.8111   20.5230 H   0  0  0  0  0  0
  -28.1349  -24.8072   19.0781 H   0  0  0  0  0  0
  1 25  1  0  0  0
  1 30  2  0  0  0
  1 77  1  0  0  0
  2  3  1  0  0  0
  2 25  1  0  0  0
  2 83  1  0  0  0
  2 84  1  0  0  0
  3  4  1  0  0  0
  3 85  1  0  0  0
  3 86  1  0  0  0
  4  5  1  0  0  0
  4 87  1  0  0  0
  4 88  1  0  0  0
  5  6  1  0  0  0
  5 26  1  0  0  0
  5 89  1  0  0  0
  6 25  1  0  0  0
  6 90  1  0  0  0
  6 91  1  0  0  0
  7  8  2  0  0  0
  7 26  1  0  0  0
  7 29  1  0  0  0
  8  9  1  0  0  0
  8 22  1  0  0  0
  9 10  1  0  0  0
  9 27  2  0  0  0
 10 11  2  0  0  0
 10 15  1  0  0  0
 11 12  1  0  0  0
 11 92  1  0  0  0
 12 13  2  0  0  0
 12 93  1  0  0  0
 13 14  1  0  0  0
 13 31  1  0  0  0
 14 15  2  0  0  0
 14 94  1  0  0  0
 15 95  1  0  0  0
 16 17  2  0  0  0
 16 21  1  0  0  0
 16 31  1  0  0  0
 17 18  1  0  0  0
 17 96  1  0  0  0
 18 19  2  0  0  0
 18 97  1  0  0  0
 19 20  1  0  0  0
 19 24  1  0  0  0
 20 21  2  0  0  0
 20 98  1  0  0  0
 21 23  1  0  0  0
 22 28  1  0  0  0
 22 32  2  0  0  0
 26 27  1  0  0  0
 28 99  1  0  0  0
 28100  1  0  0  0
 29101  1  0  0  0
 29102  1  0  0  0
 33 34  1  0  0  0
 33 66  1  0  0  0
 33 70  2  0  0  0
 34 36  1  0  0  0
 34 59  1  0  0  0
 34103  1  0  0  0
 35 44  2  0  0  0
 35 45  1  0  0  0
 35 68  1  0  0  0
 36 56  1  0  0  0
 36104  1  0  0  0
 37 39  1  0  0  0
 37 47  1  0  0  0
 37 66  1  0  0  0
 37105  1  0  0  0
 38 43  2  0  0  0
 38 46  1  0  0  0
 38 47  1  0  0  0
 39 64  1  0  0  0
 39 67  2  0  0  0
 40 52  1  0  0  0
 40 53  2  0  0  0
 40 58  1  0  0  0
 41106  1  0  0  0
 41107  1  0  0  0
 41108  1  0  0  0
 41 48  1  0  0  0
 42 43  1  0  0  0
 42 66  1  0  0  0
 42109  1  0  0  0
 42110  1  0  0  0
 43 44  1  0  0  0
 44111  1  0  0  0
 45 46  2  0  0  0
 45112  1  0  0  0
 46113  1  0  0  0
 47114  1  0  0  0
 47115  1  0  0  0
 48 56  1  0  0  0
 48 65  1  0  0  0
 48116  1  0  0  0
 49 50  1  0  0  0
 49 53  1  0  0  0
 49 64  1  0  0  0
 49117  1  0  0  0
 50 51  1  0  0  0
 50118  1  0  0  0
 50119  1  0  0  0
 51 52  1  0  0  0
 51120  1  0  0  0
 51121  1  0  0  0
 52122  1  0  0  0
 52123  1  0  0  0
 53 54  1  0  0  0
 54 55  2  0  0  0
 54124  1  0  0  0
 55 57  1  0  0  0
 55125  1  0  0  0
 56 69  2  0  0  0
 57 58  2  0  0  0
 57126  1  0  0  0
 58127  1  0  0  0
 59 60  1  0  0  0
 59 61  1  0  0  0
 59 62  1  0  0  0
 60128  1  0  0  0
 60129  1  0  0  0
 60130  1  0  0  0
 61131  1  0  0  0
 61132  1  0  0  0
 61133  1  0  0  0
 62134  1  0  0  0
 62135  1  0  0  0
 62136  1  0  0  0
 63 65  1  0  0  0
 63137  1  0  0  0
 63138  1  0  0  0
 63139  1  0  0  0
 64140  1  0  0  0
 65141  1  0  0  0
 68 81  1  0  0  0
 71 72  1  0  0  0
 71 73  2  0  0  0
 71142  1  0  0  0
 72 74  2  0  0  0
 72 79  1  0  0  0
 73 75  1  0  0  0
 73 82  1  0  0  0
 74 76  1  0  0  0
 74 82  1  0  0  0
 75 78  2  0  0  0
 75143  1  0  0  0
 76 77  2  0  0  0
 76144  1  0  0  0
 77145  1  0  0  0
 78 80  1  0  0  0
 78146  1  0  0  0
 79147  1  0  0  0
 79148  1  0  0  0
 79149  1  0  0  0
 80 81  1  0  0  0
 80150  1  0  0  0
 80151  1  0  0  0
 81152  1  0  0  0
 81153  1  0  0  0
M  ISO  4   1 100  68 101  77 100  81 101
M  END
> <chiral flag>
0

> <version>
0

> <s_m_source_file>
/data/baiqing/PycharmProjects/Reinvent-master-3.2/result/LINK_invent/BTK/process_docking_weight1_custom_product_contain_oxygen_bond_distance_aromatic_linkinvent_7_9_3/rearranged_h_0121.sdf

> <i_m_source_file_index>
80

> <r_mmod_Potential_Energy-OPLS-2005>
4.92399740219116

> <r_mmod_Stretch_Energy-OPLS-2005>
62.1364936828613

> <r_mmod_Bend_Energy-OPLS-2005>
125.907081604004

> <r_mmod_Torsional_Energy-OPLS-2005>
186.412139892578

> <r_mmod_Improper_Torsional_Energy-OPLS-2005>
2.64130091667175

> <r_mmod_Van_der_Waal_Energy-OPLS-2005>
127.037933349609

> <r_mmod_Electrostatic_Energy-OPLS-2005>
-341.992156982422

> <r_mmod_Solvation_Energy-OPLS-2005>
-195.531311035156

> <b_mmod_Minimization_Converged-OPLS-2005>
0

> <r_mmod_RMS_Derivative-OPLS-2005>
7.51988315582275

$$$$
80
                    3D
 Structure written by MMmdl.
157165  0  0  1  0            999 V2000
  -30.7568  -14.3851   20.5754 C   0  0  0  0  0  0
  -30.4246  -12.2625   19.3873 C   0  0  0  0  0  0
  -29.4862  -12.4890   18.1879 C   0  0  0  0  0  0
  -28.0094  -12.3635   18.6123 C   0  0  0  0  0  0
  -27.6696  -13.1971   19.8762 C   0  0  2  0  0  0
  -28.7207  -12.9595   20.9847 C   0  0  0  0  0  0
  -25.2663  -13.8150   20.5686 C   0  0  0  0  0  0
  -24.1887  -13.0443   20.9182 C   0  0  0  0  0  0
  -24.6413  -11.6898   20.8733 C   0  0  0  0  0  0
  -23.9063  -10.4279   21.0405 C   0  0  0  0  0  0
  -24.3601   -9.4198   21.9192 C   0  0  0  0  0  0
  -23.6276   -8.2238   22.0778 C   0  0  0  0  0  0
  -22.4270   -8.0277   21.3552 C   0  0  0  0  0  0
  -21.9889   -9.0271   20.4667 C   0  0  0  0  0  0
  -22.7223  -10.2142   20.3059 C   0  0  0  0  0  0
  -21.6847   -6.0716   22.5282 C   0  0  0  0  0  0
  -21.3996   -6.5624   23.8210 C   0  0  0  0  0  0
  -21.3665   -5.6798   24.9201 C   0  0  0  0  0  0
  -21.6037   -4.3060   24.7256 C   0  0  0  0  0  0
  -21.8815   -3.8144   23.4383 C   0  0  0  0  0  0
  -21.9174   -4.6941   22.3426 C   0  0  0  0  0  0
  -22.7910  -13.5247   21.1836 C   0  0  0  0  0  0
  -22.1659   -4.2116   21.1021 F   0  0  0  0  0  0
  -21.5631   -3.4548   25.7777 F   0  0  0  0  0  0
  -30.0539  -13.2363   20.4202 N   0  0  0  0  0  0
  -26.3096  -12.9296   20.3429 N   0  0  0  0  0  0
  -25.9352  -11.6463   20.5813 N   0  0  0  0  0  0
  -22.0553  -12.8220   22.0375 N   0  0  0  0  0  0
  -25.4429  -15.1862   20.4035 N   0  0  0  0  0  0
  -31.8887  -14.5735   20.1260 O   0  0  0  0  0  0
  -21.6648   -6.8864   21.4239 O   0  0  0  0  0  0
  -22.3595  -14.5547   20.6697 O   0  0  0  0  0  0
  -24.6136  -31.8702   23.2150 C   0  0  0  0  0  0
  -25.9035  -32.4842   23.8438 C   0  0  1  0  0  0
  -27.2317  -27.4691   20.0725 C   0  0  0  0  0  0
  -25.5883  -33.8646   24.2356 N   0  0  0  0  0  0
  -23.3995  -30.4954   21.5556 C   0  0  2  0  0  0
  -24.8394  -28.9599   20.1200 C   0  0  0  0  0  0
  -22.7376  -29.4709   22.5018 C   0  0  0  0  0  0
  -18.0280  -28.1366   22.8509 C   0  0  0  0  0  0
  -24.1472  -36.7327   23.2642 C   0  0  0  0  0  0
  -25.9246  -30.8433   21.3608 C   0  0  0  0  0  0
  -26.0002  -29.4782   20.7095 C   0  0  0  0  0  0
  -27.2001  -28.7379   20.6892 C   0  0  0  0  0  0
  -26.0591  -26.9574   19.4769 C   0  0  0  0  0  0
  -24.8599  -27.6943   19.5082 C   0  0  0  0  0  0
  -23.6029  -29.8280   20.1694 C   0  0  0  0  0  0
  -25.4098  -36.3125   24.0339 C   0  0  1  0  0  0
  -20.5860  -28.3701   23.1331 C   0  0  2  0  0  0
  -20.6776  -26.9428   22.5468 C   0  0  0  0  0  0
  -19.5782  -26.6416   21.5261 C   0  0  0  0  0  0
  -18.1947  -26.7950   22.1613 C   0  0  0  0  0  0
  -19.1521  -28.8853   23.2921 C   0  0  0  0  0  0
  -18.9395  -30.1461   23.8910 C   0  0  0  0  0  0
  -17.6385  -30.6556   24.0530 C   0  0  0  0  0  0
  -25.9021  -34.9492   23.5143 C   0  0  0  0  0  0
  -16.5301  -29.9020   23.6281 C   0  0  0  0  0  0
  -16.7254  -28.6446   23.0327 C   0  0  0  0  0  0
  -26.4468  -31.6623   25.0756 C   0  0  0  0  0  0
  -25.3760  -31.3710   26.1518 C   0  0  0  0  0  0
  -27.0286  -30.3084   24.6084 C   0  0  0  0  0  0
  -27.6054  -32.4337   25.7513 C   0  0  0  0  0  0
  -27.5574  -37.1822   24.8472 C   0  0  0  0  0  0
  -21.4130  -29.3046   22.3711 N   0  0  0  0  0  0
  -26.4302  -37.3789   23.9395 N   0  0  0  0  0  0
  -24.6647  -31.0823   22.1037 N   0  0  0  0  0  0
  -23.4118  -28.8234   23.3058 O   0  0  0  0  0  0
  -28.4037  -26.7651   19.9880 O   0  0  0  0  0  0
  -26.5583  -34.8945   22.4702 O   0  0  0  0  0  0
  -23.5333  -32.1461   23.7536 O   0  0  0  0  0  0
  -29.5911  -16.5123   18.9034 C   0  0  0  0  0  0
  -29.0907  -17.6273   18.2104 C   0  0  0  0  0  0
  -28.9257  -17.5382   21.0090 C   0  0  0  0  0  0
  -28.4447  -18.6726   20.3231 C   0  0  0  0  0  0
  -29.5236  -16.4674   20.3182 C   0  0  0  0  0  0
  -28.5314  -18.7099   18.9116 C   0  0  0  0  0  0
  -27.9402  -19.7930   21.1306 C   0  0  0  0  0  0
  -27.9347  -21.0979   20.8006 C   0  0  0  0  0  0
  -27.3534  -22.1683   21.7005 C   0  0  0  0  0  0
  -28.2315  -23.4244   21.8353 C   0  0  0  0  0  0
  -27.9144  -24.5013   20.7840 C   0  0  0  0  0  0
  -28.6395  -25.8355   21.0390 C   0  0  0  0  0  0
  -30.0673  -15.4075   21.0892 N   0  0  0  0  0  0
  -28.0591  -19.7668   18.2106 F   0  0  0  0  0  0
  -31.4646  -12.3591   19.0686 H   0  0  0  0  0  0
  -30.3223  -11.2459   19.7737 H   0  0  0  0  0  0
  -29.7117  -11.7688   17.3985 H   0  0  0  0  0  0
  -29.6693  -13.4780   17.7642 H   0  0  0  0  0  0
  -27.8143  -11.3069   18.8055 H   0  0  0  0  0  0
  -27.3549  -12.6485   17.7869 H   0  0  0  0  0  0
  -27.7194  -14.2468   19.5909 H   0  0  0  0  0  0
  -28.6794  -11.9274   21.3363 H   0  0  0  0  0  0
  -28.5023  -13.5730   21.8580 H   0  0  0  0  0  0
  -25.2740   -9.5685   22.4772 H   0  0  0  0  0  0
  -23.9974   -7.4624   22.7499 H   0  0  0  0  0  0
  -21.0816   -8.8807   19.8975 H   0  0  0  0  0  0
  -22.3690  -10.9699   19.6180 H   0  0  0  0  0  0
  -21.1973   -7.6137   23.9698 H   0  0  0  0  0  0
  -21.1501   -6.0554   25.9094 H   0  0  0  0  0  0
  -22.0567   -2.7589   23.2931 H   0  0  0  0  0  0
  -22.4179  -11.9867   22.4717 H   0  0  0  0  0  0
  -21.1195  -13.1273   22.2618 H   0  0  0  0  0  0
  -24.6876  -15.8543   20.5075 H   0  0  0  0  0  0
  -26.3091  -15.6091   20.0940 H   0  0  0  0  0  0
  -26.7131  -32.5543   23.1227 H   0  0  0  0  0  0
  -25.0033  -33.9836   25.0507 H   0  0  0  0  0  0
  -22.6875  -31.3117   21.4182 H   0  0  0  0  0  0
  -23.3724  -35.9668   23.3339 H   0  0  0  0  0  0
  -24.3590  -36.8903   22.2054 H   0  0  0  0  0  0
  -23.7257  -37.6557   23.6635 H   0  0  0  0  0  0
  -26.0338  -31.6091   20.5905 H   0  0  0  0  0  0
  -26.8150  -30.8959   21.9764 H   0  0  0  0  0  0
  -28.1017  -29.1459   21.1254 H   0  0  0  0  0  0
  -26.0716  -25.9964   18.9822 H   0  0  0  0  0  0
  -23.9644  -27.2936   19.0477 H   0  0  0  0  0  0
  -23.7071  -30.6046   19.4101 H   0  0  0  0  0  0
  -22.7239  -29.2463   19.8807 H   0  0  0  0  0  0
  -25.1281  -36.2004   25.0837 H   0  0  0  0  0  0
  -20.9972  -28.3278   24.1454 H   0  0  0  0  0  0
  -20.5683  -26.2308   23.3660 H   0  0  0  0  0  0
  -21.6665  -26.7465   22.1264 H   0  0  0  0  0  0
  -19.6884  -25.6321   21.1309 H   0  0  0  0  0  0
  -19.6790  -27.3238   20.6818 H   0  0  0  0  0  0
  -17.4261  -26.6732   21.3962 H   0  0  0  0  0  0
  -18.0297  -26.0069   22.8947 H   0  0  0  0  0  0
  -19.7821  -30.7330   24.2287 H   0  0  0  0  0  0
  -17.4921  -31.6230   24.5112 H   0  0  0  0  0  0
  -15.5280  -30.2899   23.7547 H   0  0  0  0  0  0
  -15.8697  -28.0710   22.7042 H   0  0  0  0  0  0
  -24.5917  -30.7066   25.7869 H   0  0  0  0  0  0
  -24.8969  -32.2841   26.5034 H   0  0  0  0  0  0
  -25.8134  -30.8847   27.0242 H   0  0  0  0  0  0
  -26.2805  -29.6867   24.1145 H   0  0  0  0  0  0
  -27.4091  -29.7299   25.4509 H   0  0  0  0  0  0
  -27.8615  -30.4444   23.9193 H   0  0  0  0  0  0
  -27.2680  -33.3615   26.2145 H   0  0  0  0  0  0
  -28.3821  -32.6941   25.0312 H   0  0  0  0  0  0
  -28.0758  -31.8441   26.5386 H   0  0  0  0  0  0
  -28.2617  -38.0086   24.7467 H   0  0  0  0  0  0
  -28.1037  -36.2631   24.6347 H   0  0  0  0  0  0
  -27.2296  -37.1521   25.8875 H   0  0  0  0  0  0
  -20.9296  -29.8691   21.6865 H   0  0  0  0  0  0
  -26.0190  -38.2867   24.1383 H   0  0  0  0  0  0
  -30.0429  -15.7157   18.3268 H   0  0  0  0  0  0
  -29.1509  -17.6652   17.1327 H   0  0  0  0  0  0
  -28.8574  -17.5030   22.0856 H   0  0  0  0  0  0
  -27.5156  -19.5070   22.0845 H   0  0  0  0  0  0
  -28.3478  -21.4340   19.8600 H   0  0  0  0  0  0
  -27.2107  -21.7314   22.6910 H   0  0  0  0  0  0
  -26.3594  -22.4299   21.3332 H   0  0  0  0  0  0
  -29.2921  -23.1674   21.8172 H   0  0  0  0  0  0
  -28.0423  -23.8576   22.8188 H   0  0  0  0  0  0
  -26.8400  -24.6810   20.7885 H   0  0  0  0  0  0
  -28.1628  -24.1265   19.7902 H   0  0  0  0  0  0
  -29.7160  -25.6655   21.0854 H   0  0  0  0  0  0
  -28.3518  -26.2627   22.0008 H   0  0  0  0  0  0
  -30.3364  -15.6492   22.0310 H   0  0  0  0  0  0
  1 25  1  0  0  0
  1 30  2  0  0  0
  1 83  1  0  0  0
  2  3  1  0  0  0
  2 25  1  0  0  0
  2 85  1  0  0  0
  2 86  1  0  0  0
  3  4  1  0  0  0
  3 87  1  0  0  0
  3 88  1  0  0  0
  4  5  1  0  0  0
  4 89  1  0  0  0
  4 90  1  0  0  0
  5  6  1  0  0  0
  5 26  1  0  0  0
  5 91  1  0  0  0
  6 25  1  0  0  0
  6 92  1  0  0  0
  6 93  1  0  0  0
  7  8  2  0  0  0
  7 26  1  0  0  0
  7 29  1  0  0  0
  8  9  1  0  0  0
  8 22  1  0  0  0
  9 10  1  0  0  0
  9 27  2  0  0  0
 10 11  2  0  0  0
 10 15  1  0  0  0
 11 12  1  0  0  0
 11 94  1  0  0  0
 12 13  2  0  0  0
 12 95  1  0  0  0
 13 14  1  0  0  0
 13 31  1  0  0  0
 14 15  2  0  0  0
 14 96  1  0  0  0
 15 97  1  0  0  0
 16 17  2  0  0  0
 16 21  1  0  0  0
 16 31  1  0  0  0
 17 18  1  0  0  0
 17 98  1  0  0  0
 18 19  2  0  0  0
 18 99  1  0  0  0
 19 20  1  0  0  0
 19 24  1  0  0  0
 20 21  2  0  0  0
 20100  1  0  0  0
 21 23  1  0  0  0
 22 28  1  0  0  0
 22 32  2  0  0  0
 26 27  1  0  0  0
 28101  1  0  0  0
 28102  1  0  0  0
 29103  1  0  0  0
 29104  1  0  0  0
 33 34  1  0  0  0
 33 66  1  0  0  0
 33 70  2  0  0  0
 34 36  1  0  0  0
 34 59  1  0  0  0
 34105  1  0  0  0
 35 44  2  0  0  0
 35 45  1  0  0  0
 35 68  1  0  0  0
 36 56  1  0  0  0
 36106  1  0  0  0
 37 39  1  0  0  0
 37 47  1  0  0  0
 37 66  1  0  0  0
 37107  1  0  0  0
 38 43  2  0  0  0
 38 46  1  0  0  0
 38 47  1  0  0  0
 39 64  1  0  0  0
 39 67  2  0  0  0
 40 52  1  0  0  0
 40 53  2  0  0  0
 40 58  1  0  0  0
 41108  1  0  0  0
 41109  1  0  0  0
 41110  1  0  0  0
 41 48  1  0  0  0
 42 43  1  0  0  0
 42 66  1  0  0  0
 42111  1  0  0  0
 42112  1  0  0  0
 43 44  1  0  0  0
 44113  1  0  0  0
 45 46  2  0  0  0
 45114  1  0  0  0
 46115  1  0  0  0
 47116  1  0  0  0
 47117  1  0  0  0
 48 56  1  0  0  0
 48 65  1  0  0  0
 48118  1  0  0  0
 49 50  1  0  0  0
 49 53  1  0  0  0
 49 64  1  0  0  0
 49119  1  0  0  0
 50 51  1  0  0  0
 50120  1  0  0  0
 50121  1  0  0  0
 51 52  1  0  0  0
 51122  1  0  0  0
 51123  1  0  0  0
 52124  1  0  0  0
 52125  1  0  0  0
 53 54  1  0  0  0
 54 55  2  0  0  0
 54126  1  0  0  0
 55 57  1  0  0  0
 55127  1  0  0  0
 56 69  2  0  0  0
 57 58  2  0  0  0
 57128  1  0  0  0
 58129  1  0  0  0
 59 60  1  0  0  0
 59 61  1  0  0  0
 59 62  1  0  0  0
 60130  1  0  0  0
 60131  1  0  0  0
 60132  1  0  0  0
 61133  1  0  0  0
 61134  1  0  0  0
 61135  1  0  0  0
 62136  1  0  0  0
 62137  1  0  0  0
 62138  1  0  0  0
 63 65  1  0  0  0
 63139  1  0  0  0
 63140  1  0  0  0
 63141  1  0  0  0
 64142  1  0  0  0
 65143  1  0  0  0
 68 82  1  0  0  0
 71 72  2  0  0  0
 71 75  1  0  0  0
 71144  1  0  0  0
 72 76  1  0  0  0
 72145  1  0  0  0
 73 74  1  0  0  0
 73 75  2  0  0  0
 73146  1  0  0  0
 74 76  2  0  0  0
 74 77  1  0  0  0
 75 83  1  0  0  0
 76 84  1  0  0  0
 77 78  2  0  0  0
 77147  1  0  0  0
 78 79  1  0  0  0
 78148  1  0  0  0
 79 80  1  0  0  0
 79149  1  0  0  0
 79150  1  0  0  0
 80 81  1  0  0  0
 80151  1  0  0  0
 80152  1  0  0  0
 81 82  1  0  0  0
 81153  1  0  0  0
 81154  1  0  0  0
 82155  1  0  0  0
 82156  1  0  0  0
 83157  1  0  0  0
M  ISO  4   1 100  68 101  82 101  83 100
M  END
> <chiral flag>
0

> <version>
0

> <s_m_source_file>
/data/baiqing/PycharmProjects/Reinvent-master-3.2/result/LINK_invent/BTK/process_docking_weight1_custom_product_contain_oxygen_bond_distance_aromatic_linkinvent_7_9_3/rearranged_h_0121.sdf

> <i_m_source_file_index>
81

> <r_mmod_Potential_Energy-OPLS-2005>
32.1843795776367

> <r_mmod_Stretch_Energy-OPLS-2005>
30.2178325653076

> <r_mmod_Bend_Energy-OPLS-2005>
89.4512557983398

> <r_mmod_Torsional_Energy-OPLS-2005>
296.889495849609

> <r_mmod_Improper_Torsional_Energy-OPLS-2005>
6.40950965881348

> <r_mmod_Van_der_Waal_Energy-OPLS-2005>
149.303863525391

> <r_mmod_Electrostatic_Energy-OPLS-2005>
-357.148773193359

> <r_mmod_Solvation_Energy-OPLS-2005>
-193.527267456055

> <b_mmod_Minimization_Converged-OPLS-2005>
0

> <r_mmod_RMS_Derivative-OPLS-2005>
4.3359317779541

$$$$
81
                    3D
 Structure written by MMmdl.
157165  0  0  1  0            999 V2000
  -30.6718  -14.4963   20.5557 C   0  0  0  0  0  0
  -30.4335  -12.3186   19.4181 C   0  0  0  0  0  0
  -29.4963  -12.5061   18.2058 C   0  0  0  0  0  0
  -28.0176  -12.3585   18.6204 C   0  0  0  0  0  0
  -27.6613  -13.1954   19.8775 C   0  0  2  0  0  0
  -28.7074  -12.9758   20.9941 C   0  0  0  0  0  0
  -25.2582  -13.8104   20.5711 C   0  0  0  0  0  0
  -24.1823  -13.0396   20.9179 C   0  0  0  0  0  0
  -24.6377  -11.6867   20.8736 C   0  0  0  0  0  0
  -23.9043  -10.4267   21.0406 C   0  0  0  0  0  0
  -24.3602   -9.4188   21.9184 C   0  0  0  0  0  0
  -23.6279   -8.2225   22.0753 C   0  0  0  0  0  0
  -22.4260   -8.0268   21.3544 C   0  0  0  0  0  0
  -21.9892   -9.0239   20.4646 C   0  0  0  0  0  0
  -22.7220  -10.2116   20.3054 C   0  0  0  0  0  0
  -21.6847   -6.0728   22.5280 C   0  0  0  0  0  0
  -21.4008   -6.5634   23.8213 C   0  0  0  0  0  0
  -21.3657   -5.6788   24.9175 C   0  0  0  0  0  0
  -21.6046   -4.3052   24.7226 C   0  0  0  0  0  0
  -21.8820   -3.8142   23.4349 C   0  0  0  0  0  0
  -21.9191   -4.6957   22.3405 C   0  0  0  0  0  0
  -22.7853  -13.5215   21.1846 C   0  0  0  0  0  0
  -22.1660   -4.2145   21.0982 F   0  0  0  0  0  0
  -21.5631   -3.4537   25.7740 F   0  0  0  0  0  0
  -30.0361  -13.2973   20.4408 N   0  0  0  0  0  0
  -26.3020  -12.9264   20.3393 N   0  0  0  0  0  0
  -25.9302  -11.6435   20.5774 N   0  0  0  0  0  0
  -22.0487  -12.8218   22.0406 N   0  0  0  0  0  0
  -25.4268  -15.1823   20.4184 N   0  0  0  0  0  0
  -31.8078  -14.7029   20.1183 O   0  0  0  0  0  0
  -21.6628   -6.8866   21.4240 O   0  0  0  0  0  0
  -22.3549  -14.5530   20.6701 O   0  0  0  0  0  0
  -24.6147  -31.8674   23.2098 C   0  0  0  0  0  0
  -25.9041  -32.4818   23.8393 C   0  0  1  0  0  0
  -27.2430  -27.4300   20.0844 C   0  0  0  0  0  0
  -25.5898  -33.8619   24.2323 N   0  0  0  0  0  0
  -23.4031  -30.4903   21.5498 C   0  0  2  0  0  0
  -24.8497  -28.9529   20.1153 C   0  0  0  0  0  0
  -22.7407  -29.4657   22.4987 C   0  0  0  0  0  0
  -18.0272  -28.1378   22.8495 C   0  0  0  0  0  0
  -24.1486  -36.7313   23.2637 C   0  0  0  0  0  0
  -25.9324  -30.8269   21.3667 C   0  0  0  0  0  0
  -26.0080  -29.4593   20.7166 C   0  0  0  0  0  0
  -27.2009  -28.6998   20.7086 C   0  0  0  0  0  0
  -26.0599  -26.9356   19.4869 C   0  0  0  0  0  0
  -24.8697  -27.6879   19.5029 C   0  0  0  0  0  0
  -23.6122  -29.8211   20.1646 C   0  0  0  0  0  0
  -25.4108  -36.3112   24.0336 C   0  0  1  0  0  0
  -20.5862  -28.3667   23.1318 C   0  0  2  0  0  0
  -20.6762  -26.9401   22.5422 C   0  0  0  0  0  0
  -19.5741  -26.6388   21.5215 C   0  0  0  0  0  0
  -18.1918  -26.7927   22.1622 C   0  0  0  0  0  0
  -19.1522  -28.8838   23.2906 C   0  0  0  0  0  0
  -18.9450  -30.1443   23.8920 C   0  0  0  0  0  0
  -17.6453  -30.6584   24.0570 C   0  0  0  0  0  0
  -25.9036  -34.9476   23.5128 C   0  0  0  0  0  0
  -16.5345  -29.9090   23.6325 C   0  0  0  0  0  0
  -16.7263  -28.6504   23.0350 C   0  0  0  0  0  0
  -26.4468  -31.6602   25.0725 C   0  0  0  0  0  0
  -25.3736  -31.3716   26.1477 C   0  0  0  0  0  0
  -27.0287  -30.3038   24.6109 C   0  0  0  0  0  0
  -27.6056  -32.4314   25.7477 C   0  0  0  0  0  0
  -27.5585  -37.1807   24.8462 C   0  0  0  0  0  0
  -21.4135  -29.3035   22.3724 N   0  0  0  0  0  0
  -26.4294  -37.3797   23.9412 N   0  0  0  0  0  0
  -24.6681  -31.0765   22.1003 N   0  0  0  0  0  0
  -23.4174  -28.8201   23.3036 O   0  0  0  0  0  0
  -28.4301  -26.7175   20.0974 O   0  0  0  0  0  0
  -26.5602  -34.8928   22.4692 O   0  0  0  0  0  0
  -23.5339  -32.1433   23.7487 O   0  0  0  0  0  0
  -29.3103  -19.0142   19.8790 C   0  0  0  0  0  0
  -30.8500  -17.6400   21.7822 C   0  0  0  0  0  0
  -29.3030  -17.5992   19.9057 C   0  0  0  0  0  0
  -30.0574  -16.8959   20.8808 C   0  0  0  0  0  0
  -30.0805  -19.7666   20.8002 C   0  0  0  0  0  0
  -30.8685  -19.0533   21.7345 C   0  0  0  0  0  0
  -28.4671  -16.8665   18.8723 C   0  0  0  0  0  0
  -28.2669  -24.2622   19.4799 C   0  0  0  0  0  0
  -29.3425  -23.4287   20.2287 C   0  0  0  0  0  0
  -28.6638  -25.7144   19.0970 C   0  0  0  0  0  0
  -29.1311  -21.8971   20.0971 C   0  0  0  0  0  0
  -29.9013  -15.4851   21.0520 N   0  0  0  0  0  0
  -30.1104  -21.1564   20.8383 O   0  0  0  0  0  0
  -31.6310  -19.7352   22.6240 F   0  0  0  0  0  0
  -31.4752  -12.4358   19.1141 H   0  0  0  0  0  0
  -30.3514  -11.3059   19.8156 H   0  0  0  0  0  0
  -29.7390  -11.7814   17.4275 H   0  0  0  0  0  0
  -29.6566  -13.4914   17.7653 H   0  0  0  0  0  0
  -27.8338  -11.3016   18.8173 H   0  0  0  0  0  0
  -27.3644  -12.6295   17.7902 H   0  0  0  0  0  0
  -27.6995  -14.2403   19.5798 H   0  0  0  0  0  0
  -28.6923  -11.9365   21.3255 H   0  0  0  0  0  0
  -28.4669  -13.5631   21.8816 H   0  0  0  0  0  0
  -25.2750   -9.5666   22.4756 H   0  0  0  0  0  0
  -23.9991   -7.4616   22.7471 H   0  0  0  0  0  0
  -21.0823   -8.8756   19.8954 H   0  0  0  0  0  0
  -22.3681  -10.9655   19.6162 H   0  0  0  0  0  0
  -21.1994   -7.6141   23.9714 H   0  0  0  0  0  0
  -21.1482   -6.0519   25.9078 H   0  0  0  0  0  0
  -22.0601   -2.7605   23.2851 H   0  0  0  0  0  0
  -22.4090  -11.9872   22.4790 H   0  0  0  0  0  0
  -21.1113  -13.1261   22.2619 H   0  0  0  0  0  0
  -24.6590  -15.8346   20.5356 H   0  0  0  0  0  0
  -26.2848  -15.6296   20.1279 H   0  0  0  0  0  0
  -26.7113  -32.5524   23.1157 H   0  0  0  0  0  0
  -25.0052  -33.9782   25.0470 H   0  0  0  0  0  0
  -22.6925  -31.3074   21.4097 H   0  0  0  0  0  0
  -23.3750  -35.9642   23.3299 H   0  0  0  0  0  0
  -24.3584  -36.8928   22.2052 H   0  0  0  0  0  0
  -23.7231  -37.6514   23.6652 H   0  0  0  0  0  0
  -26.0479  -31.5909   20.5965 H   0  0  0  0  0  0
  -26.8193  -30.8803   21.9863 H   0  0  0  0  0  0
  -28.0951  -29.0888   21.1751 H   0  0  0  0  0  0
  -26.0360  -25.9658   19.0126 H   0  0  0  0  0  0
  -23.9773  -27.2885   19.0410 H   0  0  0  0  0  0
  -23.7215  -30.5952   19.4041 H   0  0  0  0  0  0
  -22.7358  -29.2417   19.8686 H   0  0  0  0  0  0
  -25.1284  -36.1977   25.0829 H   0  0  0  0  0  0
  -20.9956  -28.3234   24.1438 H   0  0  0  0  0  0
  -20.5664  -26.2275   23.3611 H   0  0  0  0  0  0
  -21.6633  -26.7443   22.1216 H   0  0  0  0  0  0
  -19.6903  -25.6302   21.1235 H   0  0  0  0  0  0
  -19.6681  -27.3209   20.6754 H   0  0  0  0  0  0
  -17.4190  -26.6685   21.4020 H   0  0  0  0  0  0
  -18.0313  -26.0062   22.9009 H   0  0  0  0  0  0
  -19.7926  -30.7254   24.2300 H   0  0  0  0  0  0
  -17.5008  -31.6268   24.5166 H   0  0  0  0  0  0
  -15.5347  -30.3002   23.7633 H   0  0  0  0  0  0
  -15.8661  -28.0831   22.7057 H   0  0  0  0  0  0
  -24.5909  -30.7060   25.7819 H   0  0  0  0  0  0
  -24.8928  -32.2872   26.4930 H   0  0  0  0  0  0
  -25.8091  -30.8884   27.0232 H   0  0  0  0  0  0
  -26.2823  -29.6808   24.1164 H   0  0  0  0  0  0
  -27.4045  -29.7270   25.4571 H   0  0  0  0  0  0
  -27.8670  -30.4346   23.9261 H   0  0  0  0  0  0
  -27.2695  -33.3613   26.2074 H   0  0  0  0  0  0
  -28.3852  -32.6869   25.0288 H   0  0  0  0  0  0
  -28.0737  -31.8421   26.5372 H   0  0  0  0  0  0
  -28.2603  -38.0105   24.7518 H   0  0  0  0  0  0
  -28.1078  -36.2639   24.6270 H   0  0  0  0  0  0
  -27.2308  -37.1436   25.8866 H   0  0  0  0  0  0
  -20.9296  -29.8756   21.6945 H   0  0  0  0  0  0
  -26.0183  -38.2873   24.1421 H   0  0  0  0  0  0
  -28.7047  -19.5094   19.1355 H   0  0  0  0  0  0
  -31.4262  -17.1341   22.5428 H   0  0  0  0  0  0
  -28.2907  -17.4916   17.9963 H   0  0  0  0  0  0
  -27.4987  -16.6015   19.2896 H   0  0  0  0  0  0
  -28.9663  -15.9626   18.5236 H   0  0  0  0  0  0
  -27.3283  -24.2518   20.0342 H   0  0  0  0  0  0
  -28.0541  -23.7459   18.5428 H   0  0  0  0  0  0
  -29.3593  -23.7184   21.2798 H   0  0  0  0  0  0
  -30.3297  -23.6677   19.8320 H   0  0  0  0  0  0
  -28.1708  -25.9992   18.1660 H   0  0  0  0  0  0
  -29.7258  -25.7398   18.8520 H   0  0  0  0  0  0
  -29.1924  -21.6364   19.0399 H   0  0  0  0  0  0
  -28.1328  -21.6290   20.4471 H   0  0  0  0  0  0
  -28.9830  -15.1782   21.3337 H   0  0  0  0  0  0
  1 25  1  0  0  0
  1 30  2  0  0  0
  1 82  1  0  0  0
  2  3  1  0  0  0
  2 25  1  0  0  0
  2 85  1  0  0  0
  2 86  1  0  0  0
  3  4  1  0  0  0
  3 87  1  0  0  0
  3 88  1  0  0  0
  4  5  1  0  0  0
  4 89  1  0  0  0
  4 90  1  0  0  0
  5  6  1  0  0  0
  5 26  1  0  0  0
  5 91  1  0  0  0
  6 25  1  0  0  0
  6 92  1  0  0  0
  6 93  1  0  0  0
  7  8  2  0  0  0
  7 26  1  0  0  0
  7 29  1  0  0  0
  8  9  1  0  0  0
  8 22  1  0  0  0
  9 10  1  0  0  0
  9 27  2  0  0  0
 10 11  2  0  0  0
 10 15  1  0  0  0
 11 12  1  0  0  0
 11 94  1  0  0  0
 12 13  2  0  0  0
 12 95  1  0  0  0
 13 14  1  0  0  0
 13 31  1  0  0  0
 14 15  2  0  0  0
 14 96  1  0  0  0
 15 97  1  0  0  0
 16 17  2  0  0  0
 16 21  1  0  0  0
 16 31  1  0  0  0
 17 18  1  0  0  0
 17 98  1  0  0  0
 18 19  2  0  0  0
 18 99  1  0  0  0
 19 20  1  0  0  0
 19 24  1  0  0  0
 20 21  2  0  0  0
 20100  1  0  0  0
 21 23  1  0  0  0
 22 28  1  0  0  0
 22 32  2  0  0  0
 26 27  1  0  0  0
 28101  1  0  0  0
 28102  1  0  0  0
 29103  1  0  0  0
 29104  1  0  0  0
 33 34  1  0  0  0
 33 66  1  0  0  0
 33 70  2  0  0  0
 34 36  1  0  0  0
 34 59  1  0  0  0
 34105  1  0  0  0
 35 44  2  0  0  0
 35 45  1  0  0  0
 35 68  1  0  0  0
 36 56  1  0  0  0
 36106  1  0  0  0
 37 39  1  0  0  0
 37 47  1  0  0  0
 37 66  1  0  0  0
 37107  1  0  0  0
 38 43  2  0  0  0
 38 46  1  0  0  0
 38 47  1  0  0  0
 39 64  1  0  0  0
 39 67  2  0  0  0
 40 52  1  0  0  0
 40 53  2  0  0  0
 40 58  1  0  0  0
 41108  1  0  0  0
 41109  1  0  0  0
 41110  1  0  0  0
 41 48  1  0  0  0
 42 43  1  0  0  0
 42 66  1  0  0  0
 42111  1  0  0  0
 42112  1  0  0  0
 43 44  1  0  0  0
 44113  1  0  0  0
 45 46  2  0  0  0
 45114  1  0  0  0
 46115  1  0  0  0
 47116  1  0  0  0
 47117  1  0  0  0
 48 56  1  0  0  0
 48 65  1  0  0  0
 48118  1  0  0  0
 49 50  1  0  0  0
 49 53  1  0  0  0
 49 64  1  0  0  0
 49119  1  0  0  0
 50 51  1  0  0  0
 50120  1  0  0  0
 50121  1  0  0  0
 51 52  1  0  0  0
 51122  1  0  0  0
 51123  1  0  0  0
 52124  1  0  0  0
 52125  1  0  0  0
 53 54  1  0  0  0
 54 55  2  0  0  0
 54126  1  0  0  0
 55 57  1  0  0  0
 55127  1  0  0  0
 56 69  2  0  0  0
 57 58  2  0  0  0
 57128  1  0  0  0
 58129  1  0  0  0
 59 60  1  0  0  0
 59 61  1  0  0  0
 59 62  1  0  0  0
 60130  1  0  0  0
 60131  1  0  0  0
 60132  1  0  0  0
 61133  1  0  0  0
 61134  1  0  0  0
 61135  1  0  0  0
 62136  1  0  0  0
 62137  1  0  0  0
 62138  1  0  0  0
 63 65  1  0  0  0
 63139  1  0  0  0
 63140  1  0  0  0
 63141  1  0  0  0
 64142  1  0  0  0
 65143  1  0  0  0
 68 80  1  0  0  0
 71 73  2  0  0  0
 71 75  1  0  0  0
 71144  1  0  0  0
 72 74  2  0  0  0
 72 76  1  0  0  0
 72145  1  0  0  0
 73 74  1  0  0  0
 73 77  1  0  0  0
 74 82  1  0  0  0
 75 76  2  0  0  0
 75 83  1  0  0  0
 76 84  1  0  0  0
 77146  1  0  0  0
 77147  1  0  0  0
 77148  1  0  0  0
 78 79  1  0  0  0
 78 80  1  0  0  0
 78149  1  0  0  0
 78150  1  0  0  0
 79 81  1  0  0  0
 79151  1  0  0  0
 79152  1  0  0  0
 80153  1  0  0  0
 80154  1  0  0  0
 81 83  1  0  0  0
 81155  1  0  0  0
 81156  1  0  0  0
 82157  1  0  0  0
M  ISO  4   1 100  68 101  80 101  82 100
M  END
> <chiral flag>
0

> <version>
0

> <s_m_source_file>
/data/baiqing/PycharmProjects/Reinvent-master-3.2/result/LINK_invent/BTK/process_docking_weight1_custom_product_contain_oxygen_bond_distance_aromatic_linkinvent_7_9_3/rearranged_h_0121.sdf

> <i_m_source_file_index>
82

> <r_mmod_Potential_Energy-OPLS-2005>
-17.9449729919434

> <r_mmod_Stretch_Energy-OPLS-2005>
39.570140838623

> <r_mmod_Bend_Energy-OPLS-2005>
106.970413208008

> <r_mmod_Torsional_Energy-OPLS-2005>
240.215179443359

> <r_mmod_Improper_Torsional_Energy-OPLS-2005>
4.78149223327637

> <r_mmod_Van_der_Waal_Energy-OPLS-2005>
150.127136230469

> <r_mmod_Electrostatic_Energy-OPLS-2005>
-359.981384277344

> <r_mmod_Solvation_Energy-OPLS-2005>
-214.199127197266

> <b_mmod_Minimization_Converged-OPLS-2005>
0

> <r_mmod_RMS_Derivative-OPLS-2005>
0.321707993745804

$$$$
82
                    3D
 Structure written by MMmdl.
163171  0  0  1  0            999 V2000
  -30.7174  -14.4691   20.4345 C   0  0  0  0  0  0
  -30.4027  -12.2680   19.4436 C   0  0  0  0  0  0
  -29.4923  -12.4657   18.2142 C   0  0  0  0  0  0
  -28.0120  -12.3435   18.6242 C   0  0  0  0  0  0
  -27.6517  -13.2106   19.8610 C   0  0  2  0  0  0
  -28.6981  -13.0599   20.9917 C   0  0  0  0  0  0
  -25.2551  -13.8167   20.5690 C   0  0  0  0  0  0
  -24.1821  -13.0434   20.9204 C   0  0  0  0  0  0
  -24.6381  -11.6905   20.8752 C   0  0  0  0  0  0
  -23.9047  -10.4288   21.0402 C   0  0  0  0  0  0
  -24.3612   -9.4207   21.9172 C   0  0  0  0  0  0
  -23.6290   -8.2241   22.0747 C   0  0  0  0  0  0
  -22.4264   -8.0278   21.3544 C   0  0  0  0  0  0
  -21.9893   -9.0243   20.4640 C   0  0  0  0  0  0
  -22.7221  -10.2123   20.3046 C   0  0  0  0  0  0
  -21.6853   -6.0732   22.5279 C   0  0  0  0  0  0
  -21.4009   -6.5637   23.8209 C   0  0  0  0  0  0
  -21.3665   -5.6794   24.9173 C   0  0  0  0  0  0
  -21.6054   -4.3056   24.7229 C   0  0  0  0  0  0
  -21.8820   -3.8146   23.4350 C   0  0  0  0  0  0
  -21.9195   -4.6959   22.3403 C   0  0  0  0  0  0
  -22.7842  -13.5226   21.1865 C   0  0  0  0  0  0
  -22.1660   -4.2138   21.0981 F   0  0  0  0  0  0
  -21.5634   -3.4546   25.7750 F   0  0  0  0  0  0
  -30.0293  -13.2998   20.4209 N   0  0  0  0  0  0
  -26.2977  -12.9340   20.3330 N   0  0  0  0  0  0
  -25.9306  -11.6499   20.5780 N   0  0  0  0  0  0
  -22.0505  -12.8201   22.0425 N   0  0  0  0  0  0
  -25.4254  -15.1891   20.4095 N   0  0  0  0  0  0
  -31.9200  -14.5262   20.2159 O   0  0  0  0  0  0
  -21.6636   -6.8867   21.4236 O   0  0  0  0  0  0
  -22.3521  -14.5532   20.6723 O   0  0  0  0  0  0
  -24.6129  -31.8687   23.2100 C   0  0  0  0  0  0
  -25.9031  -32.4820   23.8391 C   0  0  1  0  0  0
  -27.2422  -27.4498   20.0793 C   0  0  0  0  0  0
  -25.5892  -33.8621   24.2327 N   0  0  0  0  0  0
  -23.3989  -30.4916   21.5507 C   0  0  2  0  0  0
  -24.8437  -28.9555   20.1173 C   0  0  0  0  0  0
  -22.7394  -29.4662   22.5001 C   0  0  0  0  0  0
  -18.0271  -28.1376   22.8488 C   0  0  0  0  0  0
  -24.1485  -36.7317   23.2635 C   0  0  0  0  0  0
  -25.9255  -30.8366   21.3603 C   0  0  0  0  0  0
  -26.0020  -29.4688   20.7132 C   0  0  0  0  0  0
  -27.1981  -28.7196   20.6981 C   0  0  0  0  0  0
  -26.0555  -26.9369   19.5028 C   0  0  0  0  0  0
  -24.8640  -27.6861   19.5151 C   0  0  0  0  0  0
  -23.6057  -29.8210   20.1659 C   0  0  0  0  0  0
  -25.4103  -36.3107   24.0337 C   0  0  1  0  0  0
  -20.5856  -28.3657   23.1316 C   0  0  2  0  0  0
  -20.6759  -26.9395   22.5416 C   0  0  0  0  0  0
  -19.5743  -26.6386   21.5206 C   0  0  0  0  0  0
  -18.1918  -26.7923   22.1616 C   0  0  0  0  0  0
  -19.1518  -28.8834   23.2901 C   0  0  0  0  0  0
  -18.9448  -30.1441   23.8914 C   0  0  0  0  0  0
  -17.6450  -30.6581   24.0568 C   0  0  0  0  0  0
  -25.9028  -34.9474   23.5127 C   0  0  0  0  0  0
  -16.5342  -29.9080   23.6331 C   0  0  0  0  0  0
  -16.7259  -28.6498   23.0347 C   0  0  0  0  0  0
  -26.4468  -31.6591   25.0712 C   0  0  0  0  0  0
  -25.3749  -31.3689   26.1471 C   0  0  0  0  0  0
  -27.0285  -30.3035   24.6067 C   0  0  0  0  0  0
  -27.6064  -32.4289   25.7466 C   0  0  0  0  0  0
  -27.5581  -37.1801   24.8457 C   0  0  0  0  0  0
  -21.4126  -29.3028   22.3734 N   0  0  0  0  0  0
  -26.4280  -37.3798   23.9415 N   0  0  0  0  0  0
  -24.6641  -31.0798   22.0996 N   0  0  0  0  0  0
  -23.4175  -28.8213   23.3043 O   0  0  0  0  0  0
  -28.4463  -26.7741   20.0703 O   0  0  0  0  0  0
  -26.5601  -34.8922   22.4694 O   0  0  0  0  0  0
  -23.5329  -32.1431   23.7513 O   0  0  0  0  0  0
  -30.2538  -18.9495   19.1863 C   0  0  0  0  0  0
  -33.0297  -18.9425   18.8323 C   0  0  0  0  0  0
  -30.9356  -20.1783   18.9954 C   0  0  0  0  0  0
  -30.9314  -17.7028   19.0984 C   0  0  0  0  0  0
  -32.3469  -20.1666   18.8922 C   0  0  0  0  0  0
  -32.3362  -17.7187   18.8559 C   0  0  0  0  0  0
  -30.2188  -21.4568   18.8055 C   0  0  0  0  0  0
  -29.0184  -21.8476   19.2710 C   0  0  0  0  0  0
  -33.1567  -21.4483   18.7706 C   0  0  0  0  0  0
  -33.1670  -16.4901   18.5254 C   0  0  0  0  0  0
  -30.0846  -16.4140   19.0556 C   0  0  0  0  0  0
  -28.3813  -23.1600   18.8312 C   0  0  0  0  0  0
  -28.4425  -24.3088   19.8596 C   0  0  0  0  0  0
  -28.6364  -25.6788   19.1727 C   0  0  0  0  0  0
  -29.9568  -15.5616   20.2574 N   0  0  0  0  0  0
  -31.4524  -12.3233   19.1514 H   0  0  0  0  0  0
  -30.2648  -11.2734   19.8706 H   0  0  0  0  0  0
  -29.7277  -11.7263   17.4483 H   0  0  0  0  0  0
  -29.6759  -13.4415   17.7618 H   0  0  0  0  0  0
  -27.8183  -11.2919   18.8400 H   0  0  0  0  0  0
  -27.3660  -12.6007   17.7843 H   0  0  0  0  0  0
  -27.6705  -14.2454   19.5217 H   0  0  0  0  0  0
  -28.6611  -12.0587   21.4245 H   0  0  0  0  0  0
  -28.4937  -13.7544   21.8082 H   0  0  0  0  0  0
  -25.2752   -9.5706   22.4745 H   0  0  0  0  0  0
  -24.0017   -7.4635   22.7458 H   0  0  0  0  0  0
  -21.0831   -8.8740   19.8935 H   0  0  0  0  0  0
  -22.3665  -10.9653   19.6157 H   0  0  0  0  0  0
  -21.1982   -7.6143   23.9712 H   0  0  0  0  0  0
  -21.1482   -6.0521   25.9075 H   0  0  0  0  0  0
  -22.0594   -2.7606   23.2857 H   0  0  0  0  0  0
  -22.4132  -11.9856   22.4789 H   0  0  0  0  0  0
  -21.1121  -13.1205   22.2638 H   0  0  0  0  0  0
  -24.6560  -15.8408   20.5201 H   0  0  0  0  0  0
  -26.2749  -15.6342   20.0865 H   0  0  0  0  0  0
  -26.7106  -32.5533   23.1165 H   0  0  0  0  0  0
  -25.0037  -33.9786   25.0465 H   0  0  0  0  0  0
  -22.6875  -31.3080   21.4110 H   0  0  0  0  0  0
  -23.3743  -35.9649   23.3281 H   0  0  0  0  0  0
  -24.3591  -36.8952   22.2053 H   0  0  0  0  0  0
  -23.7230  -37.6515   23.6662 H   0  0  0  0  0  0
  -26.0318  -31.6002   20.5876 H   0  0  0  0  0  0
  -26.8166  -30.8955   21.9739 H   0  0  0  0  0  0
  -28.0950  -29.1203   21.1512 H   0  0  0  0  0  0
  -26.0265  -25.9599   19.0441 H   0  0  0  0  0  0
  -23.9705  -27.2781   19.0628 H   0  0  0  0  0  0
  -23.7115  -30.5930   19.4028 H   0  0  0  0  0  0
  -22.7304  -29.2381   19.8733 H   0  0  0  0  0  0
  -25.1274  -36.1970   25.0829 H   0  0  0  0  0  0
  -20.9949  -28.3218   24.1434 H   0  0  0  0  0  0
  -20.5650  -26.2265   23.3600 H   0  0  0  0  0  0
  -21.6630  -26.7435   22.1212 H   0  0  0  0  0  0
  -19.6903  -25.6302   21.1219 H   0  0  0  0  0  0
  -19.6682  -27.3210   20.6746 H   0  0  0  0  0  0
  -17.4187  -26.6675   21.4014 H   0  0  0  0  0  0
  -18.0321  -26.0056   22.9005 H   0  0  0  0  0  0
  -19.7926  -30.7255   24.2283 H   0  0  0  0  0  0
  -17.5005  -31.6263   24.5167 H   0  0  0  0  0  0
  -15.5344  -30.2988   23.7649 H   0  0  0  0  0  0
  -15.8655  -28.0828   22.7049 H   0  0  0  0  0  0
  -24.5911  -30.7049   25.7807 H   0  0  0  0  0  0
  -24.8951  -32.2839   26.4953 H   0  0  0  0  0  0
  -25.8109  -30.8829   27.0208 H   0  0  0  0  0  0
  -26.2807  -29.6797   24.1152 H   0  0  0  0  0  0
  -27.4096  -29.7271   25.4507 H   0  0  0  0  0  0
  -27.8627  -30.4356   23.9172 H   0  0  0  0  0  0
  -27.2713  -33.3587   26.2077 H   0  0  0  0  0  0
  -28.3859  -32.6845   25.0276 H   0  0  0  0  0  0
  -28.0744  -31.8380   26.5352 H   0  0  0  0  0  0
  -28.2581  -38.0118   24.7538 H   0  0  0  0  0  0
  -28.1097  -36.2653   24.6232 H   0  0  0  0  0  0
  -27.2315  -37.1390   25.8864 H   0  0  0  0  0  0
  -20.9287  -29.8747   21.6955 H   0  0  0  0  0  0
  -26.0169  -38.2867   24.1447 H   0  0  0  0  0  0
  -29.1762  -18.9569   19.2754 H   0  0  0  0  0  0
  -34.1012  -18.9418   18.6863 H   0  0  0  0  0  0
  -30.7184  -22.1500   18.1436 H   0  0  0  0  0  0
  -28.4598  -21.2258   19.9561 H   0  0  0  0  0  0
  -34.2085  -21.2753   19.0006 H   0  0  0  0  0  0
  -32.7991  -22.2086   19.4647 H   0  0  0  0  0  0
  -33.0969  -21.8410   17.7551 H   0  0  0  0  0  0
  -33.6829  -16.1309   19.4151 H   0  0  0  0  0  0
  -33.9329  -16.7376   17.7889 H   0  0  0  0  0  0
  -32.5861  -15.6805   18.0887 H   0  0  0  0  0  0
  -30.4075  -15.8076   18.2082 H   0  0  0  0  0  0
  -29.0662  -16.6951   18.7831 H   0  0  0  0  0  0
  -27.3468  -22.9703   18.5417 H   0  0  0  0  0  0
  -28.8818  -23.4754   17.9142 H   0  0  0  0  0  0
  -29.2671  -24.1528   20.5565 H   0  0  0  0  0  0
  -27.5308  -24.3083   20.4581 H   0  0  0  0  0  0
  -28.0335  -25.7738   18.2698 H   0  0  0  0  0  0
  -29.6653  -25.7379   18.8155 H   0  0  0  0  0  0
  -29.0084  -15.4558   20.5816 H   0  0  0  0  0  0
  1 25  1  0  0  0
  1 30  2  0  0  0
  1 85  1  0  0  0
  2  3  1  0  0  0
  2 25  1  0  0  0
  2 86  1  0  0  0
  2 87  1  0  0  0
  3  4  1  0  0  0
  3 88  1  0  0  0
  3 89  1  0  0  0
  4  5  1  0  0  0
  4 90  1  0  0  0
  4 91  1  0  0  0
  5  6  1  0  0  0
  5 26  1  0  0  0
  5 92  1  0  0  0
  6 25  1  0  0  0
  6 93  1  0  0  0
  6 94  1  0  0  0
  7  8  2  0  0  0
  7 26  1  0  0  0
  7 29  1  0  0  0
  8  9  1  0  0  0
  8 22  1  0  0  0
  9 10  1  0  0  0
  9 27  2  0  0  0
 10 11  2  0  0  0
 10 15  1  0  0  0
 11 12  1  0  0  0
 11 95  1  0  0  0
 12 13  2  0  0  0
 12 96  1  0  0  0
 13 14  1  0  0  0
 13 31  1  0  0  0
 14 15  2  0  0  0
 14 97  1  0  0  0
 15 98  1  0  0  0
 16 17  2  0  0  0
 16 21  1  0  0  0
 16 31  1  0  0  0
 17 18  1  0  0  0
 17 99  1  0  0  0
 18 19  2  0  0  0
 18100  1  0  0  0
 19 20  1  0  0  0
 19 24  1  0  0  0
 20 21  2  0  0  0
 20101  1  0  0  0
 21 23  1  0  0  0
 22 28  1  0  0  0
 22 32  2  0  0  0
 26 27  1  0  0  0
 28102  1  0  0  0
 28103  1  0  0  0
 29104  1  0  0  0
 29105  1  0  0  0
 33 34  1  0  0  0
 33 66  1  0  0  0
 33 70  2  0  0  0
 34 36  1  0  0  0
 34 59  1  0  0  0
 34106  1  0  0  0
 35 44  2  0  0  0
 35 45  1  0  0  0
 35 68  1  0  0  0
 36 56  1  0  0  0
 36107  1  0  0  0
 37 39  1  0  0  0
 37 47  1  0  0  0
 37 66  1  0  0  0
 37108  1  0  0  0
 38 43  2  0  0  0
 38 46  1  0  0  0
 38 47  1  0  0  0
 39 64  1  0  0  0
 39 67  2  0  0  0
 40 52  1  0  0  0
 40 53  2  0  0  0
 40 58  1  0  0  0
 41109  1  0  0  0
 41110  1  0  0  0
 41111  1  0  0  0
 41 48  1  0  0  0
 42 43  1  0  0  0
 42 66  1  0  0  0
 42112  1  0  0  0
 42113  1  0  0  0
 43 44  1  0  0  0
 44114  1  0  0  0
 45 46  2  0  0  0
 45115  1  0  0  0
 46116  1  0  0  0
 47117  1  0  0  0
 47118  1  0  0  0
 48 56  1  0  0  0
 48 65  1  0  0  0
 48119  1  0  0  0
 49 50  1  0  0  0
 49 53  1  0  0  0
 49 64  1  0  0  0
 49120  1  0  0  0
 50 51  1  0  0  0
 50121  1  0  0  0
 50122  1  0  0  0
 51 52  1  0  0  0
 51123  1  0  0  0
 51124  1  0  0  0
 52125  1  0  0  0
 52126  1  0  0  0
 53 54  1  0  0  0
 54 55  2  0  0  0
 54127  1  0  0  0
 55 57  1  0  0  0
 55128  1  0  0  0
 56 69  2  0  0  0
 57 58  2  0  0  0
 57129  1  0  0  0
 58130  1  0  0  0
 59 60  1  0  0  0
 59 61  1  0  0  0
 59 62  1  0  0  0
 60131  1  0  0  0
 60132  1  0  0  0
 60133  1  0  0  0
 61134  1  0  0  0
 61135  1  0  0  0
 61136  1  0  0  0
 62137  1  0  0  0
 62138  1  0  0  0
 62139  1  0  0  0
 63 65  1  0  0  0
 63140  1  0  0  0
 63141  1  0  0  0
 63142  1  0  0  0
 64143  1  0  0  0
 65144  1  0  0  0
 68 84  1  0  0  0
 71 73  2  0  0  0
 71 74  1  0  0  0
 71145  1  0  0  0
 72 75  2  0  0  0
 72 76  1  0  0  0
 72146  1  0  0  0
 73 75  1  0  0  0
 73 77  1  0  0  0
 74 76  2  0  0  0
 74 81  1  0  0  0
 75 79  1  0  0  0
 76 80  1  0  0  0
 77 78  2  0  0  0
 77147  1  0  0  0
 78 82  1  0  0  0
 78148  1  0  0  0
 79149  1  0  0  0
 79150  1  0  0  0
 79151  1  0  0  0
 80152  1  0  0  0
 80153  1  0  0  0
 80154  1  0  0  0
 81 85  1  0  0  0
 81155  1  0  0  0
 81156  1  0  0  0
 82 83  1  0  0  0
 82157  1  0  0  0
 82158  1  0  0  0
 83 84  1  0  0  0
 83159  1  0  0  0
 83160  1  0  0  0
 84161  1  0  0  0
 84162  1  0  0  0
 85163  1  0  0  0
M  ISO  4   1 100  68 101  84 101  85 100
M  END
> <chiral flag>
0

> <version>
0

> <s_m_source_file>
/data/baiqing/PycharmProjects/Reinvent-master-3.2/result/LINK_invent/BTK/process_docking_weight1_custom_product_contain_oxygen_bond_distance_aromatic_linkinvent_7_9_3/rearranged_h_0121.sdf

> <i_m_source_file_index>
83

> <r_mmod_Potential_Energy-OPLS-2005>
-4.51158332824707

> <r_mmod_Stretch_Energy-OPLS-2005>
37.1200103759766

> <r_mmod_Bend_Energy-OPLS-2005>
114.494338989258

> <r_mmod_Torsional_Energy-OPLS-2005>
263.663848876953

> <r_mmod_Improper_Torsional_Energy-OPLS-2005>
18.2174129486084

> <r_mmod_Van_der_Waal_Energy-OPLS-2005>
158.954376220703

> <r_mmod_Electrostatic_Energy-OPLS-2005>
-410.903411865234

> <r_mmod_Solvation_Energy-OPLS-2005>
-210.091201782227

> <b_mmod_Minimization_Converged-OPLS-2005>
0

> <r_mmod_RMS_Derivative-OPLS-2005>
1.45732080936432

$$$$
83
                    3D
 Structure written by MMmdl.
154162  0  0  1  0            999 V2000
  -30.6697  -14.5588   20.4953 C   0  0  0  0  0  0
  -30.4296  -12.3400   19.4411 C   0  0  0  0  0  0
  -29.5048  -12.4794   18.2139 C   0  0  0  0  0  0
  -28.0239  -12.3411   18.6227 C   0  0  0  0  0  0
  -27.6535  -13.2113   19.8553 C   0  0  2  0  0  0
  -28.6963  -13.0552   20.9856 C   0  0  0  0  0  0
  -25.2568  -13.8162   20.5673 C   0  0  0  0  0  0
  -24.1819  -13.0435   20.9175 C   0  0  0  0  0  0
  -24.6369  -11.6902   20.8705 C   0  0  0  0  0  0
  -23.9027  -10.4291   21.0371 C   0  0  0  0  0  0
  -24.3587   -9.4211   21.9150 C   0  0  0  0  0  0
  -23.6275   -8.2249   22.0735 C   0  0  0  0  0  0
  -22.4260   -8.0269   21.3539 C   0  0  0  0  0  0
  -21.9868   -9.0239   20.4652 C   0  0  0  0  0  0
  -22.7178  -10.2127   20.3039 C   0  0  0  0  0  0
  -21.6864   -6.0717   22.5270 C   0  0  0  0  0  0
  -21.4019   -6.5620   23.8199 C   0  0  0  0  0  0
  -21.3656   -5.6777   24.9164 C   0  0  0  0  0  0
  -21.6045   -4.3042   24.7221 C   0  0  0  0  0  0
  -21.8819   -3.8131   23.4343 C   0  0  0  0  0  0
  -21.9198   -4.6949   22.3397 C   0  0  0  0  0  0
  -22.7850  -13.5254   21.1837 C   0  0  0  0  0  0
  -22.1666   -4.2135   21.0981 F   0  0  0  0  0  0
  -21.5627   -3.4527   25.7725 F   0  0  0  0  0  0
  -30.0205  -13.3609   20.4233 N   0  0  0  0  0  0
  -26.2978  -12.9327   20.3263 N   0  0  0  0  0  0
  -25.9288  -11.6486   20.5684 N   0  0  0  0  0  0
  -22.0484  -12.8275   22.0409 N   0  0  0  0  0  0
  -25.4280  -15.1887   20.4104 N   0  0  0  0  0  0
  -31.8422  -14.6774   20.1289 O   0  0  0  0  0  0
  -21.6634   -6.8862   21.4227 O   0  0  0  0  0  0
  -22.3531  -14.5544   20.6656 O   0  0  0  0  0  0
  -24.6204  -31.8647   23.2047 C   0  0  0  0  0  0
  -25.9077  -32.4789   23.8363 C   0  0  1  0  0  0
  -27.2314  -27.3853   20.1218 C   0  0  0  0  0  0
  -25.5922  -33.8586   24.2291 N   0  0  0  0  0  0
  -23.4119  -30.4865   21.5452 C   0  0  2  0  0  0
  -24.8620  -28.9460   20.1112 C   0  0  0  0  0  0
  -22.7443  -29.4661   22.4964 C   0  0  0  0  0  0
  -18.0289  -28.1411   22.8493 C   0  0  0  0  0  0
  -24.1491  -36.7298   23.2626 C   0  0  0  0  0  0
  -25.9461  -30.8147   21.3674 C   0  0  0  0  0  0
  -26.0236  -29.4460   20.7153 C   0  0  0  0  0  0
  -27.2144  -28.6738   20.7152 C   0  0  0  0  0  0
  -26.0574  -26.9159   19.4983 C   0  0  0  0  0  0
  -24.8773  -27.6829   19.4942 C   0  0  0  0  0  0
  -23.6241  -29.8156   20.1609 C   0  0  0  0  0  0
  -25.4095  -36.3081   24.0339 C   0  0  1  0  0  0
  -20.5878  -28.3696   23.1317 C   0  0  2  0  0  0
  -20.6758  -26.9415   22.5454 C   0  0  0  0  0  0
  -19.5749  -26.6405   21.5232 C   0  0  0  0  0  0
  -18.1922  -26.7973   22.1610 C   0  0  0  0  0  0
  -19.1541  -28.8872   23.2906 C   0  0  0  0  0  0
  -18.9460  -30.1481   23.8903 C   0  0  0  0  0  0
  -17.6452  -30.6589   24.0582 C   0  0  0  0  0  0
  -25.9041  -34.9454   23.5110 C   0  0  0  0  0  0
  -16.5346  -29.9091   23.6330 C   0  0  0  0  0  0
  -16.7277  -28.6528   23.0324 C   0  0  0  0  0  0
  -26.4461  -31.6590   25.0720 C   0  0  0  0  0  0
  -25.3717  -31.3817   26.1499 C   0  0  0  0  0  0
  -27.0224  -30.2982   24.6171 C   0  0  0  0  0  0
  -27.6099  -32.4282   25.7423 C   0  0  0  0  0  0
  -27.5618  -37.1743   24.8413 C   0  0  0  0  0  0
  -21.4163  -29.3047   22.3704 N   0  0  0  0  0  0
  -26.4252  -37.3801   23.9468 N   0  0  0  0  0  0
  -24.6774  -31.0719   22.0959 N   0  0  0  0  0  0
  -23.4196  -28.8205   23.3020 O   0  0  0  0  0  0
  -28.3448  -26.5610   20.1526 O   0  0  0  0  0  0
  -26.5600  -34.8917   22.4668 O   0  0  0  0  0  0
  -23.5384  -32.1430   23.7402 O   0  0  0  0  0  0
  -29.2374  -18.0002   20.6134 C   0  0  0  0  0  0
  -29.9040  -19.1511   20.0658 C   0  0  0  0  0  0
  -31.1570  -18.7331   19.7007 C   0  0  0  0  0  0
  -30.1398  -16.9579   20.5087 C   0  0  0  0  0  0
  -29.3536  -20.5127   19.7677 C   0  0  0  0  0  0
  -28.9201  -21.4659   20.6310 C   0  0  0  0  0  0
  -32.3255  -19.4060   19.0622 C   0  0  0  0  0  0
  -28.2951  -22.8289   20.2380 C   0  0  0  0  0  0
  -29.0554  -24.1168   20.7148 C   0  0  0  0  0  0
  -28.1828  -25.3946   21.0067 C   0  0  0  0  0  0
  -29.9006  -15.6377   20.8121 N   0  0  0  0  0  0
  -31.3134  -17.4014   19.9735 O   0  0  0  0  0  0
  -31.4733  -12.4415   19.1356 H   0  0  0  0  0  0
  -30.3430  -11.3447   19.8794 H   0  0  0  0  0  0
  -29.7564  -11.7224   17.4699 H   0  0  0  0  0  0
  -29.6696  -13.4461   17.7361 H   0  0  0  0  0  0
  -27.8395  -11.2878   18.8421 H   0  0  0  0  0  0
  -27.3802  -12.5881   17.7776 H   0  0  0  0  0  0
  -27.6791  -14.2478   19.5169 H   0  0  0  0  0  0
  -28.6881  -12.0347   21.3729 H   0  0  0  0  0  0
  -28.4522  -13.7002   21.8309 H   0  0  0  0  0  0
  -25.2745   -9.5702   22.4700 H   0  0  0  0  0  0
  -24.0006   -7.4635   22.7441 H   0  0  0  0  0  0
  -21.0801   -8.8727   19.8973 H   0  0  0  0  0  0
  -22.3601  -10.9645   19.6145 H   0  0  0  0  0  0
  -21.2004   -7.6118   23.9687 H   0  0  0  0  0  0
  -21.1485   -6.0514   25.9070 H   0  0  0  0  0  0
  -22.0608   -2.7594   23.2839 H   0  0  0  0  0  0
  -22.4088  -11.9966   22.4860 H   0  0  0  0  0  0
  -21.1099  -13.1316   22.2581 H   0  0  0  0  0  0
  -24.6603  -15.8416   20.5281 H   0  0  0  0  0  0
  -26.2699  -15.6302   20.0627 H   0  0  0  0  0  0
  -26.7155  -32.5485   23.1125 H   0  0  0  0  0  0
  -25.0102  -33.9735   25.0457 H   0  0  0  0  0  0
  -22.7028  -31.3047   21.4010 H   0  0  0  0  0  0
  -23.3779  -35.9598   23.3177 H   0  0  0  0  0  0
  -24.3630  -36.9011   22.2058 H   0  0  0  0  0  0
  -23.7176  -37.6445   23.6704 H   0  0  0  0  0  0
  -26.0707  -31.5770   20.5968 H   0  0  0  0  0  0
  -26.8279  -30.8663   21.9937 H   0  0  0  0  0  0
  -28.1068  -29.0496   21.1956 H   0  0  0  0  0  0
  -26.0549  -25.9399   19.0315 H   0  0  0  0  0  0
  -23.9878  -27.2923   19.0189 H   0  0  0  0  0  0
  -23.7335  -30.5854   19.3966 H   0  0  0  0  0  0
  -22.7481  -29.2334   19.8689 H   0  0  0  0  0  0
  -25.1250  -36.1914   25.0833 H   0  0  0  0  0  0
  -20.9996  -28.3282   24.1427 H   0  0  0  0  0  0
  -20.5640  -26.2299   23.3654 H   0  0  0  0  0  0
  -21.6638  -26.7446   22.1265 H   0  0  0  0  0  0
  -19.6885  -25.6317   21.1272 H   0  0  0  0  0  0
  -19.6695  -27.3201   20.6742 H   0  0  0  0  0  0
  -17.4220  -26.6783   21.3975 H   0  0  0  0  0  0
  -18.0242  -26.0101   22.8980 H   0  0  0  0  0  0
  -19.7933  -30.7322   24.2250 H   0  0  0  0  0  0
  -17.5001  -31.6253   24.5203 H   0  0  0  0  0  0
  -15.5342  -30.2979   23.7660 H   0  0  0  0  0  0
  -15.8687  -28.0854   22.6994 H   0  0  0  0  0  0
  -24.5866  -30.7145   25.7911 H   0  0  0  0  0  0
  -24.8922  -32.3016   26.4864 H   0  0  0  0  0  0
  -25.8060  -30.9087   27.0310 H   0  0  0  0  0  0
  -26.2755  -29.6786   24.1188 H   0  0  0  0  0  0
  -27.3847  -29.7200   25.4675 H   0  0  0  0  0  0
  -27.8680  -30.4194   23.9398 H   0  0  0  0  0  0
  -27.2787  -33.3584   26.2045 H   0  0  0  0  0  0
  -28.3848  -32.6823   25.0183 H   0  0  0  0  0  0
  -28.0831  -31.8372   26.5263 H   0  0  0  0  0  0
  -28.2522  -38.0151   24.7656 H   0  0  0  0  0  0
  -28.1218  -36.2705   24.5951 H   0  0  0  0  0  0
  -27.2415  -37.1089   25.8823 H   0  0  0  0  0  0
  -20.9325  -29.8769   21.6917 H   0  0  0  0  0  0
  -26.0130  -38.2853   24.1586 H   0  0  0  0  0  0
  -28.2206  -17.9382   20.9734 H   0  0  0  0  0  0
  -29.2832  -20.7360   18.7110 H   0  0  0  0  0  0
  -28.9863  -21.2719   21.6939 H   0  0  0  0  0  0
  -32.4280  -20.4308   19.4196 H   0  0  0  0  0  0
  -32.2119  -19.4327   17.9780 H   0  0  0  0  0  0
  -33.2546  -18.8822   19.2917 H   0  0  0  0  0  0
  -27.2855  -22.8270   20.6576 H   0  0  0  0  0  0
  -28.1563  -22.8738   19.1566 H   0  0  0  0  0  0
  -29.8649  -24.3572   20.0225 H   0  0  0  0  0  0
  -29.5585  -23.8661   21.6500 H   0  0  0  0  0  0
  -28.4508  -25.7439   22.0056 H   0  0  0  0  0  0
  -27.1364  -25.0969   21.1020 H   0  0  0  0  0  0
  -28.9751  -15.4180   21.1431 H   0  0  0  0  0  0
  1 25  1  0  0  0
  1 30  2  0  0  0
  1 81  1  0  0  0
  2  3  1  0  0  0
  2 25  1  0  0  0
  2 83  1  0  0  0
  2 84  1  0  0  0
  3  4  1  0  0  0
  3 85  1  0  0  0
  3 86  1  0  0  0
  4  5  1  0  0  0
  4 87  1  0  0  0
  4 88  1  0  0  0
  5  6  1  0  0  0
  5 26  1  0  0  0
  5 89  1  0  0  0
  6 25  1  0  0  0
  6 90  1  0  0  0
  6 91  1  0  0  0
  7  8  2  0  0  0
  7 26  1  0  0  0
  7 29  1  0  0  0
  8  9  1  0  0  0
  8 22  1  0  0  0
  9 10  1  0  0  0
  9 27  2  0  0  0
 10 11  2  0  0  0
 10 15  1  0  0  0
 11 12  1  0  0  0
 11 92  1  0  0  0
 12 13  2  0  0  0
 12 93  1  0  0  0
 13 14  1  0  0  0
 13 31  1  0  0  0
 14 15  2  0  0  0
 14 94  1  0  0  0
 15 95  1  0  0  0
 16 17  2  0  0  0
 16 21  1  0  0  0
 16 31  1  0  0  0
 17 18  1  0  0  0
 17 96  1  0  0  0
 18 19  2  0  0  0
 18 97  1  0  0  0
 19 20  1  0  0  0
 19 24  1  0  0  0
 20 21  2  0  0  0
 20 98  1  0  0  0
 21 23  1  0  0  0
 22 28  1  0  0  0
 22 32  2  0  0  0
 26 27  1  0  0  0
 28 99  1  0  0  0
 28100  1  0  0  0
 29101  1  0  0  0
 29102  1  0  0  0
 33 34  1  0  0  0
 33 66  1  0  0  0
 33 70  2  0  0  0
 34 36  1  0  0  0
 34 59  1  0  0  0
 34103  1  0  0  0
 35 44  2  0  0  0
 35 45  1  0  0  0
 35 68  1  0  0  0
 36 56  1  0  0  0
 36104  1  0  0  0
 37 39  1  0  0  0
 37 47  1  0  0  0
 37 66  1  0  0  0
 37105  1  0  0  0
 38 43  2  0  0  0
 38 46  1  0  0  0
 38 47  1  0  0  0
 39 64  1  0  0  0
 39 67  2  0  0  0
 40 52  1  0  0  0
 40 53  2  0  0  0
 40 58  1  0  0  0
 41106  1  0  0  0
 41107  1  0  0  0
 41108  1  0  0  0
 41 48  1  0  0  0
 42 43  1  0  0  0
 42 66  1  0  0  0
 42109  1  0  0  0
 42110  1  0  0  0
 43 44  1  0  0  0
 44111  1  0  0  0
 45 46  2  0  0  0
 45112  1  0  0  0
 46113  1  0  0  0
 47114  1  0  0  0
 47115  1  0  0  0
 48 56  1  0  0  0
 48 65  1  0  0  0
 48116  1  0  0  0
 49 50  1  0  0  0
 49 53  1  0  0  0
 49 64  1  0  0  0
 49117  1  0  0  0
 50 51  1  0  0  0
 50118  1  0  0  0
 50119  1  0  0  0
 51 52  1  0  0  0
 51120  1  0  0  0
 51121  1  0  0  0
 52122  1  0  0  0
 52123  1  0  0  0
 53 54  1  0  0  0
 54 55  2  0  0  0
 54124  1  0  0  0
 55 57  1  0  0  0
 55125  1  0  0  0
 56 69  2  0  0  0
 57 58  2  0  0  0
 57126  1  0  0  0
 58127  1  0  0  0
 59 60  1  0  0  0
 59 61  1  0  0  0
 59 62  1  0  0  0
 60128  1  0  0  0
 60129  1  0  0  0
 60130  1  0  0  0
 61131  1  0  0  0
 61132  1  0  0  0
 61133  1  0  0  0
 62134  1  0  0  0
 62135  1  0  0  0
 62136  1  0  0  0
 63 65  1  0  0  0
 63137  1  0  0  0
 63138  1  0  0  0
 63139  1  0  0  0
 64140  1  0  0  0
 65141  1  0  0  0
 68 80  1  0  0  0
 71 72  1  0  0  0
 71 74  2  0  0  0
 71142  1  0  0  0
 72 73  2  0  0  0
 72 75  1  0  0  0
 73 77  1  0  0  0
 73 82  1  0  0  0
 74 81  1  0  0  0
 74 82  1  0  0  0
 75 76  2  0  0  0
 75143  1  0  0  0
 76 78  1  0  0  0
 76144  1  0  0  0
 77145  1  0  0  0
 77146  1  0  0  0
 77147  1  0  0  0
 78 79  1  0  0  0
 78148  1  0  0  0
 78149  1  0  0  0
 79 80  1  0  0  0
 79150  1  0  0  0
 79151  1  0  0  0
 80152  1  0  0  0
 80153  1  0  0  0
 81154  1  0  0  0
M  ISO  4   1 100  68 101  80 101  81 100
M  END
> <chiral flag>
0

> <version>
0

> <s_m_source_file>
/data/baiqing/PycharmProjects/Reinvent-master-3.2/result/LINK_invent/BTK/process_docking_weight1_custom_product_contain_oxygen_bond_distance_aromatic_linkinvent_7_9_3/rearranged_h_0121.sdf

> <i_m_source_file_index>
84

> <r_mmod_Potential_Energy-OPLS-2005>
6.28133010864258

> <r_mmod_Stretch_Energy-OPLS-2005>
47.8553924560547

> <r_mmod_Bend_Energy-OPLS-2005>
114.743377685547

> <r_mmod_Torsional_Energy-OPLS-2005>
265.958892822266

> <r_mmod_Improper_Torsional_Energy-OPLS-2005>
5.54608249664307

> <r_mmod_Van_der_Waal_Energy-OPLS-2005>
121.888153076172

> <r_mmod_Electrostatic_Energy-OPLS-2005>
-368.970886230469

> <r_mmod_Solvation_Energy-OPLS-2005>
-210.355987548828

> <b_mmod_Minimization_Converged-OPLS-2005>
0

> <r_mmod_RMS_Derivative-OPLS-2005>
2.85452723503113

$$$$
84
                    3D
 Structure written by MMmdl.
159167  0  0  1  0            999 V2000
  -30.6491  -14.6772   20.4692 C   0  0  0  0  0  0
  -30.4406  -12.4129   19.4520 C   0  0  0  0  0  0
  -29.5078  -12.5085   18.2241 C   0  0  0  0  0  0
  -28.0314  -12.3443   18.6395 C   0  0  0  0  0  0
  -27.6486  -13.2228   19.8599 C   0  0  2  0  0  0
  -28.7051  -13.1198   20.9855 C   0  0  0  0  0  0
  -25.2408  -13.8043   20.5647 C   0  0  0  0  0  0
  -24.1749  -13.0316   20.9251 C   0  0  0  0  0  0
  -24.6393  -11.6828   20.8792 C   0  0  0  0  0  0
  -23.9072  -10.4222   21.0425 C   0  0  0  0  0  0
  -24.3610   -9.4148   21.9211 C   0  0  0  0  0  0
  -23.6280   -8.2190   22.0768 C   0  0  0  0  0  0
  -22.4265   -8.0247   21.3547 C   0  0  0  0  0  0
  -21.9903   -9.0224   20.4653 C   0  0  0  0  0  0
  -22.7241  -10.2094   20.3066 C   0  0  0  0  0  0
  -21.6842   -6.0708   22.5281 C   0  0  0  0  0  0
  -21.4001   -6.5619   23.8210 C   0  0  0  0  0  0
  -21.3665   -5.6781   24.9179 C   0  0  0  0  0  0
  -21.6048   -4.3045   24.7233 C   0  0  0  0  0  0
  -21.8824   -3.8128   23.4357 C   0  0  0  0  0  0
  -21.9195   -4.6939   22.3408 C   0  0  0  0  0  0
  -22.7769  -13.5134   21.1886 C   0  0  0  0  0  0
  -22.1671   -4.2121   21.0991 F   0  0  0  0  0  0
  -21.5632   -3.4537   25.7749 F   0  0  0  0  0  0
  -30.0196  -13.4562   20.4086 N   0  0  0  0  0  0
  -26.2952  -12.9337   20.3336 N   0  0  0  0  0  0
  -25.9341  -11.6483   20.5818 N   0  0  0  0  0  0
  -22.0386  -12.8164   22.0443 N   0  0  0  0  0  0
  -25.3748  -15.1715   20.3864 N   0  0  0  0  0  0
  -31.8297  -14.8055   20.1360 O   0  0  0  0  0  0
  -21.6625   -6.8849   21.4241 O   0  0  0  0  0  0
  -22.3475  -14.5448   20.6725 O   0  0  0  0  0  0
  -24.6275  -31.8596   23.2034 C   0  0  0  0  0  0
  -25.9118  -32.4779   23.8363 C   0  0  1  0  0  0
  -27.2302  -27.3150   20.1091 C   0  0  0  0  0  0
  -25.5925  -33.8579   24.2290 N   0  0  0  0  0  0
  -23.4217  -30.4837   21.5465 C   0  0  2  0  0  0
  -24.8687  -28.9404   20.1112 C   0  0  0  0  0  0
  -22.7482  -29.4623   22.4943 C   0  0  0  0  0  0
  -18.0279  -28.1386   22.8488 C   0  0  0  0  0  0
  -24.1484  -36.7291   23.2641 C   0  0  0  0  0  0
  -25.9643  -30.7884   21.3764 C   0  0  0  0  0  0
  -26.0386  -29.4156   20.7176 C   0  0  0  0  0  0
  -27.2199  -28.6138   20.7097 C   0  0  0  0  0  0
  -26.0346  -26.8981   19.4759 C   0  0  0  0  0  0
  -24.8693  -27.6871   19.4828 C   0  0  0  0  0  0
  -23.6366  -29.8203   20.1614 C   0  0  0  0  0  0
  -25.4109  -36.3085   24.0333 C   0  0  1  0  0  0
  -20.5883  -28.3694   23.1289 C   0  0  2  0  0  0
  -20.6771  -26.9418   22.5415 C   0  0  0  0  0  0
  -19.5743  -26.6387   21.5218 C   0  0  0  0  0  0
  -18.1920  -26.7933   22.1623 C   0  0  0  0  0  0
  -19.1530  -28.8857   23.2884 C   0  0  0  0  0  0
  -18.9453  -30.1458   23.8898 C   0  0  0  0  0  0
  -17.6454  -30.6599   24.0557 C   0  0  0  0  0  0
  -25.9046  -34.9453   23.5112 C   0  0  0  0  0  0
  -16.5346  -29.9093   23.6329 C   0  0  0  0  0  0
  -16.7264  -28.6507   23.0360 C   0  0  0  0  0  0
  -26.4498  -31.6587   25.0737 C   0  0  0  0  0  0
  -25.3733  -31.3717   26.1463 C   0  0  0  0  0  0
  -27.0336  -30.3006   24.6194 C   0  0  0  0  0  0
  -27.6073  -32.4312   25.7499 C   0  0  0  0  0  0
  -27.5575  -37.1798   24.8465 C   0  0  0  0  0  0
  -21.4195  -29.3046   22.3688 N   0  0  0  0  0  0
  -26.4286  -37.3779   23.9410 N   0  0  0  0  0  0
  -24.6901  -31.0602   22.0987 N   0  0  0  0  0  0
  -23.4203  -28.8158   23.3025 O   0  0  0  0  0  0
  -28.3488  -26.4611   20.1590 O   0  0  0  0  0  0
  -26.5619  -34.8923   22.4680 O   0  0  0  0  0  0
  -23.5437  -32.1397   23.7349 O   0  0  0  0  0  0
  -31.1475  -17.9525   20.9249 C   0  0  0  0  0  0
  -28.9441  -19.4316   20.0170 C   0  0  0  0  0  0
  -31.1780  -19.3858   20.8929 C   0  0  0  0  0  0
  -28.9044  -18.0052   20.0628 C   0  0  0  0  0  0
  -29.9979  -17.2149   20.5356 C   0  0  0  0  0  0
  -30.0689  -20.1701   20.4542 C   0  0  0  0  0  0
  -29.2427  -23.9948   20.3283 C   0  0  0  0  0  0
  -32.4291  -20.1005   21.3694 C   0  0  0  0  0  0
  -27.7488  -16.7293   18.1981 C   0  0  0  0  0  0
  -27.6306  -17.3327   19.6044 C   0  0  0  0  0  0
  -28.1241  -25.0177   19.8804 C   0  0  0  0  0  0
  -29.0080  -22.4403   20.1059 C   0  0  0  0  0  0
  -29.8386  -15.7591   20.7052 N   0  0  0  0  0  0
  -30.2864  -24.4018   20.8522 O   0  0  0  0  0  0
  -30.1402  -21.5829   20.4880 O   0  0  0  0  0  0
  -31.4812  -12.5319   19.1442 H   0  0  0  0  0  0
  -30.3762  -11.4247   19.9117 H   0  0  0  0  0  0
  -29.7761  -11.7502   17.4869 H   0  0  0  0  0  0
  -29.6451  -13.4730   17.7323 H   0  0  0  0  0  0
  -27.8733  -11.2932   18.8818 H   0  0  0  0  0  0
  -27.3759  -12.5637   17.7962 H   0  0  0  0  0  0
  -27.6477  -14.2494   19.5025 H   0  0  0  0  0  0
  -28.7266  -12.1110   21.4000 H   0  0  0  0  0  0
  -28.4543  -13.7814   21.8163 H   0  0  0  0  0  0
  -25.2744   -9.5627   22.4795 H   0  0  0  0  0  0
  -23.9984   -7.4579   22.7485 H   0  0  0  0  0  0
  -21.0835   -8.8758   19.8953 H   0  0  0  0  0  0
  -22.3719  -10.9643   19.6173 H   0  0  0  0  0  0
  -21.1978   -7.6120   23.9707 H   0  0  0  0  0  0
  -21.1493   -6.0506   25.9084 H   0  0  0  0  0  0
  -22.0596   -2.7587   23.2866 H   0  0  0  0  0  0
  -22.3972  -11.9840   22.4883 H   0  0  0  0  0  0
  -21.1004  -13.1221   22.2615 H   0  0  0  0  0  0
  -24.5683  -15.7835   20.4452 H   0  0  0  0  0  0
  -26.1581  -15.5913   19.9073 H   0  0  0  0  0  0
  -26.7190  -32.5446   23.1120 H   0  0  0  0  0  0
  -25.0071  -33.9718   25.0433 H   0  0  0  0  0  0
  -22.7156  -31.3045   21.4048 H   0  0  0  0  0  0
  -23.3745  -35.9625   23.3313 H   0  0  0  0  0  0
  -24.3575  -36.8898   22.2056 H   0  0  0  0  0  0
  -23.7244  -37.6500   23.6652 H   0  0  0  0  0  0
  -26.0961  -31.5509   20.6073 H   0  0  0  0  0  0
  -26.8450  -30.8378   22.0056 H   0  0  0  0  0  0
  -28.1152  -28.9728   21.1971 H   0  0  0  0  0  0
  -25.9653  -25.9454   18.9721 H   0  0  0  0  0  0
  -23.9737  -27.3191   19.0011 H   0  0  0  0  0  0
  -23.7558  -30.5981   19.4063 H   0  0  0  0  0  0
  -22.7562  -29.2504   19.8586 H   0  0  0  0  0  0
  -25.1287  -36.1945   25.0825 H   0  0  0  0  0  0
  -20.9964  -28.3268   24.1416 H   0  0  0  0  0  0
  -20.5690  -26.2298   23.3615 H   0  0  0  0  0  0
  -21.6638  -26.7464   22.1202 H   0  0  0  0  0  0
  -19.6912  -25.6297   21.1251 H   0  0  0  0  0  0
  -19.6691  -27.3198   20.6748 H   0  0  0  0  0  0
  -17.4201  -26.6697   21.4010 H   0  0  0  0  0  0
  -18.0307  -26.0075   22.9016 H   0  0  0  0  0  0
  -19.7926  -30.7268   24.2282 H   0  0  0  0  0  0
  -17.5009  -31.6281   24.5153 H   0  0  0  0  0  0
  -15.5343  -30.2995   23.7657 H   0  0  0  0  0  0
  -15.8662  -28.0823   22.7089 H   0  0  0  0  0  0
  -24.5907  -30.7071   25.7785 H   0  0  0  0  0  0
  -24.8921  -32.2874   26.4906 H   0  0  0  0  0  0
  -25.8055  -30.8878   27.0230 H   0  0  0  0  0  0
  -26.2902  -29.6760   24.1228 H   0  0  0  0  0  0
  -27.4034  -29.7267   25.4702 H   0  0  0  0  0  0
  -27.8778  -30.4284   23.9417 H   0  0  0  0  0  0
  -27.2704  -33.3614   26.2087 H   0  0  0  0  0  0
  -28.3873  -32.6863   25.0314 H   0  0  0  0  0  0
  -28.0756  -31.8428   26.5401 H   0  0  0  0  0  0
  -28.2601  -38.0088   24.7498 H   0  0  0  0  0  0
  -28.1053  -36.2614   24.6293 H   0  0  0  0  0  0
  -27.2290  -37.1468   25.8868 H   0  0  0  0  0  0
  -20.9378  -29.8760   21.6890 H   0  0  0  0  0  0
  -26.0169  -38.2854   24.1399 H   0  0  0  0  0  0
  -32.0088  -17.4139   21.2958 H   0  0  0  0  0  0
  -28.0747  -19.9592   19.6520 H   0  0  0  0  0  0
  -33.1319  -19.4153   21.8446 H   0  0  0  0  0  0
  -32.1709  -20.8713   22.0961 H   0  0  0  0  0  0
  -32.9354  -20.5796   20.5312 H   0  0  0  0  0  0
  -26.8293  -16.2151   17.9164 H   0  0  0  0  0  0
  -28.5653  -16.0093   18.1354 H   0  0  0  0  0  0
  -27.9363  -17.5039   17.4540 H   0  0  0  0  0  0
  -26.7968  -18.0362   19.6339 H   0  0  0  0  0  0
  -27.4050  -16.5757   20.3467 H   0  0  0  0  0  0
  -27.2036  -24.6971   20.3695 H   0  0  0  0  0  0
  -27.9764  -24.8906   18.8078 H   0  0  0  0  0  0
  -28.7760  -22.2745   19.0538 H   0  0  0  0  0  0
  -28.1290  -22.1439   20.6783 H   0  0  0  0  0  0
  -28.8869  -15.4714   20.8684 H   0  0  0  0  0  0
  1 25  1  0  0  0
  1 30  2  0  0  0
  1 83  1  0  0  0
  2  3  1  0  0  0
  2 25  1  0  0  0
  2 86  1  0  0  0
  2 87  1  0  0  0
  3  4  1  0  0  0
  3 88  1  0  0  0
  3 89  1  0  0  0
  4  5  1  0  0  0
  4 90  1  0  0  0
  4 91  1  0  0  0
  5  6  1  0  0  0
  5 26  1  0  0  0
  5 92  1  0  0  0
  6 25  1  0  0  0
  6 93  1  0  0  0
  6 94  1  0  0  0
  7  8  2  0  0  0
  7 26  1  0  0  0
  7 29  1  0  0  0
  8  9  1  0  0  0
  8 22  1  0  0  0
  9 10  1  0  0  0
  9 27  2  0  0  0
 10 11  2  0  0  0
 10 15  1  0  0  0
 11 12  1  0  0  0
 11 95  1  0  0  0
 12 13  2  0  0  0
 12 96  1  0  0  0
 13 14  1  0  0  0
 13 31  1  0  0  0
 14 15  2  0  0  0
 14 97  1  0  0  0
 15 98  1  0  0  0
 16 17  2  0  0  0
 16 21  1  0  0  0
 16 31  1  0  0  0
 17 18  1  0  0  0
 17 99  1  0  0  0
 18 19  2  0  0  0
 18100  1  0  0  0
 19 20  1  0  0  0
 19 24  1  0  0  0
 20 21  2  0  0  0
 20101  1  0  0  0
 21 23  1  0  0  0
 22 28  1  0  0  0
 22 32  2  0  0  0
 26 27  1  0  0  0
 28102  1  0  0  0
 28103  1  0  0  0
 29104  1  0  0  0
 29105  1  0  0  0
 33 34  1  0  0  0
 33 66  1  0  0  0
 33 70  2  0  0  0
 34 36  1  0  0  0
 34 59  1  0  0  0
 34106  1  0  0  0
 35 44  2  0  0  0
 35 45  1  0  0  0
 35 68  1  0  0  0
 36 56  1  0  0  0
 36107  1  0  0  0
 37 39  1  0  0  0
 37 47  1  0  0  0
 37 66  1  0  0  0
 37108  1  0  0  0
 38 43  2  0  0  0
 38 46  1  0  0  0
 38 47  1  0  0  0
 39 64  1  0  0  0
 39 67  2  0  0  0
 40 52  1  0  0  0
 40 53  2  0  0  0
 40 58  1  0  0  0
 41109  1  0  0  0
 41110  1  0  0  0
 41111  1  0  0  0
 41 48  1  0  0  0
 42 43  1  0  0  0
 42 66  1  0  0  0
 42112  1  0  0  0
 42113  1  0  0  0
 43 44  1  0  0  0
 44114  1  0  0  0
 45 46  2  0  0  0
 45115  1  0  0  0
 46116  1  0  0  0
 47117  1  0  0  0
 47118  1  0  0  0
 48 56  1  0  0  0
 48 65  1  0  0  0
 48119  1  0  0  0
 49 50  1  0  0  0
 49 53  1  0  0  0
 49 64  1  0  0  0
 49120  1  0  0  0
 50 51  1  0  0  0
 50121  1  0  0  0
 50122  1  0  0  0
 51 52  1  0  0  0
 51123  1  0  0  0
 51124  1  0  0  0
 52125  1  0  0  0
 52126  1  0  0  0
 53 54  1  0  0  0
 54 55  2  0  0  0
 54127  1  0  0  0
 55 57  1  0  0  0
 55128  1  0  0  0
 56 69  2  0  0  0
 57 58  2  0  0  0
 57129  1  0  0  0
 58130  1  0  0  0
 59 60  1  0  0  0
 59 61  1  0  0  0
 59 62  1  0  0  0
 60131  1  0  0  0
 60132  1  0  0  0
 60133  1  0  0  0
 61134  1  0  0  0
 61135  1  0  0  0
 61136  1  0  0  0
 62137  1  0  0  0
 62138  1  0  0  0
 62139  1  0  0  0
 63 65  1  0  0  0
 63140  1  0  0  0
 63141  1  0  0  0
 63142  1  0  0  0
 64143  1  0  0  0
 65144  1  0  0  0
 68 81  1  0  0  0
 71 73  2  0  0  0
 71 75  1  0  0  0
 71145  1  0  0  0
 72 74  1  0  0  0
 72 76  2  0  0  0
 72146  1  0  0  0
 73 76  1  0  0  0
 73 78  1  0  0  0
 74 75  2  0  0  0
 74 80  1  0  0  0
 75 83  1  0  0  0
 76 85  1  0  0  0
 77 81  1  0  0  0
 77 82  1  0  0  0
 77 84  2  0  0  0
 78147  1  0  0  0
 78148  1  0  0  0
 78149  1  0  0  0
 79 80  1  0  0  0
 79150  1  0  0  0
 79151  1  0  0  0
 79152  1  0  0  0
 80153  1  0  0  0
 80154  1  0  0  0
 81155  1  0  0  0
 81156  1  0  0  0
 82 85  1  0  0  0
 82157  1  0  0  0
 82158  1  0  0  0
 83159  1  0  0  0
M  ISO  4   1 100  68 101  81 101  83 100
M  END
> <chiral flag>
0

> <version>
0

> <s_m_source_file>
/data/baiqing/PycharmProjects/Reinvent-master-3.2/result/LINK_invent/BTK/process_docking_weight1_custom_product_contain_oxygen_bond_distance_aromatic_linkinvent_7_9_3/rearranged_h_0121.sdf

> <i_m_source_file_index>
85

> <r_mmod_Potential_Energy-OPLS-2005>
61.876594543457

> <r_mmod_Stretch_Energy-OPLS-2005>
86.3236465454102

> <r_mmod_Bend_Energy-OPLS-2005>
141.3017578125

> <r_mmod_Torsional_Energy-OPLS-2005>
218.719100952148

> <r_mmod_Improper_Torsional_Energy-OPLS-2005>
6.61603021621704

> <r_mmod_Van_der_Waal_Energy-OPLS-2005>
140.362655639648

> <r_mmod_Electrostatic_Energy-OPLS-2005>
-346.965667724609

> <r_mmod_Solvation_Energy-OPLS-2005>
-241.750762939453

> <b_mmod_Minimization_Converged-OPLS-2005>
0

> <r_mmod_RMS_Derivative-OPLS-2005>
1.42809891700745

$$$$
85
                    3D
 Structure written by MMmdl.
163171  0  0  1  0            999 V2000
  -30.6865  -14.3975   20.6613 C   0  0  0  0  0  0
  -30.4201  -12.2788   19.4179 C   0  0  0  0  0  0
  -29.4932  -12.5105   18.2042 C   0  0  0  0  0  0
  -28.0102  -12.3711   18.6052 C   0  0  0  0  0  0
  -27.6639  -13.1875   19.8759 C   0  0  2  0  0  0
  -28.6898  -12.8831   20.9853 C   0  0  0  0  0  0
  -25.2644  -13.8190   20.5645 C   0  0  0  0  0  0
  -24.1842  -13.0477   20.9120 C   0  0  0  0  0  0
  -24.6348  -11.6941   20.8660 C   0  0  0  0  0  0
  -23.9015  -10.4331   21.0388 C   0  0  0  0  0  0
  -24.3609   -9.4273   21.9168 C   0  0  0  0  0  0
  -23.6308   -8.2288   22.0758 C   0  0  0  0  0  0
  -22.4286   -8.0295   21.3556 C   0  0  0  0  0  0
  -21.9895   -9.0247   20.4655 C   0  0  0  0  0  0
  -22.7196  -10.2141   20.3044 C   0  0  0  0  0  0
  -21.6880   -6.0751   22.5275 C   0  0  0  0  0  0
  -21.4029   -6.5656   23.8204 C   0  0  0  0  0  0
  -21.3645   -5.6811   24.9159 C   0  0  0  0  0  0
  -21.6034   -4.3068   24.7218 C   0  0  0  0  0  0
  -21.8833   -3.8163   23.4336 C   0  0  0  0  0  0
  -21.9212   -4.6979   22.3399 C   0  0  0  0  0  0
  -22.7879  -13.5287   21.1810 C   0  0  0  0  0  0
  -22.1684   -4.2165   21.0978 F   0  0  0  0  0  0
  -21.5599   -3.4549   25.7733 F   0  0  0  0  0  0
  -30.0292  -13.2203   20.4767 N   0  0  0  0  0  0
  -26.3015  -12.9275   20.3311 N   0  0  0  0  0  0
  -25.9257  -11.6457   20.5685 N   0  0  0  0  0  0
  -22.0553  -12.8233   22.0376 N   0  0  0  0  0  0
  -25.4507  -15.1892   20.4116 N   0  0  0  0  0  0
  -31.7681  -14.6399   20.1123 O   0  0  0  0  0  0
  -21.6669   -6.8876   21.4239 O   0  0  0  0  0  0
  -22.3562  -14.5602   20.6710 O   0  0  0  0  0  0
  -24.6104  -31.8714   23.2191 C   0  0  0  0  0  0
  -25.9005  -32.4864   23.8463 C   0  0  1  0  0  0
  -27.2036  -27.4272   20.1348 C   0  0  0  0  0  0
  -25.5889  -33.8661   24.2402 N   0  0  0  0  0  0
  -23.4002  -30.5006   21.5548 C   0  0  2  0  0  0
  -24.8438  -28.9694   20.1125 C   0  0  0  0  0  0
  -22.7427  -29.4694   22.4994 C   0  0  0  0  0  0
  -18.0291  -28.1334   22.8543 C   0  0  0  0  0  0
  -24.1482  -36.7324   23.2641 C   0  0  0  0  0  0
  -25.9262  -30.8377   21.3742 C   0  0  0  0  0  0
  -25.9986  -29.4668   20.7333 C   0  0  0  0  0  0
  -27.1792  -28.6924   20.7548 C   0  0  0  0  0  0
  -26.0608  -26.9717   19.4504 C   0  0  0  0  0  0
  -24.8675  -27.7201   19.4682 C   0  0  0  0  0  0
  -23.6088  -29.8417   20.1635 C   0  0  0  0  0  0
  -25.4109  -36.3142   24.0350 C   0  0  1  0  0  0
  -20.5881  -28.3671   23.1284 C   0  0  2  0  0  0
  -20.6813  -26.9461   22.5244 C   0  0  0  0  0  0
  -19.5718  -26.6462   21.5123 C   0  0  0  0  0  0
  -18.1981  -26.7870   22.1702 C   0  0  0  0  0  0
  -19.1536  -28.8814   23.2902 C   0  0  0  0  0  0
  -18.9464  -30.1444   23.8867 C   0  0  0  0  0  0
  -17.6476  -30.6554   24.0617 C   0  0  0  0  0  0
  -25.9046  -34.9501   23.5195 C   0  0  0  0  0  0
  -16.5374  -29.9032   23.6411 C   0  0  0  0  0  0
  -16.7281  -28.6462   23.0399 C   0  0  0  0  0  0
  -26.4438  -31.6634   25.0763 C   0  0  0  0  0  0
  -25.3751  -31.3682   26.1546 C   0  0  0  0  0  0
  -27.0267  -30.3112   24.6075 C   0  0  0  0  0  0
  -27.6053  -32.4315   25.7511 C   0  0  0  0  0  0
  -27.5590  -37.1825   24.8470 C   0  0  0  0  0  0
  -21.4134  -29.3107   22.3772 N   0  0  0  0  0  0
  -26.4303  -37.3816   23.9409 N   0  0  0  0  0  0
  -24.6628  -31.0871   22.1063 N   0  0  0  0  0  0
  -23.4232  -28.8184   23.2976 O   0  0  0  0  0  0
  -28.3110  -26.6206   20.1896 O   0  0  0  0  0  0
  -26.5620  -34.8931   22.4754 O   0  0  0  0  0  0
  -23.5313  -32.1434   23.7648 O   0  0  0  0  0  0
  -29.7243  -19.1263   21.6853 C   0  0  0  0  0  0
  -28.0995  -17.7493   22.4330 C   0  0  0  0  0  0
  -29.2642  -17.7886   21.7210 C   0  0  0  0  0  0
  -28.8048  -19.8996   22.3357 C   0  0  0  0  0  0
  -29.9913  -16.6774   21.0949 C   0  0  0  0  0  0
  -28.8577  -21.3271   22.4759 C   0  0  0  0  0  0
  -29.9641  -15.3844   21.4634 C   0  0  0  0  0  0
  -27.9834  -22.2682   22.8739 C   0  0  0  0  0  0
  -28.3679  -23.6766   20.2710 C   0  0  0  0  0  0
  -26.3172  -24.4608   21.4856 C   0  0  0  0  0  0
  -26.5616  -19.4167   23.4968 C   0  0  0  0  0  0
  -28.3060  -23.7613   22.8263 C   0  0  0  0  0  0
  -28.4612  -25.9139   21.4394 C   0  0  0  0  0  0
  -27.8609  -24.4647   21.4990 C   0  0  0  0  0  0
  -27.7769  -19.0579   22.7822 N   0  0  0  0  0  0
  -31.4653  -12.3848   19.1294 H   0  0  0  0  0  0
  -30.3136  -11.2546   19.7794 H   0  0  0  0  0  0
  -29.7295  -11.8017   17.4097 H   0  0  0  0  0  0
  -29.6693  -13.5042   17.7916 H   0  0  0  0  0  0
  -27.8125  -11.3134   18.7834 H   0  0  0  0  0  0
  -27.3588  -12.6616   17.7806 H   0  0  0  0  0  0
  -27.7360  -14.2436   19.6196 H   0  0  0  0  0  0
  -28.6584  -11.8198   21.2271 H   0  0  0  0  0  0
  -28.4170  -13.3705   21.9173 H   0  0  0  0  0  0
  -25.2752   -9.5783   22.4726 H   0  0  0  0  0  0
  -24.0048   -7.4704   22.7477 H   0  0  0  0  0  0
  -21.0818   -8.8738   19.8966 H   0  0  0  0  0  0
  -22.3626  -10.9671   19.6148 H   0  0  0  0  0  0
  -21.2044   -7.6167   23.9705 H   0  0  0  0  0  0
  -21.1437   -6.0541   25.9060 H   0  0  0  0  0  0
  -22.0629   -2.7623   23.2834 H   0  0  0  0  0  0
  -22.4181  -11.9855   22.4668 H   0  0  0  0  0  0
  -21.1201  -13.1280   22.2669 H   0  0  0  0  0  0
  -24.7116  -15.8715   20.5400 H   0  0  0  0  0  0
  -26.3306  -15.6103   20.1357 H   0  0  0  0  0  0
  -26.7087  -32.5609   23.1242 H   0  0  0  0  0  0
  -24.9916  -33.9816   25.0472 H   0  0  0  0  0  0
  -22.6798  -31.3101   21.4235 H   0  0  0  0  0  0
  -23.3758  -35.9648   23.3322 H   0  0  0  0  0  0
  -24.3517  -36.8911   22.2040 H   0  0  0  0  0  0
  -23.7225  -37.6538   23.6623 H   0  0  0  0  0  0
  -26.0512  -31.5960   20.5970 H   0  0  0  0  0  0
  -26.8114  -30.8951   21.9960 H   0  0  0  0  0  0
  -28.0687  -29.0495   21.2531 H   0  0  0  0  0  0
  -26.1030  -26.0335   18.9180 H   0  0  0  0  0  0
  -23.9829  -27.3510   18.9655 H   0  0  0  0  0  0
  -23.7111  -30.6180   19.4016 H   0  0  0  0  0  0
  -22.7300  -29.2616   19.8749 H   0  0  0  0  0  0
  -25.1286  -36.2013   25.0844 H   0  0  0  0  0  0
  -21.0030  -28.3195   24.1378 H   0  0  0  0  0  0
  -20.5833  -26.2283   23.3395 H   0  0  0  0  0  0
  -21.6656  -26.7595   22.0929 H   0  0  0  0  0  0
  -19.6893  -25.6432   21.1008 H   0  0  0  0  0  0
  -19.6523  -27.3367   20.6711 H   0  0  0  0  0  0
  -17.4139  -26.6430   21.4275 H   0  0  0  0  0  0
  -18.0637  -26.0035   22.9152 H   0  0  0  0  0  0
  -19.7943  -30.7301   24.2170 H   0  0  0  0  0  0
  -17.5025  -31.6233   24.5214 H   0  0  0  0  0  0
  -15.5375  -30.2897   23.7795 H   0  0  0  0  0  0
  -15.8686  -28.0811   22.7044 H   0  0  0  0  0  0
  -24.5906  -30.7042   25.7887 H   0  0  0  0  0  0
  -24.8963  -32.2816   26.5087 H   0  0  0  0  0  0
  -25.8148  -30.8778   27.0254 H   0  0  0  0  0  0
  -26.2798  -29.6915   24.1100 H   0  0  0  0  0  0
  -27.4062  -29.7259   25.4462 H   0  0  0  0  0  0
  -27.8611  -30.4471   23.9195 H   0  0  0  0  0  0
  -27.2698  -33.3576   26.2176 H   0  0  0  0  0  0
  -28.3805  -32.6943   25.0308 H   0  0  0  0  0  0
  -28.0780  -31.8381   26.5345 H   0  0  0  0  0  0
  -28.2662  -38.0086   24.7520 H   0  0  0  0  0  0
  -28.1039  -36.2624   24.6298 H   0  0  0  0  0  0
  -27.2290  -37.1481   25.8872 H   0  0  0  0  0  0
  -20.9236  -29.8855   21.7070 H   0  0  0  0  0  0
  -26.0216  -38.2915   24.1373 H   0  0  0  0  0  0
  -30.6286  -19.4943   21.2216 H   0  0  0  0  0  0
  -27.4481  -16.9258   22.6963 H   0  0  0  0  0  0
  -30.5692  -16.9583   20.2239 H   0  0  0  0  0  0
  -29.8224  -21.7133   22.1707 H   0  0  0  0  0  0
  -29.4122  -15.1072   22.3477 H   0  0  0  0  0  0
  -26.9917  -22.0002   23.2144 H   0  0  0  0  0  0
  -27.9555  -22.6697   20.2268 H   0  0  0  0  0  0
  -29.4555  -23.5937   20.2808 H   0  0  0  0  0  0
  -28.0763  -24.1541   19.3363 H   0  0  0  0  0  0
  -25.9065  -23.5112   21.8305 H   0  0  0  0  0  0
  -25.9075  -24.6037   20.4894 H   0  0  0  0  0  0
  -25.9164  -25.2367   22.1359 H   0  0  0  0  0  0
  -26.0746  -18.5145   23.8691 H   0  0  0  0  0  0
  -25.8700  -19.9278   22.8261 H   0  0  0  0  0  0
  -26.7854  -20.0495   24.3583 H   0  0  0  0  0  0
  -29.3739  -23.8986   22.9857 H   0  0  0  0  0  0
  -27.8354  -24.2270   23.6952 H   0  0  0  0  0  0
  -28.0952  -26.5068   22.2807 H   0  0  0  0  0  0
  -29.5363  -25.8412   21.6008 H   0  0  0  0  0  0
  1 25  1  0  0  0
  1 30  2  0  0  0
  1 77  1  0  0  0
  2  3  1  0  0  0
  2 25  1  0  0  0
  2 86  1  0  0  0
  2 87  1  0  0  0
  3  4  1  0  0  0
  3 88  1  0  0  0
  3 89  1  0  0  0
  4  5  1  0  0  0
  4 90  1  0  0  0
  4 91  1  0  0  0
  5  6  1  0  0  0
  5 26  1  0  0  0
  5 92  1  0  0  0
  6 25  1  0  0  0
  6 93  1  0  0  0
  6 94  1  0  0  0
  7  8  2  0  0  0
  7 26  1  0  0  0
  7 29  1  0  0  0
  8  9  1  0  0  0
  8 22  1  0  0  0
  9 10  1  0  0  0
  9 27  2  0  0  0
 10 11  2  0  0  0
 10 15  1  0  0  0
 11 12  1  0  0  0
 11 95  1  0  0  0
 12 13  2  0  0  0
 12 96  1  0  0  0
 13 14  1  0  0  0
 13 31  1  0  0  0
 14 15  2  0  0  0
 14 97  1  0  0  0
 15 98  1  0  0  0
 16 17  2  0  0  0
 16 21  1  0  0  0
 16 31  1  0  0  0
 17 18  1  0  0  0
 17 99  1  0  0  0
 18 19  2  0  0  0
 18100  1  0  0  0
 19 20  1  0  0  0
 19 24  1  0  0  0
 20 21  2  0  0  0
 20101  1  0  0  0
 21 23  1  0  0  0
 22 28  1  0  0  0
 22 32  2  0  0  0
 26 27  1  0  0  0
 28102  1  0  0  0
 28103  1  0  0  0
 29104  1  0  0  0
 29105  1  0  0  0
 33 34  1  0  0  0
 33 66  1  0  0  0
 33 70  2  0  0  0
 34 36  1  0  0  0
 34 59  1  0  0  0
 34106  1  0  0  0
 35 44  2  0  0  0
 35 45  1  0  0  0
 35 68  1  0  0  0
 36 56  1  0  0  0
 36107  1  0  0  0
 37 39  1  0  0  0
 37 47  1  0  0  0
 37 66  1  0  0  0
 37108  1  0  0  0
 38 43  2  0  0  0
 38 46  1  0  0  0
 38 47  1  0  0  0
 39 64  1  0  0  0
 39 67  2  0  0  0
 40 52  1  0  0  0
 40 53  2  0  0  0
 40 58  1  0  0  0
 41109  1  0  0  0
 41110  1  0  0  0
 41111  1  0  0  0
 41 48  1  0  0  0
 42 43  1  0  0  0
 42 66  1  0  0  0
 42112  1  0  0  0
 42113  1  0  0  0
 43 44  1  0  0  0
 44114  1  0  0  0
 45 46  2  0  0  0
 45115  1  0  0  0
 46116  1  0  0  0
 47117  1  0  0  0
 47118  1  0  0  0
 48 56  1  0  0  0
 48 65  1  0  0  0
 48119  1  0  0  0
 49 50  1  0  0  0
 49 53  1  0  0  0
 49 64  1  0  0  0
 49120  1  0  0  0
 50 51  1  0  0  0
 50121  1  0  0  0
 50122  1  0  0  0
 51 52  1  0  0  0
 51123  1  0  0  0
 51124  1  0  0  0
 52125  1  0  0  0
 52126  1  0  0  0
 53 54  1  0  0  0
 54 55  2  0  0  0
 54127  1  0  0  0
 55 57  1  0  0  0
 55128  1  0  0  0
 56 69  2  0  0  0
 57 58  2  0  0  0
 57129  1  0  0  0
 58130  1  0  0  0
 59 60  1  0  0  0
 59 61  1  0  0  0
 59 62  1  0  0  0
 60131  1  0  0  0
 60132  1  0  0  0
 60133  1  0  0  0
 61134  1  0  0  0
 61135  1  0  0  0
 61136  1  0  0  0
 62137  1  0  0  0
 62138  1  0  0  0
 62139  1  0  0  0
 63 65  1  0  0  0
 63140  1  0  0  0
 63141  1  0  0  0
 63142  1  0  0  0
 64143  1  0  0  0
 65144  1  0  0  0
 68 83  1  0  0  0
 71 73  1  0  0  0
 71 74  2  0  0  0
 71145  1  0  0  0
 72 73  2  0  0  0
 72 85  1  0  0  0
 72146  1  0  0  0
 73 75  1  0  0  0
 74 76  1  0  0  0
 74 85  1  0  0  0
 75 77  2  0  0  0
 75147  1  0  0  0
 76 78  2  0  0  0
 76148  1  0  0  0
 77149  1  0  0  0
 78 82  1  0  0  0
 78150  1  0  0  0
 79151  1  0  0  0
 79152  1  0  0  0
 79153  1  0  0  0
 79 84  1  0  0  0
 80 84  1  0  0  0
 80154  1  0  0  0
 80155  1  0  0  0
 80156  1  0  0  0
 81 85  1  0  0  0
 81157  1  0  0  0
 81158  1  0  0  0
 81159  1  0  0  0
 82 84  1  0  0  0
 82160  1  0  0  0
 82161  1  0  0  0
 83 84  1  0  0  0
 83162  1  0  0  0
 83163  1  0  0  0
M  ISO  4   1 100  68 101  77 100  83 101
M  END
> <chiral flag>
0

> <version>
0

> <s_m_source_file>
/data/baiqing/PycharmProjects/Reinvent-master-3.2/result/LINK_invent/BTK/process_docking_weight1_custom_product_contain_oxygen_bond_distance_aromatic_linkinvent_7_9_3/rearranged_h_0121.sdf

> <i_m_source_file_index>
86

> <r_mmod_Potential_Energy-OPLS-2005>
-7.01545429229736

> <r_mmod_Stretch_Energy-OPLS-2005>
36.1015739440918

> <r_mmod_Bend_Energy-OPLS-2005>
114.535766601562

> <r_mmod_Torsional_Energy-OPLS-2005>
224.500213623047

> <r_mmod_Improper_Torsional_Energy-OPLS-2005>
3.08653974533081

> <r_mmod_Van_der_Waal_Energy-OPLS-2005>
140.488296508789

> <r_mmod_Electrostatic_Energy-OPLS-2005>
-357.200225830078

> <r_mmod_Solvation_Energy-OPLS-2005>
-184.132781982422

> <b_mmod_Minimization_Converged-OPLS-2005>
0

> <r_mmod_RMS_Derivative-OPLS-2005>
5.73388957977295

$$$$
86
                    3D
 Structure written by MMmdl.
164173  0  0  1  0            999 V2000
  -30.7421  -14.4869   20.4956 C   0  0  0  0  0  0
  -30.3907  -12.2912   19.4676 C   0  0  0  0  0  0
  -29.4930  -12.4747   18.2275 C   0  0  0  0  0  0
  -28.0120  -12.3487   18.6287 C   0  0  0  0  0  0
  -27.6466  -13.2232   19.8594 C   0  0  2  0  0  0
  -28.6828  -13.0826   20.9951 C   0  0  0  0  0  0
  -25.2514  -13.8205   20.5696 C   0  0  0  0  0  0
  -24.1790  -13.0450   20.9190 C   0  0  0  0  0  0
  -24.6372  -11.6925   20.8740 C   0  0  0  0  0  0
  -23.9053  -10.4299   21.0403 C   0  0  0  0  0  0
  -24.3620   -9.4203   21.9163 C   0  0  0  0  0  0
  -23.6297   -8.2231   22.0728 C   0  0  0  0  0  0
  -22.4263   -8.0275   21.3541 C   0  0  0  0  0  0
  -21.9901   -9.0246   20.4639 C   0  0  0  0  0  0
  -22.7227  -10.2129   20.3049 C   0  0  0  0  0  0
  -21.6848   -6.0737   22.5280 C   0  0  0  0  0  0
  -21.4014   -6.5635   23.8216 C   0  0  0  0  0  0
  -21.3662   -5.6784   24.9179 C   0  0  0  0  0  0
  -21.6042   -4.3048   24.7221 C   0  0  0  0  0  0
  -21.8819   -3.8150   23.4343 C   0  0  0  0  0  0
  -21.9193   -4.6965   22.3400 C   0  0  0  0  0  0
  -22.7814  -13.5220   21.1865 C   0  0  0  0  0  0
  -22.1652   -4.2159   21.0973 F   0  0  0  0  0  0
  -21.5635   -3.4527   25.7731 F   0  0  0  0  0  0
  -30.0125  -13.3380   20.4347 N   0  0  0  0  0  0
  -26.2940  -12.9403   20.3312 N   0  0  0  0  0  0
  -25.9295  -11.6544   20.5754 N   0  0  0  0  0  0
  -22.0473  -12.8210   22.0433 N   0  0  0  0  0  0
  -25.4252  -15.1923   20.4154 N   0  0  0  0  0  0
  -31.9323  -14.4648   20.1731 O   0  0  0  0  0  0
  -21.6623   -6.8877   21.4242 O   0  0  0  0  0  0
  -22.3472  -14.5519   20.6715 O   0  0  0  0  0  0
  -24.6129  -31.8700   23.2132 C   0  0  0  0  0  0
  -25.9030  -32.4837   23.8407 C   0  0  1  0  0  0
  -27.2085  -27.4118   20.0934 C   0  0  0  0  0  0
  -25.5901  -33.8634   24.2349 N   0  0  0  0  0  0
  -23.3988  -30.4978   21.5543 C   0  0  2  0  0  0
  -24.8393  -28.9679   20.1126 C   0  0  0  0  0  0
  -22.7388  -29.4668   22.4991 C   0  0  0  0  0  0
  -18.0272  -28.1380   22.8483 C   0  0  0  0  0  0
  -24.1487  -36.7298   23.2634 C   0  0  0  0  0  0
  -25.9313  -30.8276   21.3708 C   0  0  0  0  0  0
  -26.0017  -29.4613   20.7157 C   0  0  0  0  0  0
  -27.1868  -28.6870   20.7104 C   0  0  0  0  0  0
  -26.0234  -26.9424   19.4812 C   0  0  0  0  0  0
  -24.8450  -27.7081   19.4944 C   0  0  0  0  0  0
  -23.6056  -29.8394   20.1654 C   0  0  0  0  0  0
  -25.4107  -36.3114   24.0342 C   0  0  1  0  0  0
  -20.5858  -28.3651   23.1329 C   0  0  2  0  0  0
  -20.6763  -26.9381   22.5435 C   0  0  0  0  0  0
  -19.5757  -26.6385   21.5209 C   0  0  0  0  0  0
  -18.1926  -26.7935   22.1599 C   0  0  0  0  0  0
  -19.1523  -28.8830   23.2911 C   0  0  0  0  0  0
  -18.9446  -30.1438   23.8928 C   0  0  0  0  0  0
  -17.6451  -30.6577   24.0570 C   0  0  0  0  0  0
  -25.9030  -34.9480   23.5140 C   0  0  0  0  0  0
  -16.5342  -29.9082   23.6328 C   0  0  0  0  0  0
  -16.7262  -28.6500   23.0340 C   0  0  0  0  0  0
  -26.4459  -31.6612   25.0733 C   0  0  0  0  0  0
  -25.3740  -31.3756   26.1507 C   0  0  0  0  0  0
  -27.0233  -30.3036   24.6098 C   0  0  0  0  0  0
  -27.6070  -32.4301   25.7463 C   0  0  0  0  0  0
  -27.5592  -37.1797   24.8445 C   0  0  0  0  0  0
  -21.4116  -29.3021   22.3723 N   0  0  0  0  0  0
  -26.4288  -37.3802   23.9415 N   0  0  0  0  0  0
  -24.6664  -31.0786   22.1042 N   0  0  0  0  0  0
  -23.4164  -28.8202   23.3023 O   0  0  0  0  0  0
  -28.3754  -26.6692   20.1258 O   0  0  0  0  0  0
  -26.5580  -34.8923   22.4691 O   0  0  0  0  0  0
  -23.5327  -32.1467   23.7519 O   0  0  0  0  0  0
  -31.6405  -19.0651   19.8164 C   0  0  0  0  0  0
  -29.3321  -19.0860   20.5947 C   0  0  0  0  0  0
  -30.4668  -21.1713   19.9913 C   0  0  0  0  0  0
  -30.5026  -18.3498   20.2547 C   0  0  0  0  0  0
  -31.6298  -20.4578   19.6718 C   0  0  0  0  0  0
  -29.3106  -20.5090   20.4601 C   0  0  0  0  0  0
  -30.7190  -16.8794   20.2789 C   0  0  0  0  0  0
  -30.0565  -15.7775   20.7300 C   0  0  0  0  0  0
  -27.8059  -23.0151   18.9936 C   0  0  0  0  0  0
  -28.6278  -23.6933   21.2920 C   0  0  0  0  0  0
  -27.3536  -21.6578   19.5780 C   0  0  0  0  0  0
  -28.2152  -22.2824   21.7977 C   0  0  0  0  0  0
  -27.8514  -24.1602   20.0367 C   0  0  0  0  0  0
  -32.8575  -21.1809   19.1542 C   0  0  0  0  0  0
  -28.4623  -25.4399   19.3818 C   0  0  0  0  0  0
  -28.1488  -21.2628   20.7407 N   0  0  0  0  0  0
  -31.4425  -12.3227   19.1796 H   0  0  0  0  0  0
  -30.2381  -11.3054   19.9099 H   0  0  0  0  0  0
  -29.7385  -11.7283   17.4705 H   0  0  0  0  0  0
  -29.6764  -13.4493   17.7730 H   0  0  0  0  0  0
  -27.8274  -11.2972   18.8539 H   0  0  0  0  0  0
  -27.3672  -12.5955   17.7836 H   0  0  0  0  0  0
  -27.6723  -14.2590   19.5204 H   0  0  0  0  0  0
  -28.6523  -12.0779   21.4184 H   0  0  0  0  0  0
  -28.4565  -13.7590   21.8200 H   0  0  0  0  0  0
  -25.2787   -9.5664   22.4710 H   0  0  0  0  0  0
  -24.0031   -7.4608   22.7413 H   0  0  0  0  0  0
  -21.0844   -8.8755   19.8939 H   0  0  0  0  0  0
  -22.3688  -10.9656   19.6145 H   0  0  0  0  0  0
  -21.1992   -7.6140   23.9727 H   0  0  0  0  0  0
  -21.1480   -6.0507   25.9086 H   0  0  0  0  0  0
  -22.0593   -2.7606   23.2830 H   0  0  0  0  0  0
  -22.4105  -11.9902   22.4873 H   0  0  0  0  0  0
  -21.1087  -13.1223   22.2634 H   0  0  0  0  0  0
  -24.6669  -15.8554   20.5386 H   0  0  0  0  0  0
  -26.2906  -15.6315   20.1272 H   0  0  0  0  0  0
  -26.7086  -32.5535   23.1154 H   0  0  0  0  0  0
  -25.0104  -33.9814   25.0527 H   0  0  0  0  0  0
  -22.6874  -31.3152   21.4209 H   0  0  0  0  0  0
  -23.3776  -35.9600   23.3279 H   0  0  0  0  0  0
  -24.3599  -36.8922   22.2052 H   0  0  0  0  0  0
  -23.7203  -37.6482   23.6654 H   0  0  0  0  0  0
  -26.0477  -31.5956   20.6047 H   0  0  0  0  0  0
  -26.8173  -30.8773   21.9908 H   0  0  0  0  0  0
  -28.0827  -29.0584   21.1878 H   0  0  0  0  0  0
  -25.9706  -25.9813   18.9939 H   0  0  0  0  0  0
  -23.9486  -27.3251   19.0272 H   0  0  0  0  0  0
  -23.7159  -30.6195   19.4110 H   0  0  0  0  0  0
  -22.7269  -29.2656   19.8666 H   0  0  0  0  0  0
  -25.1281  -36.1983   25.0834 H   0  0  0  0  0  0
  -20.9959  -28.3225   24.1445 H   0  0  0  0  0  0
  -20.5640  -26.2245   23.3612 H   0  0  0  0  0  0
  -21.6641  -26.7414   22.1249 H   0  0  0  0  0  0
  -19.6913  -25.6297   21.1231 H   0  0  0  0  0  0
  -19.6732  -27.3200   20.6746 H   0  0  0  0  0  0
  -17.4203  -26.6701   21.3987 H   0  0  0  0  0  0
  -18.0307  -26.0070   22.8979 H   0  0  0  0  0  0
  -19.7925  -30.7246   24.2312 H   0  0  0  0  0  0
  -17.5004  -31.6264   24.5163 H   0  0  0  0  0  0
  -15.5339  -30.2983   23.7649 H   0  0  0  0  0  0
  -15.8662  -28.0824   22.7043 H   0  0  0  0  0  0
  -24.5873  -30.7136   25.7876 H   0  0  0  0  0  0
  -24.8983  -32.2935   26.4974 H   0  0  0  0  0  0
  -25.8109  -30.8919   27.0252 H   0  0  0  0  0  0
  -26.2743  -29.6857   24.1136 H   0  0  0  0  0  0
  -27.3956  -29.7229   25.4546 H   0  0  0  0  0  0
  -27.8616  -30.4325   23.9249 H   0  0  0  0  0  0
  -27.2736  -33.3614   26.2051 H   0  0  0  0  0  0
  -28.3862  -32.6835   25.0263 H   0  0  0  0  0  0
  -28.0742  -31.8406   26.5362 H   0  0  0  0  0  0
  -28.2591  -38.0114   24.7531 H   0  0  0  0  0  0
  -28.1105  -36.2651   24.6208 H   0  0  0  0  0  0
  -27.2326  -37.1380   25.8850 H   0  0  0  0  0  0
  -20.9248  -29.8737   21.6963 H   0  0  0  0  0  0
  -26.0183  -38.2865   24.1473 H   0  0  0  0  0  0
  -32.5514  -18.5393   19.5600 H   0  0  0  0  0  0
  -28.4485  -18.5634   20.9330 H   0  0  0  0  0  0
  -30.4765  -22.2379   19.8447 H   0  0  0  0  0  0
  -31.6531  -16.6695   19.7794 H   0  0  0  0  0  0
  -29.1011  -15.8485   21.2281 H   0  0  0  0  0  0
  -27.1269  -23.2921   18.1852 H   0  0  0  0  0  0
  -28.7815  -22.9059   18.5200 H   0  0  0  0  0  0
  -29.6986  -23.7251   21.1063 H   0  0  0  0  0  0
  -28.4694  -24.4152   22.0950 H   0  0  0  0  0  0
  -27.4042  -20.8868   18.8066 H   0  0  0  0  0  0
  -26.3052  -21.7188   19.8751 H   0  0  0  0  0  0
  -27.2276  -22.3452   22.2584 H   0  0  0  0  0  0
  -28.8934  -21.9578   22.5889 H   0  0  0  0  0  0
  -26.8235  -24.3585   20.3407 H   0  0  0  0  0  0
  -33.6779  -20.4880   18.9632 H   0  0  0  0  0  0
  -33.2015  -21.9180   19.8790 H   0  0  0  0  0  0
  -32.6303  -21.6945   18.2199 H   0  0  0  0  0  0
  -28.0519  -25.5889   18.3822 H   0  0  0  0  0  0
  -29.5228  -25.2590   19.2068 H   0  0  0  0  0  0
  1 25  1  0  0  0
  1 30  2  0  0  0
  1 78  1  0  0  0
  2  3  1  0  0  0
  2 25  1  0  0  0
  2 87  1  0  0  0
  2 88  1  0  0  0
  3  4  1  0  0  0
  3 89  1  0  0  0
  3 90  1  0  0  0
  4  5  1  0  0  0
  4 91  1  0  0  0
  4 92  1  0  0  0
  5  6  1  0  0  0
  5 26  1  0  0  0
  5 93  1  0  0  0
  6 25  1  0  0  0
  6 94  1  0  0  0
  6 95  1  0  0  0
  7  8  2  0  0  0
  7 26  1  0  0  0
  7 29  1  0  0  0
  8  9  1  0  0  0
  8 22  1  0  0  0
  9 10  1  0  0  0
  9 27  2  0  0  0
 10 11  2  0  0  0
 10 15  1  0  0  0
 11 12  1  0  0  0
 11 96  1  0  0  0
 12 13  2  0  0  0
 12 97  1  0  0  0
 13 14  1  0  0  0
 13 31  1  0  0  0
 14 15  2  0  0  0
 14 98  1  0  0  0
 15 99  1  0  0  0
 16 17  2  0  0  0
 16 21  1  0  0  0
 16 31  1  0  0  0
 17 18  1  0  0  0
 17100  1  0  0  0
 18 19  2  0  0  0
 18101  1  0  0  0
 19 20  1  0  0  0
 19 24  1  0  0  0
 20 21  2  0  0  0
 20102  1  0  0  0
 21 23  1  0  0  0
 22 28  1  0  0  0
 22 32  2  0  0  0
 26 27  1  0  0  0
 28103  1  0  0  0
 28104  1  0  0  0
 29105  1  0  0  0
 29106  1  0  0  0
 33 34  1  0  0  0
 33 66  1  0  0  0
 33 70  2  0  0  0
 34 36  1  0  0  0
 34 59  1  0  0  0
 34107  1  0  0  0
 35 44  2  0  0  0
 35 45  1  0  0  0
 35 68  1  0  0  0
 36 56  1  0  0  0
 36108  1  0  0  0
 37 39  1  0  0  0
 37 47  1  0  0  0
 37 66  1  0  0  0
 37109  1  0  0  0
 38 43  2  0  0  0
 38 46  1  0  0  0
 38 47  1  0  0  0
 39 64  1  0  0  0
 39 67  2  0  0  0
 40 52  1  0  0  0
 40 53  2  0  0  0
 40 58  1  0  0  0
 41110  1  0  0  0
 41111  1  0  0  0
 41112  1  0  0  0
 41 48  1  0  0  0
 42 43  1  0  0  0
 42 66  1  0  0  0
 42113  1  0  0  0
 42114  1  0  0  0
 43 44  1  0  0  0
 44115  1  0  0  0
 45 46  2  0  0  0
 45116  1  0  0  0
 46117  1  0  0  0
 47118  1  0  0  0
 47119  1  0  0  0
 48 56  1  0  0  0
 48 65  1  0  0  0
 48120  1  0  0  0
 49 50  1  0  0  0
 49 53  1  0  0  0
 49 64  1  0  0  0
 49121  1  0  0  0
 50 51  1  0  0  0
 50122  1  0  0  0
 50123  1  0  0  0
 51 52  1  0  0  0
 51124  1  0  0  0
 51125  1  0  0  0
 52126  1  0  0  0
 52127  1  0  0  0
 53 54  1  0  0  0
 54 55  2  0  0  0
 54128  1  0  0  0
 55 57  1  0  0  0
 55129  1  0  0  0
 56 69  2  0  0  0
 57 58  2  0  0  0
 57130  1  0  0  0
 58131  1  0  0  0
 59 60  1  0  0  0
 59 61  1  0  0  0
 59 62  1  0  0  0
 60132  1  0  0  0
 60133  1  0  0  0
 60134  1  0  0  0
 61135  1  0  0  0
 61136  1  0  0  0
 61137  1  0  0  0
 62138  1  0  0  0
 62139  1  0  0  0
 62140  1  0  0  0
 63 65  1  0  0  0
 63141  1  0  0  0
 63142  1  0  0  0
 63143  1  0  0  0
 64144  1  0  0  0
 65145  1  0  0  0
 68 85  1  0  0  0
 71 74  2  0  0  0
 71 75  1  0  0  0
 71146  1  0  0  0
 72 74  1  0  0  0
 72 76  2  0  0  0
 72147  1  0  0  0
 73 75  2  0  0  0
 73 76  1  0  0  0
 73148  1  0  0  0
 74 77  1  0  0  0
 75 84  1  0  0  0
 76 86  1  0  0  0
 77 78  2  0  0  0
 77149  1  0  0  0
 78150  1  0  0  0
 79 81  1  0  0  0
 79 83  1  0  0  0
 79151  1  0  0  0
 79152  1  0  0  0
 80 82  1  0  0  0
 80 83  1  0  0  0
 80153  1  0  0  0
 80154  1  0  0  0
 81 86  1  0  0  0
 81155  1  0  0  0
 81156  1  0  0  0
 82 86  1  0  0  0
 82157  1  0  0  0
 82158  1  0  0  0
 83 85  1  0  0  0
 83159  1  0  0  0
 84160  1  0  0  0
 84161  1  0  0  0
 84162  1  0  0  0
 85163  1  0  0  0
 85164  1  0  0  0
M  ISO  4   1 100  68 101  78 100  85 101
M  END
> <chiral flag>
0

> <version>
0

> <s_m_source_file>
/data/baiqing/PycharmProjects/Reinvent-master-3.2/result/LINK_invent/BTK/process_docking_weight1_custom_product_contain_oxygen_bond_distance_aromatic_linkinvent_7_9_3/rearranged_h_0121.sdf

> <i_m_source_file_index>
87

> <r_mmod_Potential_Energy-OPLS-2005>
80.1890258789062

> <r_mmod_Stretch_Energy-OPLS-2005>
44.1119346618652

> <r_mmod_Bend_Energy-OPLS-2005>
146.956481933594

> <r_mmod_Torsional_Energy-OPLS-2005>
230.380172729492

> <r_mmod_Improper_Torsional_Energy-OPLS-2005>
7.83303356170654

> <r_mmod_Van_der_Waal_Energy-OPLS-2005>
173.717651367188

> <r_mmod_Electrostatic_Energy-OPLS-2005>
-343.694458007812

> <r_mmod_Solvation_Energy-OPLS-2005>
-207.613861083984

> <b_mmod_Minimization_Converged-OPLS-2005>
0

> <r_mmod_RMS_Derivative-OPLS-2005>
1.92384707927704

$$$$
87
                    3D
 Structure written by MMmdl.
157165  0  0  1  0            999 V2000
  -30.6401  -14.5964   20.5328 C   0  0  0  0  0  0
  -30.4390  -12.3706   19.4482 C   0  0  0  0  0  0
  -29.5081  -12.5107   18.2232 C   0  0  0  0  0  0
  -28.0300  -12.3535   18.6337 C   0  0  0  0  0  0
  -27.6596  -13.2125   19.8720 C   0  0  2  0  0  0
  -28.7026  -13.0364   20.9992 C   0  0  0  0  0  0
  -25.2584  -13.8165   20.5688 C   0  0  0  0  0  0
  -24.1838  -13.0437   20.9177 C   0  0  0  0  0  0
  -24.6400  -11.6907   20.8730 C   0  0  0  0  0  0
  -23.9065  -10.4292   21.0402 C   0  0  0  0  0  0
  -24.3615   -9.4207   21.9181 C   0  0  0  0  0  0
  -23.6292   -8.2243   22.0752 C   0  0  0  0  0  0
  -22.4273   -8.0281   21.3545 C   0  0  0  0  0  0
  -21.9909   -9.0252   20.4644 C   0  0  0  0  0  0
  -22.7237  -10.2133   20.3053 C   0  0  0  0  0  0
  -21.6852   -6.0735   22.5282 C   0  0  0  0  0  0
  -21.4011   -6.5639   23.8213 C   0  0  0  0  0  0
  -21.3658   -5.6792   24.9174 C   0  0  0  0  0  0
  -21.6047   -4.3056   24.7227 C   0  0  0  0  0  0
  -21.8819   -3.8148   23.4348 C   0  0  0  0  0  0
  -21.9190   -4.6963   22.3403 C   0  0  0  0  0  0
  -22.7860  -13.5235   21.1848 C   0  0  0  0  0  0
  -22.1661   -4.2149   21.0982 F   0  0  0  0  0  0
  -21.5628   -3.4541   25.7739 F   0  0  0  0  0  0
  -30.0248  -13.3759   20.4461 N   0  0  0  0  0  0
  -26.3020  -12.9342   20.3353 N   0  0  0  0  0  0
  -25.9331  -11.6499   20.5763 N   0  0  0  0  0  0
  -22.0501  -12.8223   22.0402 N   0  0  0  0  0  0
  -25.4311  -15.1887   20.4123 N   0  0  0  0  0  0
  -31.7790  -14.7787   20.0917 O   0  0  0  0  0  0
  -21.6636   -6.8879   21.4245 O   0  0  0  0  0  0
  -22.3544  -14.5545   20.6703 O   0  0  0  0  0  0
  -24.6233  -31.8615   23.2039 C   0  0  0  0  0  0
  -25.9089  -32.4787   23.8362 C   0  0  1  0  0  0
  -27.2285  -27.3420   20.1129 C   0  0  0  0  0  0
  -25.5907  -33.8587   24.2291 N   0  0  0  0  0  0
  -23.4161  -30.4855   21.5466 C   0  0  2  0  0  0
  -24.8637  -28.9456   20.1111 C   0  0  0  0  0  0
  -22.7464  -29.4632   22.4953 C   0  0  0  0  0  0
  -18.0284  -28.1384   22.8491 C   0  0  0  0  0  0
  -24.1490  -36.7302   23.2639 C   0  0  0  0  0  0
  -25.9553  -30.8001   21.3721 C   0  0  0  0  0  0
  -26.0310  -29.4296   20.7146 C   0  0  0  0  0  0
  -27.2159  -28.6388   20.7071 C   0  0  0  0  0  0
  -26.0382  -26.9094   19.4812 C   0  0  0  0  0  0
  -24.8680  -27.6898   19.4866 C   0  0  0  0  0  0
  -23.6294  -29.8209   20.1617 C   0  0  0  0  0  0
  -25.4112  -36.3094   24.0332 C   0  0  1  0  0  0
  -20.5884  -28.3685   23.1298 C   0  0  2  0  0  0
  -20.6776  -26.9409   22.5416 C   0  0  0  0  0  0
  -19.5751  -26.6387   21.5218 C   0  0  0  0  0  0
  -18.1928  -26.7928   22.1625 C   0  0  0  0  0  0
  -19.1536  -28.8850   23.2886 C   0  0  0  0  0  0
  -18.9462  -30.1454   23.8899 C   0  0  0  0  0  0
  -17.6463  -30.6587   24.0562 C   0  0  0  0  0  0
  -25.9048  -34.9458   23.5116 C   0  0  0  0  0  0
  -16.5354  -29.9086   23.6329 C   0  0  0  0  0  0
  -16.7271  -28.6505   23.0348 C   0  0  0  0  0  0
  -26.4481  -31.6584   25.0720 C   0  0  0  0  0  0
  -25.3717  -31.3700   26.1449 C   0  0  0  0  0  0
  -27.0316  -30.3013   24.6147 C   0  0  0  0  0  0
  -27.6061  -32.4306   25.7477 C   0  0  0  0  0  0
  -27.5583  -37.1803   24.8462 C   0  0  0  0  0  0
  -21.4182  -29.3043   22.3695 N   0  0  0  0  0  0
  -26.4297  -37.3784   23.9408 N   0  0  0  0  0  0
  -24.6835  -31.0649   22.0981 N   0  0  0  0  0  0
  -23.4195  -28.8166   23.3022 O   0  0  0  0  0  0
  -28.3553  -26.5104   20.1733 O   0  0  0  0  0  0
  -26.5623  -34.8921   22.4690 O   0  0  0  0  0  0
  -23.5403  -32.1410   23.7382 O   0  0  0  0  0  0
  -29.1276  -19.2703   21.6945 C   0  0  0  0  0  0
  -29.1210  -17.8509   21.7500 C   0  0  0  0  0  0
  -30.7619  -17.7702   19.9928 C   0  0  0  0  0  0
  -30.7587  -19.2014   19.9068 C   0  0  0  0  0  0
  -29.9551  -19.9845   20.7939 C   0  0  0  0  0  0
  -29.9539  -17.0611   20.9198 C   0  0  0  0  0  0
  -32.7723  -19.3547   18.4133 C   0  0  0  0  0  0
  -31.6464  -19.8694   18.9361 C   0  0  0  0  0  0
  -30.0850  -21.5443   20.9325 C   0  0  0  0  0  0
  -29.0191  -22.5128   20.2854 C   0  0  0  0  0  0
  -29.2649  -24.0686   20.5098 C   0  0  0  0  0  0
  -28.1572  -25.0627   19.9823 C   0  0  0  0  0  0
  -29.8736  -15.6093   21.0328 N   0  0  0  0  0  0
  -31.4810  -12.4915   19.1473 H   0  0  0  0  0  0
  -30.3678  -11.3677   19.8720 H   0  0  0  0  0  0
  -29.7661  -11.7679   17.4671 H   0  0  0  0  0  0
  -29.6578  -13.4857   17.7571 H   0  0  0  0  0  0
  -27.8602  -11.2990   18.8538 H   0  0  0  0  0  0
  -27.3768  -12.5977   17.7950 H   0  0  0  0  0  0
  -27.6891  -14.2537   19.5494 H   0  0  0  0  0  0
  -28.7041  -12.0059   21.3581 H   0  0  0  0  0  0
  -28.4474  -13.6454   21.8674 H   0  0  0  0  0  0
  -25.2761   -9.5682   22.4753 H   0  0  0  0  0  0
  -24.0001   -7.4635   22.7471 H   0  0  0  0  0  0
  -21.0838   -8.8773   19.8949 H   0  0  0  0  0  0
  -22.3699  -10.9670   19.6159 H   0  0  0  0  0  0
  -21.2004   -7.6146   23.9719 H   0  0  0  0  0  0
  -21.1480   -6.0519   25.9077 H   0  0  0  0  0  0
  -22.0599   -2.7610   23.2849 H   0  0  0  0  0  0
  -22.4111  -11.9878   22.4787 H   0  0  0  0  0  0
  -21.1122  -13.1255   22.2616 H   0  0  0  0  0  0
  -24.6659  -15.8455   20.5197 H   0  0  0  0  0  0
  -26.2883  -15.6293   20.1028 H   0  0  0  0  0  0
  -26.7158  -32.5470   23.1113 H   0  0  0  0  0  0
  -25.0025  -33.9728   25.0414 H   0  0  0  0  0  0
  -22.7088  -31.3052   21.4043 H   0  0  0  0  0  0
  -23.3755  -35.9630   23.3298 H   0  0  0  0  0  0
  -24.3579  -36.8924   22.2052 H   0  0  0  0  0  0
  -23.7243  -37.6504   23.6662 H   0  0  0  0  0  0
  -26.0824  -31.5638   20.6035 H   0  0  0  0  0  0
  -26.8373  -30.8504   21.9986 H   0  0  0  0  0  0
  -28.1116  -29.0043   21.1896 H   0  0  0  0  0  0
  -25.9827  -25.9526   18.9843 H   0  0  0  0  0  0
  -23.9737  -27.3146   19.0089 H   0  0  0  0  0  0
  -23.7425  -30.5965   19.4035 H   0  0  0  0  0  0
  -22.7509  -29.2462   19.8630 H   0  0  0  0  0  0
  -25.1289  -36.1950   25.0825 H   0  0  0  0  0  0
  -20.9974  -28.3258   24.1420 H   0  0  0  0  0  0
  -20.5693  -26.2284   23.3609 H   0  0  0  0  0  0
  -21.6643  -26.7444   22.1202 H   0  0  0  0  0  0
  -19.6910  -25.6299   21.1243 H   0  0  0  0  0  0
  -19.6692  -27.3200   20.6750 H   0  0  0  0  0  0
  -17.4199  -26.6684   21.4024 H   0  0  0  0  0  0
  -18.0318  -26.0059   22.9013 H   0  0  0  0  0  0
  -19.7935  -30.7270   24.2269 H   0  0  0  0  0  0
  -17.5013  -31.6267   24.5162 H   0  0  0  0  0  0
  -15.5355  -30.2986   23.7651 H   0  0  0  0  0  0
  -15.8671  -28.0826   22.7061 H   0  0  0  0  0  0
  -24.5918  -30.7016   25.7776 H   0  0  0  0  0  0
  -24.8869  -32.2847   26.4871 H   0  0  0  0  0  0
  -25.8050  -30.8890   27.0228 H   0  0  0  0  0  0
  -26.2876  -29.6766   24.1189 H   0  0  0  0  0  0
  -27.4049  -29.7259   25.4629 H   0  0  0  0  0  0
  -27.8724  -30.4309   23.9330 H   0  0  0  0  0  0
  -27.2707  -33.3625   26.2043 H   0  0  0  0  0  0
  -28.3868  -32.6836   25.0289 H   0  0  0  0  0  0
  -28.0724  -31.8426   26.5392 H   0  0  0  0  0  0
  -28.2602  -38.0098   24.7520 H   0  0  0  0  0  0
  -28.1086  -36.2638   24.6285 H   0  0  0  0  0  0
  -27.2300  -37.1439   25.8864 H   0  0  0  0  0  0
  -20.9359  -29.8759   21.6902 H   0  0  0  0  0  0
  -26.0184  -38.2864   24.1409 H   0  0  0  0  0  0
  -28.5085  -19.8189   22.3903 H   0  0  0  0  0  0
  -28.4733  -17.3688   22.4691 H   0  0  0  0  0  0
  -31.3837  -17.2044   19.3156 H   0  0  0  0  0  0
  -33.3475  -19.9147   17.6895 H   0  0  0  0  0  0
  -33.1487  -18.3814   18.6922 H   0  0  0  0  0  0
  -31.3412  -20.8500   18.5984 H   0  0  0  0  0  0
  -31.0770  -21.8486   20.6004 H   0  0  0  0  0  0
  -30.1012  -21.7511   22.0031 H   0  0  0  0  0  0
  -28.0359  -22.2540   20.6804 H   0  0  0  0  0  0
  -28.9725  -22.3174   19.2134 H   0  0  0  0  0  0
  -30.2171  -24.3380   20.0520 H   0  0  0  0  0  0
  -29.3919  -24.2455   21.5782 H   0  0  0  0  0  0
  -27.2283  -24.7653   20.4718 H   0  0  0  0  0  0
  -28.0213  -24.8821   18.9152 H   0  0  0  0  0  0
  -29.0376  -15.2716   21.4848 H   0  0  0  0  0  0
  1 25  1  0  0  0
  1 30  2  0  0  0
  1 83  1  0  0  0
  2  3  1  0  0  0
  2 25  1  0  0  0
  2 84  1  0  0  0
  2 85  1  0  0  0
  3  4  1  0  0  0
  3 86  1  0  0  0
  3 87  1  0  0  0
  4  5  1  0  0  0
  4 88  1  0  0  0
  4 89  1  0  0  0
  5  6  1  0  0  0
  5 26  1  0  0  0
  5 90  1  0  0  0
  6 25  1  0  0  0
  6 91  1  0  0  0
  6 92  1  0  0  0
  7  8  2  0  0  0
  7 26  1  0  0  0
  7 29  1  0  0  0
  8  9  1  0  0  0
  8 22  1  0  0  0
  9 10  1  0  0  0
  9 27  2  0  0  0
 10 11  2  0  0  0
 10 15  1  0  0  0
 11 12  1  0  0  0
 11 93  1  0  0  0
 12 13  2  0  0  0
 12 94  1  0  0  0
 13 14  1  0  0  0
 13 31  1  0  0  0
 14 15  2  0  0  0
 14 95  1  0  0  0
 15 96  1  0  0  0
 16 17  2  0  0  0
 16 21  1  0  0  0
 16 31  1  0  0  0
 17 18  1  0  0  0
 17 97  1  0  0  0
 18 19  2  0  0  0
 18 98  1  0  0  0
 19 20  1  0  0  0
 19 24  1  0  0  0
 20 21  2  0  0  0
 20 99  1  0  0  0
 21 23  1  0  0  0
 22 28  1  0  0  0
 22 32  2  0  0  0
 26 27  1  0  0  0
 28100  1  0  0  0
 28101  1  0  0  0
 29102  1  0  0  0
 29103  1  0  0  0
 33 34  1  0  0  0
 33 66  1  0  0  0
 33 70  2  0  0  0
 34 36  1  0  0  0
 34 59  1  0  0  0
 34104  1  0  0  0
 35 44  2  0  0  0
 35 45  1  0  0  0
 35 68  1  0  0  0
 36 56  1  0  0  0
 36105  1  0  0  0
 37 39  1  0  0  0
 37 47  1  0  0  0
 37 66  1  0  0  0
 37106  1  0  0  0
 38 43  2  0  0  0
 38 46  1  0  0  0
 38 47  1  0  0  0
 39 64  1  0  0  0
 39 67  2  0  0  0
 40 52  1  0  0  0
 40 53  2  0  0  0
 40 58  1  0  0  0
 41107  1  0  0  0
 41108  1  0  0  0
 41109  1  0  0  0
 41 48  1  0  0  0
 42 43  1  0  0  0
 42 66  1  0  0  0
 42110  1  0  0  0
 42111  1  0  0  0
 43 44  1  0  0  0
 44112  1  0  0  0
 45 46  2  0  0  0
 45113  1  0  0  0
 46114  1  0  0  0
 47115  1  0  0  0
 47116  1  0  0  0
 48 56  1  0  0  0
 48 65  1  0  0  0
 48117  1  0  0  0
 49 50  1  0  0  0
 49 53  1  0  0  0
 49 64  1  0  0  0
 49118  1  0  0  0
 50 51  1  0  0  0
 50119  1  0  0  0
 50120  1  0  0  0
 51 52  1  0  0  0
 51121  1  0  0  0
 51122  1  0  0  0
 52123  1  0  0  0
 52124  1  0  0  0
 53 54  1  0  0  0
 54 55  2  0  0  0
 54125  1  0  0  0
 55 57  1  0  0  0
 55126  1  0  0  0
 56 69  2  0  0  0
 57 58  2  0  0  0
 57127  1  0  0  0
 58128  1  0  0  0
 59 60  1  0  0  0
 59 61  1  0  0  0
 59 62  1  0  0  0
 60129  1  0  0  0
 60130  1  0  0  0
 60131  1  0  0  0
 61132  1  0  0  0
 61133  1  0  0  0
 61134  1  0  0  0
 62135  1  0  0  0
 62136  1  0  0  0
 62137  1  0  0  0
 63 65  1  0  0  0
 63138  1  0  0  0
 63139  1  0  0  0
 63140  1  0  0  0
 64141  1  0  0  0
 65142  1  0  0  0
 68 82  1  0  0  0
 71 72  2  0  0  0
 71 75  1  0  0  0
 71143  1  0  0  0
 72 76  1  0  0  0
 72144  1  0  0  0
 73 74  1  0  0  0
 73 76  2  0  0  0
 73145  1  0  0  0
 74 75  2  0  0  0
 74 78  1  0  0  0
 75 79  1  0  0  0
 76 83  1  0  0  0
 77 78  2  0  0  0
 77146  1  0  0  0
 77147  1  0  0  0
 78148  1  0  0  0
 79 80  1  0  0  0
 79149  1  0  0  0
 79150  1  0  0  0
 80 81  1  0  0  0
 80151  1  0  0  0
 80152  1  0  0  0
 81 82  1  0  0  0
 81153  1  0  0  0
 81154  1  0  0  0
 82155  1  0  0  0
 82156  1  0  0  0
 83157  1  0  0  0
M  ISO  4   1 100  68 101  82 101  83 100
M  END
> <chiral flag>
0

> <version>
0

> <s_m_source_file>
/data/baiqing/PycharmProjects/Reinvent-master-3.2/result/LINK_invent/BTK/process_docking_weight1_custom_product_contain_oxygen_bond_distance_aromatic_linkinvent_7_9_3/rearranged_h_0121.sdf

> <i_m_source_file_index>
88

> <r_mmod_Potential_Energy-OPLS-2005>
36.6700172424316

> <r_mmod_Stretch_Energy-OPLS-2005>
69.8194198608398

> <r_mmod_Bend_Energy-OPLS-2005>
127.039009094238

> <r_mmod_Torsional_Energy-OPLS-2005>
217.498840332031

> <r_mmod_Improper_Torsional_Energy-OPLS-2005>
3.90762567520142

> <r_mmod_Van_der_Waal_Energy-OPLS-2005>
149.945327758789

> <r_mmod_Electrostatic_Energy-OPLS-2005>
-365.902496337891

> <r_mmod_Solvation_Energy-OPLS-2005>
-202.538833618164

> <b_mmod_Minimization_Converged-OPLS-2005>
0

> <r_mmod_RMS_Derivative-OPLS-2005>
0.835781991481781

$$$$
88
                    3D
 Structure written by MMmdl.
158166  0  0  1  0            999 V2000
  -30.6846  -14.5064   20.5745 C   0  0  0  0  0  0
  -30.4299  -12.3235   19.4395 C   0  0  0  0  0  0
  -29.5065  -12.5067   18.2164 C   0  0  0  0  0  0
  -28.0271  -12.3591   18.6234 C   0  0  0  0  0  0
  -27.6629  -13.2058   19.8727 C   0  0  2  0  0  0
  -28.7004  -12.9973   20.9993 C   0  0  0  0  0  0
  -25.2591  -13.8158   20.5603 C   0  0  0  0  0  0
  -24.1849  -13.0449   20.9155 C   0  0  0  0  0  0
  -24.6404  -11.6914   20.8737 C   0  0  0  0  0  0
  -23.9072  -10.4305   21.0406 C   0  0  0  0  0  0
  -24.3623   -9.4219   21.9183 C   0  0  0  0  0  0
  -23.6293   -8.2257   22.0757 C   0  0  0  0  0  0
  -22.4273   -8.0296   21.3545 C   0  0  0  0  0  0
  -21.9904   -9.0273   20.4648 C   0  0  0  0  0  0
  -22.7243  -10.2151   20.3057 C   0  0  0  0  0  0
  -21.6862   -6.0738   22.5282 C   0  0  0  0  0  0
  -21.4027   -6.5639   23.8216 C   0  0  0  0  0  0
  -21.3650   -5.6785   24.9170 C   0  0  0  0  0  0
  -21.6039   -4.3049   24.7220 C   0  0  0  0  0  0
  -21.8822   -3.8144   23.4344 C   0  0  0  0  0  0
  -21.9197   -4.6965   22.3403 C   0  0  0  0  0  0
  -22.7877  -13.5261   21.1810 C   0  0  0  0  0  0
  -22.1667   -4.2155   21.0974 F   0  0  0  0  0  0
  -21.5612   -3.4529   25.7735 F   0  0  0  0  0  0
  -30.0319  -13.3136   20.4553 N   0  0  0  0  0  0
  -26.3028  -12.9324   20.3319 N   0  0  0  0  0  0
  -25.9332  -11.6497   20.5763 N   0  0  0  0  0  0
  -22.0498  -12.8286   22.0370 N   0  0  0  0  0  0
  -25.4302  -15.1860   20.3899 N   0  0  0  0  0  0
  -31.8125  -14.6781   20.1054 O   0  0  0  0  0  0
  -21.6644   -6.8887   21.4244 O   0  0  0  0  0  0
  -22.3570  -14.5554   20.6638 O   0  0  0  0  0  0
  -24.6161  -31.8661   23.2084 C   0  0  0  0  0  0
  -25.9047  -32.4806   23.8394 C   0  0  1  0  0  0
  -27.2370  -27.4265   20.1062 C   0  0  0  0  0  0
  -25.5888  -33.8605   24.2329 N   0  0  0  0  0  0
  -23.4067  -30.4883   21.5465 C   0  0  2  0  0  0
  -24.8589  -28.9574   20.1072 C   0  0  0  0  0  0
  -22.7428  -29.4646   22.4955 C   0  0  0  0  0  0
  -18.0277  -28.1389   22.8496 C   0  0  0  0  0  0
  -24.1485  -36.7318   23.2637 C   0  0  0  0  0  0
  -25.9361  -30.8321   21.3628 C   0  0  0  0  0  0
  -26.0174  -29.4664   20.7092 C   0  0  0  0  0  0
  -27.2129  -28.7076   20.7087 C   0  0  0  0  0  0
  -26.0680  -26.9364   19.4918 C   0  0  0  0  0  0
  -24.8794  -27.6923   19.4928 C   0  0  0  0  0  0
  -23.6185  -29.8220   20.1598 C   0  0  0  0  0  0
  -25.4092  -36.3096   24.0344 C   0  0  1  0  0  0
  -20.5872  -28.3680   23.1302 C   0  0  2  0  0  0
  -20.6771  -26.9412   22.5411 C   0  0  0  0  0  0
  -19.5745  -26.6389   21.5214 C   0  0  0  0  0  0
  -18.1923  -26.7938   22.1624 C   0  0  0  0  0  0
  -19.1529  -28.8850   23.2902 C   0  0  0  0  0  0
  -18.9457  -30.1452   23.8920 C   0  0  0  0  0  0
  -17.6458  -30.6591   24.0569 C   0  0  0  0  0  0
  -25.9024  -34.9463   23.5139 C   0  0  0  0  0  0
  -16.5350  -29.9096   23.6321 C   0  0  0  0  0  0
  -16.7264  -28.6510   23.0350 C   0  0  0  0  0  0
  -26.4470  -31.6584   25.0723 C   0  0  0  0  0  0
  -25.3742  -31.3714   26.1491 C   0  0  0  0  0  0
  -27.0295  -30.3016   24.6108 C   0  0  0  0  0  0
  -27.6065  -32.4292   25.7463 C   0  0  0  0  0  0
  -27.5579  -37.1798   24.8452 C   0  0  0  0  0  0
  -21.4151  -29.3042   22.3705 N   0  0  0  0  0  0
  -26.4275  -37.3781   23.9417 N   0  0  0  0  0  0
  -24.6706  -31.0762   22.0979 N   0  0  0  0  0  0
  -23.4191  -28.8190   23.3006 O   0  0  0  0  0  0
  -28.3413  -26.6036   20.1593 O   0  0  0  0  0  0
  -26.5591  -34.8916   22.4704 O   0  0  0  0  0  0
  -23.5352  -32.1410   23.7470 O   0  0  0  0  0  0
  -31.2573  -19.0004   20.3656 C   0  0  0  0  0  0
  -31.2135  -17.5941   20.5019 C   0  0  0  0  0  0
  -29.0474  -19.1715   21.3139 C   0  0  0  0  0  0
  -30.1738  -19.8164   20.7569 C   0  0  0  0  0  0
  -28.9997  -17.7627   21.4772 C   0  0  0  0  0  0
  -30.0772  -16.9380   21.0407 C   0  0  0  0  0  0
  -30.2552  -21.2894   20.5368 C   0  0  0  0  0  0
  -29.2530  -22.2015   20.5585 C   0  0  0  0  0  0
  -28.4305  -25.8664   21.3218 C   0  0  0  0  0  0
  -28.8955  -24.5995   21.4625 C   0  0  0  0  0  0
  -27.7525  -17.1922   22.1352 C   0  0  0  0  0  0
  -28.9118  -23.9669   22.8456 C   0  0  0  0  0  0
  -29.4260  -23.7149   20.3247 C   0  0  0  0  0  0
  -29.9665  -15.5019   21.1517 N   0  0  0  0  0  0
  -31.4757  -12.4240   19.1442 H   0  0  0  0  0  0
  -30.3337  -11.3150   19.8442 H   0  0  0  0  0  0
  -29.7553  -11.7773   17.4447 H   0  0  0  0  0  0
  -29.6728  -13.4901   17.7714 H   0  0  0  0  0  0
  -27.8464  -11.3032   18.8298 H   0  0  0  0  0  0
  -27.3788  -12.6190   17.7859 H   0  0  0  0  0  0
  -27.7050  -14.2513   19.5686 H   0  0  0  0  0  0
  -28.6823  -11.9622   21.3425 H   0  0  0  0  0  0
  -28.4499  -13.5945   21.8768 H   0  0  0  0  0  0
  -25.2776   -9.5696   22.4747 H   0  0  0  0  0  0
  -24.0001   -7.4655   22.7484 H   0  0  0  0  0  0
  -21.0825   -8.8809   19.8959 H   0  0  0  0  0  0
  -22.3712  -10.9691   19.6163 H   0  0  0  0  0  0
  -21.2037   -7.6153   23.9724 H   0  0  0  0  0  0
  -21.1449   -6.0509   25.9069 H   0  0  0  0  0  0
  -22.0606   -2.7604   23.2847 H   0  0  0  0  0  0
  -22.4091  -11.9963   22.4797 H   0  0  0  0  0  0
  -21.1122  -13.1355   22.2547 H   0  0  0  0  0  0
  -24.6510  -15.8323   20.4496 H   0  0  0  0  0  0
  -26.2638  -15.6055   19.9994 H   0  0  0  0  0  0
  -26.7134  -32.5527   23.1178 H   0  0  0  0  0  0
  -25.0025  -33.9756   25.0466 H   0  0  0  0  0  0
  -22.6953  -31.3045   21.4054 H   0  0  0  0  0  0
  -23.3726  -35.9672   23.3295 H   0  0  0  0  0  0
  -24.3593  -36.8933   22.2053 H   0  0  0  0  0  0
  -23.7256  -37.6532   23.6652 H   0  0  0  0  0  0
  -26.0490  -31.5976   20.5938 H   0  0  0  0  0  0
  -26.8236  -30.8879   21.9810 H   0  0  0  0  0  0
  -28.1035  -29.0858   21.1908 H   0  0  0  0  0  0
  -26.0755  -25.9553   19.0388 H   0  0  0  0  0  0
  -23.9892  -27.2926   19.0266 H   0  0  0  0  0  0
  -23.7262  -30.5987   19.4018 H   0  0  0  0  0  0
  -22.7439  -29.2414   19.8617 H   0  0  0  0  0  0
  -25.1267  -36.1961   25.0834 H   0  0  0  0  0  0
  -20.9966  -28.3257   24.1422 H   0  0  0  0  0  0
  -20.5670  -26.2291   23.3603 H   0  0  0  0  0  0
  -21.6644  -26.7447   22.1203 H   0  0  0  0  0  0
  -19.6902  -25.6302   21.1234 H   0  0  0  0  0  0
  -19.6676  -27.3206   20.6748 H   0  0  0  0  0  0
  -17.4189  -26.6685   21.4030 H   0  0  0  0  0  0
  -18.0319  -26.0076   22.9011 H   0  0  0  0  0  0
  -19.7932  -30.7267   24.2297 H   0  0  0  0  0  0
  -17.5009  -31.6269   24.5176 H   0  0  0  0  0  0
  -15.5351  -30.3008   23.7623 H   0  0  0  0  0  0
  -15.8663  -28.0824   22.7068 H   0  0  0  0  0  0
  -24.5876  -30.7102   25.7843 H   0  0  0  0  0  0
  -24.8990  -32.2889   26.4976 H   0  0  0  0  0  0
  -25.8091  -30.8844   27.0227 H   0  0  0  0  0  0
  -26.2842  -29.6769   24.1170 H   0  0  0  0  0  0
  -27.4076  -29.7259   25.4566 H   0  0  0  0  0  0
  -27.8673  -30.4331   23.9256 H   0  0  0  0  0  0
  -27.2709  -33.3582   26.2082 H   0  0  0  0  0  0
  -28.3839  -32.6857   25.0254 H   0  0  0  0  0  0
  -28.0773  -31.8392   26.5334 H   0  0  0  0  0  0
  -28.2576  -38.0117   24.7524 H   0  0  0  0  0  0
  -28.1095  -36.2653   24.6222 H   0  0  0  0  0  0
  -27.2317  -37.1388   25.8860 H   0  0  0  0  0  0
  -20.9316  -29.8771   21.6931 H   0  0  0  0  0  0
  -26.0165  -38.2852   24.1440 H   0  0  0  0  0  0
  -32.1426  -19.4525   19.9399 H   0  0  0  0  0  0
  -32.0799  -17.0421   20.1733 H   0  0  0  0  0  0
  -28.2039  -19.7627   21.6410 H   0  0  0  0  0  0
  -31.2527  -21.6613   20.3474 H   0  0  0  0  0  0
  -28.2397  -21.8738   20.7406 H   0  0  0  0  0  0
  -28.0701  -26.4284   22.1744 H   0  0  0  0  0  0
  -27.6003  -17.6579   23.1104 H   0  0  0  0  0  0
  -27.7882  -16.1163   22.2929 H   0  0  0  0  0  0
  -26.8775  -17.4164   21.5255 H   0  0  0  0  0  0
  -28.5817  -24.6682   23.6130 H   0  0  0  0  0  0
  -29.9187  -23.6398   23.1052 H   0  0  0  0  0  0
  -28.2456  -23.1048   22.8922 H   0  0  0  0  0  0
  -28.9406  -23.9957   19.3893 H   0  0  0  0  0  0
  -30.4876  -23.9337   20.2034 H   0  0  0  0  0  0
  -29.0996  -15.1778   21.5493 H   0  0  0  0  0  0
  1 25  1  0  0  0
  1 30  2  0  0  0
  1 84  1  0  0  0
  2  3  1  0  0  0
  2 25  1  0  0  0
  2 85  1  0  0  0
  2 86  1  0  0  0
  3  4  1  0  0  0
  3 87  1  0  0  0
  3 88  1  0  0  0
  4  5  1  0  0  0
  4 89  1  0  0  0
  4 90  1  0  0  0
  5  6  1  0  0  0
  5 26  1  0  0  0
  5 91  1  0  0  0
  6 25  1  0  0  0
  6 92  1  0  0  0
  6 93  1  0  0  0
  7  8  2  0  0  0
  7 26  1  0  0  0
  7 29  1  0  0  0
  8  9  1  0  0  0
  8 22  1  0  0  0
  9 10  1  0  0  0
  9 27  2  0  0  0
 10 11  2  0  0  0
 10 15  1  0  0  0
 11 12  1  0  0  0
 11 94  1  0  0  0
 12 13  2  0  0  0
 12 95  1  0  0  0
 13 14  1  0  0  0
 13 31  1  0  0  0
 14 15  2  0  0  0
 14 96  1  0  0  0
 15 97  1  0  0  0
 16 17  2  0  0  0
 16 21  1  0  0  0
 16 31  1  0  0  0
 17 18  1  0  0  0
 17 98  1  0  0  0
 18 19  2  0  0  0
 18 99  1  0  0  0
 19 20  1  0  0  0
 19 24  1  0  0  0
 20 21  2  0  0  0
 20100  1  0  0  0
 21 23  1  0  0  0
 22 28  1  0  0  0
 22 32  2  0  0  0
 26 27  1  0  0  0
 28101  1  0  0  0
 28102  1  0  0  0
 29103  1  0  0  0
 29104  1  0  0  0
 33 34  1  0  0  0
 33 66  1  0  0  0
 33 70  2  0  0  0
 34 36  1  0  0  0
 34 59  1  0  0  0
 34105  1  0  0  0
 35 44  2  0  0  0
 35 45  1  0  0  0
 35 68  1  0  0  0
 36 56  1  0  0  0
 36106  1  0  0  0
 37 39  1  0  0  0
 37 47  1  0  0  0
 37 66  1  0  0  0
 37107  1  0  0  0
 38 43  2  0  0  0
 38 46  1  0  0  0
 38 47  1  0  0  0
 39 64  1  0  0  0
 39 67  2  0  0  0
 40 52  1  0  0  0
 40 53  2  0  0  0
 40 58  1  0  0  0
 41108  1  0  0  0
 41109  1  0  0  0
 41110  1  0  0  0
 41 48  1  0  0  0
 42 43  1  0  0  0
 42 66  1  0  0  0
 42111  1  0  0  0
 42112  1  0  0  0
 43 44  1  0  0  0
 44113  1  0  0  0
 45 46  2  0  0  0
 45114  1  0  0  0
 46115  1  0  0  0
 47116  1  0  0  0
 47117  1  0  0  0
 48 56  1  0  0  0
 48 65  1  0  0  0
 48118  1  0  0  0
 49 50  1  0  0  0
 49 53  1  0  0  0
 49 64  1  0  0  0
 49119  1  0  0  0
 50 51  1  0  0  0
 50120  1  0  0  0
 50121  1  0  0  0
 51 52  1  0  0  0
 51122  1  0  0  0
 51123  1  0  0  0
 52124  1  0  0  0
 52125  1  0  0  0
 53 54  1  0  0  0
 54 55  2  0  0  0
 54126  1  0  0  0
 55 57  1  0  0  0
 55127  1  0  0  0
 56 69  2  0  0  0
 57 58  2  0  0  0
 57128  1  0  0  0
 58129  1  0  0  0
 59 60  1  0  0  0
 59 61  1  0  0  0
 59 62  1  0  0  0
 60130  1  0  0  0
 60131  1  0  0  0
 60132  1  0  0  0
 61133  1  0  0  0
 61134  1  0  0  0
 61135  1  0  0  0
 62136  1  0  0  0
 62137  1  0  0  0
 62138  1  0  0  0
 63 65  1  0  0  0
 63139  1  0  0  0
 63140  1  0  0  0
 63141  1  0  0  0
 64142  1  0  0  0
 65143  1  0  0  0
 68 79  1  0  0  0
 71 72  2  0  0  0
 71 74  1  0  0  0
 71144  1  0  0  0
 72 76  1  0  0  0
 72145  1  0  0  0
 73 74  2  0  0  0
 73 75  1  0  0  0
 73146  1  0  0  0
 74 77  1  0  0  0
 75 76  2  0  0  0
 75 81  1  0  0  0
 76 84  1  0  0  0
 77 78  2  0  0  0
 77147  1  0  0  0
 78 83  1  0  0  0
 78148  1  0  0  0
 79 80  2  0  0  0
 79149  1  0  0  0
 80 82  1  0  0  0
 80 83  1  0  0  0
 81150  1  0  0  0
 81151  1  0  0  0
 81152  1  0  0  0
 82153  1  0  0  0
 82154  1  0  0  0
 82155  1  0  0  0
 83156  1  0  0  0
 83157  1  0  0  0
 84158  1  0  0  0
M  ISO  4   1 100  68 101  79 101  84 100
M  END
> <chiral flag>
0

> <version>
0

> <s_m_source_file>
/data/baiqing/PycharmProjects/Reinvent-master-3.2/result/LINK_invent/BTK/process_docking_weight1_custom_product_contain_oxygen_bond_distance_aromatic_linkinvent_7_9_3/rearranged_h_0121.sdf

> <i_m_source_file_index>
89

> <r_mmod_Potential_Energy-OPLS-2005>
-42.068546295166

> <r_mmod_Stretch_Energy-OPLS-2005>
43.272331237793

> <r_mmod_Bend_Energy-OPLS-2005>
108.025367736816

> <r_mmod_Torsional_Energy-OPLS-2005>
217.21533203125

> <r_mmod_Improper_Torsional_Energy-OPLS-2005>
3.7834005355835

> <r_mmod_Van_der_Waal_Energy-OPLS-2005>
151.809646606445

> <r_mmod_Electrostatic_Energy-OPLS-2005>
-394.907257080078

> <r_mmod_Solvation_Energy-OPLS-2005>
-189.376113891602

> <b_mmod_Minimization_Converged-OPLS-2005>
0

> <r_mmod_RMS_Derivative-OPLS-2005>
1.6723165512085

$$$$
89
                    3D
 Structure written by MMmdl.
161169  0  0  1  0            999 V2000
  -30.7290  -14.3957   20.5955 C   0  0  0  0  0  0
  -30.4134  -12.2631   19.4076 C   0  0  0  0  0  0
  -29.4885  -12.5094   18.1986 C   0  0  0  0  0  0
  -28.0074  -12.3847   18.6099 C   0  0  0  0  0  0
  -27.6679  -13.2043   19.8858 C   0  0  2  0  0  0
  -28.7120  -12.9457   20.9975 C   0  0  0  0  0  0
  -25.2620  -13.8148   20.5709 C   0  0  0  0  0  0
  -24.1863  -13.0432   20.9173 C   0  0  0  0  0  0
  -24.6406  -11.6892   20.8746 C   0  0  0  0  0  0
  -23.9075  -10.4287   21.0414 C   0  0  0  0  0  0
  -24.3626   -9.4202   21.9189 C   0  0  0  0  0  0
  -23.6295   -8.2241   22.0751 C   0  0  0  0  0  0
  -22.4279   -8.0287   21.3548 C   0  0  0  0  0  0
  -21.9920   -9.0255   20.4652 C   0  0  0  0  0  0
  -22.7251  -10.2133   20.3057 C   0  0  0  0  0  0
  -21.6853   -6.0751   22.5286 C   0  0  0  0  0  0
  -21.4020   -6.5648   23.8223 C   0  0  0  0  0  0
  -21.3650   -5.6797   24.9182 C   0  0  0  0  0  0
  -21.6039   -4.3055   24.7231 C   0  0  0  0  0  0
  -21.8820   -3.8159   23.4349 C   0  0  0  0  0  0
  -21.9190   -4.6978   22.3411 C   0  0  0  0  0  0
  -22.7883  -13.5229   21.1840 C   0  0  0  0  0  0
  -22.1663   -4.2168   21.0986 F   0  0  0  0  0  0
  -21.5623   -3.4537   25.7741 F   0  0  0  0  0  0
  -30.0438  -13.2336   20.4461 N   0  0  0  0  0  0
  -26.3074  -12.9323   20.3438 N   0  0  0  0  0  0
  -25.9345  -11.6472   20.5799 N   0  0  0  0  0  0
  -22.0522  -12.8228   22.0384 N   0  0  0  0  0  0
  -25.4329  -15.1869   20.4134 N   0  0  0  0  0  0
  -31.8420  -14.5667   20.0878 O   0  0  0  0  0  0
  -21.6630   -6.8887   21.4246 O   0  0  0  0  0  0
  -22.3581  -14.5553   20.6689 O   0  0  0  0  0  0
  -24.6122  -31.8684   23.2107 C   0  0  0  0  0  0
  -25.9021  -32.4822   23.8407 C   0  0  1  0  0  0
  -27.2353  -27.4468   20.0763 C   0  0  0  0  0  0
  -25.5880  -33.8628   24.2324 N   0  0  0  0  0  0
  -23.3996  -30.4926   21.5517 C   0  0  2  0  0  0
  -24.8425  -28.9565   20.1144 C   0  0  0  0  0  0
  -22.7389  -29.4663   22.5006 C   0  0  0  0  0  0
  -18.0272  -28.1382   22.8493 C   0  0  0  0  0  0
  -24.1488  -36.7312   23.2636 C   0  0  0  0  0  0
  -25.9274  -30.8324   21.3648 C   0  0  0  0  0  0
  -26.0011  -29.4685   20.7086 C   0  0  0  0  0  0
  -27.1959  -28.7179   20.6898 C   0  0  0  0  0  0
  -26.0574  -26.9491   19.4686 C   0  0  0  0  0  0
  -24.8633  -27.6944   19.4963 C   0  0  0  0  0  0
  -23.6055  -29.8210   20.1665 C   0  0  0  0  0  0
  -25.4113  -36.3108   24.0327 C   0  0  1  0  0  0
  -20.5854  -28.3654   23.1319 C   0  0  2  0  0  0
  -20.6768  -26.9403   22.5405 C   0  0  0  0  0  0
  -19.5745  -26.6391   21.5204 C   0  0  0  0  0  0
  -18.1926  -26.7931   22.1619 C   0  0  0  0  0  0
  -19.1513  -28.8841   23.2912 C   0  0  0  0  0  0
  -18.9446  -30.1458   23.8912 C   0  0  0  0  0  0
  -17.6443  -30.6593   24.0571 C   0  0  0  0  0  0
  -25.9024  -34.9475   23.5118 C   0  0  0  0  0  0
  -16.5339  -29.9086   23.6335 C   0  0  0  0  0  0
  -16.7265  -28.6507   23.0345 C   0  0  0  0  0  0
  -26.4466  -31.6609   25.0736 C   0  0  0  0  0  0
  -25.3744  -31.3732   26.1494 C   0  0  0  0  0  0
  -27.0290  -30.3046   24.6128 C   0  0  0  0  0  0
  -27.6041  -32.4347   25.7498 C   0  0  0  0  0  0
  -27.5589  -37.1812   24.8468 C   0  0  0  0  0  0
  -21.4123  -29.3021   22.3738 N   0  0  0  0  0  0
  -26.4303  -37.3784   23.9406 N   0  0  0  0  0  0
  -24.6650  -31.0783   22.1008 N   0  0  0  0  0  0
  -23.4181  -28.8200   23.3031 O   0  0  0  0  0  0
  -28.4328  -26.7621   20.0887 O   0  0  0  0  0  0
  -26.5589  -34.8921   22.4684 O   0  0  0  0  0  0
  -23.5313  -32.1454   23.7491 O   0  0  0  0  0  0
  -31.9355  -21.5375   21.4017 C   0  0  0  0  0  0
  -31.7151  -19.2271   22.0588 C   0  0  0  0  0  0
  -32.4302  -20.4318   22.1168 C   0  0  0  0  0  0
  -30.7574  -21.3978   20.6423 C   0  0  0  0  0  0
  -30.5478  -19.1726   21.2787 C   0  0  0  0  0  0
  -30.2718  -22.5328   19.8395 C   0  0  0  0  0  0
  -29.3724  -22.4423   18.8402 C   0  0  0  0  0  0
  -33.7036  -20.5218   22.9287 C   0  0  0  0  0  0
  -28.7919  -23.5782   18.0057 C   0  0  0  0  0  0
  -30.0783  -15.5987   21.3002 C   0  0  0  0  0  0
  -29.0444  -25.0204   18.4994 C   0  0  0  0  0  0
  -30.5052  -16.9173   20.6288 C   0  0  0  0  0  0
  -28.4422  -25.3485   19.8772 C   0  0  0  0  0  0
  -30.0764  -20.2285   20.5878 N   0  0  0  0  0  0
  -29.7999  -18.0286   21.1714 O   0  0  0  0  0  0
  -31.4609  -12.3368   19.1101 H   0  0  0  0  0  0
  -30.2849  -11.2454   19.7841 H   0  0  0  0  0  0
  -29.7145  -11.8028   17.4002 H   0  0  0  0  0  0
  -29.6760  -13.5042   17.7901 H   0  0  0  0  0  0
  -27.7972  -11.3280   18.7796 H   0  0  0  0  0  0
  -27.3625  -12.6928   17.7859 H   0  0  0  0  0  0
  -27.7232  -14.2584   19.6140 H   0  0  0  0  0  0
  -28.6722  -11.9010   21.3124 H   0  0  0  0  0  0
  -28.4948  -13.5199   21.8981 H   0  0  0  0  0  0
  -25.2772   -9.5672   22.4772 H   0  0  0  0  0  0
  -24.0007   -7.4631   22.7463 H   0  0  0  0  0  0
  -21.0858   -8.8780   19.8962 H   0  0  0  0  0  0
  -22.3717  -10.9673   19.6169 H   0  0  0  0  0  0
  -21.2007   -7.6154   23.9734 H   0  0  0  0  0  0
  -21.1474   -6.0524   25.9084 H   0  0  0  0  0  0
  -22.0600   -2.7620   23.2843 H   0  0  0  0  0  0
  -22.4137  -11.9881   22.4776 H   0  0  0  0  0  0
  -21.1146  -13.1271   22.2594 H   0  0  0  0  0  0
  -24.6653  -15.8406   20.5249 H   0  0  0  0  0  0
  -26.2922  -15.6328   20.1159 H   0  0  0  0  0  0
  -26.7084  -32.5534   23.1164 H   0  0  0  0  0  0
  -25.0062  -33.9810   25.0488 H   0  0  0  0  0  0
  -22.6888  -31.3086   21.4116 H   0  0  0  0  0  0
  -23.3734  -35.9653   23.3305 H   0  0  0  0  0  0
  -24.3574  -36.8938   22.2053 H   0  0  0  0  0  0
  -23.7263  -37.6528   23.6643 H   0  0  0  0  0  0
  -26.0454  -31.6013   20.6002 H   0  0  0  0  0  0
  -26.8128  -30.8753   21.9872 H   0  0  0  0  0  0
  -28.0923  -29.1134   21.1467 H   0  0  0  0  0  0
  -26.0420  -26.0002   18.9505 H   0  0  0  0  0  0
  -23.9710  -27.3010   19.0272 H   0  0  0  0  0  0
  -23.7103  -30.5928   19.4040 H   0  0  0  0  0  0
  -22.7299  -29.2373   19.8763 H   0  0  0  0  0  0
  -25.1294  -36.1966   25.0815 H   0  0  0  0  0  0
  -20.9957  -28.3196   24.1434 H   0  0  0  0  0  0
  -20.5653  -26.2273   23.3584 H   0  0  0  0  0  0
  -21.6643  -26.7447   22.1204 H   0  0  0  0  0  0
  -19.6905  -25.6298   21.1245 H   0  0  0  0  0  0
  -19.6679  -27.3186   20.6723 H   0  0  0  0  0  0
  -17.4197  -26.6670   21.4031 H   0  0  0  0  0  0
  -18.0340  -26.0082   22.9025 H   0  0  0  0  0  0
  -19.7917  -30.7293   24.2265 H   0  0  0  0  0  0
  -17.4992  -31.6266   24.5177 H   0  0  0  0  0  0
  -15.5340  -30.2983   23.7669 H   0  0  0  0  0  0
  -15.8669  -28.0847   22.7024 H   0  0  0  0  0  0
  -24.5851  -30.7154   25.7846 H   0  0  0  0  0  0
  -24.9005  -32.2898   26.5016 H   0  0  0  0  0  0
  -25.8092  -30.8842   27.0223 H   0  0  0  0  0  0
  -26.2831  -29.6821   24.1170 H   0  0  0  0  0  0
  -27.4047  -29.7280   25.4604 H   0  0  0  0  0  0
  -27.8675  -30.4370   23.9279 H   0  0  0  0  0  0
  -27.2630  -33.3628   26.2104 H   0  0  0  0  0  0
  -28.3810  -32.6968   25.0298 H   0  0  0  0  0  0
  -28.0730  -31.8467   26.5400 H   0  0  0  0  0  0
  -28.2609  -38.0108   24.7503 H   0  0  0  0  0  0
  -28.1082  -36.2647   24.6285 H   0  0  0  0  0  0
  -27.2305  -37.1459   25.8869 H   0  0  0  0  0  0
  -20.9285  -29.8764   21.6983 H   0  0  0  0  0  0
  -26.0188  -38.2863   24.1381 H   0  0  0  0  0  0
  -32.4627  -22.4821   21.4220 H   0  0  0  0  0  0
  -32.0590  -18.3559   22.5994 H   0  0  0  0  0  0
  -30.6734  -23.4966   20.1100 H   0  0  0  0  0  0
  -29.0048  -21.4602   18.5703 H   0  0  0  0  0  0
  -34.2815  -21.4085   22.6665 H   0  0  0  0  0  0
  -34.3284  -19.6452   22.7518 H   0  0  0  0  0  0
  -33.4670  -20.5643   23.9923 H   0  0  0  0  0  0
  -27.7165  -23.4129   17.9359 H   0  0  0  0  0  0
  -29.1777  -23.4681   16.9915 H   0  0  0  0  0  0
  -28.9923  -15.5438   21.2597 H   0  0  0  0  0  0
  -30.3636  -15.5934   22.3528 H   0  0  0  0  0  0
  -28.6019  -25.6975   17.7658 H   0  0  0  0  0  0
  -30.1133  -25.2417   18.4998 H   0  0  0  0  0  0
  -30.2776  -16.8821   19.5629 H   0  0  0  0  0  0
  -31.5889  -17.0355   20.6992 H   0  0  0  0  0  0
  -27.4723  -24.8717   20.0166 H   0  0  0  0  0  0
  -29.0668  -24.9230   20.6611 H   0  0  0  0  0  0
  1 25  1  0  0  0
  1 30  2  0  0  0
  1 80  1  0  0  0
  2  3  1  0  0  0
  2 25  1  0  0  0
  2 86  1  0  0  0
  2 87  1  0  0  0
  3  4  1  0  0  0
  3 88  1  0  0  0
  3 89  1  0  0  0
  4  5  1  0  0  0
  4 90  1  0  0  0
  4 91  1  0  0  0
  5  6  1  0  0  0
  5 26  1  0  0  0
  5 92  1  0  0  0
  6 25  1  0  0  0
  6 93  1  0  0  0
  6 94  1  0  0  0
  7  8  2  0  0  0
  7 26  1  0  0  0
  7 29  1  0  0  0
  8  9  1  0  0  0
  8 22  1  0  0  0
  9 10  1  0  0  0
  9 27  2  0  0  0
 10 11  2  0  0  0
 10 15  1  0  0  0
 11 12  1  0  0  0
 11 95  1  0  0  0
 12 13  2  0  0  0
 12 96  1  0  0  0
 13 14  1  0  0  0
 13 31  1  0  0  0
 14 15  2  0  0  0
 14 97  1  0  0  0
 15 98  1  0  0  0
 16 17  2  0  0  0
 16 21  1  0  0  0
 16 31  1  0  0  0
 17 18  1  0  0  0
 17 99  1  0  0  0
 18 19  2  0  0  0
 18100  1  0  0  0
 19 20  1  0  0  0
 19 24  1  0  0  0
 20 21  2  0  0  0
 20101  1  0  0  0
 21 23  1  0  0  0
 22 28  1  0  0  0
 22 32  2  0  0  0
 26 27  1  0  0  0
 28102  1  0  0  0
 28103  1  0  0  0
 29104  1  0  0  0
 29105  1  0  0  0
 33 34  1  0  0  0
 33 66  1  0  0  0
 33 70  2  0  0  0
 34 36  1  0  0  0
 34 59  1  0  0  0
 34106  1  0  0  0
 35 44  2  0  0  0
 35 45  1  0  0  0
 35 68  1  0  0  0
 36 56  1  0  0  0
 36107  1  0  0  0
 37 39  1  0  0  0
 37 47  1  0  0  0
 37 66  1  0  0  0
 37108  1  0  0  0
 38 43  2  0  0  0
 38 46  1  0  0  0
 38 47  1  0  0  0
 39 64  1  0  0  0
 39 67  2  0  0  0
 40 52  1  0  0  0
 40 53  2  0  0  0
 40 58  1  0  0  0
 41109  1  0  0  0
 41110  1  0  0  0
 41111  1  0  0  0
 41 48  1  0  0  0
 42 43  1  0  0  0
 42 66  1  0  0  0
 42112  1  0  0  0
 42113  1  0  0  0
 43 44  1  0  0  0
 44114  1  0  0  0
 45 46  2  0  0  0
 45115  1  0  0  0
 46116  1  0  0  0
 47117  1  0  0  0
 47118  1  0  0  0
 48 56  1  0  0  0
 48 65  1  0  0  0
 48119  1  0  0  0
 49 50  1  0  0  0
 49 53  1  0  0  0
 49 64  1  0  0  0
 49120  1  0  0  0
 50 51  1  0  0  0
 50121  1  0  0  0
 50122  1  0  0  0
 51 52  1  0  0  0
 51123  1  0  0  0
 51124  1  0  0  0
 52125  1  0  0  0
 52126  1  0  0  0
 53 54  1  0  0  0
 54 55  2  0  0  0
 54127  1  0  0  0
 55 57  1  0  0  0
 55128  1  0  0  0
 56 69  2  0  0  0
 57 58  2  0  0  0
 57129  1  0  0  0
 58130  1  0  0  0
 59 60  1  0  0  0
 59 61  1  0  0  0
 59 62  1  0  0  0
 60131  1  0  0  0
 60132  1  0  0  0
 60133  1  0  0  0
 61134  1  0  0  0
 61135  1  0  0  0
 61136  1  0  0  0
 62137  1  0  0  0
 62138  1  0  0  0
 62139  1  0  0  0
 63 65  1  0  0  0
 63140  1  0  0  0
 63141  1  0  0  0
 63142  1  0  0  0
 64143  1  0  0  0
 65144  1  0  0  0
 68 83  1  0  0  0
 71 73  2  0  0  0
 71 74  1  0  0  0
 71145  1  0  0  0
 72 73  1  0  0  0
 72 75  2  0  0  0
 72146  1  0  0  0
 73 78  1  0  0  0
 74 76  1  0  0  0
 74 84  2  0  0  0
 75 84  1  0  0  0
 75 85  1  0  0  0
 76 77  2  0  0  0
 76147  1  0  0  0
 77 79  1  0  0  0
 77148  1  0  0  0
 78149  1  0  0  0
 78150  1  0  0  0
 78151  1  0  0  0
 79 81  1  0  0  0
 79152  1  0  0  0
 79153  1  0  0  0
 80 82  1  0  0  0
 80154  1  0  0  0
 80155  1  0  0  0
 81 83  1  0  0  0
 81156  1  0  0  0
 81157  1  0  0  0
 82 85  1  0  0  0
 82158  1  0  0  0
 82159  1  0  0  0
 83160  1  0  0  0
 83161  1  0  0  0
M  ISO  4   1 100  68 101  80 100  83 101
M  END
> <chiral flag>
0

> <version>
0

> <s_m_source_file>
/data/baiqing/PycharmProjects/Reinvent-master-3.2/result/LINK_invent/BTK/process_docking_weight1_custom_product_contain_oxygen_bond_distance_aromatic_linkinvent_7_9_3/rearranged_h_0121.sdf

> <i_m_source_file_index>
90

> <r_mmod_Potential_Energy-OPLS-2005>
-195.092559814453

> <r_mmod_Stretch_Energy-OPLS-2005>
32.2813758850098

> <r_mmod_Bend_Energy-OPLS-2005>
99.3735198974609

> <r_mmod_Torsional_Energy-OPLS-2005>
194.43132019043

> <r_mmod_Improper_Torsional_Energy-OPLS-2005>
2.76411581039429

> <r_mmod_Van_der_Waal_Energy-OPLS-2005>
168.283798217773

> <r_mmod_Electrostatic_Energy-OPLS-2005>
-502.753540039062

> <r_mmod_Solvation_Energy-OPLS-2005>
-199.828720092773

> <b_mmod_Minimization_Converged-OPLS-2005>
0

> <r_mmod_RMS_Derivative-OPLS-2005>
2.54698491096497

$$$$
90
                    3D
 Structure written by MMmdl.
153161  0  0  1  0            999 V2000
  -30.7188  -14.4615   20.5102 C   0  0  0  0  0  0
  -30.4143  -12.2750   19.4376 C   0  0  0  0  0  0
  -29.5011  -12.4765   18.2091 C   0  0  0  0  0  0
  -28.0153  -12.3525   18.6100 C   0  0  0  0  0  0
  -27.6564  -13.2021   19.8596 C   0  0  2  0  0  0
  -28.6997  -13.0133   20.9858 C   0  0  0  0  0  0
  -25.2600  -13.8118   20.5666 C   0  0  0  0  0  0
  -24.1858  -13.0401   20.9191 C   0  0  0  0  0  0
  -24.6407  -11.6864   20.8742 C   0  0  0  0  0  0
  -23.9071  -10.4260   21.0404 C   0  0  0  0  0  0
  -24.3628   -9.4178   21.9177 C   0  0  0  0  0  0
  -23.6301   -8.2215   22.0731 C   0  0  0  0  0  0
  -22.4275   -8.0258   21.3529 C   0  0  0  0  0  0
  -21.9916   -9.0233   20.4637 C   0  0  0  0  0  0
  -22.7246  -10.2108   20.3061 C   0  0  0  0  0  0
  -21.6844   -6.0743   22.5276 C   0  0  0  0  0  0
  -21.3999   -6.5636   23.8217 C   0  0  0  0  0  0
  -21.3661   -5.6785   24.9177 C   0  0  0  0  0  0
  -21.6053   -4.3053   24.7218 C   0  0  0  0  0  0
  -21.8818   -3.8155   23.4333 C   0  0  0  0  0  0
  -21.9182   -4.6970   22.3392 C   0  0  0  0  0  0
  -22.7900  -13.5219   21.1853 C   0  0  0  0  0  0
  -22.1654   -4.2145   21.0971 F   0  0  0  0  0  0
  -21.5635   -3.4529   25.7725 F   0  0  0  0  0  0
  -30.0333  -13.2886   20.4321 N   0  0  0  0  0  0
  -26.3013  -12.9284   20.3297 N   0  0  0  0  0  0
  -25.9333  -11.6446   20.5744 N   0  0  0  0  0  0
  -22.0512  -12.8260   22.0429 N   0  0  0  0  0  0
  -25.4338  -15.1825   20.4080 N   0  0  0  0  0  0
  -31.9037  -14.5396   20.1727 O   0  0  0  0  0  0
  -21.6617   -6.8879   21.4241 O   0  0  0  0  0  0
  -22.3590  -14.5507   20.6640 O   0  0  0  0  0  0
  -24.6147  -31.8687   23.2104 C   0  0  0  0  0  0
  -25.9032  -32.4831   23.8399 C   0  0  1  0  0  0
  -27.2346  -27.4399   20.0919 C   0  0  0  0  0  0
  -25.5884  -33.8628   24.2336 N   0  0  0  0  0  0
  -23.4020  -30.4920   21.5533 C   0  0  2  0  0  0
  -24.8459  -28.9608   20.1163 C   0  0  0  0  0  0
  -22.7426  -29.4646   22.5019 C   0  0  0  0  0  0
  -18.0270  -28.1370   22.8503 C   0  0  0  0  0  0
  -24.1485  -36.7320   23.2637 C   0  0  0  0  0  0
  -25.9283  -30.8404   21.3554 C   0  0  0  0  0  0
  -26.0069  -29.4723   20.7088 C   0  0  0  0  0  0
  -27.2025  -28.7199   20.6928 C   0  0  0  0  0  0
  -26.0502  -26.9452   19.4933 C   0  0  0  0  0  0
  -24.8619  -27.6961   19.5068 C   0  0  0  0  0  0
  -23.6076  -29.8246   20.1675 C   0  0  0  0  0  0
  -25.4101  -36.3122   24.0343 C   0  0  1  0  0  0
  -20.5865  -28.3646   23.1357 C   0  0  2  0  0  0
  -20.6757  -26.9384   22.5452 C   0  0  0  0  0  0
  -19.5736  -26.6373   21.5245 C   0  0  0  0  0  0
  -18.1908  -26.7919   22.1637 C   0  0  0  0  0  0
  -19.1520  -28.8826   23.2919 C   0  0  0  0  0  0
  -18.9434  -30.1434   23.8916 C   0  0  0  0  0  0
  -17.6436  -30.6577   24.0557 C   0  0  0  0  0  0
  -25.9024  -34.9482   23.5137 C   0  0  0  0  0  0
  -16.5328  -29.9081   23.6311 C   0  0  0  0  0  0
  -16.7256  -28.6497   23.0338 C   0  0  0  0  0  0
  -26.4460  -31.6596   25.0710 C   0  0  0  0  0  0
  -25.3722  -31.3688   26.1454 C   0  0  0  0  0  0
  -27.0274  -30.3054   24.6017 C   0  0  0  0  0  0
  -27.6048  -32.4296   25.7473 C   0  0  0  0  0  0
  -27.5585  -37.1806   24.8457 C   0  0  0  0  0  0
  -21.4154  -29.3016   22.3775 N   0  0  0  0  0  0
  -26.4285  -37.3805   23.9420 N   0  0  0  0  0  0
  -24.6681  -31.0803   22.0994 N   0  0  0  0  0  0
  -23.4210  -28.8168   23.3038 O   0  0  0  0  0  0
  -28.4139  -26.7196   20.1106 O   0  0  0  0  0  0
  -26.5597  -34.8928   22.4701 O   0  0  0  0  0  0
  -23.5340  -32.1421   23.7504 O   0  0  0  0  0  0
  -28.7393  -20.0567   19.9539 C   0  0  0  0  0  0
  -28.8608  -18.6330   19.9301 C   0  0  0  0  0  0
  -29.6811  -20.6796   20.7310 C   0  0  0  0  0  0
  -29.9548  -18.1985   20.6476 C   0  0  0  0  0  0
  -29.8840  -22.0877   20.8991 C   0  0  0  0  0  0
  -30.5117  -16.8806   20.7259 C   0  0  0  0  0  0
  -29.9140  -15.6681   20.7071 C   0  0  0  0  0  0
  -29.4247  -23.0651   20.0953 C   0  0  0  0  0  0
  -27.9356  -17.7637   19.1343 C   0  0  0  0  0  0
  -29.5949  -24.5609   20.3065 C   0  0  0  0  0  0
  -28.3069  -25.3065   19.9204 C   0  0  0  0  0  0
  -30.7655  -19.5218   21.4534 S   0  0  0  0  0  0
  -31.4649  -12.3354   19.1496 H   0  0  0  0  0  0
  -30.2820  -11.2726   19.8496 H   0  0  0  0  0  0
  -29.7429  -11.7411   17.4411 H   0  0  0  0  0  0
  -29.6829  -13.4575   17.7656 H   0  0  0  0  0  0
  -27.8142  -11.2986   18.8065 H   0  0  0  0  0  0
  -27.3714  -12.6284   17.7732 H   0  0  0  0  0  0
  -27.6814  -14.2401   19.5316 H   0  0  0  0  0  0
  -28.6696  -11.9902   21.3626 H   0  0  0  0  0  0
  -28.4797  -13.6475   21.8454 H   0  0  0  0  0  0
  -25.2753   -9.5658   22.4780 H   0  0  0  0  0  0
  -23.9987   -7.4612   22.7473 H   0  0  0  0  0  0
  -21.0830   -8.8783   19.8971 H   0  0  0  0  0  0
  -22.3703  -10.9656   19.6199 H   0  0  0  0  0  0
  -21.1983   -7.6143   23.9723 H   0  0  0  0  0  0
  -21.1493   -6.0502   25.9081 H   0  0  0  0  0  0
  -22.0603   -2.7623   23.2813 H   0  0  0  0  0  0
  -22.4077  -11.9889   22.4800 H   0  0  0  0  0  0
  -21.1132  -13.1340   22.2600 H   0  0  0  0  0  0
  -24.6737  -15.8404   20.5313 H   0  0  0  0  0  0
  -26.2903  -15.6178   20.0937 H   0  0  0  0  0  0
  -26.7105  -32.5553   23.1173 H   0  0  0  0  0  0
  -25.0038  -33.9795   25.0486 H   0  0  0  0  0  0
  -22.6887  -31.3076   21.4177 H   0  0  0  0  0  0
  -23.3753  -35.9648   23.3298 H   0  0  0  0  0  0
  -24.3583  -36.8929   22.2052 H   0  0  0  0  0  0
  -23.7224  -37.6519   23.6646 H   0  0  0  0  0  0
  -26.0217  -31.5983   20.5759 H   0  0  0  0  0  0
  -26.8246  -30.9091   21.9600 H   0  0  0  0  0  0
  -28.0976  -29.1117   21.1542 H   0  0  0  0  0  0
  -26.0178  -25.9794   19.0105 H   0  0  0  0  0  0
  -23.9690  -27.2977   19.0448 H   0  0  0  0  0  0
  -23.7115  -30.5978   19.4061 H   0  0  0  0  0  0
  -22.7334  -29.2397   19.8767 H   0  0  0  0  0  0
  -25.1275  -36.1984   25.0834 H   0  0  0  0  0  0
  -20.9947  -28.3192   24.1482 H   0  0  0  0  0  0
  -20.5677  -26.2245   23.3633 H   0  0  0  0  0  0
  -21.6625  -26.7429   22.1238 H   0  0  0  0  0  0
  -19.6890  -25.6289   21.1260 H   0  0  0  0  0  0
  -19.6682  -27.3203   20.6795 H   0  0  0  0  0  0
  -17.4200  -26.6704   21.4010 H   0  0  0  0  0  0
  -18.0262  -26.0051   22.9017 H   0  0  0  0  0  0
  -19.7903  -30.7248   24.2301 H   0  0  0  0  0  0
  -17.4980  -31.6259   24.5159 H   0  0  0  0  0  0
  -15.5325  -30.2977   23.7612 H   0  0  0  0  0  0
  -15.8670  -28.0814   22.7031 H   0  0  0  0  0  0
  -24.5917  -30.7007   25.7790 H   0  0  0  0  0  0
  -24.8858  -32.2827   26.4875 H   0  0  0  0  0  0
  -25.8071  -30.8889   27.0231 H   0  0  0  0  0  0
  -26.2792  -29.6848   24.1064 H   0  0  0  0  0  0
  -27.4082  -29.7245   25.4430 H   0  0  0  0  0  0
  -27.8607  -30.4414   23.9115 H   0  0  0  0  0  0
  -27.2682  -33.3600   26.2061 H   0  0  0  0  0  0
  -28.3845  -32.6849   25.0284 H   0  0  0  0  0  0
  -28.0720  -31.8392   26.5365 H   0  0  0  0  0  0
  -28.2597  -38.0112   24.7526 H   0  0  0  0  0  0
  -28.1077  -36.2638   24.6251 H   0  0  0  0  0  0
  -27.2305  -37.1427   25.8859 H   0  0  0  0  0  0
  -20.9321  -29.8749   21.7005 H   0  0  0  0  0  0
  -26.0176  -38.2881   24.1433 H   0  0  0  0  0  0
  -27.9737  -20.5689   19.3861 H   0  0  0  0  0  0
  -30.4479  -22.3719   21.7760 H   0  0  0  0  0  0
  -31.5940  -16.9009   20.7159 H   0  0  0  0  0  0
  -28.8397  -15.6210   20.7699 H   0  0  0  0  0  0
  -28.8827  -22.7864   19.2027 H   0  0  0  0  0  0
  -27.3476  -18.3496   18.4269 H   0  0  0  0  0  0
  -27.2309  -17.2520   19.7869 H   0  0  0  0  0  0
  -28.4802  -17.0128   18.5598 H   0  0  0  0  0  0
  -30.4249  -24.9082   19.6904 H   0  0  0  0  0  0
  -29.8563  -24.7637   21.3467 H   0  0  0  0  0  0
  -27.4894  -24.9086   20.5260 H   0  0  0  0  0  0
  -28.0753  -25.1007   18.8732 H   0  0  0  0  0  0
  1 25  1  0  0  0
  1 30  2  0  0  0
  1 77  1  0  0  0
  2  3  1  0  0  0
  2 25  1  0  0  0
  2 83  1  0  0  0
  2 84  1  0  0  0
  3  4  1  0  0  0
  3 85  1  0  0  0
  3 86  1  0  0  0
  4  5  1  0  0  0
  4 87  1  0  0  0
  4 88  1  0  0  0
  5  6  1  0  0  0
  5 26  1  0  0  0
  5 89  1  0  0  0
  6 25  1  0  0  0
  6 90  1  0  0  0
  6 91  1  0  0  0
  7  8  2  0  0  0
  7 26  1  0  0  0
  7 29  1  0  0  0
  8  9  1  0  0  0
  8 22  1  0  0  0
  9 10  1  0  0  0
  9 27  2  0  0  0
 10 11  2  0  0  0
 10 15  1  0  0  0
 11 12  1  0  0  0
 11 92  1  0  0  0
 12 13  2  0  0  0
 12 93  1  0  0  0
 13 14  1  0  0  0
 13 31  1  0  0  0
 14 15  2  0  0  0
 14 94  1  0  0  0
 15 95  1  0  0  0
 16 17  2  0  0  0
 16 21  1  0  0  0
 16 31  1  0  0  0
 17 18  1  0  0  0
 17 96  1  0  0  0
 18 19  2  0  0  0
 18 97  1  0  0  0
 19 20  1  0  0  0
 19 24  1  0  0  0
 20 21  2  0  0  0
 20 98  1  0  0  0
 21 23  1  0  0  0
 22 28  1  0  0  0
 22 32  2  0  0  0
 26 27  1  0  0  0
 28 99  1  0  0  0
 28100  1  0  0  0
 29101  1  0  0  0
 29102  1  0  0  0
 33 34  1  0  0  0
 33 66  1  0  0  0
 33 70  2  0  0  0
 34 36  1  0  0  0
 34 59  1  0  0  0
 34103  1  0  0  0
 35 44  2  0  0  0
 35 45  1  0  0  0
 35 68  1  0  0  0
 36 56  1  0  0  0
 36104  1  0  0  0
 37 39  1  0  0  0
 37 47  1  0  0  0
 37 66  1  0  0  0
 37105  1  0  0  0
 38 43  2  0  0  0
 38 46  1  0  0  0
 38 47  1  0  0  0
 39 64  1  0  0  0
 39 67  2  0  0  0
 40 52  1  0  0  0
 40 53  2  0  0  0
 40 58  1  0  0  0
 41106  1  0  0  0
 41107  1  0  0  0
 41108  1  0  0  0
 41 48  1  0  0  0
 42 43  1  0  0  0
 42 66  1  0  0  0
 42109  1  0  0  0
 42110  1  0  0  0
 43 44  1  0  0  0
 44111  1  0  0  0
 45 46  2  0  0  0
 45112  1  0  0  0
 46113  1  0  0  0
 47114  1  0  0  0
 47115  1  0  0  0
 48 56  1  0  0  0
 48 65  1  0  0  0
 48116  1  0  0  0
 49 50  1  0  0  0
 49 53  1  0  0  0
 49 64  1  0  0  0
 49117  1  0  0  0
 50 51  1  0  0  0
 50118  1  0  0  0
 50119  1  0  0  0
 51 52  1  0  0  0
 51120  1  0  0  0
 51121  1  0  0  0
 52122  1  0  0  0
 52123  1  0  0  0
 53 54  1  0  0  0
 54 55  2  0  0  0
 54124  1  0  0  0
 55 57  1  0  0  0
 55125  1  0  0  0
 56 69  2  0  0  0
 57 58  2  0  0  0
 57126  1  0  0  0
 58127  1  0  0  0
 59 60  1  0  0  0
 59 61  1  0  0  0
 59 62  1  0  0  0
 60128  1  0  0  0
 60129  1  0  0  0
 60130  1  0  0  0
 61131  1  0  0  0
 61132  1  0  0  0
 61133  1  0  0  0
 62134  1  0  0  0
 62135  1  0  0  0
 62136  1  0  0  0
 63 65  1  0  0  0
 63137  1  0  0  0
 63138  1  0  0  0
 63139  1  0  0  0
 64140  1  0  0  0
 65141  1  0  0  0
 68 81  1  0  0  0
 71 72  1  0  0  0
 71 73  2  0  0  0
 71142  1  0  0  0
 72 74  2  0  0  0
 72 79  1  0  0  0
 73 75  1  0  0  0
 73 82  1  0  0  0
 74 76  1  0  0  0
 74 82  1  0  0  0
 75 78  2  0  0  0
 75143  1  0  0  0
 76 77  2  0  0  0
 76144  1  0  0  0
 77145  1  0  0  0
 78 80  1  0  0  0
 78146  1  0  0  0
 79147  1  0  0  0
 79148  1  0  0  0
 79149  1  0  0  0
 80 81  1  0  0  0
 80150  1  0  0  0
 80151  1  0  0  0
 81152  1  0  0  0
 81153  1  0  0  0
M  ISO  4   1 100  68 101  77 100  81 101
M  END
> <chiral flag>
0

> <version>
0

> <s_m_source_file>
/data/baiqing/PycharmProjects/Reinvent-master-3.2/result/LINK_invent/BTK/process_docking_weight1_custom_product_contain_oxygen_bond_distance_aromatic_linkinvent_7_9_3/rearranged_h_0121.sdf

> <i_m_source_file_index>
91

> <r_mmod_Potential_Energy-OPLS-2005>
-20.8902282714844

> <r_mmod_Stretch_Energy-OPLS-2005>
31.8749237060547

> <r_mmod_Bend_Energy-OPLS-2005>
93.8809814453125

> <r_mmod_Torsional_Energy-OPLS-2005>
197.915023803711

> <r_mmod_Improper_Torsional_Energy-OPLS-2005>
9.03139495849609

> <r_mmod_Van_der_Waal_Energy-OPLS-2005>
137.038131713867

> <r_mmod_Electrostatic_Energy-OPLS-2005>
-314.647064208984

> <r_mmod_Solvation_Energy-OPLS-2005>
-194.11100769043

> <b_mmod_Minimization_Converged-OPLS-2005>
0

> <r_mmod_RMS_Derivative-OPLS-2005>
2.66043257713318

$$$$
91
                    3D
 Structure written by MMmdl.
157165  0  0  1  0            999 V2000
  -30.6902  -14.5452   20.5563 C   0  0  0  0  0  0
  -30.4419  -12.3267   19.5025 C   0  0  0  0  0  0
  -29.5559  -12.4706   18.2481 C   0  0  0  0  0  0
  -28.0517  -12.4090   18.6033 C   0  0  0  0  0  0
  -27.6660  -13.2323   19.8660 C   0  0  2  0  0  0
  -28.6920  -13.0517   21.0077 C   0  0  0  0  0  0
  -25.2588  -13.8211   20.5585 C   0  0  0  0  0  0
  -24.1846  -13.0469   20.9075 C   0  0  0  0  0  0
  -24.6433  -11.6926   20.8597 C   0  0  0  0  0  0
  -23.9101  -10.4320   21.0325 C   0  0  0  0  0  0
  -24.3657   -9.4242   21.9117 C   0  0  0  0  0  0
  -23.6340   -8.2268   22.0704 C   0  0  0  0  0  0
  -22.4298   -8.0314   21.3522 C   0  0  0  0  0  0
  -21.9924   -9.0285   20.4640 C   0  0  0  0  0  0
  -22.7251  -10.2163   20.3015 C   0  0  0  0  0  0
  -21.6867   -6.0763   22.5259 C   0  0  0  0  0  0
  -21.4024   -6.5651   23.8211 C   0  0  0  0  0  0
  -21.3650   -5.6799   24.9144 C   0  0  0  0  0  0
  -21.6035   -4.3052   24.7205 C   0  0  0  0  0  0
  -21.8831   -3.8165   23.4317 C   0  0  0  0  0  0
  -21.9213   -4.6974   22.3386 C   0  0  0  0  0  0
  -22.7896  -13.5239   21.1873 C   0  0  0  0  0  0
  -22.1682   -4.2165   21.0954 F   0  0  0  0  0  0
  -21.5650   -3.4543   25.7721 F   0  0  0  0  0  0
  -30.0211  -13.3595   20.4651 N   0  0  0  0  0  0
  -26.3028  -12.9426   20.3174 N   0  0  0  0  0  0
  -25.9354  -11.6557   20.5512 N   0  0  0  0  0  0
  -22.0566  -12.8195   22.0426 N   0  0  0  0  0  0
  -25.4382  -15.1949   20.4141 N   0  0  0  0  0  0
  -31.8814  -14.6390   20.2645 O   0  0  0  0  0  0
  -21.6660   -6.8909   21.4237 O   0  0  0  0  0  0
  -22.3562  -14.5587   20.6805 O   0  0  0  0  0  0
  -24.6228  -31.8608   23.1990 C   0  0  0  0  0  0
  -25.9142  -32.4737   23.8289 C   0  0  1  0  0  0
  -27.2319  -27.3821   20.0924 C   0  0  0  0  0  0
  -25.6007  -33.8535   24.2240 N   0  0  0  0  0  0
  -23.4084  -30.4845   21.5407 C   0  0  2  0  0  0
  -24.8533  -28.9406   20.1046 C   0  0  0  0  0  0
  -22.7455  -29.4651   22.4953 C   0  0  0  0  0  0
  -18.0285  -28.1408   22.8457 C   0  0  0  0  0  0
  -24.1508  -36.7280   23.2620 C   0  0  0  0  0  0
  -25.9410  -30.8042   21.3639 C   0  0  0  0  0  0
  -26.0129  -29.4379   20.7094 C   0  0  0  0  0  0
  -27.1998  -28.6617   20.7058 C   0  0  0  0  0  0
  -26.0539  -26.9204   19.4611 C   0  0  0  0  0  0
  -24.8707  -27.6825   19.4782 C   0  0  0  0  0  0
  -23.6148  -29.8063   20.1577 C   0  0  0  0  0  0
  -25.4115  -36.3042   24.0326 C   0  0  1  0  0  0
  -20.5881  -28.3701   23.1314 C   0  0  2  0  0  0
  -20.6776  -26.9437   22.5433 C   0  0  0  0  0  0
  -19.5785  -26.6412   21.5209 C   0  0  0  0  0  0
  -18.1939  -26.7976   22.1553 C   0  0  0  0  0  0
  -19.1537  -28.8871   23.2869 C   0  0  0  0  0  0
  -18.9448  -30.1465   23.8886 C   0  0  0  0  0  0
  -17.6465  -30.6592   24.0571 C   0  0  0  0  0  0
  -25.9066  -34.9425   23.5066 C   0  0  0  0  0  0
  -16.5347  -29.9089   23.6346 C   0  0  0  0  0  0
  -16.7280  -28.6511   23.0340 C   0  0  0  0  0  0
  -26.4538  -31.6529   25.0649 C   0  0  0  0  0  0
  -25.3798  -31.3727   26.1405 C   0  0  0  0  0  0
  -27.0355  -30.2940   24.6099 C   0  0  0  0  0  0
  -27.6102  -32.4259   25.7420 C   0  0  0  0  0  0
  -27.5616  -37.1738   24.8416 C   0  0  0  0  0  0
  -21.4182  -29.3043   22.3714 N   0  0  0  0  0  0
  -26.4273  -37.3763   23.9444 N   0  0  0  0  0  0
  -24.6746  -31.0696   22.0891 N   0  0  0  0  0  0
  -23.4216  -28.8242   23.3052 O   0  0  0  0  0  0
  -28.3922  -26.6217   20.1648 O   0  0  0  0  0  0
  -26.5592  -34.8918   22.4594 O   0  0  0  0  0  0
  -23.5439  -32.1393   23.7408 O   0  0  0  0  0  0
  -30.5462  -19.6586   19.3316 C   0  0  0  0  0  0
  -30.8464  -18.5640   18.5207 C   0  0  0  0  0  0
  -29.8432  -18.1523   21.1055 C   0  0  0  0  0  0
  -29.9676  -19.4901   20.6011 C   0  0  0  0  0  0
  -30.6076  -17.2515   18.9593 C   0  0  0  0  0  0
  -30.1742  -17.0067   20.2981 C   0  0  0  0  0  0
  -29.4449  -20.7489   21.2347 C   0  0  0  0  0  0
  -29.0051  -21.8005   20.4789 C   0  0  0  0  0  0
  -30.7273  -16.1722   17.8948 C   0  0  0  0  0  0
  -28.5383  -23.1974   20.9224 C   0  0  0  0  0  0
  -27.8912  -24.0755   19.7911 C   0  0  0  0  0  0
  -28.5734  -25.4270   19.3669 C   0  0  0  0  0  0
  -29.9353  -15.6568   20.7845 N   0  0  0  0  0  0
  -31.4983  -12.4108   19.2370 H   0  0  0  0  0  0
  -30.3283  -11.3378   19.9467 H   0  0  0  0  0  0
  -29.8054  -11.6833   17.5361 H   0  0  0  0  0  0
  -29.7964  -13.4061   17.7470 H   0  0  0  0  0  0
  -27.7836  -11.3601   18.7321 H   0  0  0  0  0  0
  -27.4753  -12.7652   17.7498 H   0  0  0  0  0  0
  -27.7031  -14.2828   19.5723 H   0  0  0  0  0  0
  -28.6710  -12.0248   21.3799 H   0  0  0  0  0  0
  -28.4441  -13.6887   21.8591 H   0  0  0  0  0  0
  -25.2819   -9.5735   22.4661 H   0  0  0  0  0  0
  -24.0080   -7.4644   22.7397 H   0  0  0  0  0  0
  -21.0841   -8.8818   19.8967 H   0  0  0  0  0  0
  -22.3697  -10.9697   19.6130 H   0  0  0  0  0  0
  -21.2005   -7.6161   23.9704 H   0  0  0  0  0  0
  -21.1479   -6.0513   25.9055 H   0  0  0  0  0  0
  -22.0625   -2.7618   23.2783 H   0  0  0  0  0  0
  -22.4238  -11.9828   22.4714 H   0  0  0  0  0  0
  -21.1230  -13.1246   22.2813 H   0  0  0  0  0  0
  -24.6822  -15.8607   20.5296 H   0  0  0  0  0  0
  -26.3093  -15.6264   20.1315 H   0  0  0  0  0  0
  -26.7201  -32.5405   23.1024 H   0  0  0  0  0  0
  -25.0264  -33.9638   25.0472 H   0  0  0  0  0  0
  -22.6983  -31.3015   21.3955 H   0  0  0  0  0  0
  -23.3790  -35.9578   23.3151 H   0  0  0  0  0  0
  -24.3657  -36.9018   22.2058 H   0  0  0  0  0  0
  -23.7222  -37.6434   23.6716 H   0  0  0  0  0  0
  -26.0742  -31.5650   20.5949 H   0  0  0  0  0  0
  -26.8225  -30.8450   21.9918 H   0  0  0  0  0  0
  -28.0943  -29.0373   21.1812 H   0  0  0  0  0  0
  -26.0204  -25.9635   18.9625 H   0  0  0  0  0  0
  -23.9793  -27.2973   19.0000 H   0  0  0  0  0  0
  -23.7140  -30.5660   19.3834 H   0  0  0  0  0  0
  -22.7397  -29.2196   19.8766 H   0  0  0  0  0  0
  -25.1281  -36.1814   25.0820 H   0  0  0  0  0  0
  -20.9961  -28.3269   24.1438 H   0  0  0  0  0  0
  -20.5667  -26.2320   23.3627 H   0  0  0  0  0  0
  -21.6651  -26.7480   22.1238 H   0  0  0  0  0  0
  -19.6943  -25.6314   21.1252 H   0  0  0  0  0  0
  -19.6781  -27.3218   20.6733 H   0  0  0  0  0  0
  -17.4268  -26.6793   21.3881 H   0  0  0  0  0  0
  -18.0269  -26.0095   22.8916 H   0  0  0  0  0  0
  -19.7933  -30.7271   24.2263 H   0  0  0  0  0  0
  -17.5020  -31.6267   24.5194 H   0  0  0  0  0  0
  -15.5349  -30.2962   23.7715 H   0  0  0  0  0  0
  -15.8684  -28.0840   22.7047 H   0  0  0  0  0  0
  -24.5997  -30.7022   25.7779 H   0  0  0  0  0  0
  -24.8999  -32.2944   26.4720 H   0  0  0  0  0  0
  -25.8175  -30.9006   27.0215 H   0  0  0  0  0  0
  -26.2876  -29.6665   24.1246 H   0  0  0  0  0  0
  -27.4166  -29.7225   25.4568 H   0  0  0  0  0  0
  -27.8715  -30.4183   23.9217 H   0  0  0  0  0  0
  -27.2682  -33.3518   26.2057 H   0  0  0  0  0  0
  -28.3894  -32.6870   25.0244 H   0  0  0  0  0  0
  -28.0817  -31.8360   26.5292 H   0  0  0  0  0  0
  -28.2485  -38.0180   24.7645 H   0  0  0  0  0  0
  -28.1261  -36.2721   24.5958 H   0  0  0  0  0  0
  -27.2408  -37.1049   25.8832 H   0  0  0  0  0  0
  -20.9406  -29.8709   21.6849 H   0  0  0  0  0  0
  -26.0126  -38.2805   24.1548 H   0  0  0  0  0  0
  -30.7029  -20.6476   18.9265 H   0  0  0  0  0  0
  -31.1881  -18.7635   17.5167 H   0  0  0  0  0  0
  -29.4544  -17.9967   22.1035 H   0  0  0  0  0  0
  -29.4670  -20.8277   22.3150 H   0  0  0  0  0  0
  -28.9798  -21.6555   19.4087 H   0  0  0  0  0  0
  -30.8319  -16.6091   16.9010 H   0  0  0  0  0  0
  -29.8127  -15.5839   17.8820 H   0  0  0  0  0  0
  -31.5931  -15.5288   18.0373 H   0  0  0  0  0  0
  -29.3742  -23.7243   21.3824 H   0  0  0  0  0  0
  -27.7930  -23.0490   21.7034 H   0  0  0  0  0  0
  -26.8534  -24.2611   20.0569 H   0  0  0  0  0  0
  -27.8243  -23.4751   18.8810 H   0  0  0  0  0  0
  -28.2671  -25.6656   18.3475 H   0  0  0  0  0  0
  -29.6471  -25.2589   19.2917 H   0  0  0  0  0  0
  -29.0271  -15.4925   21.1896 H   0  0  0  0  0  0
  1 25  1  0  0  0
  1 30  2  0  0  0
  1 83  1  0  0  0
  2  3  1  0  0  0
  2 25  1  0  0  0
  2 84  1  0  0  0
  2 85  1  0  0  0
  3  4  1  0  0  0
  3 86  1  0  0  0
  3 87  1  0  0  0
  4  5  1  0  0  0
  4 88  1  0  0  0
  4 89  1  0  0  0
  5  6  1  0  0  0
  5 26  1  0  0  0
  5 90  1  0  0  0
  6 25  1  0  0  0
  6 91  1  0  0  0
  6 92  1  0  0  0
  7  8  2  0  0  0
  7 26  1  0  0  0
  7 29  1  0  0  0
  8  9  1  0  0  0
  8 22  1  0  0  0
  9 10  1  0  0  0
  9 27  2  0  0  0
 10 11  2  0  0  0
 10 15  1  0  0  0
 11 12  1  0  0  0
 11 93  1  0  0  0
 12 13  2  0  0  0
 12 94  1  0  0  0
 13 14  1  0  0  0
 13 31  1  0  0  0
 14 15  2  0  0  0
 14 95  1  0  0  0
 15 96  1  0  0  0
 16 17  2  0  0  0
 16 21  1  0  0  0
 16 31  1  0  0  0
 17 18  1  0  0  0
 17 97  1  0  0  0
 18 19  2  0  0  0
 18 98  1  0  0  0
 19 20  1  0  0  0
 19 24  1  0  0  0
 20 21  2  0  0  0
 20 99  1  0  0  0
 21 23  1  0  0  0
 22 28  1  0  0  0
 22 32  2  0  0  0
 26 27  1  0  0  0
 28100  1  0  0  0
 28101  1  0  0  0
 29102  1  0  0  0
 29103  1  0  0  0
 33 34  1  0  0  0
 33 66  1  0  0  0
 33 70  2  0  0  0
 34 36  1  0  0  0
 34 59  1  0  0  0
 34104  1  0  0  0
 35 44  2  0  0  0
 35 45  1  0  0  0
 35 68  1  0  0  0
 36 56  1  0  0  0
 36105  1  0  0  0
 37 39  1  0  0  0
 37 47  1  0  0  0
 37 66  1  0  0  0
 37106  1  0  0  0
 38 43  2  0  0  0
 38 46  1  0  0  0
 38 47  1  0  0  0
 39 64  1  0  0  0
 39 67  2  0  0  0
 40 52  1  0  0  0
 40 53  2  0  0  0
 40 58  1  0  0  0
 41107  1  0  0  0
 41108  1  0  0  0
 41109  1  0  0  0
 41 48  1  0  0  0
 42 43  1  0  0  0
 42 66  1  0  0  0
 42110  1  0  0  0
 42111  1  0  0  0
 43 44  1  0  0  0
 44112  1  0  0  0
 45 46  2  0  0  0
 45113  1  0  0  0
 46114  1  0  0  0
 47115  1  0  0  0
 47116  1  0  0  0
 48 56  1  0  0  0
 48 65  1  0  0  0
 48117  1  0  0  0
 49 50  1  0  0  0
 49 53  1  0  0  0
 49 64  1  0  0  0
 49118  1  0  0  0
 50 51  1  0  0  0
 50119  1  0  0  0
 50120  1  0  0  0
 51 52  1  0  0  0
 51121  1  0  0  0
 51122  1  0  0  0
 52123  1  0  0  0
 52124  1  0  0  0
 53 54  1  0  0  0
 54 55  2  0  0  0
 54125  1  0  0  0
 55 57  1  0  0  0
 55126  1  0  0  0
 56 69  2  0  0  0
 57 58  2  0  0  0
 57127  1  0  0  0
 58128  1  0  0  0
 59 60  1  0  0  0
 59 61  1  0  0  0
 59 62  1  0  0  0
 60129  1  0  0  0
 60130  1  0  0  0
 60131  1  0  0  0
 61132  1  0  0  0
 61133  1  0  0  0
 61134  1  0  0  0
 62135  1  0  0  0
 62136  1  0  0  0
 62137  1  0  0  0
 63 65  1  0  0  0
 63138  1  0  0  0
 63139  1  0  0  0
 63140  1  0  0  0
 64141  1  0  0  0
 65142  1  0  0  0
 68 82  1  0  0  0
 71 72  2  0  0  0
 71 74  1  0  0  0
 71143  1  0  0  0
 72 75  1  0  0  0
 72144  1  0  0  0
 73 74  2  0  0  0
 73 76  1  0  0  0
 73145  1  0  0  0
 74 77  1  0  0  0
 75 76  2  0  0  0
 75 79  1  0  0  0
 76 83  1  0  0  0
 77 78  2  0  0  0
 77146  1  0  0  0
 78 80  1  0  0  0
 78147  1  0  0  0
 79148  1  0  0  0
 79149  1  0  0  0
 79150  1  0  0  0
 80 81  1  0  0  0
 80151  1  0  0  0
 80152  1  0  0  0
 81 82  1  0  0  0
 81153  1  0  0  0
 81154  1  0  0  0
 82155  1  0  0  0
 82156  1  0  0  0
 83157  1  0  0  0
M  ISO  4   1 100  68 101  82 101  83 100
M  END
> <chiral flag>
0

> <version>
0

> <s_m_source_file>
/data/baiqing/PycharmProjects/Reinvent-master-3.2/result/LINK_invent/BTK/process_docking_weight1_custom_product_contain_oxygen_bond_distance_aromatic_linkinvent_7_9_3/rearranged_h_0121.sdf

> <i_m_source_file_index>
92

> <r_mmod_Potential_Energy-OPLS-2005>
76.4987487792969

> <r_mmod_Stretch_Energy-OPLS-2005>
56.9033203125

> <r_mmod_Bend_Energy-OPLS-2005>
128.943862915039

> <r_mmod_Torsional_Energy-OPLS-2005>
263.209381103516

> <r_mmod_Improper_Torsional_Energy-OPLS-2005>
5.98338317871094

> <r_mmod_Van_der_Waal_Energy-OPLS-2005>
162.838973999023

> <r_mmod_Electrostatic_Energy-OPLS-2005>
-369.270050048828

> <r_mmod_Solvation_Energy-OPLS-2005>
-204.405242919922

> <b_mmod_Minimization_Converged-OPLS-2005>
0

> <r_mmod_RMS_Derivative-OPLS-2005>
6.75812959671021

$$$$
92
                    3D
 Structure written by MMmdl.
155163  0  0  1  0            999 V2000
  -30.6134  -14.6174   20.5062 C   0  0  0  0  0  0
  -30.4399  -12.3754   19.4549 C   0  0  0  0  0  0
  -29.5105  -12.5022   18.2270 C   0  0  0  0  0  0
  -28.0303  -12.3495   18.6333 C   0  0  0  0  0  0
  -27.6558  -13.2121   19.8678 C   0  0  2  0  0  0
  -28.6966  -13.0449   20.9978 C   0  0  0  0  0  0
  -25.2565  -13.8166   20.5674 C   0  0  0  0  0  0
  -24.1826  -13.0441   20.9188 C   0  0  0  0  0  0
  -24.6383  -11.6912   20.8732 C   0  0  0  0  0  0
  -23.9048  -10.4300   21.0407 C   0  0  0  0  0  0
  -24.3602   -9.4218   21.9182 C   0  0  0  0  0  0
  -23.6288   -8.2247   22.0750 C   0  0  0  0  0  0
  -22.4268   -8.0283   21.3546 C   0  0  0  0  0  0
  -21.9897   -9.0256   20.4652 C   0  0  0  0  0  0
  -22.7220  -10.2139   20.3062 C   0  0  0  0  0  0
  -21.6852   -6.0733   22.5279 C   0  0  0  0  0  0
  -21.4012   -6.5635   23.8212 C   0  0  0  0  0  0
  -21.3663   -5.6788   24.9174 C   0  0  0  0  0  0
  -21.6045   -4.3052   24.7223 C   0  0  0  0  0  0
  -21.8816   -3.8144   23.4345 C   0  0  0  0  0  0
  -21.9189   -4.6961   22.3401 C   0  0  0  0  0  0
  -22.7848  -13.5240   21.1856 C   0  0  0  0  0  0
  -22.1661   -4.2146   21.0978 F   0  0  0  0  0  0
  -21.5631   -3.4537   25.7738 F   0  0  0  0  0  0
  -30.0163  -13.3868   20.4420 N   0  0  0  0  0  0
  -26.2993  -12.9339   20.3320 N   0  0  0  0  0  0
  -25.9310  -11.6500   20.5747 N   0  0  0  0  0  0
  -22.0473  -12.8254   22.0421 N   0  0  0  0  0  0
  -25.4273  -15.1890   20.4082 N   0  0  0  0  0  0
  -31.7627  -14.8048   20.0944 O   0  0  0  0  0  0
  -21.6638   -6.8879   21.4244 O   0  0  0  0  0  0
  -22.3540  -14.5546   20.6703 O   0  0  0  0  0  0
  -24.6223  -31.8620   23.2046 C   0  0  0  0  0  0
  -25.9084  -32.4790   23.8367 C   0  0  1  0  0  0
  -27.2304  -27.3530   20.1198 C   0  0  0  0  0  0
  -25.5901  -33.8584   24.2296 N   0  0  0  0  0  0
  -23.4149  -30.4833   21.5475 C   0  0  2  0  0  0
  -24.8633  -28.9382   20.1155 C   0  0  0  0  0  0
  -22.7456  -29.4623   22.4966 C   0  0  0  0  0  0
  -18.0278  -28.1383   22.8493 C   0  0  0  0  0  0
  -24.1475  -36.7302   23.2645 C   0  0  0  0  0  0
  -25.9528  -30.8016   21.3725 C   0  0  0  0  0  0
  -26.0290  -29.4309   20.7163 C   0  0  0  0  0  0
  -27.2183  -28.6504   20.7075 C   0  0  0  0  0  0
  -26.0480  -26.9013   19.4968 C   0  0  0  0  0  0
  -24.8719  -27.6764   19.4981 C   0  0  0  0  0  0
  -23.6286  -29.8142   20.1636 C   0  0  0  0  0  0
  -25.4097  -36.3081   24.0336 C   0  0  1  0  0  0
  -20.5876  -28.3672   23.1300 C   0  0  2  0  0  0
  -20.6757  -26.9398   22.5413 C   0  0  0  0  0  0
  -19.5731  -26.6381   21.5211 C   0  0  0  0  0  0
  -18.1917  -26.7930   22.1629 C   0  0  0  0  0  0
  -19.1530  -28.8847   23.2889 C   0  0  0  0  0  0
  -18.9460  -30.1452   23.8901 C   0  0  0  0  0  0
  -17.6461  -30.6588   24.0566 C   0  0  0  0  0  0
  -25.9034  -34.9452   23.5117 C   0  0  0  0  0  0
  -16.5350  -29.9088   23.6329 C   0  0  0  0  0  0
  -16.7265  -28.6502   23.0359 C   0  0  0  0  0  0
  -26.4488  -31.6585   25.0718 C   0  0  0  0  0  0
  -25.3726  -31.3694   26.1438 C   0  0  0  0  0  0
  -27.0358  -30.3025   24.6160 C   0  0  0  0  0  0
  -27.6037  -32.4329   25.7496 C   0  0  0  0  0  0
  -27.5581  -37.1779   24.8455 C   0  0  0  0  0  0
  -21.4174  -29.3033   22.3712 N   0  0  0  0  0  0
  -26.4280  -37.3775   23.9419 N   0  0  0  0  0  0
  -24.6814  -31.0652   22.0984 N   0  0  0  0  0  0
  -23.4193  -28.8168   23.3042 O   0  0  0  0  0  0
  -28.3617  -26.5380   20.1253 O   0  0  0  0  0  0
  -26.5607  -34.8917   22.4683 O   0  0  0  0  0  0
  -23.5392  -32.1404   23.7391 O   0  0  0  0  0  0
  -30.2913  -18.0306   21.5438 C   0  0  0  0  0  0
  -29.2656  -17.5619   19.4196 C   0  0  0  0  0  0
  -29.6197  -19.9389   20.0869 C   0  0  0  0  0  0
  -30.1985  -19.4372   21.2950 C   0  0  0  0  0  0
  -29.8482  -17.0605   20.6079 C   0  0  0  0  0  0
  -29.1641  -18.9578   19.1610 C   0  0  0  0  0  0
  -29.6168  -21.4160   19.6567 C   0  0  0  0  0  0
  -30.7626  -20.3809   22.3463 C   0  0  0  0  0  0
  -28.9442  -22.5548   20.5035 C   0  0  0  0  0  0
  -28.9789  -24.0187   19.8731 C   0  0  0  0  0  0
  -28.2058  -25.1659   20.6314 C   0  0  0  0  0  0
  -29.8132  -15.6413   20.9284 N   0  0  0  0  0  0
  -30.1436  -21.7510   18.5912 O   0  0  0  0  0  0
  -28.5970  -19.3467   17.9922 F   0  0  0  0  0  0
  -31.4815  -12.5025   19.1553 H   0  0  0  0  0  0
  -30.3742  -11.3755   19.8878 H   0  0  0  0  0  0
  -29.7703  -11.7499   17.4812 H   0  0  0  0  0  0
  -29.6634  -13.4716   17.7494 H   0  0  0  0  0  0
  -27.8566  -11.2958   18.8543 H   0  0  0  0  0  0
  -27.3816  -12.5943   17.7914 H   0  0  0  0  0  0
  -27.6821  -14.2514   19.5392 H   0  0  0  0  0  0
  -28.7003  -12.0170   21.3632 H   0  0  0  0  0  0
  -28.4397  -13.6617   21.8603 H   0  0  0  0  0  0
  -25.2748   -9.5694   22.4758 H   0  0  0  0  0  0
  -24.0000   -7.4634   22.7461 H   0  0  0  0  0  0
  -21.0827   -8.8777   19.8961 H   0  0  0  0  0  0
  -22.3674  -10.9680   19.6176 H   0  0  0  0  0  0
  -21.2003   -7.6143   23.9719 H   0  0  0  0  0  0
  -21.1490   -6.0515   25.9078 H   0  0  0  0  0  0
  -22.0589   -2.7605   23.2843 H   0  0  0  0  0  0
  -22.4072  -11.9927   22.4845 H   0  0  0  0  0  0
  -21.1095  -13.1310   22.2614 H   0  0  0  0  0  0
  -24.6551  -15.8385   20.5090 H   0  0  0  0  0  0
  -26.2718  -15.6314   20.0690 H   0  0  0  0  0  0
  -26.7148  -32.5480   23.1112 H   0  0  0  0  0  0
  -25.0021  -33.9733   25.0423 H   0  0  0  0  0  0
  -22.7063  -31.3016   21.4045 H   0  0  0  0  0  0
  -23.3724  -35.9644   23.3300 H   0  0  0  0  0  0
  -24.3572  -36.8934   22.2063 H   0  0  0  0  0  0
  -23.7235  -37.6506   23.6675 H   0  0  0  0  0  0
  -26.0839  -31.5659   20.6059 H   0  0  0  0  0  0
  -26.8328  -30.8482   22.0023 H   0  0  0  0  0  0
  -28.1158  -29.0252   21.1799 H   0  0  0  0  0  0
  -26.0302  -25.9370   19.0085 H   0  0  0  0  0  0
  -23.9793  -27.2933   19.0232 H   0  0  0  0  0  0
  -23.7457  -30.5890   19.4050 H   0  0  0  0  0  0
  -22.7505  -29.2399   19.8640 H   0  0  0  0  0  0
  -25.1275  -36.1934   25.0829 H   0  0  0  0  0  0
  -20.9961  -28.3233   24.1423 H   0  0  0  0  0  0
  -20.5641  -26.2281   23.3606 H   0  0  0  0  0  0
  -21.6631  -26.7421   22.1220 H   0  0  0  0  0  0
  -19.6882  -25.6287   21.1245 H   0  0  0  0  0  0
  -19.6676  -27.3188   20.6736 H   0  0  0  0  0  0
  -17.4185  -26.6678   21.4031 H   0  0  0  0  0  0
  -18.0317  -26.0076   22.9029 H   0  0  0  0  0  0
  -19.7940  -30.7263   24.2276 H   0  0  0  0  0  0
  -17.5021  -31.6267   24.5167 H   0  0  0  0  0  0
  -15.5355  -30.2994   23.7650 H   0  0  0  0  0  0
  -15.8663  -28.0816   22.7083 H   0  0  0  0  0  0
  -24.5912  -30.7039   25.7758 H   0  0  0  0  0  0
  -24.8894  -32.2845   26.4873 H   0  0  0  0  0  0
  -25.8064  -30.8881   27.0215 H   0  0  0  0  0  0
  -26.2959  -29.6774   24.1148 H   0  0  0  0  0  0
  -27.4059  -29.7289   25.4669 H   0  0  0  0  0  0
  -27.8821  -30.4358   23.9419 H   0  0  0  0  0  0
  -27.2611  -33.3553   26.2201 H   0  0  0  0  0  0
  -28.0797  -31.8408   26.5317 H   0  0  0  0  0  0
  -28.3780  -32.7028   25.0302 H   0  0  0  0  0  0
  -28.2586  -38.0092   24.7526 H   0  0  0  0  0  0
  -28.1088  -36.2627   24.6230 H   0  0  0  0  0  0
  -27.2319  -37.1373   25.8865 H   0  0  0  0  0  0
  -20.9340  -29.8770   21.6943 H   0  0  0  0  0  0
  -26.0162  -38.2844   24.1436 H   0  0  0  0  0  0
  -30.7107  -17.6887   22.4801 H   0  0  0  0  0  0
  -28.8683  -16.8742   18.6869 H   0  0  0  0  0  0
  -31.3744  -19.8440   23.0720 H   0  0  0  0  0  0
  -29.9568  -20.8716   22.8932 H   0  0  0  0  0  0
  -31.3976  -21.1447   21.8957 H   0  0  0  0  0  0
  -29.4232  -22.5841   21.4799 H   0  0  0  0  0  0
  -27.9101  -22.2611   20.6806 H   0  0  0  0  0  0
  -28.5936  -23.9706   18.8539 H   0  0  0  0  0  0
  -30.0219  -24.3222   19.7756 H   0  0  0  0  0  0
  -27.1566  -24.8797   20.7027 H   0  0  0  0  0  0
  -28.5571  -25.1820   21.6636 H   0  0  0  0  0  0
  -28.9290  -15.3170   21.2912 H   0  0  0  0  0  0
  1 25  1  0  0  0
  1 30  2  0  0  0
  1 82  1  0  0  0
  2  3  1  0  0  0
  2 25  1  0  0  0
  2 85  1  0  0  0
  2 86  1  0  0  0
  3  4  1  0  0  0
  3 87  1  0  0  0
  3 88  1  0  0  0
  4  5  1  0  0  0
  4 89  1  0  0  0
  4 90  1  0  0  0
  5  6  1  0  0  0
  5 26  1  0  0  0
  5 91  1  0  0  0
  6 25  1  0  0  0
  6 92  1  0  0  0
  6 93  1  0  0  0
  7  8  2  0  0  0
  7 26  1  0  0  0
  7 29  1  0  0  0
  8  9  1  0  0  0
  8 22  1  0  0  0
  9 10  1  0  0  0
  9 27  2  0  0  0
 10 11  2  0  0  0
 10 15  1  0  0  0
 11 12  1  0  0  0
 11 94  1  0  0  0
 12 13  2  0  0  0
 12 95  1  0  0  0
 13 14  1  0  0  0
 13 31  1  0  0  0
 14 15  2  0  0  0
 14 96  1  0  0  0
 15 97  1  0  0  0
 16 17  2  0  0  0
 16 21  1  0  0  0
 16 31  1  0  0  0
 17 18  1  0  0  0
 17 98  1  0  0  0
 18 19  2  0  0  0
 18 99  1  0  0  0
 19 20  1  0  0  0
 19 24  1  0  0  0
 20 21  2  0  0  0
 20100  1  0  0  0
 21 23  1  0  0  0
 22 28  1  0  0  0
 22 32  2  0  0  0
 26 27  1  0  0  0
 28101  1  0  0  0
 28102  1  0  0  0
 29103  1  0  0  0
 29104  1  0  0  0
 33 34  1  0  0  0
 33 66  1  0  0  0
 33 70  2  0  0  0
 34 36  1  0  0  0
 34 59  1  0  0  0
 34105  1  0  0  0
 35 44  2  0  0  0
 35 45  1  0  0  0
 35 68  1  0  0  0
 36 56  1  0  0  0
 36106  1  0  0  0
 37 39  1  0  0  0
 37 47  1  0  0  0
 37 66  1  0  0  0
 37107  1  0  0  0
 38 43  2  0  0  0
 38 46  1  0  0  0
 38 47  1  0  0  0
 39 64  1  0  0  0
 39 67  2  0  0  0
 40 52  1  0  0  0
 40 53  2  0  0  0
 40 58  1  0  0  0
 41108  1  0  0  0
 41109  1  0  0  0
 41110  1  0  0  0
 41 48  1  0  0  0
 42 43  1  0  0  0
 42 66  1  0  0  0
 42111  1  0  0  0
 42112  1  0  0  0
 43 44  1  0  0  0
 44113  1  0  0  0
 45 46  2  0  0  0
 45114  1  0  0  0
 46115  1  0  0  0
 47116  1  0  0  0
 47117  1  0  0  0
 48 56  1  0  0  0
 48 65  1  0  0  0
 48118  1  0  0  0
 49 50  1  0  0  0
 49 53  1  0  0  0
 49 64  1  0  0  0
 49119  1  0  0  0
 50 51  1  0  0  0
 50120  1  0  0  0
 50121  1  0  0  0
 51 52  1  0  0  0
 51122  1  0  0  0
 51123  1  0  0  0
 52124  1  0  0  0
 52125  1  0  0  0
 53 54  1  0  0  0
 54 55  2  0  0  0
 54126  1  0  0  0
 55 57  1  0  0  0
 55127  1  0  0  0
 56 69  2  0  0  0
 57 58  2  0  0  0
 57128  1  0  0  0
 58129  1  0  0  0
 59 60  1  0  0  0
 59 61  1  0  0  0
 59 62  1  0  0  0
 60130  1  0  0  0
 60131  1  0  0  0
 60132  1  0  0  0
 61133  1  0  0  0
 61134  1  0  0  0
 61135  1  0  0  0
 62136  1  0  0  0
 62137  1  0  0  0
 62138  1  0  0  0
 63 65  1  0  0  0
 63139  1  0  0  0
 63140  1  0  0  0
 63141  1  0  0  0
 64142  1  0  0  0
 65143  1  0  0  0
 68 81  1  0  0  0
 71 74  2  0  0  0
 71 75  1  0  0  0
 71144  1  0  0  0
 72 75  2  0  0  0
 72 76  1  0  0  0
 72145  1  0  0  0
 73 74  1  0  0  0
 73 76  2  0  0  0
 73 77  1  0  0  0
 74 78  1  0  0  0
 75 82  1  0  0  0
 76 84  1  0  0  0
 77 79  1  0  0  0
 77 83  2  0  0  0
 78146  1  0  0  0
 78147  1  0  0  0
 78148  1  0  0  0
 79 80  1  0  0  0
 79149  1  0  0  0
 79150  1  0  0  0
 80 81  1  0  0  0
 80151  1  0  0  0
 80152  1  0  0  0
 81153  1  0  0  0
 81154  1  0  0  0
 82155  1  0  0  0
M  ISO  4   1 100  68 101  81 101  82 100
M  END
> <chiral flag>
0

> <version>
0

> <s_m_source_file>
/data/baiqing/PycharmProjects/Reinvent-master-3.2/result/LINK_invent/BTK/process_docking_weight1_custom_product_contain_oxygen_bond_distance_aromatic_linkinvent_7_9_3/rearranged_h_0121.sdf

> <i_m_source_file_index>
93

> <r_mmod_Potential_Energy-OPLS-2005>
127.728927612305

> <r_mmod_Stretch_Energy-OPLS-2005>
69.2846221923828

> <r_mmod_Bend_Energy-OPLS-2005>
119.383865356445

> <r_mmod_Torsional_Energy-OPLS-2005>
296.247589111328

> <r_mmod_Improper_Torsional_Energy-OPLS-2005>
5.73398542404175

> <r_mmod_Van_der_Waal_Energy-OPLS-2005>
141.786911010742

> <r_mmod_Electrostatic_Energy-OPLS-2005>
-320.958282470703

> <r_mmod_Solvation_Energy-OPLS-2005>
-221.401885986328

> <b_mmod_Minimization_Converged-OPLS-2005>
0

> <r_mmod_RMS_Derivative-OPLS-2005>
1.2918655872345

$$$$
93
                    3D
 Structure written by MMmdl.
155163  0  0  1  0            999 V2000
  -30.7044  -14.4688   20.6103 C   0  0  0  0  0  0
  -30.4250  -12.3090   19.4404 C   0  0  0  0  0  0
  -29.5032  -12.5122   18.2200 C   0  0  0  0  0  0
  -28.0212  -12.3711   18.6214 C   0  0  0  0  0  0
  -27.6640  -13.2040   19.8808 C   0  0  2  0  0  0
  -28.6982  -12.9568   21.0001 C   0  0  0  0  0  0
  -25.2597  -13.8157   20.5685 C   0  0  0  0  0  0
  -24.1831  -13.0444   20.9161 C   0  0  0  0  0  0
  -24.6369  -11.6908   20.8713 C   0  0  0  0  0  0
  -23.9037  -10.4293   21.0392 C   0  0  0  0  0  0
  -24.3587   -9.4208   21.9169 C   0  0  0  0  0  0
  -23.6266   -8.2249   22.0743 C   0  0  0  0  0  0
  -22.4240   -8.0283   21.3549 C   0  0  0  0  0  0
  -21.9877   -9.0258   20.4647 C   0  0  0  0  0  0
  -22.7212  -10.2134   20.3044 C   0  0  0  0  0  0
  -21.6852   -6.0729   22.5286 C   0  0  0  0  0  0
  -21.4023   -6.5633   23.8218 C   0  0  0  0  0  0
  -21.3660   -5.6780   24.9179 C   0  0  0  0  0  0
  -21.6035   -4.3041   24.7216 C   0  0  0  0  0  0
  -21.8817   -3.8141   23.4344 C   0  0  0  0  0  0
  -21.9199   -4.6966   22.3401 C   0  0  0  0  0  0
  -22.7867  -13.5263   21.1843 C   0  0  0  0  0  0
  -22.1665   -4.2156   21.0981 F   0  0  0  0  0  0
  -21.5614   -3.4524   25.7730 F   0  0  0  0  0  0
  -30.0335  -13.2865   20.4716 N   0  0  0  0  0  0
  -26.3022  -12.9319   20.3360 N   0  0  0  0  0  0
  -25.9293  -11.6475   20.5723 N   0  0  0  0  0  0
  -22.0496  -12.8271   22.0400 N   0  0  0  0  0  0
  -25.4347  -15.1873   20.4158 N   0  0  0  0  0  0
  -31.8031  -14.6507   20.0752 O   0  0  0  0  0  0
  -21.6617   -6.8872   21.4237 O   0  0  0  0  0  0
  -22.3561  -14.5577   20.6700 O   0  0  0  0  0  0
  -24.6139  -31.8691   23.2110 C   0  0  0  0  0  0
  -25.9031  -32.4829   23.8408 C   0  0  1  0  0  0
  -27.2370  -27.4327   20.1123 C   0  0  0  0  0  0
  -25.5887  -33.8626   24.2343 N   0  0  0  0  0  0
  -23.4040  -30.4920   21.5499 C   0  0  2  0  0  0
  -24.8555  -28.9565   20.1187 C   0  0  0  0  0  0
  -22.7416  -29.4660   22.4983 C   0  0  0  0  0  0
  -18.0273  -28.1385   22.8489 C   0  0  0  0  0  0
  -24.1485  -36.7313   23.2644 C   0  0  0  0  0  0
  -25.9334  -30.8317   21.3690 C   0  0  0  0  0  0
  -26.0123  -29.4621   20.7268 C   0  0  0  0  0  0
  -27.2072  -28.7039   20.7343 C   0  0  0  0  0  0
  -26.0726  -26.9499   19.4858 C   0  0  0  0  0  0
  -24.8791  -27.6957   19.4968 C   0  0  0  0  0  0
  -23.6168  -29.8242   20.1650 C   0  0  0  0  0  0
  -25.4102  -36.3113   24.0350 C   0  0  1  0  0  0
  -20.5868  -28.3668   23.1317 C   0  0  2  0  0  0
  -20.6763  -26.9399   22.5426 C   0  0  0  0  0  0
  -19.5744  -26.6386   21.5218 C   0  0  0  0  0  0
  -18.1920  -26.7929   22.1620 C   0  0  0  0  0  0
  -19.1525  -28.8839   23.2903 C   0  0  0  0  0  0
  -18.9452  -30.1444   23.8920 C   0  0  0  0  0  0
  -17.6455  -30.6583   24.0568 C   0  0  0  0  0  0
  -25.9026  -34.9477   23.5144 C   0  0  0  0  0  0
  -16.5346  -29.9088   23.6325 C   0  0  0  0  0  0
  -16.7266  -28.6508   23.0344 C   0  0  0  0  0  0
  -26.4464  -31.6597   25.0725 C   0  0  0  0  0  0
  -25.3738  -31.3701   26.1484 C   0  0  0  0  0  0
  -27.0295  -30.3040   24.6090 C   0  0  0  0  0  0
  -27.6048  -32.4315   25.7472 C   0  0  0  0  0  0
  -27.5580  -37.1813   24.8467 C   0  0  0  0  0  0
  -21.4143  -29.3034   22.3717 N   0  0  0  0  0  0
  -26.4294  -37.3788   23.9408 N   0  0  0  0  0  0
  -24.6680  -31.0794   22.1011 N   0  0  0  0  0  0
  -23.4185  -28.8208   23.3031 O   0  0  0  0  0  0
  -28.3537  -26.6293   20.0568 O   0  0  0  0  0  0
  -26.5589  -34.8923   22.4704 O   0  0  0  0  0  0
  -23.5330  -32.1442   23.7500 O   0  0  0  0  0  0
  -29.6986  -19.3532   21.3475 C   0  0  0  0  0  0
  -28.8201  -20.0281   22.2560 C   0  0  0  0  0  0
  -29.6278  -18.0096   21.6178 C   0  0  0  0  0  0
  -28.3096  -19.0269   23.0528 C   0  0  0  0  0  0
  -30.2148  -16.8392   21.0240 C   0  0  0  0  0  0
  -30.0158  -15.5367   21.3415 C   0  0  0  0  0  0
  -29.2201  -22.5204   21.7091 C   0  0  0  0  0  0
  -28.9691  -23.8417   21.8921 C   0  0  0  0  0  0
  -28.4511  -21.4743   22.4319 C   0  0  0  0  0  0
  -27.3699  -18.9795   24.2181 C   0  0  0  0  0  0
  -29.7456  -24.9976   21.2594 C   0  0  0  0  0  0
  -29.0326  -26.3794   21.2865 C   0  0  0  0  0  0
  -27.5222  -21.7826   23.1866 O   0  0  0  0  0  0
  -28.7861  -17.8093   22.6646 O   0  0  0  0  0  0
  -31.4711  -12.4031   19.1456 H   0  0  0  0  0  0
  -30.3246  -11.2947   19.8308 H   0  0  0  0  0  0
  -29.7504  -11.7945   17.4372 H   0  0  0  0  0  0
  -29.6754  -13.5015   17.7928 H   0  0  0  0  0  0
  -27.8292  -11.3143   18.8123 H   0  0  0  0  0  0
  -27.3771  -12.6498   17.7874 H   0  0  0  0  0  0
  -27.7186  -14.2551   19.5973 H   0  0  0  0  0  0
  -28.6778  -11.9068   21.2948 H   0  0  0  0  0  0
  -28.4294  -13.4965   21.9054 H   0  0  0  0  0  0
  -25.2735   -9.5688   22.4749 H   0  0  0  0  0  0
  -23.9990   -7.4626   22.7448 H   0  0  0  0  0  0
  -21.0809   -8.8767   19.8950 H   0  0  0  0  0  0
  -22.3663  -10.9666   19.6144 H   0  0  0  0  0  0
  -21.2016   -7.6137   23.9733 H   0  0  0  0  0  0
  -21.1480   -6.0499   25.9086 H   0  0  0  0  0  0
  -22.0592   -2.7600   23.2835 H   0  0  0  0  0  0
  -22.4100  -11.9933   22.4794 H   0  0  0  0  0  0
  -21.1134  -13.1341   22.2633 H   0  0  0  0  0  0
  -24.6731  -15.8465   20.5348 H   0  0  0  0  0  0
  -26.3001  -15.6296   20.1326 H   0  0  0  0  0  0
  -26.7111  -32.5554   23.1184 H   0  0  0  0  0  0
  -25.0039  -33.9782   25.0491 H   0  0  0  0  0  0
  -22.6923  -31.3081   21.4096 H   0  0  0  0  0  0
  -23.3732  -35.9663   23.3339 H   0  0  0  0  0  0
  -24.3585  -36.8886   22.2053 H   0  0  0  0  0  0
  -23.7256  -37.6540   23.6628 H   0  0  0  0  0  0
  -26.0480  -31.5913   20.5941 H   0  0  0  0  0  0
  -26.8206  -30.8902   21.9874 H   0  0  0  0  0  0
  -28.0976  -29.0954   21.2060 H   0  0  0  0  0  0
  -26.0903  -25.9838   19.0013 H   0  0  0  0  0  0
  -23.9927  -27.2989   19.0213 H   0  0  0  0  0  0
  -23.7285  -30.5994   19.4059 H   0  0  0  0  0  0
  -22.7411  -29.2451   19.8669 H   0  0  0  0  0  0
  -25.1279  -36.1988   25.0844 H   0  0  0  0  0  0
  -20.9965  -28.3243   24.1435 H   0  0  0  0  0  0
  -20.5659  -26.2277   23.3617 H   0  0  0  0  0  0
  -21.6637  -26.7433   22.1227 H   0  0  0  0  0  0
  -19.6904  -25.6299   21.1241 H   0  0  0  0  0  0
  -19.6690  -27.3206   20.6758 H   0  0  0  0  0  0
  -17.4192  -26.6686   21.4018 H   0  0  0  0  0  0
  -18.0307  -26.0071   22.9013 H   0  0  0  0  0  0
  -19.7926  -30.7253   24.2306 H   0  0  0  0  0  0
  -17.5009  -31.6265   24.5169 H   0  0  0  0  0  0
  -15.5348  -30.3002   23.7632 H   0  0  0  0  0  0
  -15.8660  -28.0834   22.7049 H   0  0  0  0  0  0
  -24.5903  -30.7052   25.7829 H   0  0  0  0  0  0
  -24.8937  -32.2856   26.4950 H   0  0  0  0  0  0
  -25.8101  -30.8860   27.0230 H   0  0  0  0  0  0
  -26.2835  -29.6802   24.1148 H   0  0  0  0  0  0
  -27.4082  -29.7269   25.4537 H   0  0  0  0  0  0
  -27.8667  -30.4366   23.9232 H   0  0  0  0  0  0
  -27.2669  -33.3601   26.2084 H   0  0  0  0  0  0
  -28.3822  -32.6898   25.0269 H   0  0  0  0  0  0
  -28.0756  -31.8423   26.5350 H   0  0  0  0  0  0
  -28.2621  -38.0085   24.7477 H   0  0  0  0  0  0
  -28.1050  -36.2619   24.6327 H   0  0  0  0  0  0
  -27.2304  -37.1513   25.8873 H   0  0  0  0  0  0
  -20.9302  -29.8760   21.6942 H   0  0  0  0  0  0
  -26.0192  -38.2876   24.1379 H   0  0  0  0  0  0
  -30.2949  -19.7971   20.5634 H   0  0  0  0  0  0
  -30.8971  -17.0610   20.2141 H   0  0  0  0  0  0
  -29.3470  -15.3142   22.1573 H   0  0  0  0  0  0
  -30.0062  -22.1984   21.0439 H   0  0  0  0  0  0
  -28.1783  -24.1373   22.5681 H   0  0  0  0  0  0
  -27.6794  -19.6752   24.9986 H   0  0  0  0  0  0
  -27.3382  -17.9843   24.6626 H   0  0  0  0  0  0
  -26.3568  -19.2416   23.9123 H   0  0  0  0  0  0
  -30.0632  -24.7400   20.2486 H   0  0  0  0  0  0
  -30.6612  -25.0915   21.8445 H   0  0  0  0  0  0
  -29.7779  -27.1659   21.4095 H   0  0  0  0  0  0
  -28.3643  -26.4518   22.1467 H   0  0  0  0  0  0
  1 25  1  0  0  0
  1 30  2  0  0  0
  1 76  1  0  0  0
  2  3  1  0  0  0
  2 25  1  0  0  0
  2 85  1  0  0  0
  2 86  1  0  0  0
  3  4  1  0  0  0
  3 87  1  0  0  0
  3 88  1  0  0  0
  4  5  1  0  0  0
  4 89  1  0  0  0
  4 90  1  0  0  0
  5  6  1  0  0  0
  5 26  1  0  0  0
  5 91  1  0  0  0
  6 25  1  0  0  0
  6 92  1  0  0  0
  6 93  1  0  0  0
  7  8  2  0  0  0
  7 26  1  0  0  0
  7 29  1  0  0  0
  8  9  1  0  0  0
  8 22  1  0  0  0
  9 10  1  0  0  0
  9 27  2  0  0  0
 10 11  2  0  0  0
 10 15  1  0  0  0
 11 12  1  0  0  0
 11 94  1  0  0  0
 12 13  2  0  0  0
 12 95  1  0  0  0
 13 14  1  0  0  0
 13 31  1  0  0  0
 14 15  2  0  0  0
 14 96  1  0  0  0
 15 97  1  0  0  0
 16 17  2  0  0  0
 16 21  1  0  0  0
 16 31  1  0  0  0
 17 18  1  0  0  0
 17 98  1  0  0  0
 18 19  2  0  0  0
 18 99  1  0  0  0
 19 20  1  0  0  0
 19 24  1  0  0  0
 20 21  2  0  0  0
 20100  1  0  0  0
 21 23  1  0  0  0
 22 28  1  0  0  0
 22 32  2  0  0  0
 26 27  1  0  0  0
 28101  1  0  0  0
 28102  1  0  0  0
 29103  1  0  0  0
 29104  1  0  0  0
 33 34  1  0  0  0
 33 66  1  0  0  0
 33 70  2  0  0  0
 34 36  1  0  0  0
 34 59  1  0  0  0
 34105  1  0  0  0
 35 44  2  0  0  0
 35 45  1  0  0  0
 35 68  1  0  0  0
 36 56  1  0  0  0
 36106  1  0  0  0
 37 39  1  0  0  0
 37 47  1  0  0  0
 37 66  1  0  0  0
 37107  1  0  0  0
 38 43  2  0  0  0
 38 46  1  0  0  0
 38 47  1  0  0  0
 39 64  1  0  0  0
 39 67  2  0  0  0
 40 52  1  0  0  0
 40 53  2  0  0  0
 40 58  1  0  0  0
 41108  1  0  0  0
 41109  1  0  0  0
 41110  1  0  0  0
 41 48  1  0  0  0
 42 43  1  0  0  0
 42 66  1  0  0  0
 42111  1  0  0  0
 42112  1  0  0  0
 43 44  1  0  0  0
 44113  1  0  0  0
 45 46  2  0  0  0
 45114  1  0  0  0
 46115  1  0  0  0
 47116  1  0  0  0
 47117  1  0  0  0
 48 56  1  0  0  0
 48 65  1  0  0  0
 48118  1  0  0  0
 49 50  1  0  0  0
 49 53  1  0  0  0
 49 64  1  0  0  0
 49119  1  0  0  0
 50 51  1  0  0  0
 50120  1  0  0  0
 50121  1  0  0  0
 51 52  1  0  0  0
 51122  1  0  0  0
 51123  1  0  0  0
 52124  1  0  0  0
 52125  1  0  0  0
 53 54  1  0  0  0
 54 55  2  0  0  0
 54126  1  0  0  0
 55 57  1  0  0  0
 55127  1  0  0  0
 56 69  2  0  0  0
 57 58  2  0  0  0
 57128  1  0  0  0
 58129  1  0  0  0
 59 60  1  0  0  0
 59 61  1  0  0  0
 59 62  1  0  0  0
 60130  1  0  0  0
 60131  1  0  0  0
 60132  1  0  0  0
 61133  1  0  0  0
 61134  1  0  0  0
 61135  1  0  0  0
 62136  1  0  0  0
 62137  1  0  0  0
 62138  1  0  0  0
 63 65  1  0  0  0
 63139  1  0  0  0
 63140  1  0  0  0
 63141  1  0  0  0
 64142  1  0  0  0
 65143  1  0  0  0
 68 82  1  0  0  0
 71 72  1  0  0  0
 71 73  2  0  0  0
 71144  1  0  0  0
 72 74  2  0  0  0
 72 79  1  0  0  0
 73 75  1  0  0  0
 73 84  1  0  0  0
 74 80  1  0  0  0
 74 84  1  0  0  0
 75 76  2  0  0  0
 75145  1  0  0  0
 76146  1  0  0  0
 77 78  2  0  0  0
 77 79  1  0  0  0
 77147  1  0  0  0
 78 81  1  0  0  0
 78148  1  0  0  0
 79 83  2  0  0  0
 80149  1  0  0  0
 80150  1  0  0  0
 80151  1  0  0  0
 81 82  1  0  0  0
 81152  1  0  0  0
 81153  1  0  0  0
 82154  1  0  0  0
 82155  1  0  0  0
M  ISO  4   1 100  68 101  76 100  82 101
M  END
> <chiral flag>
0

> <version>
0

> <s_m_source_file>
/data/baiqing/PycharmProjects/Reinvent-master-3.2/result/LINK_invent/BTK/process_docking_weight1_custom_product_contain_oxygen_bond_distance_aromatic_linkinvent_7_9_3/rearranged_h_0121.sdf

> <i_m_source_file_index>
94

> <r_mmod_Potential_Energy-OPLS-2005>
-65.3276138305664

> <r_mmod_Stretch_Energy-OPLS-2005>
37.3485488891602

> <r_mmod_Bend_Energy-OPLS-2005>
96.5724716186523

> <r_mmod_Torsional_Energy-OPLS-2005>
192.82502746582

> <r_mmod_Improper_Torsional_Energy-OPLS-2005>
2.64079451560974

> <r_mmod_Van_der_Waal_Energy-OPLS-2005>
134.354187011719

> <r_mmod_Electrostatic_Energy-OPLS-2005>
-341.272308349609

> <r_mmod_Solvation_Energy-OPLS-2005>
-199.795700073242

> <b_mmod_Minimization_Converged-OPLS-2005>
0

> <r_mmod_RMS_Derivative-OPLS-2005>
1.72000527381897

$$$$
94
                    3D
 Structure written by MMmdl.
159168  0  0  1  0            999 V2000
  -30.7280  -14.5117   20.5064 C   0  0  0  0  0  0
  -30.4075  -12.3115   19.4487 C   0  0  0  0  0  0
  -29.4965  -12.4868   18.2165 C   0  0  0  0  0  0
  -28.0175  -12.3492   18.6249 C   0  0  0  0  0  0
  -27.6521  -13.2186   19.8590 C   0  0  2  0  0  0
  -28.6945  -13.0677   20.9904 C   0  0  0  0  0  0
  -25.2554  -13.8181   20.5666 C   0  0  0  0  0  0
  -24.1824  -13.0445   20.9189 C   0  0  0  0  0  0
  -24.6390  -11.6916   20.8736 C   0  0  0  0  0  0
  -23.9061  -10.4304   21.0400 C   0  0  0  0  0  0
  -24.3617   -9.4219   21.9171 C   0  0  0  0  0  0
  -23.6310   -8.2249   22.0744 C   0  0  0  0  0  0
  -22.4287   -8.0284   21.3546 C   0  0  0  0  0  0
  -21.9913   -9.0251   20.4644 C   0  0  0  0  0  0
  -22.7234  -10.2135   20.3054 C   0  0  0  0  0  0
  -21.6855   -6.0735   22.5285 C   0  0  0  0  0  0
  -21.4002   -6.5637   23.8217 C   0  0  0  0  0  0
  -21.3662   -5.6791   24.9180 C   0  0  0  0  0  0
  -21.6054   -4.3057   24.7224 C   0  0  0  0  0  0
  -21.8821   -3.8148   23.4347 C   0  0  0  0  0  0
  -21.9188   -4.6962   22.3405 C   0  0  0  0  0  0
  -22.7848  -13.5232   21.1859 C   0  0  0  0  0  0
  -22.1662   -4.2142   21.0982 F   0  0  0  0  0  0
  -21.5638   -3.4540   25.7740 F   0  0  0  0  0  0
  -30.0223  -13.3455   20.4281 N   0  0  0  0  0  0
  -26.2978  -12.9373   20.3301 N   0  0  0  0  0  0
  -25.9315  -11.6519   20.5741 N   0  0  0  0  0  0
  -22.0484  -12.8231   22.0414 N   0  0  0  0  0  0
  -25.4264  -15.1900   20.4071 N   0  0  0  0  0  0
  -31.8998  -14.5514   20.1213 O   0  0  0  0  0  0
  -21.6651   -6.8879   21.4248 O   0  0  0  0  0  0
  -22.3537  -14.5533   20.6703 O   0  0  0  0  0  0
  -24.6151  -31.8665   23.2092 C   0  0  0  0  0  0
  -25.9036  -32.4813   23.8402 C   0  0  1  0  0  0
  -27.2287  -27.4217   20.0948 C   0  0  0  0  0  0
  -25.5881  -33.8616   24.2320 N   0  0  0  0  0  0
  -23.4056  -30.4921   21.5469 C   0  0  2  0  0  0
  -24.8542  -28.9562   20.1120 C   0  0  0  0  0  0
  -22.7413  -29.4667   22.4938 C   0  0  0  0  0  0
  -18.0278  -28.1397   22.8486 C   0  0  0  0  0  0
  -24.1481  -36.7313   23.2640 C   0  0  0  0  0  0
  -25.9367  -30.8281   21.3660 C   0  0  0  0  0  0
  -26.0151  -29.4621   20.7119 C   0  0  0  0  0  0
  -27.2096  -28.7009   20.7052 C   0  0  0  0  0  0
  -26.0569  -26.9368   19.4849 C   0  0  0  0  0  0
  -24.8690  -27.6922   19.4968 C   0  0  0  0  0  0
  -23.6178  -29.8262   20.1611 C   0  0  0  0  0  0
  -25.4100  -36.3108   24.0347 C   0  0  1  0  0  0
  -20.5870  -28.3686   23.1298 C   0  0  2  0  0  0
  -20.6767  -26.9416   22.5417 C   0  0  0  0  0  0
  -19.5753  -26.6394   21.5208 C   0  0  0  0  0  0
  -18.1927  -26.7944   22.1613 C   0  0  0  0  0  0
  -19.1529  -28.8853   23.2897 C   0  0  0  0  0  0
  -18.9462  -30.1451   23.8915 C   0  0  0  0  0  0
  -17.6473  -30.6600   24.0569 C   0  0  0  0  0  0
  -25.9026  -34.9474   23.5126 C   0  0  0  0  0  0
  -16.5360  -29.9112   23.6324 C   0  0  0  0  0  0
  -16.7269  -28.6527   23.0340 C   0  0  0  0  0  0
  -26.4462  -31.6610   25.0741 C   0  0  0  0  0  0
  -25.3735  -31.3758   26.1508 C   0  0  0  0  0  0
  -27.0299  -30.3047   24.6144 C   0  0  0  0  0  0
  -27.6053  -32.4325   25.7485 C   0  0  0  0  0  0
  -27.5587  -37.1803   24.8457 C   0  0  0  0  0  0
  -21.4135  -29.3052   22.3688 N   0  0  0  0  0  0
  -26.4279  -37.3799   23.9428 N   0  0  0  0  0  0
  -24.6709  -31.0768   22.0991 N   0  0  0  0  0  0
  -23.4181  -28.8192   23.2975 O   0  0  0  0  0  0
  -28.3369  -26.6041   20.0749 O   0  0  0  0  0  0
  -26.5586  -34.8924   22.4685 O   0  0  0  0  0  0
  -23.5340  -32.1427   23.7470 O   0  0  0  0  0  0
  -29.0469  -18.8923   20.8099 C   0  0  0  0  0  0
  -31.3481  -19.2257   21.4751 C   0  0  0  0  0  0
  -28.8198  -20.2966   20.9139 C   0  0  0  0  0  0
  -31.1190  -20.6078   21.6031 C   0  0  0  0  0  0
  -30.3284  -18.3421   21.0640 C   0  0  0  0  0  0
  -29.8580  -21.1757   21.3185 C   0  0  0  0  0  0
  -28.9100  -24.8050   21.6364 C   0  0  0  0  0  0
  -30.7201  -16.9153   20.8989 C   0  0  0  0  0  0
  -28.7297  -26.1055   21.2912 C   0  0  0  0  0  0
  -30.0057  -15.7581   20.8349 C   0  0  0  0  0  0
  -29.3971  -24.4281   23.0113 C   0  0  0  0  0  0
  -30.0387  -23.0496   22.8579 C   0  0  0  0  0  0
  -28.7958  -23.4998   20.8362 C   0  0  1  0  0  0
  -29.0955  -23.6390   19.3371 C   0  0  0  0  0  0
  -29.7117  -22.5722   21.5178 N   0  0  0  0  0  0
  -31.4556  -12.3670   19.1509 H   0  0  0  0  0  0
  -30.2804  -11.3171   19.8802 H   0  0  0  0  0  0
  -29.7442  -11.7429   17.4576 H   0  0  0  0  0  0
  -29.6677  -13.4624   17.7590 H   0  0  0  0  0  0
  -27.8371  -11.2968   18.8472 H   0  0  0  0  0  0
  -27.3673  -12.5971   17.7841 H   0  0  0  0  0  0
  -27.6756  -14.2549   19.5231 H   0  0  0  0  0  0
  -28.6742  -12.0554   21.3956 H   0  0  0  0  0  0
  -28.4647  -13.7265   21.8287 H   0  0  0  0  0  0
  -25.2759   -9.5709   22.4740 H   0  0  0  0  0  0
  -24.0033   -7.4634   22.7447 H   0  0  0  0  0  0
  -21.0847   -8.8766   19.8945 H   0  0  0  0  0  0
  -22.3686  -10.9671   19.6168 H   0  0  0  0  0  0
  -21.1989   -7.6142   23.9724 H   0  0  0  0  0  0
  -21.1481   -6.0514   25.9086 H   0  0  0  0  0  0
  -22.0595   -2.7608   23.2843 H   0  0  0  0  0  0
  -22.4093  -11.9915   22.4841 H   0  0  0  0  0  0
  -21.1093  -13.1255   22.2578 H   0  0  0  0  0  0
  -24.6595  -15.8454   20.5171 H   0  0  0  0  0  0
  -26.2796  -15.6283   20.0837 H   0  0  0  0  0  0
  -26.7108  -32.5522   23.1174 H   0  0  0  0  0  0
  -25.0035  -33.9779   25.0466 H   0  0  0  0  0  0
  -22.6965  -31.3104   21.4057 H   0  0  0  0  0  0
  -23.3745  -35.9643   23.3304 H   0  0  0  0  0  0
  -24.3574  -36.8915   22.2052 H   0  0  0  0  0  0
  -23.7234  -37.6523   23.6642 H   0  0  0  0  0  0
  -26.0540  -31.5953   20.5989 H   0  0  0  0  0  0
  -26.8212  -30.8769   21.9894 H   0  0  0  0  0  0
  -28.1068  -29.0872   21.1684 H   0  0  0  0  0  0
  -26.0638  -25.9631   19.0154 H   0  0  0  0  0  0
  -23.9756  -27.2979   19.0327 H   0  0  0  0  0  0
  -23.7334  -30.6029   19.4043 H   0  0  0  0  0  0
  -22.7407  -29.2512   19.8588 H   0  0  0  0  0  0
  -25.1279  -36.1965   25.0843 H   0  0  0  0  0  0
  -20.9978  -28.3266   24.1412 H   0  0  0  0  0  0
  -20.5644  -26.2305   23.3615 H   0  0  0  0  0  0
  -21.6643  -26.7444   22.1226 H   0  0  0  0  0  0
  -19.6912  -25.6300   21.1242 H   0  0  0  0  0  0
  -19.6705  -27.3198   20.6735 H   0  0  0  0  0  0
  -17.4204  -26.6692   21.4012 H   0  0  0  0  0  0
  -18.0326  -26.0089   22.9007 H   0  0  0  0  0  0
  -19.7948  -30.7247   24.2309 H   0  0  0  0  0  0
  -17.5041  -31.6284   24.5173 H   0  0  0  0  0  0
  -15.5365  -30.3027   23.7647 H   0  0  0  0  0  0
  -15.8664  -28.0861   22.7041 H   0  0  0  0  0  0
  -24.5846  -30.7174   25.7860 H   0  0  0  0  0  0
  -24.9000  -32.2941   26.4995 H   0  0  0  0  0  0
  -25.8080  -30.8893   27.0250 H   0  0  0  0  0  0
  -26.2867  -29.6805   24.1175 H   0  0  0  0  0  0
  -27.4039  -29.7292   25.4621 H   0  0  0  0  0  0
  -27.8703  -30.4372   23.9328 H   0  0  0  0  0  0
  -27.2693  -33.3614   26.2109 H   0  0  0  0  0  0
  -28.3826  -32.6911   25.0281 H   0  0  0  0  0  0
  -28.0762  -31.8422   26.5358 H   0  0  0  0  0  0
  -28.2595  -38.0109   24.7518 H   0  0  0  0  0  0
  -28.1084  -36.2642   24.6245 H   0  0  0  0  0  0
  -27.2314  -37.1410   25.8858 H   0  0  0  0  0  0
  -20.9280  -29.8811   21.6951 H   0  0  0  0  0  0
  -26.0169  -38.2872   24.1449 H   0  0  0  0  0  0
  -28.2393  -18.2460   20.4978 H   0  0  0  0  0  0
  -32.3396  -18.8508   21.6879 H   0  0  0  0  0  0
  -27.8336  -20.6848   20.7030 H   0  0  0  0  0  0
  -31.9411  -21.2374   21.9134 H   0  0  0  0  0  0
  -31.7898  -16.8254   20.7659 H   0  0  0  0  0  0
  -28.8941  -26.9012   22.0043 H   0  0  0  0  0  0
  -28.9366  -15.7719   20.9808 H   0  0  0  0  0  0
  -28.5405  -24.3721   23.6841 H   0  0  0  0  0  0
  -30.0958  -25.1644   23.4120 H   0  0  0  0  0  0
  -29.6729  -22.3657   23.6259 H   0  0  0  0  0  0
  -31.1205  -23.1242   22.9710 H   0  0  0  0  0  0
  -27.7809  -23.1208   20.9643 H   0  0  0  0  0  0
  -30.0702  -24.0968   19.1639 H   0  0  0  0  0  0
  -28.3455  -24.2590   18.8451 H   0  0  0  0  0  0
  -29.0890  -22.6688   18.8388 H   0  0  0  0  0  0
  1 25  1  0  0  0
  1 30  2  0  0  0
  1 80  1  0  0  0
  2  3  1  0  0  0
  2 25  1  0  0  0
  2 86  1  0  0  0
  2 87  1  0  0  0
  3  4  1  0  0  0
  3 88  1  0  0  0
  3 89  1  0  0  0
  4  5  1  0  0  0
  4 90  1  0  0  0
  4 91  1  0  0  0
  5  6  1  0  0  0
  5 26  1  0  0  0
  5 92  1  0  0  0
  6 25  1  0  0  0
  6 93  1  0  0  0
  6 94  1  0  0  0
  7  8  2  0  0  0
  7 26  1  0  0  0
  7 29  1  0  0  0
  8  9  1  0  0  0
  8 22  1  0  0  0
  9 10  1  0  0  0
  9 27  2  0  0  0
 10 11  2  0  0  0
 10 15  1  0  0  0
 11 12  1  0  0  0
 11 95  1  0  0  0
 12 13  2  0  0  0
 12 96  1  0  0  0
 13 14  1  0  0  0
 13 31  1  0  0  0
 14 15  2  0  0  0
 14 97  1  0  0  0
 15 98  1  0  0  0
 16 17  2  0  0  0
 16 21  1  0  0  0
 16 31  1  0  0  0
 17 18  1  0  0  0
 17 99  1  0  0  0
 18 19  2  0  0  0
 18100  1  0  0  0
 19 20  1  0  0  0
 19 24  1  0  0  0
 20 21  2  0  0  0
 20101  1  0  0  0
 21 23  1  0  0  0
 22 28  1  0  0  0
 22 32  2  0  0  0
 26 27  1  0  0  0
 28102  1  0  0  0
 28103  1  0  0  0
 29104  1  0  0  0
 29105  1  0  0  0
 33 34  1  0  0  0
 33 66  1  0  0  0
 33 70  2  0  0  0
 34 36  1  0  0  0
 34 59  1  0  0  0
 34106  1  0  0  0
 35 44  2  0  0  0
 35 45  1  0  0  0
 35 68  1  0  0  0
 36 56  1  0  0  0
 36107  1  0  0  0
 37 39  1  0  0  0
 37 47  1  0  0  0
 37 66  1  0  0  0
 37108  1  0  0  0
 38 43  2  0  0  0
 38 46  1  0  0  0
 38 47  1  0  0  0
 39 64  1  0  0  0
 39 67  2  0  0  0
 40 52  1  0  0  0
 40 53  2  0  0  0
 40 58  1  0  0  0
 41109  1  0  0  0
 41110  1  0  0  0
 41111  1  0  0  0
 41 48  1  0  0  0
 42 43  1  0  0  0
 42 66  1  0  0  0
 42112  1  0  0  0
 42113  1  0  0  0
 43 44  1  0  0  0
 44114  1  0  0  0
 45 46  2  0  0  0
 45115  1  0  0  0
 46116  1  0  0  0
 47117  1  0  0  0
 47118  1  0  0  0
 48 56  1  0  0  0
 48 65  1  0  0  0
 48119  1  0  0  0
 49 50  1  0  0  0
 49 53  1  0  0  0
 49 64  1  0  0  0
 49120  1  0  0  0
 50 51  1  0  0  0
 50121  1  0  0  0
 50122  1  0  0  0
 51 52  1  0  0  0
 51123  1  0  0  0
 51124  1  0  0  0
 52125  1  0  0  0
 52126  1  0  0  0
 53 54  1  0  0  0
 54 55  2  0  0  0
 54127  1  0  0  0
 55 57  1  0  0  0
 55128  1  0  0  0
 56 69  2  0  0  0
 57 58  2  0  0  0
 57129  1  0  0  0
 58130  1  0  0  0
 59 60  1  0  0  0
 59 61  1  0  0  0
 59 62  1  0  0  0
 60131  1  0  0  0
 60132  1  0  0  0
 60133  1  0  0  0
 61134  1  0  0  0
 61135  1  0  0  0
 61136  1  0  0  0
 62137  1  0  0  0
 62138  1  0  0  0
 62139  1  0  0  0
 63 65  1  0  0  0
 63140  1  0  0  0
 63141  1  0  0  0
 63142  1  0  0  0
 64143  1  0  0  0
 65144  1  0  0  0
 68 79  1  0  0  0
 71 73  2  0  0  0
 71 75  1  0  0  0
 71145  1  0  0  0
 72 74  1  0  0  0
 72 75  2  0  0  0
 72146  1  0  0  0
 73 76  1  0  0  0
 73147  1  0  0  0
 74 76  2  0  0  0
 74148  1  0  0  0
 75 78  1  0  0  0
 76 85  1  0  0  0
 77 79  2  0  0  0
 77 81  1  0  0  0
 77 83  1  0  0  0
 78 80  2  0  0  0
 78149  1  0  0  0
 79150  1  0  0  0
 80151  1  0  0  0
 81 82  1  0  0  0
 81152  1  0  0  0
 81153  1  0  0  0
 82 85  1  0  0  0
 82154  1  0  0  0
 82155  1  0  0  0
 83 84  1  0  0  0
 83 85  1  0  0  0
 83156  1  0  0  0
 84157  1  0  0  0
 84158  1  0  0  0
 84159  1  0  0  0
M  ISO  4   1 100  68 101  79 101  80 100
M  END
> <chiral flag>
0

> <version>
0

> <s_m_source_file>
/data/baiqing/PycharmProjects/Reinvent-master-3.2/result/LINK_invent/BTK/process_docking_weight1_custom_product_contain_oxygen_bond_distance_aromatic_linkinvent_7_9_3/rearranged_h_0121.sdf

> <i_m_source_file_index>
95

> <r_mmod_Potential_Energy-OPLS-2005>
48.5595207214355

> <r_mmod_Stretch_Energy-OPLS-2005>
41.9399375915527

> <r_mmod_Bend_Energy-OPLS-2005>
167.118850708008

> <r_mmod_Torsional_Energy-OPLS-2005>
228.222885131836

> <r_mmod_Improper_Torsional_Energy-OPLS-2005>
7.2500205039978

> <r_mmod_Van_der_Waal_Energy-OPLS-2005>
146.802551269531

> <r_mmod_Electrostatic_Energy-OPLS-2005>
-364.758331298828

> <r_mmod_Solvation_Energy-OPLS-2005>
-201.320220947266

> <b_mmod_Minimization_Converged-OPLS-2005>
0

> <r_mmod_RMS_Derivative-OPLS-2005>
1.86525499820709

$$$$
95
                    3D
 Structure written by MMmdl.
165173  0  0  1  0            999 V2000
  -30.6711  -14.4500   20.5013 C   0  0  0  0  0  0
  -30.4108  -12.2672   19.4360 C   0  0  0  0  0  0
  -29.4950  -12.5103   18.2152 C   0  0  0  0  0  0
  -28.0097  -12.3740   18.6108 C   0  0  0  0  0  0
  -27.6493  -13.2025   19.8746 C   0  0  2  0  0  0
  -28.6894  -12.9730   20.9949 C   0  0  0  0  0  0
  -25.2501  -13.8106   20.5752 C   0  0  0  0  0  0
  -24.1751  -13.0394   20.9186 C   0  0  0  0  0  0
  -24.6320  -11.6867   20.8680 C   0  0  0  0  0  0
  -23.9019  -10.4264   21.0360 C   0  0  0  0  0  0
  -24.3599   -9.4187   21.9131 C   0  0  0  0  0  0
  -23.6265   -8.2227   22.0737 C   0  0  0  0  0  0
  -22.4251   -8.0254   21.3531 C   0  0  0  0  0  0
  -21.9881   -9.0214   20.4631 C   0  0  0  0  0  0
  -22.7199  -10.2090   20.3009 C   0  0  0  0  0  0
  -21.6827   -6.0738   22.5264 C   0  0  0  0  0  0
  -21.4022   -6.5643   23.8206 C   0  0  0  0  0  0
  -21.3648   -5.6788   24.9165 C   0  0  0  0  0  0
  -21.6030   -4.3052   24.7211 C   0  0  0  0  0  0
  -21.8812   -3.8149   23.4334 C   0  0  0  0  0  0
  -21.9196   -4.6973   22.3399 C   0  0  0  0  0  0
  -22.7794  -13.5223   21.1867 C   0  0  0  0  0  0
  -22.1659   -4.2165   21.0976 F   0  0  0  0  0  0
  -21.5625   -3.4537   25.7726 F   0  0  0  0  0  0
  -30.0325  -13.2520   20.4590 N   0  0  0  0  0  0
  -26.2910  -12.9291   20.3305 N   0  0  0  0  0  0
  -25.9221  -11.6456   20.5674 N   0  0  0  0  0  0
  -22.0450  -12.8209   22.0440 N   0  0  0  0  0  0
  -25.4164  -15.1852   20.4453 N   0  0  0  0  0  0
  -31.8415  -14.5980   20.1398 O   0  0  0  0  0  0
  -21.6611   -6.8863   21.4225 O   0  0  0  0  0  0
  -22.3476  -14.5535   20.6728 O   0  0  0  0  0  0
  -24.6112  -31.8683   23.2042 C   0  0  0  0  0  0
  -25.8988  -32.4810   23.8382 C   0  0  1  0  0  0
  -27.2519  -27.4281   20.1051 C   0  0  0  0  0  0
  -25.5872  -33.8622   24.2351 N   0  0  0  0  0  0
  -23.4035  -30.4849   21.5469 C   0  0  2  0  0  0
  -24.8520  -28.9367   20.1265 C   0  0  0  0  0  0
  -22.7404  -29.4633   22.4997 C   0  0  0  0  0  0
  -18.0274  -28.1351   22.8494 C   0  0  0  0  0  0
  -24.1510  -36.7294   23.2631 C   0  0  0  0  0  0
  -25.9336  -30.8247   21.3638 C   0  0  0  0  0  0
  -26.0091  -29.4579   20.7139 C   0  0  0  0  0  0
  -27.2072  -28.7130   20.6924 C   0  0  0  0  0  0
  -26.0703  -26.9115   19.5221 C   0  0  0  0  0  0
  -24.8759  -27.6619   19.5305 C   0  0  0  0  0  0
  -23.6119  -29.8011   20.1681 C   0  0  0  0  0  0
  -25.4123  -36.3128   24.0361 C   0  0  1  0  0  0
  -20.5867  -28.3591   23.1298 C   0  0  2  0  0  0
  -20.6737  -26.9342   22.5319 C   0  0  0  0  0  0
  -19.5690  -26.6310   21.5161 C   0  0  0  0  0  0
  -18.1911  -26.7890   22.1625 C   0  0  0  0  0  0
  -19.1528  -28.8787   23.2922 C   0  0  0  0  0  0
  -18.9443  -30.1401   23.8930 C   0  0  0  0  0  0
  -17.6455  -30.6554   24.0572 C   0  0  0  0  0  0
  -25.9027  -34.9477   23.5162 C   0  0  0  0  0  0
  -16.5340  -29.9057   23.6341 C   0  0  0  0  0  0
  -16.7272  -28.6470   23.0349 C   0  0  0  0  0  0
  -26.4389  -31.6530   25.0702 C   0  0  0  0  0  0
  -25.3634  -31.3575   26.1447 C   0  0  0  0  0  0
  -27.0228  -30.2992   24.6013 C   0  0  0  0  0  0
  -27.5960  -32.4200   25.7501 C   0  0  0  0  0  0
  -27.5606  -37.1797   24.8482 C   0  0  0  0  0  0
  -21.4129  -29.3010   22.3742 N   0  0  0  0  0  0
  -26.4336  -37.3798   23.9409 N   0  0  0  0  0  0
  -24.6677  -31.0759   22.0945 N   0  0  0  0  0  0
  -23.4164  -28.8180   23.3049 O   0  0  0  0  0  0
  -28.4665  -26.7762   20.0819 O   0  0  0  0  0  0
  -26.5626  -34.8899   22.4734 O   0  0  0  0  0  0
  -23.5303  -32.1398   23.7435 O   0  0  0  0  0  0
  -29.1408  -18.7716   20.6418 C   0  0  0  0  0  0
  -27.2679  -20.0151   19.7506 C   0  0  0  0  0  0
  -28.8726  -17.7170   19.7444 C   0  0  0  0  0  0
  -26.9913  -18.9846   18.8312 C   0  0  0  0  0  0
  -27.8282  -17.8325   18.7766 C   0  0  0  0  0  0
  -28.3817  -19.9560   20.6173 C   0  0  0  0  0  0
  -29.7709  -16.5549   19.7570 C   0  0  0  0  0  0
  -29.7808  -15.5881   20.6966 C   0  0  0  0  0  0
  -25.7964  -19.2095   17.9157 C   0  0  0  0  0  0
  -26.3308  -16.3262   17.1718 C   0  0  0  0  0  0
  -27.7194  -16.7484   17.6775 C   0  0  0  0  0  0
  -28.6119  -24.8350   21.5737 C   0  0  0  0  0  0
  -29.1529  -23.3938   21.7175 C   0  0  0  0  0  0
  -28.5434  -25.3451   20.1205 C   0  0  0  0  0  0
  -28.2497  -22.3077   21.1123 C   0  0  0  0  0  0
  -28.7710  -21.0100   21.4197 O   0  0  0  0  0  0
  -31.4639  -12.3339   19.1539 H   0  0  0  0  0  0
  -30.2717  -11.2552   19.8179 H   0  0  0  0  0  0
  -29.7357  -11.8057   17.4177 H   0  0  0  0  0  0
  -29.6729  -13.5090   17.8130 H   0  0  0  0  0  0
  -27.8115  -11.3160   18.7894 H   0  0  0  0  0  0
  -27.3665  -12.6681   17.7801 H   0  0  0  0  0  0
  -27.6781  -14.2516   19.5895 H   0  0  0  0  0  0
  -28.6436  -11.9405   21.3371 H   0  0  0  0  0  0
  -28.4611  -13.5726   21.8758 H   0  0  0  0  0  0
  -25.2755   -9.5682   22.4679 H   0  0  0  0  0  0
  -23.9964   -7.4670   22.7501 H   0  0  0  0  0  0
  -21.0786   -8.8756   19.8969 H   0  0  0  0  0  0
  -22.3651  -10.9631   19.6121 H   0  0  0  0  0  0
  -21.2010   -7.6151   23.9725 H   0  0  0  0  0  0
  -21.1458   -6.0517   25.9070 H   0  0  0  0  0  0
  -22.0594   -2.7609   23.2832 H   0  0  0  0  0  0
  -22.4137  -11.9921   22.4842 H   0  0  0  0  0  0
  -21.1054  -13.1171   22.2645 H   0  0  0  0  0  0
  -24.6419  -15.8251   20.5921 H   0  0  0  0  0  0
  -26.2646  -15.6483   20.1436 H   0  0  0  0  0  0
  -26.7073  -32.5499   23.1144 H   0  0  0  0  0  0
  -25.0025  -33.9779   25.0509 H   0  0  0  0  0  0
  -22.6948  -31.3016   21.4026 H   0  0  0  0  0  0
  -23.3821  -35.9581   23.3335 H   0  0  0  0  0  0
  -24.3584  -36.8854   22.2031 H   0  0  0  0  0  0
  -23.7200  -37.6481   23.6610 H   0  0  0  0  0  0
  -26.0570  -31.5895   20.5961 H   0  0  0  0  0  0
  -26.8197  -30.8723   21.9850 H   0  0  0  0  0  0
  -28.1098  -29.1162   21.1284 H   0  0  0  0  0  0
  -26.0526  -25.9470   19.0392 H   0  0  0  0  0  0
  -23.9836  -27.2540   19.0764 H   0  0  0  0  0  0
  -23.7124  -30.5660   19.3988 H   0  0  0  0  0  0
  -22.7423  -29.2057   19.8819 H   0  0  0  0  0  0
  -25.1303  -36.2045   25.0873 H   0  0  0  0  0  0
  -20.9975  -28.3101   24.1414 H   0  0  0  0  0  0
  -20.5678  -26.2148   23.3459 H   0  0  0  0  0  0
  -21.6574  -26.7395   22.1044 H   0  0  0  0  0  0
  -19.6784  -25.6174   21.1286 H   0  0  0  0  0  0
  -19.6612  -27.3036   20.6629 H   0  0  0  0  0  0
  -17.4120  -26.6587   21.4104 H   0  0  0  0  0  0
  -18.0415  -26.0058   22.9068 H   0  0  0  0  0  0
  -19.7923  -30.7218   24.2305 H   0  0  0  0  0  0
  -17.5007  -31.6225   24.5191 H   0  0  0  0  0  0
  -15.5329  -30.2938   23.7683 H   0  0  0  0  0  0
  -15.8681  -28.0790   22.7050 H   0  0  0  0  0  0
  -24.5727  -30.7051   25.7722 H   0  0  0  0  0  0
  -24.8938  -32.2740   26.5051 H   0  0  0  0  0  0
  -25.7947  -30.8554   27.0122 H   0  0  0  0  0  0
  -26.2768  -29.6813   24.0994 H   0  0  0  0  0  0
  -27.3978  -29.7142   25.4432 H   0  0  0  0  0  0
  -27.8620  -30.4376   23.9181 H   0  0  0  0  0  0
  -27.2610  -33.3497   26.2107 H   0  0  0  0  0  0
  -28.3778  -32.6713   25.0312 H   0  0  0  0  0  0
  -28.0568  -31.8243   26.5397 H   0  0  0  0  0  0
  -28.2672  -38.0064   24.7583 H   0  0  0  0  0  0
  -28.1094  -36.2613   24.6332 H   0  0  0  0  0  0
  -27.2327  -37.1454   25.8887 H   0  0  0  0  0  0
  -20.9276  -29.8800   21.7039 H   0  0  0  0  0  0
  -26.0269  -38.2895   24.1395 H   0  0  0  0  0  0
  -29.9774  -18.6899   21.3266 H   0  0  0  0  0  0
  -26.6217  -20.8804   19.7570 H   0  0  0  0  0  0
  -30.4525  -16.4892   18.9173 H   0  0  0  0  0  0
  -29.1230  -15.6474   21.5506 H   0  0  0  0  0  0
  -25.2983  -20.1576   18.1255 H   0  0  0  0  0  0
  -25.0393  -18.4411   18.0755 H   0  0  0  0  0  0
  -26.0980  -19.2252   16.8672 H   0  0  0  0  0  0
  -26.3980  -15.3780   16.6376 H   0  0  0  0  0  0
  -25.9092  -17.0376   16.4645 H   0  0  0  0  0  0
  -25.6219  -16.1896   17.9845 H   0  0  0  0  0  0
  -28.1933  -15.8273   18.0126 H   0  0  0  0  0  0
  -28.3140  -17.0746   16.8233 H   0  0  0  0  0  0
  -29.2817  -25.4903   22.1332 H   0  0  0  0  0  0
  -27.6335  -24.9292   22.0515 H   0  0  0  0  0  0
  -29.2887  -23.1856   22.7786 H   0  0  0  0  0  0
  -30.1445  -23.3271   21.2662 H   0  0  0  0  0  0
  -27.7587  -24.8376   19.5666 H   0  0  0  0  0  0
  -29.4706  -25.0719   19.6151 H   0  0  0  0  0  0
  -28.2175  -22.4669   20.0317 H   0  0  0  0  0  0
  -27.2355  -22.3962   21.5042 H   0  0  0  0  0  0
  1 25  1  0  0  0
  1 30  2  0  0  0
  1 78  1  0  0  0
  2  3  1  0  0  0
  2 25  1  0  0  0
  2 87  1  0  0  0
  2 88  1  0  0  0
  3  4  1  0  0  0
  3 89  1  0  0  0
  3 90  1  0  0  0
  4  5  1  0  0  0
  4 91  1  0  0  0
  4 92  1  0  0  0
  5  6  1  0  0  0
  5 26  1  0  0  0
  5 93  1  0  0  0
  6 25  1  0  0  0
  6 94  1  0  0  0
  6 95  1  0  0  0
  7  8  2  0  0  0
  7 26  1  0  0  0
  7 29  1  0  0  0
  8  9  1  0  0  0
  8 22  1  0  0  0
  9 10  1  0  0  0
  9 27  2  0  0  0
 10 11  2  0  0  0
 10 15  1  0  0  0
 11 12  1  0  0  0
 11 96  1  0  0  0
 12 13  2  0  0  0
 12 97  1  0  0  0
 13 14  1  0  0  0
 13 31  1  0  0  0
 14 15  2  0  0  0
 14 98  1  0  0  0
 15 99  1  0  0  0
 16 17  2  0  0  0
 16 21  1  0  0  0
 16 31  1  0  0  0
 17 18  1  0  0  0
 17100  1  0  0  0
 18 19  2  0  0  0
 18101  1  0  0  0
 19 20  1  0  0  0
 19 24  1  0  0  0
 20 21  2  0  0  0
 20102  1  0  0  0
 21 23  1  0  0  0
 22 28  1  0  0  0
 22 32  2  0  0  0
 26 27  1  0  0  0
 28103  1  0  0  0
 28104  1  0  0  0
 29105  1  0  0  0
 29106  1  0  0  0
 33 34  1  0  0  0
 33 66  1  0  0  0
 33 70  2  0  0  0
 34 36  1  0  0  0
 34 59  1  0  0  0
 34107  1  0  0  0
 35 44  2  0  0  0
 35 45  1  0  0  0
 35 68  1  0  0  0
 36 56  1  0  0  0
 36108  1  0  0  0
 37 39  1  0  0  0
 37 47  1  0  0  0
 37 66  1  0  0  0
 37109  1  0  0  0
 38 43  2  0  0  0
 38 46  1  0  0  0
 38 47  1  0  0  0
 39 64  1  0  0  0
 39 67  2  0  0  0
 40 52  1  0  0  0
 40 53  2  0  0  0
 40 58  1  0  0  0
 41110  1  0  0  0
 41111  1  0  0  0
 41112  1  0  0  0
 41 48  1  0  0  0
 42 43  1  0  0  0
 42 66  1  0  0  0
 42113  1  0  0  0
 42114  1  0  0  0
 43 44  1  0  0  0
 44115  1  0  0  0
 45 46  2  0  0  0
 45116  1  0  0  0
 46117  1  0  0  0
 47118  1  0  0  0
 47119  1  0  0  0
 48 56  1  0  0  0
 48 65  1  0  0  0
 48120  1  0  0  0
 49 50  1  0  0  0
 49 53  1  0  0  0
 49 64  1  0  0  0
 49121  1  0  0  0
 50 51  1  0  0  0
 50122  1  0  0  0
 50123  1  0  0  0
 51 52  1  0  0  0
 51124  1  0  0  0
 51125  1  0  0  0
 52126  1  0  0  0
 52127  1  0  0  0
 53 54  1  0  0  0
 54 55  2  0  0  0
 54128  1  0  0  0
 55 57  1  0  0  0
 55129  1  0  0  0
 56 69  2  0  0  0
 57 58  2  0  0  0
 57130  1  0  0  0
 58131  1  0  0  0
 59 60  1  0  0  0
 59 61  1  0  0  0
 59 62  1  0  0  0
 60132  1  0  0  0
 60133  1  0  0  0
 60134  1  0  0  0
 61135  1  0  0  0
 61136  1  0  0  0
 61137  1  0  0  0
 62138  1  0  0  0
 62139  1  0  0  0
 62140  1  0  0  0
 63 65  1  0  0  0
 63141  1  0  0  0
 63142  1  0  0  0
 63143  1  0  0  0
 64144  1  0  0  0
 65145  1  0  0  0
 68 84  1  0  0  0
 71 73  2  0  0  0
 71 76  1  0  0  0
 71146  1  0  0  0
 72 74  1  0  0  0
 72 76  2  0  0  0
 72147  1  0  0  0
 73 75  1  0  0  0
 73 77  1  0  0  0
 74 75  2  0  0  0
 74 79  1  0  0  0
 75 81  1  0  0  0
 76 86  1  0  0  0
 77 78  2  0  0  0
 77148  1  0  0  0
 78149  1  0  0  0
 79150  1  0  0  0
 79151  1  0  0  0
 79152  1  0  0  0
 80 81  1  0  0  0
 80153  1  0  0  0
 80154  1  0  0  0
 80155  1  0  0  0
 81156  1  0  0  0
 81157  1  0  0  0
 82 83  1  0  0  0
 82 84  1  0  0  0
 82158  1  0  0  0
 82159  1  0  0  0
 83 85  1  0  0  0
 83160  1  0  0  0
 83161  1  0  0  0
 84162  1  0  0  0
 84163  1  0  0  0
 85 86  1  0  0  0
 85164  1  0  0  0
 85165  1  0  0  0
M  ISO  4   1 100  68 101  78 100  84 101
M  END
> <chiral flag>
0

> <version>
0

> <s_m_source_file>
/data/baiqing/PycharmProjects/Reinvent-master-3.2/result/LINK_invent/BTK/process_docking_weight1_custom_product_contain_oxygen_bond_distance_aromatic_linkinvent_7_9_3/rearranged_h_0121.sdf

> <i_m_source_file_index>
96

> <r_mmod_Potential_Energy-OPLS-2005>
31.2405452728271

> <r_mmod_Stretch_Energy-OPLS-2005>
38.849796295166

> <r_mmod_Bend_Energy-OPLS-2005>
114.278999328613

> <r_mmod_Torsional_Energy-OPLS-2005>
240.530960083008

> <r_mmod_Improper_Torsional_Energy-OPLS-2005>
8.20656776428223

> <r_mmod_Van_der_Waal_Energy-OPLS-2005>
160.518814086914

> <r_mmod_Electrostatic_Energy-OPLS-2005>
-358.433227539062

> <r_mmod_Solvation_Energy-OPLS-2005>
-188.088104248047

> <b_mmod_Minimization_Converged-OPLS-2005>
0

> <r_mmod_RMS_Derivative-OPLS-2005>
4.62721920013428

$$$$
96
                    3D
 Structure written by MMmdl.
159167  0  0  1  0            999 V2000
  -30.5981  -14.7796   20.4946 C   0  0  0  0  0  0
  -30.4592  -12.4889   19.4712 C   0  0  0  0  0  0
  -29.5230  -12.5183   18.2383 C   0  0  0  0  0  0
  -28.0460  -12.3201   18.6430 C   0  0  0  0  0  0
  -27.6485  -13.1994   19.8533 C   0  0  2  0  0  0
  -28.7001  -13.1048   20.9849 C   0  0  0  0  0  0
  -25.2596  -13.8107   20.5706 C   0  0  0  0  0  0
  -24.1834  -13.0405   20.9149 C   0  0  0  0  0  0
  -24.6384  -11.6865   20.8722 C   0  0  0  0  0  0
  -23.9048  -10.4268   21.0410 C   0  0  0  0  0  0
  -24.3611   -9.4190   21.9182 C   0  0  0  0  0  0
  -23.6290   -8.2227   22.0759 C   0  0  0  0  0  0
  -22.4269   -8.0280   21.3543 C   0  0  0  0  0  0
  -21.9896   -9.0250   20.4638 C   0  0  0  0  0  0
  -22.7230  -10.2126   20.3048 C   0  0  0  0  0  0
  -21.6846   -6.0739   22.5285 C   0  0  0  0  0  0
  -21.4015   -6.5642   23.8224 C   0  0  0  0  0  0
  -21.3655   -5.6793   24.9180 C   0  0  0  0  0  0
  -21.6038   -4.3061   24.7225 C   0  0  0  0  0  0
  -21.8822   -3.8157   23.4348 C   0  0  0  0  0  0
  -21.9190   -4.6966   22.3401 C   0  0  0  0  0  0
  -22.7858  -13.5209   21.1847 C   0  0  0  0  0  0
  -22.1662   -4.2161   21.0975 F   0  0  0  0  0  0
  -21.5621   -3.4546   25.7733 F   0  0  0  0  0  0
  -29.9944  -13.5286   20.4221 N   0  0  0  0  0  0
  -26.2979  -12.9240   20.3291 N   0  0  0  0  0  0
  -25.9309  -11.6418   20.5743 N   0  0  0  0  0  0
  -22.0508  -12.8212   22.0402 N   0  0  0  0  0  0
  -25.4420  -15.1837   20.4294 N   0  0  0  0  0  0
  -31.7873  -14.8908   20.1707 O   0  0  0  0  0  0
  -21.6640   -6.8888   21.4244 O   0  0  0  0  0  0
  -22.3530  -14.5523   20.6705 O   0  0  0  0  0  0
  -24.6336  -31.8591   23.2013 C   0  0  0  0  0  0
  -25.9156  -32.4767   23.8353 C   0  0  1  0  0  0
  -27.2337  -27.2909   20.1044 C   0  0  0  0  0  0
  -25.5982  -33.8568   24.2275 N   0  0  0  0  0  0
  -23.4264  -30.4820   21.5456 C   0  0  2  0  0  0
  -24.8747  -28.9363   20.1129 C   0  0  0  0  0  0
  -22.7488  -29.4617   22.4936 C   0  0  0  0  0  0
  -18.0272  -28.1377   22.8441 C   0  0  0  0  0  0
  -24.1482  -36.7293   23.2636 C   0  0  0  0  0  0
  -25.9726  -30.7821   21.3742 C   0  0  0  0  0  0
  -26.0485  -29.4065   20.7143 C   0  0  0  0  0  0
  -27.2292  -28.5972   20.6992 C   0  0  0  0  0  0
  -26.0302  -26.8887   19.4747 C   0  0  0  0  0  0
  -24.8707  -27.6829   19.4860 C   0  0  0  0  0  0
  -23.6431  -29.8193   20.1626 C   0  0  0  0  0  0
  -25.4110  -36.3077   24.0331 C   0  0  1  0  0  0
  -20.5872  -28.3700   23.1261 C   0  0  2  0  0  0
  -20.6781  -26.9423   22.5410 C   0  0  0  0  0  0
  -19.5777  -26.6372   21.5201 C   0  0  0  0  0  0
  -18.1929  -26.7907   22.1590 C   0  0  0  0  0  0
  -19.1527  -28.8853   23.2828 C   0  0  0  0  0  0
  -18.9489  -30.1445   23.8865 C   0  0  0  0  0  0
  -17.6502  -30.6583   24.0555 C   0  0  0  0  0  0
  -25.9077  -34.9444   23.5095 C   0  0  0  0  0  0
  -16.5376  -29.9091   23.6325 C   0  0  0  0  0  0
  -16.7262  -28.6505   23.0324 C   0  0  0  0  0  0
  -26.4509  -31.6593   25.0741 C   0  0  0  0  0  0
  -25.3734  -31.3764   26.1481 C   0  0  0  0  0  0
  -27.0355  -30.3015   24.6193 C   0  0  0  0  0  0
  -27.6054  -32.4342   25.7536 C   0  0  0  0  0  0
  -27.5564  -37.1818   24.8463 C   0  0  0  0  0  0
  -21.4193  -29.3066   22.3677 N   0  0  0  0  0  0
  -26.4275  -37.3778   23.9412 N   0  0  0  0  0  0
  -24.6960  -31.0553   22.0996 N   0  0  0  0  0  0
  -23.4199  -28.8116   23.2998 O   0  0  0  0  0  0
  -28.3470  -26.4175   20.1281 O   0  0  0  0  0  0
  -26.5615  -34.8921   22.4644 O   0  0  0  0  0  0
  -23.5484  -32.1427   23.7306 O   0  0  0  0  0  0
  -31.0527  -17.7718   22.1298 C   0  0  0  0  0  0
  -31.3567  -19.0754   22.5738 C   0  0  0  0  0  0
  -30.2713  -17.5479   20.9767 C   0  0  0  0  0  0
  -30.9033  -20.2311   21.8966 C   0  0  0  0  0  0
  -29.8491  -18.7539   20.2579 C   0  0  0  0  0  0
  -30.1180  -20.1128   20.7178 C   0  0  0  0  0  0
  -30.4448  -24.2415   19.6158 C   0  0  0  0  0  0
  -29.7032  -16.1088   20.7751 C   0  0  0  0  0  0
  -29.2461  -23.8862   20.1101 C   0  0  0  0  0  0
  -31.3238  -21.5819   22.4606 C   0  0  0  0  0  0
  -29.0833  -18.6056   18.9535 C   0  0  0  0  0  0
  -28.0786  -24.9457   20.2197 C   0  0  0  0  0  0
  -28.9536  -22.3957   20.5716 C   0  0  0  0  0  0
  -28.4418  -16.0700   20.8765 N   0  0  0  0  0  0
  -29.7380  -21.2760   19.9824 O   0  0  0  0  0  0
  -31.4894  -12.6563   19.1539 H   0  0  0  0  0  0
  -30.4563  -11.5041   19.9421 H   0  0  0  0  0  0
  -29.8180  -11.7544   17.5178 H   0  0  0  0  0  0
  -29.6325  -13.4755   17.7268 H   0  0  0  0  0  0
  -27.8990  -11.2666   18.8867 H   0  0  0  0  0  0
  -27.3928  -12.5332   17.7948 H   0  0  0  0  0  0
  -27.6379  -14.2099   19.4568 H   0  0  0  0  0  0
  -28.7626  -12.0805   21.3565 H   0  0  0  0  0  0
  -28.4231  -13.7047   21.8515 H   0  0  0  0  0  0
  -25.2759   -9.5682   22.4747 H   0  0  0  0  0  0
  -24.0005   -7.4626   22.7486 H   0  0  0  0  0  0
  -21.0829   -8.8772   19.8947 H   0  0  0  0  0  0
  -22.3702  -10.9665   19.6162 H   0  0  0  0  0  0
  -21.2021   -7.6148   23.9730 H   0  0  0  0  0  0
  -21.1464   -6.0522   25.9083 H   0  0  0  0  0  0
  -22.0602   -2.7623   23.2844 H   0  0  0  0  0  0
  -22.4115  -11.9847   22.4758 H   0  0  0  0  0  0
  -21.1128  -13.1251   22.2637 H   0  0  0  0  0  0
  -24.7185  -15.8586   20.6517 H   0  0  0  0  0  0
  -26.3764  -15.5860   20.3838 H   0  0  0  0  0  0
  -26.7229  -32.5426   23.1109 H   0  0  0  0  0  0
  -25.0211  -33.9694   25.0465 H   0  0  0  0  0  0
  -22.7259  -31.3074   21.3998 H   0  0  0  0  0  0
  -23.3738  -35.9627   23.3309 H   0  0  0  0  0  0
  -24.3595  -36.8928   22.2056 H   0  0  0  0  0  0
  -23.7245  -37.6508   23.6663 H   0  0  0  0  0  0
  -26.1002  -31.5462   20.6057 H   0  0  0  0  0  0
  -26.8565  -30.8392   21.9977 H   0  0  0  0  0  0
  -28.1293  -28.9586   21.1750 H   0  0  0  0  0  0
  -25.9470  -25.9510   18.9507 H   0  0  0  0  0  0
  -23.9759  -27.3184   19.0011 H   0  0  0  0  0  0
  -23.7601  -30.6009   19.4118 H   0  0  0  0  0  0
  -22.7634  -29.2515   19.8552 H   0  0  0  0  0  0
  -25.1277  -36.1951   25.0824 H   0  0  0  0  0  0
  -20.9923  -28.3299   24.1407 H   0  0  0  0  0  0
  -20.5730  -26.2297   23.3602 H   0  0  0  0  0  0
  -21.6643  -26.7488   22.1209 H   0  0  0  0  0  0
  -19.6994  -25.6283   21.1263 H   0  0  0  0  0  0
  -19.6759  -27.3140   20.6696 H   0  0  0  0  0  0
  -17.4217  -26.6632   21.3980 H   0  0  0  0  0  0
  -18.0350  -26.0036   22.8978 H   0  0  0  0  0  0
  -19.7987  -30.7211   24.2256 H   0  0  0  0  0  0
  -17.5079  -31.6273   24.5149 H   0  0  0  0  0  0
  -15.5383  -30.3008   23.7661 H   0  0  0  0  0  0
  -15.8630  -28.0835   22.7066 H   0  0  0  0  0  0
  -24.5932  -30.7055   25.7868 H   0  0  0  0  0  0
  -24.8870  -32.2938   26.4838 H   0  0  0  0  0  0
  -25.8080  -30.9065   27.0310 H   0  0  0  0  0  0
  -26.2941  -29.6780   24.1188 H   0  0  0  0  0  0
  -27.4040  -29.7268   25.4705 H   0  0  0  0  0  0
  -27.8803  -30.4313   23.9408 H   0  0  0  0  0  0
  -27.2663  -33.3678   26.2033 H   0  0  0  0  0  0
  -28.3918  -32.6873   25.0407 H   0  0  0  0  0  0
  -28.0630  -31.8519   26.5543 H   0  0  0  0  0  0
  -28.2583  -38.0107   24.7483 H   0  0  0  0  0  0
  -28.1051  -36.2653   24.6298 H   0  0  0  0  0  0
  -27.2286  -37.1460   25.8861 H   0  0  0  0  0  0
  -20.9361  -29.8798   21.6900 H   0  0  0  0  0  0
  -26.0167  -38.2850   24.1428 H   0  0  0  0  0  0
  -31.3781  -16.9317   22.7279 H   0  0  0  0  0  0
  -31.9408  -19.1828   23.4765 H   0  0  0  0  0  0
  -30.6373  -25.2539   19.2922 H   0  0  0  0  0  0
  -31.2494  -23.5266   19.5225 H   0  0  0  0  0  0
  -32.3203  -21.5355   22.8990 H   0  0  0  0  0  0
  -30.6289  -21.8985   23.2399 H   0  0  0  0  0  0
  -31.3635  -22.3575   21.6978 H   0  0  0  0  0  0
  -29.3784  -17.7009   18.4216 H   0  0  0  0  0  0
  -29.2894  -19.4438   18.2871 H   0  0  0  0  0  0
  -28.0109  -18.5698   19.1420 H   0  0  0  0  0  0
  -27.5597  -24.7720   21.1628 H   0  0  0  0  0  0
  -27.4027  -24.6277   19.4299 H   0  0  0  0  0  0
  -27.9195  -22.1995   20.2932 H   0  0  0  0  0  0
  -28.9623  -22.3654   21.6575 H   0  0  0  0  0  0
  -28.0958  -16.9973   21.0893 H   0  0  0  0  0  0
  1 25  1  0  0  0
  1 30  2  0  0  0
  1 78  1  0  0  0
  2  3  1  0  0  0
  2 25  1  0  0  0
  2 86  1  0  0  0
  2 87  1  0  0  0
  3  4  1  0  0  0
  3 88  1  0  0  0
  3 89  1  0  0  0
  4  5  1  0  0  0
  4 90  1  0  0  0
  4 91  1  0  0  0
  5  6  1  0  0  0
  5 26  1  0  0  0
  5 92  1  0  0  0
  6 25  1  0  0  0
  6 93  1  0  0  0
  6 94  1  0  0  0
  7  8  2  0  0  0
  7 26  1  0  0  0
  7 29  1  0  0  0
  8  9  1  0  0  0
  8 22  1  0  0  0
  9 10  1  0  0  0
  9 27  2  0  0  0
 10 11  2  0  0  0
 10 15  1  0  0  0
 11 12  1  0  0  0
 11 95  1  0  0  0
 12 13  2  0  0  0
 12 96  1  0  0  0
 13 14  1  0  0  0
 13 31  1  0  0  0
 14 15  2  0  0  0
 14 97  1  0  0  0
 15 98  1  0  0  0
 16 17  2  0  0  0
 16 21  1  0  0  0
 16 31  1  0  0  0
 17 18  1  0  0  0
 17 99  1  0  0  0
 18 19  2  0  0  0
 18100  1  0  0  0
 19 20  1  0  0  0
 19 24  1  0  0  0
 20 21  2  0  0  0
 20101  1  0  0  0
 21 23  1  0  0  0
 22 28  1  0  0  0
 22 32  2  0  0  0
 26 27  1  0  0  0
 28102  1  0  0  0
 28103  1  0  0  0
 29104  1  0  0  0
 29105  1  0  0  0
 33 34  1  0  0  0
 33 66  1  0  0  0
 33 70  2  0  0  0
 34 36  1  0  0  0
 34 59  1  0  0  0
 34106  1  0  0  0
 35 44  2  0  0  0
 35 45  1  0  0  0
 35 68  1  0  0  0
 36 56  1  0  0  0
 36107  1  0  0  0
 37 39  1  0  0  0
 37 47  1  0  0  0
 37 66  1  0  0  0
 37108  1  0  0  0
 38 43  2  0  0  0
 38 46  1  0  0  0
 38 47  1  0  0  0
 39 64  1  0  0  0
 39 67  2  0  0  0
 40 52  1  0  0  0
 40 53  2  0  0  0
 40 58  1  0  0  0
 41109  1  0  0  0
 41110  1  0  0  0
 41111  1  0  0  0
 41 48  1  0  0  0
 42 43  1  0  0  0
 42 66  1  0  0  0
 42112  1  0  0  0
 42113  1  0  0  0
 43 44  1  0  0  0
 44114  1  0  0  0
 45 46  2  0  0  0
 45115  1  0  0  0
 46116  1  0  0  0
 47117  1  0  0  0
 47118  1  0  0  0
 48 56  1  0  0  0
 48 65  1  0  0  0
 48119  1  0  0  0
 49 50  1  0  0  0
 49 53  1  0  0  0
 49 64  1  0  0  0
 49120  1  0  0  0
 50 51  1  0  0  0
 50121  1  0  0  0
 50122  1  0  0  0
 51 52  1  0  0  0
 51123  1  0  0  0
 51124  1  0  0  0
 52125  1  0  0  0
 52126  1  0  0  0
 53 54  1  0  0  0
 54 55  2  0  0  0
 54127  1  0  0  0
 55 57  1  0  0  0
 55128  1  0  0  0
 56 69  2  0  0  0
 57 58  2  0  0  0
 57129  1  0  0  0
 58130  1  0  0  0
 59 60  1  0  0  0
 59 61  1  0  0  0
 59 62  1  0  0  0
 60131  1  0  0  0
 60132  1  0  0  0
 60133  1  0  0  0
 61134  1  0  0  0
 61135  1  0  0  0
 61136  1  0  0  0
 62137  1  0  0  0
 62138  1  0  0  0
 62139  1  0  0  0
 63 65  1  0  0  0
 63140  1  0  0  0
 63141  1  0  0  0
 63142  1  0  0  0
 64143  1  0  0  0
 65144  1  0  0  0
 68 82  1  0  0  0
 71 72  2  0  0  0
 71 73  1  0  0  0
 71145  1  0  0  0
 72 74  1  0  0  0
 72146  1  0  0  0
 73 75  2  0  0  0
 73 78  1  0  0  0
 74 76  2  0  0  0
 74 80  1  0  0  0
 75 76  1  0  0  0
 75 81  1  0  0  0
 76 85  1  0  0  0
 77 79  2  0  0  0
 77147  1  0  0  0
 77148  1  0  0  0
 78 84  2  0  0  0
 79 82  1  0  0  0
 79 83  1  0  0  0
 80149  1  0  0  0
 80150  1  0  0  0
 80151  1  0  0  0
 81152  1  0  0  0
 81153  1  0  0  0
 81154  1  0  0  0
 82155  1  0  0  0
 82156  1  0  0  0
 83 85  1  0  0  0
 83157  1  0  0  0
 83158  1  0  0  0
 84159  1  0  0  0
M  ISO  4   1 100  68 101  78 100  82 101
M  END
> <chiral flag>
0

> <version>
0

> <s_m_source_file>
/data/baiqing/PycharmProjects/Reinvent-master-3.2/result/LINK_invent/BTK/process_docking_weight1_custom_product_contain_oxygen_bond_distance_aromatic_linkinvent_7_9_3/rearranged_h_0121.sdf

> <i_m_source_file_index>
97

> <r_mmod_Potential_Energy-OPLS-2005>
345.057922363281

> <r_mmod_Stretch_Energy-OPLS-2005>
138.613037109375

> <r_mmod_Bend_Energy-OPLS-2005>
178.08430480957

> <r_mmod_Torsional_Energy-OPLS-2005>
233.560180664062

> <r_mmod_Improper_Torsional_Energy-OPLS-2005>
7.35530042648315

> <r_mmod_Van_der_Waal_Energy-OPLS-2005>
153.758560180664

> <r_mmod_Electrostatic_Energy-OPLS-2005>
-258.896240234375

> <r_mmod_Solvation_Energy-OPLS-2005>
-188.37336730957

> <b_mmod_Minimization_Converged-OPLS-2005>
0

> <r_mmod_RMS_Derivative-OPLS-2005>
3.87143182754517

$$$$
